data_PCOD9245197
_publ_section_title
;
Structure prediction by ZEFSAII (Michael W. Deem and Ramdas Pophale) SiO2 
 PCOD9245197
Probable space group: P 21/C
;
_chemical_formula_sum "Si O2"
_cell_formula_units_Z 24
_cell_length_a 17.984729
_cell_length_b 5.159897
_cell_length_c 25.719086
_cell_angle_alpha 90.000000
_cell_angle_beta 26.451229
_cell_angle_gamma 90.000000
_cell_volume 1063.128225
_symmetry_space_group_name_H-M "P 21/C"
_symmetry_group_IT_number 14
_symmetry_cell_setting 'monoclinic'
loop_
_space_group_symop_operation_xyz
x,y,z
-x,1/2+y,1/2-z
-x,-y,-z
x,1/2-y,1/2+z
loop_
_atom_site_type_symbol
_atom_site_label
_atom_site_fract_x
_atom_site_fract_y
_atom_site_fract_z
Si Si1 0.028114 0.196741 0.764754
Si Si2 0.975318 0.252812 0.607069
Si Si3 0.787204 0.376921 0.008108
Si Si4 0.206957 0.750665 0.878185
Si Si5 0.230137 0.248806 0.227514
Si Si6 0.588776 0.747256 0.786292
O O1 0.002368 0.406863 0.735661
O O2 0.210428 0.232438 0.677682
O O3 0.893071 0.273880 0.893231
O O4 0.955525 0.239213 0.557249
O O5 0.881368 0.506563 0.684913
O O6 0.859960 0.016861 0.699891
O O7 0.155585 0.176620 0.517317
O O8 0.829638 0.255742 0.037957
O O9 0.596928 0.313446 0.115681
O O10 0.331171 0.512995 0.785663
O O11 0.300587 0.012988 0.804741
O O12 0.392562 0.255949 0.162269
#
# Coordination Sequence:
#
# PCOD9245197 Si02
#       6
#     4   4   4   4   4   4
#     4  11  24  41  60  82 109 150 204 250 281 323
#     4   9  19  34  58  86 116 152 188 224 279 348
#     4  11  22  38  61  88 116 155 195 235 281 340
#     4  10  21  37  57  89 126 154 180 224 287 355
#     4   9  19  39  58  81 116 149 184 239 290 334
#     4  10  22  37  59  90 123 150 180 228 293 356
#
# _framework density 22.574885999999999
#
# number of rings (size 3 to 8) (size 9 to 14) (size 15 to 20)
#    0.000    2.000    0.000    3.500    0.000    8.000 
#    0.000   11.667    0.000    0.000    0.000    0.000 
#    0.000    0.000    0.000    0.000    0.000    0.000 
#
# Total GULP energy -134046.985970 kJ/mol
# GULP energy per Si atom -5585.291082 kJ/mol
# Density = 2.252351 g / cm^3
# Si number density = 22.574886 Si / 1000 Ang^3
#
#
#
# Elastic Constant Matrix: (Units=GPa)
#
#
# Indices 1 2 3 4 5 6 
#
# 1 138.6632 2.6578 25.7750 0.0000 -11.0146 0.0000
# 2 2.6578 122.7711 7.2680 0.0000 -11.0292 0.0000
# 3 25.7750 7.2680 44.4839 0.0000 -10.7917 0.0000
# 4 0.0000 0.0000 0.0000 19.9856 0.0000 10.9255
# 5 -11.0146 -11.0292 -10.7917 0.0000 34.0469 0.0000
# 6 0.0000 0.0000 0.0000 10.9255 0.0000 36.8824
#
#
#
# Elastic Compliance Matrix: (Units=1/GPa)
#
#
# Indices 1 2 3 4 5 6 
#
# 1 0.008134 0.000202 -0.004433 0.000000 0.001292 0.000000
# 2 0.000202 0.008419 -0.000883 0.000000 0.002513 0.000000
# 3 -0.004433 -0.000883 0.026839 0.000000 0.006787 0.000000
# 4 0.000000 0.000000 0.000000 0.059704 0.000000 -0.017686
# 5 0.001292 0.002513 0.006787 0.000000 0.032754 0.000000
# 6 0.000000 0.000000 0.000000 -0.017686 0.000000 0.032352
#
#
# Mechanical properties :
#
#
# Convention : Reuss Voigt Hill
#
# Bulk Modulus (GPa) = 30.15199 41.92444 36.03821
# Shear Modulus (GPa) = 26.38711 36.19748 31.29230
#
# Velocity S-wave (km/s) = 3.42258 4.00864 3.72715
# Velocity P-wave (km/s) = 5.38555 6.32750 5.87543
#
# Compressibility (1/GPa) = 0.03316530
#
# Stress axis : x y z
#
# Youngs Moduli (GPa) = 122.93357 118.78068 37.25867
#
# Poissons Ratio (x) = -0.02404 0.16516
# Poissons Ratio (y) = -0.02488 0.03291
# Poissons Ratio (z) = 0.54495 0.10491
#
# Static dielectric constant tensor:
#      x y z
#    x 1.950390 0.000000 0.007170 
#    y 0.000000 1.893540 0.000000 
#    z 0.007170 0.000000 1.810280 
# 
# From -- ./inp_files/56559.got.cif
#   From: 2010.05.17/outbox.cif.g08.bks.cpg/sg14_29_cif.got.tgz:56559.got - 2010.06.03 17:49:19.
