data_PCOD9245192
_publ_section_title
;
Structure prediction by ZEFSAII (Michael W. Deem and Ramdas Pophale) SiO2 
 PCOD9245192
Probable space group: P 21/C
;
_chemical_formula_sum "Si O2"
_cell_formula_units_Z 32
_cell_length_a 11.551165
_cell_length_b 9.678137
_cell_length_c 20.835441
_cell_angle_alpha 90.000000
_cell_angle_beta 138.796313
_cell_angle_gamma 90.000000
_cell_volume 1534.379847
_symmetry_space_group_name_H-M "P 21/C"
_symmetry_group_IT_number 14
_symmetry_cell_setting 'monoclinic'
loop_
_space_group_symop_operation_xyz
x,y,z
-x,1/2+y,1/2-z
-x,-y,-z
x,1/2-y,1/2+z
loop_
_atom_site_type_symbol
_atom_site_label
_atom_site_fract_x
_atom_site_fract_y
_atom_site_fract_z
Si Si1 0.063898 0.626089 0.983691
Si Si2 0.326987 0.366247 0.213775
Si Si3 0.833427 0.112732 0.610758
Si Si4 0.758818 0.887696 0.184076
Si Si5 0.546137 0.562657 0.234398
Si Si6 0.178393 0.924650 0.054850
Si Si7 0.836664 0.434852 0.601303
Si Si8 0.248119 0.063086 0.308280
O O1 0.875998 0.682440 0.877067
O O2 0.178329 0.580595 0.969711
O O3 0.000000 0.500000 0.000000
O O4 0.152525 0.759666 0.052344
O O5 0.346108 0.422935 0.294502
O O6 0.368066 0.485082 0.179476
O O7 0.441279 0.227883 0.252408
O O8 0.802285 0.275560 0.604674
O O9 0.725052 0.027403 0.617192
O O10 0.036818 0.083696 0.713816
O O11 0.731607 0.969188 0.107015
O O12 0.736322 0.723946 0.166954
O O13 0.675120 0.490437 0.339334
O O14 0.617960 0.532744 0.193330
O O15 0.209941 0.951698 0.992568
O O16 0.000000 0.000000 0.000000
O O17 0.048130 0.458161 0.698018
#
# Coordination Sequence:
#
# PCOD9245192 Si02
#       8
#     4   4   4   4   4   4   4   4
#     4  10  21  37  57  85 115 140 183 235 277 324
#     4  10  22  38  54  81 117 144 185 229 272 336
#     4   8  16  30  49  78 107 134 174 230 269 318
#     4   8  16  31  50  73 105 140 176 226 270 315
#     4  11  22  37  57  82 113 150 182 225 282 332
#     4  11  19  36  57  82 113 145 182 229 280 325
#     4   9  16  30  53  78 105 136 182 228 269 318
#     4   9  16  31  51  77 108 138 178 226 272 320
#
# _framework density 20.855331
#
# number of rings (size 3 to 8) (size 9 to 14) (size 15 to 20)
#    0.000    2.500    2.500    1.500    1.750    2.000 
#    4.500    0.625    0.000    0.750    0.000    0.000 
#    0.000    0.000    0.000    0.000    0.000    0.000 
#
# Total GULP energy -178597.739966 kJ/mol
# GULP energy per Si atom -5581.179374 kJ/mol
# Density = 2.080786 g / cm^3
# Si number density = 20.855331 Si / 1000 Ang^3
#
#
#
# Elastic Constant Matrix: (Units=GPa)
#
#
# Indices 1 2 3 4 5 6 
#
# 1 123.1743 74.9670 35.7393 0.0000 -33.1452 0.0000
# 2 74.9670 76.1493 29.5223 0.0000 -33.0115 0.0000
# 3 35.7393 29.5223 47.4920 0.0000 -4.7546 0.0000
# 4 0.0000 0.0000 0.0000 25.0323 0.0000 -11.4500
# 5 -33.1452 -33.0115 -4.7546 0.0000 35.9697 0.0000
# 6 0.0000 0.0000 0.0000 -11.4500 0.0000 43.4275
#
#
#
# Elastic Compliance Matrix: (Units=1/GPa)
#
#
# Indices 1 2 3 4 5 6 
#
# 1 0.020874 -0.017885 -0.004367 0.000000 0.002244 0.000000
# 2 -0.017885 0.046238 -0.012856 0.000000 0.024256 0.000000
# 3 -0.004367 -0.012856 0.031162 0.000000 -0.011703 0.000000
# 4 0.000000 0.000000 0.000000 0.045427 0.000000 0.011977
# 5 0.002244 0.024256 -0.011703 0.000000 0.050584 0.000000
# 6 0.000000 0.000000 0.000000 0.011977 0.000000 0.026185
#
#
# Mechanical properties :
#
#
# Convention : Reuss Voigt Hill
#
# Bulk Modulus (GPa) = 35.63679 58.58587 47.11133
# Shear Modulus (GPa) = 16.66455 27.99171 22.32813
#
# Velocity S-wave (km/s) = 2.82982 3.66756 3.27558
# Velocity P-wave (km/s) = 5.27275 6.78875 6.07820
#
# Compressibility (1/GPa) = 0.02806089
#
# Stress axis : x y z
#
# Youngs Moduli (GPa) = 47.90536 21.62704 32.09028
#
# Poissons Ratio (x) = 0.38679 0.14012
# Poissons Ratio (y) = 0.85677 0.41255
# Poissons Ratio (z) = 0.20918 0.27804
#
# Static dielectric constant tensor:
#      x y z
#    x 1.782820 0.000000 0.066290 
#    y 0.000000 1.707210 0.000000 
#    z 0.066290 0.000000 1.835590 
# 
# From -- ./inp_files/66863.got.cif
#   From: 2010.05.17/outbox.cif.g08.bks.cpg/sg14_34_cif.got.tgz:66863.got - 2010.06.03 17:49:19.
