data_PCOD9245261
_publ_section_title
;
Structure prediction by ZEFSAII (Michael W. Deem and Ramdas Pophale) SiO2 
 PCOD9245261
Probable space group: P 21/C
;
_chemical_formula_sum "Si O2"
_cell_formula_units_Z 28
_cell_length_a 25.187174
_cell_length_b 9.190773
_cell_length_c 9.554899
_cell_angle_alpha 90.000000
_cell_angle_beta 40.649287
_cell_angle_gamma 90.000000
_cell_volume 1440.865411
_symmetry_space_group_name_H-M "P 21/C"
_symmetry_group_IT_number 14
_symmetry_cell_setting 'monoclinic'
loop_
_space_group_symop_operation_xyz
x,y,z
-x,1/2+y,1/2-z
-x,-y,-z
x,1/2-y,1/2+z
loop_
_atom_site_type_symbol
_atom_site_label
_atom_site_fract_x
_atom_site_fract_y
_atom_site_fract_z
Si Si1 0.750352 0.400370 0.086113
Si Si2 0.936275 0.401815 0.044286
Si Si3 0.936275 0.098185 0.210614
Si Si4 0.249648 0.599629 0.587520
Si Si5 0.384531 0.007717 0.330046
Si Si6 0.615469 0.507715 0.868172
Si Si7 0.495775 0.750000 0.508450
O O1 0.734598 0.371969 0.280804
O O2 0.682118 0.504828 0.158452
O O3 0.842801 0.457386 0.887715
O O4 0.745080 0.249999 0.009840
O O5 0.936914 0.250000 0.126171
O O6 0.842801 0.457386 0.241081
O O7 0.954772 0.386783 0.840456
O O8 0.000000 0.500000 0.000000
O O9 0.000000 0.000000 0.000000
O O10 0.317882 0.495171 0.386924
O O11 0.343225 0.008974 0.563550
O O12 0.445731 0.142823 0.194666
O O13 0.438140 0.860876 0.207774
O O14 0.554267 0.642820 0.977594
O O15 0.561861 0.360873 0.960332
#
# Coordination Sequence:
#
# PCOD9245261 Si02
#       7
#     4   4   4   4   4   4   4
#     4  10  21  37  60  88 119 154 197 241 290 350
#     4  10  21  39  63  91 121 157 197 245 295 355
#     4  10  21  39  63  91 121 157 197 245 295 355
#     4  10  21  37  60  88 119 154 197 241 290 350
#     4  11  22  39  61  86 117 156 198 245 295 347
#     4  11  22  39  61  86 117 156 198 245 295 347
#     4  10  24  38  58  88 118 152 200 246 296 346
#
# _framework density 19.432765
#
# number of rings (size 3 to 8) (size 9 to 14) (size 15 to 20)
#    0.000    1.714    1.429    2.571    0.000    9.143 
#    2.571    0.000    0.000    0.000    0.000    0.000 
#    0.000    0.000    0.000    0.000    0.000    0.000 
#
# Total GULP energy -156255.685953 kJ/mol
# GULP energy per Si atom -5580.560213 kJ/mol
# Density = 1.938854 g / cm^3
# Si number density = 19.432765 Si / 1000 Ang^3
#
#
#
# Elastic Constant Matrix: (Units=GPa)
#
#
# Indices 1 2 3 4 5 6 
#
# 1 135.5172 33.4854 82.1687 0.0000 13.2697 0.0000
# 2 33.4854 70.7803 33.6097 0.0000 -5.4761 0.0000
# 3 82.1687 33.6097 134.9186 0.0000 13.1080 0.0000
# 4 0.0000 0.0000 0.0000 19.0372 0.0000 -7.1952
# 5 13.2697 -5.4761 13.1080 0.0000 33.6619 0.0000
# 6 0.0000 0.0000 0.0000 -7.1952 0.0000 18.8731
#
#
#
# Elastic Compliance Matrix: (Units=1/GPa)
#
#
# Indices 1 2 3 4 5 6 
#
# 1 0.012325 -0.002964 -0.006494 0.000000 -0.002812 0.000000
# 2 -0.002964 0.017366 -0.003023 0.000000 0.005171 0.000000
# 3 -0.006494 -0.003023 0.012388 0.000000 -0.002756 0.000000
# 4 0.000000 0.000000 0.000000 0.061372 0.000000 0.023397
# 5 -0.002812 0.005171 -0.002756 0.000000 0.032730 0.000000
# 6 0.000000 0.000000 0.000000 0.023397 0.000000 0.061905
#
#
# Mechanical properties :
#
#
# Convention : Reuss Voigt Hill
#
# Bulk Modulus (GPa) = 58.42810 71.08264 64.75537
# Shear Modulus (GPa) = 21.85745 27.11126 24.48436
#
# Velocity S-wave (km/s) = 3.35740 3.73920 3.55343
# Velocity P-wave (km/s) = 6.72024 7.43642 7.08738
#
# Compressibility (1/GPa) = 0.01711505
#
# Stress axis : x y z
#
# Youngs Moduli (GPa) = 81.13756 57.58303 80.72365
#
# Poissons Ratio (x) = 0.17070 0.52425
# Poissons Ratio (y) = 0.24052 0.24404
# Poissons Ratio (z) = 0.52694 0.17408
#
# Static dielectric constant tensor:
#      x y z
#    x 1.684890 0.000000 0.000490 
#    y 0.000000 1.673800 0.000000 
#    z 0.000490 0.000000 1.684880 
# 
# From -- ./inp_files/19716.got.cif
#   From: 2010.05.17/outbox.cif.g08.bks.cpg/sg14_10_cif.got.tgz:19716.got - 2010.06.03 17:49:19.
