data_PCOD9245391
_publ_section_title
;
Structure prediction by ZEFSAII (Michael W. Deem and Ramdas Pophale) SiO2 
 PCOD9245391
Probable space group: P 21/C
;
_chemical_formula_sum "Si O2"
_cell_formula_units_Z 28
_cell_length_a 8.333793
_cell_length_b 12.272411
_cell_length_c 12.240330
_cell_angle_alpha 90.000000
_cell_angle_beta 105.315878
_cell_angle_gamma 90.000000
_cell_volume 1207.426962
_symmetry_space_group_name_H-M "P 21/C"
_symmetry_group_IT_number 14
_symmetry_cell_setting 'monoclinic'
loop_
_space_group_symop_operation_xyz
x,y,z
-x,1/2+y,1/2-z
-x,-y,-z
x,1/2-y,1/2+z
loop_
_atom_site_type_symbol
_atom_site_label
_atom_site_fract_x
_atom_site_fract_y
_atom_site_fract_z
Si Si1 0.540110 0.874269 0.843847
Si Si2 0.337118 0.425566 0.304759
Si Si3 0.393862 0.840766 0.293541
Si Si4 0.702201 0.930308 0.653619
Si Si5 0.885487 0.345118 0.434085
Si Si6 0.959556 0.449008 0.669322
Si Si7 0.778285 0.755737 0.035748
O O1 0.478496 0.990929 0.873990
O O2 0.412512 0.777878 0.847783
O O3 0.568860 0.889910 0.719648
O O4 0.710639 0.831738 0.926258
O O5 0.422560 0.375724 0.213992
O O6 0.176020 0.502782 0.271455
O O7 0.283246 0.326723 0.371739
O O8 0.282656 0.827263 0.163576
O O9 0.319284 0.938976 0.351920
O O10 0.696881 0.861830 0.542064
O O11 0.883119 0.902933 0.737642
O O12 0.878555 0.373764 0.560903
O O13 0.966198 0.449177 0.386150
O O14 0.023616 0.252000 0.441293
#
# Coordination Sequence:
#
# PCOD9245391 Si02
#       7
#     4   4   4   4   4   4   4
#     4  11  22  37  58  87 117 153 189 246 285 342
#     4  10  22  34  60  88 114 144 196 239 294 329
#     4  10  22  38  54  87 122 150 189 241 288 349
#     4  10  21  38  57  84 119 155 194 233 294 347
#     4   9  19  33  57  82 115 144 192 239 286 334
#     4   9  18  34  56  84 110 147 190 244 283 334
#     4  11  21  37  60  85 115 159 191 235 290 345
#
# _framework density 23.189807999999999
#
# number of rings (size 3 to 8) (size 9 to 14) (size 15 to 20)
#    0.000    2.000    2.857    0.429   10.000    0.571 
#    0.000    0.000    0.000    0.857    0.000    0.000 
#    0.000    0.000    0.000    0.000    0.000    0.000 
#
# Total GULP energy -156228.004698 kJ/mol
# GULP energy per Si atom -5579.571596 kJ/mol
# Density = 2.313703 g / cm^3
# Si number density = 23.189808 Si / 1000 Ang^3
#
#
#
# Elastic Constant Matrix: (Units=GPa)
#
#
# Indices 1 2 3 4 5 6 
#
# 1 89.0090 10.4584 18.8917 0.0000 -1.2543 0.0000
# 2 10.4584 72.1492 3.6521 0.0000 2.6458 0.0000
# 3 18.8917 3.6521 39.8456 0.0000 0.6979 0.0000
# 4 0.0000 0.0000 0.0000 21.1912 0.0000 0.3804
# 5 -1.2543 2.6458 0.6979 0.0000 18.2871 0.0000
# 6 0.0000 0.0000 0.0000 0.3804 0.0000 34.7349
#
#
#
# Elastic Compliance Matrix: (Units=1/GPa)
#
#
# Indices 1 2 3 4 5 6 
#
# 1 0.012691 -0.001590 -0.005895 0.000000 0.001325 0.000000
# 2 -0.001590 0.014195 -0.000510 0.000000 -0.002143 0.000000
# 3 -0.005895 -0.000510 0.027963 0.000000 -0.001398 0.000000
# 4 0.000000 0.000000 0.000000 0.047199 0.000000 -0.000517
# 5 0.001325 -0.002143 -0.001398 0.000000 0.055138 0.000000
# 6 0.000000 0.000000 0.000000 -0.000517 0.000000 0.028795
#
#
# Mechanical properties :
#
#
# Convention : Reuss Voigt Hill
#
# Bulk Modulus (GPa) = 25.73301 29.66756 27.70028
# Shear Modulus (GPa) = 23.26413 26.04276 24.65344
#
# Velocity S-wave (km/s) = 3.17078 3.35479 3.26408
# Velocity P-wave (km/s) = 4.95236 5.27516 5.11631
#
# Compressibility (1/GPa) = 0.03886060
#
# Stress axis : x y z
#
# Youngs Moduli (GPa) = 78.79327 70.44720 35.76166
#
# Poissons Ratio (x) = 0.11200 0.21081
# Poissons Ratio (y) = 0.12527 0.01823
# Poissons Ratio (z) = 0.46447 0.03591
#
# Static dielectric constant tensor:
#      x y z
#    x 1.881900 0.000000 0.049030 
#    y 0.000000 1.889420 0.000000 
#    z 0.049030 0.000000 1.902100 
# 
# From -- ./inp_files/39661.got.cif
#   From: 2010.05.17/outbox.cif.g08.bks.cpg/sg14_20_cif.got.tgz:39661.got - 2010.06.03 17:49:19.
