data_PCOD9245682
_publ_section_title
;
Structure prediction by ZEFSAII (Michael W. Deem and Ramdas Pophale) SiO2 
 PCOD9245682
Probable space group: P 21/C
;
_chemical_formula_sum "Si O2"
_cell_formula_units_Z 28
_cell_length_a 11.842325
_cell_length_b 7.091912
_cell_length_c 16.242640
_cell_angle_alpha 90.000000
_cell_angle_beta 110.912467
_cell_angle_gamma 90.000000
_cell_volume 1274.273872
_symmetry_space_group_name_H-M "P 21/C"
_symmetry_group_IT_number 14
_symmetry_cell_setting 'monoclinic'
loop_
_space_group_symop_operation_xyz
x,y,z
-x,1/2+y,1/2-z
-x,-y,-z
x,1/2-y,1/2+z
loop_
_atom_site_type_symbol
_atom_site_label
_atom_site_fract_x
_atom_site_fract_y
_atom_site_fract_z
Si Si1 0.838540 0.377424 0.001288
Si Si2 0.356645 0.082058 0.783233
Si Si3 0.074621 0.297529 0.496302
Si Si4 0.905156 0.476797 0.194709
Si Si5 0.613251 0.244265 0.346934
Si Si6 0.219739 0.444556 0.680992
Si Si7 0.849280 0.914716 0.155335
O O1 0.936450 0.275050 0.967742
O O2 0.703099 0.320995 0.942985
O O3 0.877577 0.354269 0.107122
O O4 0.853175 0.600283 0.988907
O O5 0.382726 0.915398 0.724225
O O6 0.478662 0.195605 0.836775
O O7 0.271129 0.241417 0.720535
O O8 0.279468 0.018685 0.843303
O O9 0.885540 0.601747 0.410200
O O10 0.117911 0.429600 0.432282
O O11 0.832786 0.429642 0.258290
O O12 0.860294 0.687630 0.165502
O O13 0.045015 0.487418 0.256751
O O14 0.673828 0.435252 0.329934
#
# Coordination Sequence:
#
# PCOD9245682 Si02
#       7
#     4   4   4   4   4   4   4
#     4  10  21  38  69  98 136 173 212 281 339 385
#     4  11  24  45  65  96 133 171 230 275 317 399
#     4  10  21  41  65 103 138 168 218 279 336 396
#     4  10  22  38  62 102 131 168 217 275 337 391
#     4  12  24  43  71  91 129 185 222 273 333 386
#     4  11  23  42  69  97 130 176 223 268 334 399
#     4  10  23  39  65  96 137 173 214 277 330 391
#
# _framework density 21.973299999999998
#
# number of rings (size 3 to 8) (size 9 to 14) (size 15 to 20)
#    0.000    1.429    2.857    2.571    6.000    3.429 
#    0.000    8.571    0.000    0.000    0.000    0.000 
#    0.000    0.000    0.000    0.000    0.000    0.000 
#
# Total GULP energy -156419.883768 kJ/mol
# GULP energy per Si atom -5586.424420 kJ/mol
# Density = 2.192329 g / cm^3
# Si number density = 21.973300 Si / 1000 Ang^3
#
#
#
# Elastic Constant Matrix: (Units=GPa)
#
#
# Indices 1 2 3 4 5 6 
#
# 1 139.0351 2.4562 53.5025 0.0000 2.3780 0.0000
# 2 2.4562 61.4597 10.9358 0.0000 -7.1883 0.0000
# 3 53.5025 10.9358 108.9227 0.0000 -3.9874 0.0000
# 4 0.0000 0.0000 0.0000 -10.5351 0.0000 0.3929
# 5 2.3780 -7.1883 -3.9874 0.0000 26.4608 0.0000
# 6 0.0000 0.0000 0.0000 0.3929 0.0000 36.5530
#
#
#
# Elastic Compliance Matrix: (Units=1/GPa)
#
#
# Indices 1 2 3 4 5 6 
#
# 1 0.008930 0.000274 -0.004465 0.000000 -0.001401 0.000000
# 2 0.000274 0.017070 -0.001689 0.000000 0.004358 0.000000
# 3 -0.004465 -0.001689 0.011605 0.000000 0.001691 0.000000
# 4 0.000000 0.000000 0.000000 -0.094883 0.000000 0.001020
# 5 -0.001401 0.004358 0.001691 0.000000 0.039357 0.000000
# 6 0.000000 0.000000 0.000000 0.001020 0.000000 0.027347
#
#
# Mechanical properties :
#
#
# Convention : Reuss Voigt Hill
#
# Bulk Modulus (GPa) = 38.69179 49.24517 43.96848
# Shear Modulus (GPa) = 167.78151 26.66394 97.22272
#
# Velocity S-wave (km/s) = 8.74773 3.48727 6.65897
# Velocity P-wave (km/s) = 10.93970 6.21890 8.89809
#
# Compressibility (1/GPa) = 0.02584527
#
# Stress axis : x y z
#
# Youngs Moduli (GPa) = 111.98518 58.58195 86.16605
#
# Poissons Ratio (x) = -0.01604 0.38473
# Poissons Ratio (y) = -0.03066 0.14551
# Poissons Ratio (z) = 0.50002 0.09893
#
# Static dielectric constant tensor:
#      x y z
#    x 1.812610 0.000000 -0.062550 
#    y 0.000000 1.841800 0.000000 
#    z -0.062550 0.000000 1.879100 
# 
# From -- ./inp_files/56846.got.cif
#   From: 2010.05.17/outbox.cif.g08.bks.cpg/sg14_29_cif.got.tgz:56846.got - 2010.06.03 17:49:19.
