data_PCOD9245315
_publ_section_title
;
Structure prediction by ZEFSAII (Michael W. Deem and Ramdas Pophale) SiO2 
 PCOD9245315
Probable space group: P 21/C
;
_chemical_formula_sum "Si O2"
_cell_formula_units_Z 28
_cell_length_a 10.179030
_cell_length_b 9.587421
_cell_length_c 14.263336
_cell_angle_alpha 90.000000
_cell_angle_beta 65.753562
_cell_angle_gamma 90.000000
_cell_volume 1269.179287
_symmetry_space_group_name_H-M "P 21/C"
_symmetry_group_IT_number 14
_symmetry_cell_setting 'monoclinic'
loop_
_space_group_symop_operation_xyz
x,y,z
-x,1/2+y,1/2-z
-x,-y,-z
x,1/2-y,1/2+z
loop_
_atom_site_type_symbol
_atom_site_label
_atom_site_fract_x
_atom_site_fract_y
_atom_site_fract_z
Si Si1 0.154190 0.465962 0.222110
Si Si2 0.500437 0.610922 0.233354
Si Si3 0.465214 0.703275 0.561371
Si Si4 0.254739 0.476550 0.575068
Si Si5 0.455241 0.337891 0.147184
Si Si6 0.007011 0.718315 0.308233
Si Si7 0.178968 0.587078 0.402092
O O1 0.312644 0.414762 0.149954
O O2 0.033784 0.369920 0.212554
O O3 0.146147 0.461079 0.338346
O O4 0.122147 0.629044 0.214055
O O5 0.489899 0.695034 0.140105
O O6 0.527885 0.450496 0.196449
O O7 0.592997 0.701257 0.279331
O O8 0.344043 0.619020 0.328120
O O9 0.332541 0.596690 0.612243
O O10 0.610745 0.612182 0.505165
O O11 0.451293 0.788669 0.468246
O O12 0.139370 0.372788 0.653375
O O13 0.174360 0.546589 0.510309
O O14 0.073514 0.706195 0.393300
#
# Coordination Sequence:
#
# PCOD9245315 Si02
#       7
#     4   4   4   4   4   4   4
#     4   9  21  37  60  86 118 160 206 253 303 359
#     4  11  23  39  64  89 129 160 203 261 311 374
#     4  11  23  36  64  93 124 165 210 251 325 364
#     4  11  21  39  62  93 121 165 212 256 303 383
#     4  11  22  43  60  93 130 157 209 257 311 375
#     4  10  21  37  63  84 121 161 208 254 305 360
#     4   9  21  38  60  87 121 158 207 249 309 362
#
# _framework density 22.061499999999999
#
# number of rings (size 3 to 8) (size 9 to 14) (size 15 to 20)
#    0.857    0.857    2.857    2.571    4.000    0.000 
#    0.000    0.000    0.000    0.857    0.000    0.000 
#    0.000    0.000    0.000    0.000    0.000    0.000 
#
# Total GULP energy -156189.505467 kJ/mol
# GULP energy per Si atom -5578.196624 kJ/mol
# Density = 2.201129 g / cm^3
# Si number density = 22.061500 Si / 1000 Ang^3
#
#
#
# Elastic Constant Matrix: (Units=GPa)
#
#
# Indices 1 2 3 4 5 6 
#
# 1 34.4830 -2.7188 1.1139 0.0000 -3.1320 0.0000
# 2 -2.7188 65.2861 5.1269 0.0000 6.0710 0.0000
# 3 1.1139 5.1269 40.9945 0.0000 9.6012 0.0000
# 4 0.0000 0.0000 0.0000 28.5938 0.0000 9.0719
# 5 -3.1320 6.0710 9.6012 0.0000 29.6612 0.0000
# 6 0.0000 0.0000 0.0000 9.0719 0.0000 41.6528
#
#
#
# Elastic Compliance Matrix: (Units=1/GPa)
#
#
# Indices 1 2 3 4 5 6 
#
# 1 0.029452 0.001041 -0.001741 0.000000 0.003460 0.000000
# 2 0.001041 0.015716 -0.001370 0.000000 -0.002663 0.000000
# 3 -0.001741 -0.001370 0.026607 0.000000 -0.008516 0.000000
# 4 0.000000 0.000000 0.000000 0.037569 0.000000 -0.008182
# 5 0.003460 -0.002663 -0.008516 0.000000 0.037381 0.000000
# 6 0.000000 0.000000 0.000000 -0.008182 0.000000 0.025790
#
#
# Mechanical properties :
#
#
# Convention : Reuss Voigt Hill
#
# Bulk Modulus (GPa) = 14.78508 16.42309 15.60409
# Shear Modulus (GPa) = 25.10049 29.13098 27.11573
#
# Velocity S-wave (km/s) = 3.37672 3.63773 3.50965
# Velocity P-wave (km/s) = 4.68180 5.01044 4.84891
#
# Compressibility (1/GPa) = 0.06763574
#
# Stress axis : x y z
#
# Youngs Moduli (GPa) = 33.95307 63.63015 37.58458
#
# Poissons Ratio (x) = -0.06627 0.06543
# Poissons Ratio (y) = -0.03536 0.05149
# Poissons Ratio (z) = 0.05911 0.08718
#
# Static dielectric constant tensor:
#      x y z
#    x 1.888160 0.000000 -0.008320 
#    y 0.000000 1.850230 0.000000 
#    z -0.008320 0.000000 1.797590 
# 
# From -- ./inp_files/56781.got.cif
#   From: 2010.05.17/outbox.cif.g08.bks.cpg/sg14_29_cif.got.tgz:56781.got - 2010.06.03 17:49:19.
