data_PCOD9245788
_publ_section_title
;
Structure prediction by ZEFSAII (Michael W. Deem and Ramdas Pophale) SiO2 
 PCOD9245788
Probable space group: P 21/C
;
_chemical_formula_sum "Si O2"
_cell_formula_units_Z 28
_cell_length_a 16.525223
_cell_length_b 8.372993
_cell_length_c 13.844867
_cell_angle_alpha 90.000000
_cell_angle_beta 144.068944
_cell_angle_gamma 90.000000
_cell_volume 1124.126901
_symmetry_space_group_name_H-M "P 21/C"
_symmetry_group_IT_number 14
_symmetry_cell_setting 'monoclinic'
loop_
_space_group_symop_operation_xyz
x,y,z
-x,1/2+y,1/2-z
-x,-y,-z
x,1/2-y,1/2+z
loop_
_atom_site_type_symbol
_atom_site_label
_atom_site_fract_x
_atom_site_fract_y
_atom_site_fract_z
Si Si1 0.285763 0.737835 0.173834
Si Si2 0.895261 0.382148 0.661293
Si Si3 0.768407 0.374138 0.176352
Si Si4 0.197372 0.105343 0.517675
Si Si5 0.677368 0.646371 0.502615
Si Si6 0.477506 0.007376 0.314190
Si Si7 0.257961 0.318242 0.744233
O O1 0.267210 0.757355 0.269518
O O2 0.429608 0.824288 0.284876
O O3 0.168824 0.841666 0.004878
O O4 0.262325 0.558288 0.117576
O O5 0.859208 0.227218 0.691117
O O6 0.812440 0.533674 0.622090
O O7 0.055557 0.416493 0.823786
O O8 0.819574 0.539237 0.274444
O O9 0.626294 0.428255 0.987466
O O10 0.296647 0.202609 0.542442
O O11 0.169651 0.214907 0.584753
O O12 0.562657 0.544561 0.334995
O O13 0.675099 0.703457 0.610470
O O14 0.375234 0.098430 0.291371
#
# Coordination Sequence:
#
# PCOD9245788 Si02
#       7
#     4   4   4   4   4   4   4
#     4  10  21  40  63  88 124 167 210 261 319 380
#     4  11  24  40  63  93 126 167 211 260 323 386
#     4  11  23  41  63  90 126 168 211 261 319 383
#     4  11  23  40  63  94 127 163 211 265 321 385
#     4  10  22  40  62  92 123 159 210 262 318 378
#     4   9  22  42  62  90 123 161 212 261 314 383
#     4  10  21  39  62  89 122 161 208 263 320 376
#
# _framework density 24.908218999999999
#
# number of rings (size 3 to 8) (size 9 to 14) (size 15 to 20)
#    0.000    1.714    0.000    5.143    0.000    7.429 
#    0.000   14.286    0.000    0.000    0.000    0.000 
#    0.000    0.000    0.000    0.000    0.000    0.000 
#
# Total GULP energy -156862.494041 kJ/mol
# GULP energy per Si atom -5602.231930 kJ/mol
# Density = 2.485153 g / cm^3
# Si number density = 24.908219 Si / 1000 Ang^3
#
#
#
# Elastic Constant Matrix: (Units=GPa)
#
#
# Indices 1 2 3 4 5 6 
#
# 1 54.0550 19.9148 24.1000 0.0000 -14.5448 0.0000
# 2 19.9148 117.6375 14.9898 0.0000 4.8100 0.0000
# 3 24.1000 14.9898 107.0637 0.0000 -2.6116 0.0000
# 4 0.0000 0.0000 0.0000 43.8322 0.0000 -15.2138
# 5 -14.5448 4.8100 -2.6116 0.0000 40.0346 0.0000
# 6 0.0000 0.0000 0.0000 -15.2138 0.0000 28.4126
#
#
#
# Elastic Compliance Matrix: (Units=1/GPa)
#
#
# Indices 1 2 3 4 5 6 
#
# 1 0.024494 -0.003912 -0.004745 0.000000 0.009059 0.000000
# 2 -0.003912 0.009331 -0.000488 0.000000 -0.002574 0.000000
# 3 -0.004745 -0.000488 0.010453 0.000000 -0.000983 0.000000
# 4 0.000000 0.000000 0.000000 0.028022 0.000000 0.015005
# 5 0.009059 -0.002574 -0.000983 0.000000 0.028515 0.000000
# 6 0.000000 0.000000 0.000000 0.015005 0.000000 0.043230
#
#
# Mechanical properties :
#
#
# Convention : Reuss Voigt Hill
#
# Bulk Modulus (GPa) = 38.48238 44.08504 41.28371
# Shear Modulus (GPa) = 29.24004 37.10599 33.17302
#
# Velocity S-wave (km/s) = 3.42996 3.86386 3.65336
# Velocity P-wave (km/s) = 5.58295 6.13542 5.86569
#
# Compressibility (1/GPa) = 0.02598592
#
# Stress axis : x y z
#
# Youngs Moduli (GPa) = 40.82595 107.17513 95.66902
#
# Poissons Ratio (x) = 0.41931 0.45394
# Poissons Ratio (y) = 0.15973 0.04673
# Poissons Ratio (z) = 0.19371 0.05235
#
# Static dielectric constant tensor:
#      x y z
#    x 1.963730 0.000000 0.017710 
#    y 0.000000 2.014130 0.000000 
#    z 0.017710 0.000000 1.928460 
# 
# From -- ./inp_files/50142.got.cif
#   From: 2010.05.17/outbox.cif.g08.bks.cpg/sg14_26_cif.got.tgz:50142.got - 2010.06.03 17:49:19.
