data_PCOD9245829
_publ_section_title
;
Structure prediction by ZEFSAII (Michael W. Deem and Ramdas Pophale) SiO2 
 PCOD9245829
Probable space group: P 21/C
;
_chemical_formula_sum "Si O2"
_cell_formula_units_Z 32
_cell_length_a 6.898579
_cell_length_b 19.730951
_cell_length_c 11.149022
_cell_angle_alpha 90.000000
_cell_angle_beta 85.885214
_cell_angle_gamma 90.000000
_cell_volume 1513.643171
_symmetry_space_group_name_H-M "P 21/C"
_symmetry_group_IT_number 14
_symmetry_cell_setting 'monoclinic'
loop_
_space_group_symop_operation_xyz
x,y,z
-x,1/2+y,1/2-z
-x,-y,-z
x,1/2-y,1/2+z
loop_
_atom_site_type_symbol
_atom_site_label
_atom_site_fract_x
_atom_site_fract_y
_atom_site_fract_z
Si Si1 0.690558 0.706452 0.979885
Si Si2 0.405150 0.865160 0.311415
Si Si3 0.089881 0.938084 0.423374
Si Si4 0.275801 0.011615 0.991947
Si Si5 0.284961 0.344800 0.406056
Si Si6 0.038279 0.139980 0.352444
Si Si7 0.980598 0.281195 0.239652
Si Si8 0.986055 0.496841 0.707377
O O1 0.524649 0.668965 0.913549
O O2 0.872755 0.715921 0.880411
O O3 0.631832 0.781040 0.025406
O O4 0.760741 0.664466 0.093857
O O5 0.307031 0.935059 0.361464
O O6 0.553836 0.870408 0.195271
O O7 0.220757 0.818646 0.281176
O O8 0.083657 0.879472 0.522987
O O9 0.961082 0.944080 0.307851
O O10 0.000000 0.000000 0.500000
O O11 0.233055 0.092035 0.991084
O O12 0.150392 0.981252 0.105428
O O13 0.200697 0.985226 0.866991
O O14 0.500000 0.000000 0.000000
O O15 0.097581 0.316802 0.343448
O O16 0.955789 0.203233 0.281999
O O17 0.046675 0.072198 0.272241
#
# Coordination Sequence:
#
# PCOD9245829 Si02
#       8
#     4   4   4   4   4   4   4   4
#     4  10  22  39  61  96 128 165 210 271 324 389
#     4  11  22  37  63  92 126 166 219 258 323 393
#     4  10  21  41  64  89 127 171 213 261 318 384
#     4  11  23  41  63  88 123 168 218 265 321 373
#     4  10  23  38  61  90 127 164 212 269 323 387
#     4  10  21  41  64  92 129 167 208 267 321 383
#     4  10  21  39  63  89 131 169 206 261 332 385
#     4  10  23  42  62  88 125 166 218 262 314 387
#
# _framework density 21.141047
#
# number of rings (size 3 to 8) (size 9 to 14) (size 15 to 20)
#    0.000    1.750    1.250    2.250    3.500    2.000 
#    4.500    1.250    0.000    0.000    0.000    0.000 
#    0.000    0.000    0.000    0.000    0.000    0.000 
#
# Total GULP energy -178522.832245 kJ/mol
# GULP energy per Si atom -5578.838508 kJ/mol
# Density = 2.109293 g / cm^3
# Si number density = 21.141047 Si / 1000 Ang^3
#
#
#
# Elastic Constant Matrix: (Units=GPa)
#
#
# Indices 1 2 3 4 5 6 
#
# 1 91.2893 14.2033 32.9831 0.0000 7.5694 0.0000
# 2 14.2033 71.4946 26.0062 0.0000 5.0624 0.0000
# 3 32.9831 26.0062 106.9777 0.0000 12.9571 0.0000
# 4 0.0000 0.0000 0.0000 41.6922 0.0000 -3.4504
# 5 7.5694 5.0624 12.9571 0.0000 27.6700 0.0000
# 6 0.0000 0.0000 0.0000 -3.4504 0.0000 24.7345
#
#
#
# Elastic Compliance Matrix: (Units=1/GPa)
#
#
# Indices 1 2 3 4 5 6 
#
# 1 0.012486 -0.001137 -0.003376 0.000000 -0.001627 0.000000
# 2 -0.001137 0.015481 -0.003294 0.000000 -0.000979 0.000000
# 3 -0.003376 -0.003294 0.011666 0.000000 -0.003937 0.000000
# 4 0.000000 0.000000 0.000000 0.024265 0.000000 0.003385
# 5 -0.001627 -0.000979 -0.003937 0.000000 0.038608 0.000000
# 6 0.000000 0.000000 0.000000 0.003385 0.000000 0.040902
#
#
# Mechanical properties :
#
#
# Convention : Reuss Voigt Hill
#
# Bulk Modulus (GPa) = 41.63609 46.23854 43.93732
# Shear Modulus (GPa) = 29.93505 31.92393 30.92949
#
# Velocity S-wave (km/s) = 3.76702 3.89015 3.82908
# Velocity P-wave (km/s) = 6.21754 6.48819 6.35430
#
# Compressibility (1/GPa) = 0.02401762
#
# Stress axis : x y z
#
# Youngs Moduli (GPa) = 80.09100 64.59724 85.71707
#
# Poissons Ratio (x) = 0.07346 0.28939
# Poissons Ratio (y) = 0.09108 0.28237
# Poissons Ratio (z) = 0.27040 0.21279
#
# Static dielectric constant tensor:
#      x y z
#    x 1.744720 0.000000 0.004660 
#    y 0.000000 1.835930 0.000000 
#    z 0.004660 0.000000 1.775060 
# 
# From -- ./inp_files/21807.got.cif
#   From: 2010.05.17/outbox.cif.g08.bks.cpg/sg14_11_cif.got.tgz:21807.got - 2010.06.03 17:49:19.
