data_PCOD9245136
_publ_section_title
;
Structure prediction by ZEFSAII (Michael W. Deem and Ramdas Pophale) SiO2 
 PCOD9245136
Probable space group: P 21/C
;
_chemical_formula_sum "Si O2"
_cell_formula_units_Z 28
_cell_length_a 13.705379
_cell_length_b 5.314336
_cell_length_c 20.215388
_cell_angle_alpha 90.000000
_cell_angle_beta 56.341758
_cell_angle_gamma 90.000000
_cell_volume 1225.553979
_symmetry_space_group_name_H-M "P 21/C"
_symmetry_group_IT_number 14
_symmetry_cell_setting 'monoclinic'
loop_
_space_group_symop_operation_xyz
x,y,z
-x,1/2+y,1/2-z
-x,-y,-z
x,1/2-y,1/2+z
loop_
_atom_site_type_symbol
_atom_site_label
_atom_site_fract_x
_atom_site_fract_y
_atom_site_fract_z
Si Si1 0.067817 0.556299 0.734366
Si Si2 0.873553 0.092114 0.072611
Si Si3 0.510652 0.188220 0.557298
Si Si4 0.324034 0.582933 0.606208
Si Si5 0.175611 0.096198 0.332314
Si Si6 0.620382 0.378386 0.633491
Si Si7 0.599032 0.191154 0.787471
O O1 0.186715 0.568894 0.647641
O O2 0.108138 0.458495 0.790471
O O3 0.015878 0.835560 0.760151
O O4 0.871193 0.379640 0.099746
O O5 0.758164 0.082005 0.069047
O O6 0.843306 0.880602 0.138663
O O7 0.000000 0.000000 0.000000
O O8 0.386811 0.329635 0.607966
O O9 0.610008 0.366240 0.486641
O O10 0.564709 0.151376 0.610150
O O11 0.500000 0.000000 0.500000
O O12 0.349742 0.770269 0.659631
O O13 0.311981 0.032581 0.268922
O O14 0.604388 0.352051 0.718741
O O15 0.532021 0.601567 0.649199
#
# Coordination Sequence:
#
# PCOD9245136 Si02
#       7
#     4   4   4   4   4   4   4
#     4  11  24  41  67  98 129 176 232 278 339 410
#     4  11  23  42  62  93 132 174 217 271 335 399
#     4  10  22  40  63  93 133 170 218 276 351 401
#     4   9  22  42  58  92 130 172 213 281 335 397
#     4  10  22  42  64  91 129 167 220 288 326 383
#     4  10  21  36  63  97 121 173 216 271 327 404
#     4   9  19  37  62  91 121 161 219 267 322 382
#
# _framework density 22.846810000000001
#
# number of rings (size 3 to 8) (size 9 to 14) (size 15 to 20)
#    0.000    2.000    0.000    2.143    4.000    2.286 
#   12.857    0.000    0.000    0.000    0.000    0.000 
#    0.000    0.000    0.000    0.000    0.000    0.000 
#
# Total GULP energy -156060.166487 kJ/mol
# GULP energy per Si atom -5573.577375 kJ/mol
# Density = 2.279481 g / cm^3
# Si number density = 22.846810 Si / 1000 Ang^3
#
#
#
# Elastic Constant Matrix: (Units=GPa)
#
#
# Indices 1 2 3 4 5 6 
#
# 1 76.0136 11.3339 20.7592 0.0000 -19.2232 0.0000
# 2 11.3339 61.5899 16.8748 0.0000 1.6416 0.0000
# 3 20.7592 16.8748 81.3713 0.0000 -10.2453 0.0000
# 4 0.0000 0.0000 0.0000 29.0505 0.0000 13.0838
# 5 -19.2232 1.6416 -10.2453 0.0000 40.4180 0.0000
# 6 0.0000 0.0000 0.0000 13.0838 0.0000 14.7418
#
#
#
# Elastic Compliance Matrix: (Units=1/GPa)
#
#
# Indices 1 2 3 4 5 6 
#
# 1 0.016031 -0.002396 -0.002707 0.000000 0.007036 0.000000
# 2 -0.002396 0.017681 -0.003398 0.000000 -0.002719 0.000000
# 3 -0.002707 -0.003398 0.013986 0.000000 0.002396 0.000000
# 4 0.000000 0.000000 0.000000 0.057345 0.000000 -0.050895
# 5 0.007036 -0.002719 0.002396 0.000000 0.028805 0.000000
# 6 0.000000 0.000000 0.000000 -0.050895 0.000000 0.113005
#
#
# Mechanical properties :
#
#
# Convention : Reuss Voigt Hill
#
# Bulk Modulus (GPa) = 32.57673 35.21229 33.89451
# Shear Modulus (GPa) = 18.24234 28.17587 23.20911
#
# Velocity S-wave (km/s) = 2.82878 3.51558 3.19071
# Velocity P-wave (km/s) = 4.99590 5.65021 5.33310
#
# Compressibility (1/GPa) = 0.03069675
#
# Stress axis : x y z
#
# Youngs Moduli (GPa) = 62.37764 56.55875 71.49876
#
# Poissons Ratio (x) = 0.13551 0.19356
# Poissons Ratio (y) = 0.14945 0.24293
# Poissons Ratio (z) = 0.16887 0.19217
#
# Static dielectric constant tensor:
#      x y z
#    x 1.941030 0.000000 0.022790 
#    y 0.000000 1.986390 0.000000 
#    z 0.022790 0.000000 1.895790 
# 
# From -- ./inp_files/66406.got.cif
#   From: 2010.05.17/outbox.cif.g08.bks.cpg/sg14_34_cif.got.tgz:66406.got - 2010.06.03 17:49:19.
