data_PCOD9245963
_publ_section_title
;
Structure prediction by ZEFSAII (Michael W. Deem and Ramdas Pophale) SiO2 
 PCOD9245963
Probable space group: P 21/C
;
_chemical_formula_sum "Si O2"
_cell_formula_units_Z 24
_cell_length_a 17.683432
_cell_length_b 5.578992
_cell_length_c 12.918574
_cell_angle_alpha 90.000000
_cell_angle_beta 138.538145
_cell_angle_gamma 90.000000
_cell_volume 843.867806
_symmetry_space_group_name_H-M "P 21/C"
_symmetry_group_IT_number 14
_symmetry_cell_setting 'monoclinic'
loop_
_space_group_symop_operation_xyz
x,y,z
-x,1/2+y,1/2-z
-x,-y,-z
x,1/2-y,1/2+z
loop_
_atom_site_type_symbol
_atom_site_label
_atom_site_fract_x
_atom_site_fract_y
_atom_site_fract_z
Si Si1 0.749708 0.567310 0.671707
Si Si2 0.869365 0.277896 0.160882
Si Si3 0.953252 0.747652 0.499668
Si Si4 0.291144 0.640643 0.164758
Si Si5 0.597000 0.871594 0.732576
Si Si6 0.354137 0.013671 0.460173
O O1 0.833023 0.479987 0.667771
O O2 0.823174 0.728319 0.829280
O O3 0.706996 0.363669 0.707672
O O4 0.648722 0.703046 0.511019
O O5 0.769973 0.431376 0.120459
O O6 0.998601 0.292741 0.334339
O O7 0.838915 0.337638 0.012040
O O8 0.000000 0.500000 0.500000
O O9 0.000000 0.000000 0.500000
O O10 0.346947 0.877563 0.174080
O O11 0.349211 0.390324 0.193602
O O12 0.462092 0.873672 0.613682
O O13 0.615743 0.922734 0.628407
#
# Coordination Sequence:
#
# PCOD9245963 Si02
#       6
#     4   4   4   4   4   4
#     4  10  22  43  67  96 136 174 220 281 332 394
#     4  11  23  40  68  95 131 174 222 272 336 396
#     4  10  21  39  66  95 121 166 216 265 328 390
#     4  11  25  41  64  97 135 171 221 271 330 394
#     4  10  24  41  62  97 130 173 220 270 328 396
#     4  10  21  39  69  89 130 175 219 269 335 390
#
# _framework density 28.440470999999999
#
# number of rings (size 3 to 8) (size 9 to 14) (size 15 to 20)
#    0.000    1.667    3.333    0.000    4.667    3.333 
#    0.000    6.667    0.000    0.000    0.000    0.000 
#    0.000    0.000    0.000    0.000    0.000    0.000 
#
# Total GULP energy -133754.707503 kJ/mol
# GULP energy per Si atom -5573.112813 kJ/mol
# Density = 2.837574 g / cm^3
# Si number density = 28.440471 Si / 1000 Ang^3
#
#
#
# Elastic Constant Matrix: (Units=GPa)
#
#
# Indices 1 2 3 4 5 6 
#
# 1 99.3655 27.7726 8.3823 0.0000 -2.7005 0.0000
# 2 27.7726 141.8757 31.8447 0.0000 9.7897 0.0000
# 3 8.3823 31.8447 113.2711 0.0000 11.1460 0.0000
# 4 0.0000 0.0000 0.0000 56.2884 0.0000 4.4274
# 5 -2.7005 9.7897 11.1460 0.0000 43.9394 0.0000
# 6 0.0000 0.0000 0.0000 4.4274 0.0000 42.4352
#
#
#
# Elastic Compliance Matrix: (Units=1/GPa)
#
#
# Indices 1 2 3 4 5 6 
#
# 1 0.010713 -0.002109 -0.000319 0.000000 0.001209 0.000000
# 2 -0.002109 0.007997 -0.001953 0.000000 -0.001416 0.000000
# 3 -0.000319 -0.001953 0.009600 0.000000 -0.002020 0.000000
# 4 0.000000 0.000000 0.000000 0.017913 0.000000 -0.001869
# 5 0.001209 -0.001416 -0.002020 0.000000 0.023661 0.000000
# 6 0.000000 0.000000 0.000000 -0.001869 0.000000 0.023760
#
#
# Mechanical properties :
#
#
# Convention : Reuss Voigt Hill
#
# Bulk Modulus (GPa) = 51.15460 54.50128 52.82794
# Shear Modulus (GPa) = 45.90458 47.63345 46.76901
#
# Velocity S-wave (km/s) = 4.02189 4.09693 4.05958
# Velocity P-wave (km/s) = 6.29230 6.44862 6.37094
#
# Compressibility (1/GPa) = 0.01954858
#
# Stress axis : x y z
#
# Youngs Moduli (GPa) = 93.34388 125.04197 104.16943
#
# Poissons Ratio (x) = 0.26371 0.03322
# Poissons Ratio (y) = 0.19686 0.20344
# Poissons Ratio (z) = 0.02976 0.24420
#
# Static dielectric constant tensor:
#      x y z
#    x 2.179390 0.000000 -0.051540 
#    y 0.000000 2.648850 0.000000 
#    z -0.051540 0.000000 2.311700 
# 
# From -- ./inp_files/49746.got.cif
#   From: 2010.05.17/outbox.cif.g08.bks.cpg/sg14_25_cif.got.tgz:49746.got - 2010.06.03 17:49:19.
