data_PCOD9245306
_publ_section_title
;
Structure prediction by ZEFSAII (Michael W. Deem and Ramdas Pophale) SiO2 
 PCOD9245306
Probable space group: P 21/C
;
_chemical_formula_sum "Si O2"
_cell_formula_units_Z 28
_cell_length_a 5.393378
_cell_length_b 8.458376
_cell_length_c 24.658573
_cell_angle_alpha 90.000000
_cell_angle_beta 92.007447
_cell_angle_gamma 90.000000
_cell_volume 1124.214469
_symmetry_space_group_name_H-M "P 21/C"
_symmetry_group_IT_number 14
_symmetry_cell_setting 'monoclinic'
loop_
_space_group_symop_operation_xyz
x,y,z
-x,1/2+y,1/2-z
-x,-y,-z
x,1/2-y,1/2+z
loop_
_atom_site_type_symbol
_atom_site_label
_atom_site_fract_x
_atom_site_fract_y
_atom_site_fract_z
Si Si1 0.814038 0.369312 0.018516
Si Si2 0.511325 0.950053 0.329077
Si Si3 0.000443 0.646585 0.772870
Si Si4 0.552952 0.648518 0.071840
Si Si5 0.477409 0.392853 0.612328
Si Si6 0.011872 0.514568 0.333090
Si Si7 0.817343 0.857453 0.989654
O O1 0.621954 0.470340 0.051419
O O2 0.003552 0.250729 0.047871
O O3 0.690465 0.302749 0.963272
O O4 0.000000 0.500000 0.000000
O O5 0.260257 0.932904 0.292585
O O6 0.490226 0.107618 0.366127
O O7 0.763491 0.944487 0.296457
O O8 0.523161 0.783782 0.362743
O O9 0.000528 0.824220 0.796545
O O10 0.979665 0.631107 0.708230
O O11 0.749593 0.766242 0.044927
O O12 0.734234 0.472591 0.631292
O O13 0.429173 0.385526 0.547433
O O14 0.240020 0.485013 0.634293
O O15 0.000000 0.000000 0.000000
#
# Coordination Sequence:
#
# PCOD9245306 Si02
#       7
#     4   4   4   4   4   4   4
#     4   9  19  35  61  84 122 159 216 266 309 371
#     4  10  21  37  68  98 124 167 221 271 329 384
#     4  10  22  40  66  96 128 163 211 274 334 399
#     4  10  21  37  62  93 122 168 222 278 313 379
#     4  10  22  40  67  93 126 180 215 260 330 406
#     4  10  22  43  67  93 127 164 218 271 332 391
#     4  11  25  41  60  92 136 178 221 265 333 398
#
# _framework density 24.906282999999998
#
# number of rings (size 3 to 8) (size 9 to 14) (size 15 to 20)
#    0.000    2.000    0.000    3.429   12.000    0.571 
#    2.571    0.000    0.000    0.000    0.000    0.000 
#    0.000    0.000    0.000    0.000    0.000    0.000 
#
# Total GULP energy -156483.243009 kJ/mol
# GULP energy per Si atom -5588.687250 kJ/mol
# Density = 2.484959 g / cm^3
# Si number density = 24.906283 Si / 1000 Ang^3
#
#
#
# Elastic Constant Matrix: (Units=GPa)
#
#
# Indices 1 2 3 4 5 6 
#
# 1 158.9346 25.8209 30.8194 0.0000 20.4507 0.0000
# 2 25.8209 58.5741 27.5938 0.0000 4.4448 0.0000
# 3 30.8194 27.5938 67.4197 0.0000 3.9264 0.0000
# 4 0.0000 0.0000 0.0000 39.1996 0.0000 -4.4573
# 5 20.4507 4.4448 3.9264 0.0000 31.9767 0.0000
# 6 0.0000 0.0000 0.0000 -4.4573 0.0000 20.6536
#
#
#
# Elastic Compliance Matrix: (Units=1/GPa)
#
#
# Indices 1 2 3 4 5 6 
#
# 1 0.007631 -0.001872 -0.002470 0.000000 -0.004317 0.000000
# 2 -0.001872 0.021724 -0.007986 0.000000 -0.000842 0.000000
# 3 -0.002470 -0.007986 0.019211 0.000000 0.000331 0.000000
# 4 0.000000 0.000000 0.000000 0.026152 0.000000 0.005644
# 5 -0.004317 -0.000842 0.000331 0.000000 0.034110 0.000000
# 6 0.000000 0.000000 0.000000 0.005644 0.000000 0.049636
#
#
# Mechanical properties :
#
#
# Convention : Reuss Voigt Hill
#
# Bulk Modulus (GPa) = 41.82809 50.37739 46.10274
# Shear Modulus (GPa) = 26.16558 31.74560 28.95559
#
# Velocity S-wave (km/s) = 3.24475 3.57403 3.41336
# Velocity P-wave (km/s) = 5.55595 6.10756 5.83827
#
# Compressibility (1/GPa) = 0.02390738
#
# Stress axis : x y z
#
# Youngs Moduli (GPa) = 131.05208 46.03218 52.05312
#
# Poissons Ratio (x) = 0.08619 0.12859
# Poissons Ratio (y) = 0.24538 0.41571
# Poissons Ratio (z) = 0.32375 0.36763
#
# Static dielectric constant tensor:
#      x y z
#    x 1.848070 0.000000 0.005850 
#    y 0.000000 2.028120 0.000000 
#    z 0.005850 0.000000 1.988210 
# 
# From -- ./inp_files/75719.got.cif
#   From: 2010.05.17/outbox.cif.g08.bks.cpg/sg14_38_cif.got.tgz:75719.got - 2010.06.03 17:49:19.
