data_PCOD9245321
_publ_section_title
;
Structure prediction by ZEFSAII (Michael W. Deem and Ramdas Pophale) SiO2 
 PCOD9245321
Probable space group: P 21/C
;
_chemical_formula_sum "Si O2"
_cell_formula_units_Z 32
_cell_length_a 12.722841
_cell_length_b 5.128467
_cell_length_c 18.156350
_cell_angle_alpha 90.000000
_cell_angle_beta 87.562705
_cell_angle_gamma 90.000000
_cell_volume 1183.605987
_symmetry_space_group_name_H-M "P 21/C"
_symmetry_group_IT_number 14
_symmetry_cell_setting 'monoclinic'
loop_
_space_group_symop_operation_xyz
x,y,z
-x,1/2+y,1/2-z
-x,-y,-z
x,1/2-y,1/2+z
loop_
_atom_site_type_symbol
_atom_site_label
_atom_site_fract_x
_atom_site_fract_y
_atom_site_fract_z
Si Si1 0.859572 0.347685 0.097456
Si Si2 0.016737 0.907061 0.698567
Si Si3 0.813350 0.103128 0.959305
Si Si4 0.377750 0.510536 0.075962
Si Si5 0.204189 0.254518 0.667010
Si Si6 0.320785 0.214112 0.439025
Si Si7 0.448522 0.766384 0.718143
Si Si8 0.736674 0.523432 0.696624
O O1 0.938907 0.547723 0.132244
O O2 0.743093 0.469227 0.090638
O O3 0.835447 0.114151 0.155208
O O4 0.889259 0.251305 0.014412
O O5 0.988149 0.135601 0.758693
O O6 0.130661 0.999305 0.666267
O O7 0.713542 0.285082 0.943466
O O8 0.850848 0.967757 0.883058
O O9 0.766358 0.871242 0.011159
O O10 0.317149 0.291955 0.126265
O O11 0.451764 0.654998 0.131947
O O12 0.404816 0.370047 0.997878
O O13 0.226198 0.265118 0.753408
O O14 0.340188 0.387168 0.366813
O O15 0.479546 0.477357 0.741055
O O16 0.330007 0.833286 0.748949
#
# Coordination Sequence:
#
# PCOD9245321 Si02
#       8
#     4   4   4   4   4   4   4   4
#     4  10  21  39  63  91 129 171 219 266 319 383
#     4  12  26  40  60  97 135 169 225 274 316 368
#     4   9  20  38  64  93 121 172 217 261 319 388
#     4   9  21  41  66  90 130 168 211 259 328 391
#     4  10  21  37  63  92 126 176 214 268 323 376
#     4   9  19  38  67  93 121 172 214 260 318 394
#     4  11  27  43  66 101 130 164 215 273 321 388
#     4  10  21  40  66  90 127 173 216 261 331 388
#
# _framework density 27.036024999999999
#
# number of rings (size 3 to 8) (size 9 to 14) (size 15 to 20)
#    0.000    2.000    1.250    0.750   10.500    1.500 
#    0.000    6.875    0.000    0.000    0.000    0.000 
#    0.000    0.000    0.000    0.000    0.000    0.000 
#
# Total GULP energy -178974.493129 kJ/mol
# GULP energy per Si atom -5592.952910 kJ/mol
# Density = 2.697449 g / cm^3
# Si number density = 27.036025 Si / 1000 Ang^3
#
#
#
# Elastic Constant Matrix: (Units=GPa)
#
#
# Indices 1 2 3 4 5 6 
#
# 1 46.7948 -10.8666 14.1601 0.0000 11.4131 0.0000
# 2 -10.8666 77.4032 29.7432 0.0000 -8.3262 0.0000
# 3 14.1601 29.7432 160.3514 0.0000 11.9589 0.0000
# 4 0.0000 0.0000 0.0000 44.6293 0.0000 2.7274
# 5 11.4131 -8.3262 11.9589 0.0000 38.9908 0.0000
# 6 0.0000 0.0000 0.0000 2.7274 0.0000 28.8097
#
#
#
# Elastic Compliance Matrix: (Units=1/GPa)
#
#
# Indices 1 2 3 4 5 6 
#
# 1 0.024336 0.003750 -0.002429 0.000000 -0.005578 0.000000
# 2 0.003750 0.015077 -0.003363 0.000000 0.003154 0.000000
# 3 -0.002429 -0.003363 0.007241 0.000000 -0.002228 0.000000
# 4 0.000000 0.000000 0.000000 0.022537 0.000000 -0.002134
# 5 -0.005578 0.003154 -0.002228 0.000000 0.028637 0.000000
# 6 0.000000 0.000000 0.000000 -0.002134 0.000000 0.034912
#
#
# Mechanical properties :
#
#
# Convention : Reuss Voigt Hill
#
# Bulk Modulus (GPa) = 23.49053 38.95810 31.22432
# Shear Modulus (GPa) = 33.10954 39.25349 36.18151
#
# Velocity S-wave (km/s) = 3.50329 3.81451 3.66221
# Velocity P-wave (km/s) = 5.00715 5.81735 5.42739
#
# Compressibility (1/GPa) = 0.04257034
#
# Stress axis : x y z
#
# Youngs Moduli (GPa) = 41.09144 66.32504 138.10780
#
# Poissons Ratio (x) = -0.24870 0.33540
# Poissons Ratio (y) = -0.15408 0.46445
# Poissons Ratio (z) = 0.09979 0.22305
#
# Static dielectric constant tensor:
#      x y z
#    x 2.135660 0.000000 0.003450 
#    y 0.000000 2.130910 0.000000 
#    z 0.003450 0.000000 2.153860 
# 
# From -- ./inp_files/58617.got.cif
#   From: 2010.05.17/outbox.cif.g08.bks.cpg/sg14_30_cif.got.tgz:58617.got - 2010.06.03 17:49:19.
