data_PCOD9245375
_publ_section_title
;
Structure prediction by ZEFSAII (Michael W. Deem and Ramdas Pophale) SiO2 
 PCOD9245375
Probable space group: P 21/C
;
_chemical_formula_sum "Si O2"
_cell_formula_units_Z 28
_cell_length_a 17.161657
_cell_length_b 15.590469
_cell_length_c 8.895883
_cell_angle_alpha 90.000000
_cell_angle_beta 31.697091
_cell_angle_gamma 90.000000
_cell_volume 1250.607553
_symmetry_space_group_name_H-M "P 21/C"
_symmetry_group_IT_number 14
_symmetry_cell_setting 'monoclinic'
loop_
_space_group_symop_operation_xyz
x,y,z
-x,1/2+y,1/2-z
-x,-y,-z
x,1/2-y,1/2+z
loop_
_atom_site_type_symbol
_atom_site_label
_atom_site_fract_x
_atom_site_fract_y
_atom_site_fract_z
Si Si1 0.814020 0.344883 0.340239
Si Si2 0.269971 0.827008 0.690435
Si Si3 0.443602 0.930983 0.211116
Si Si4 0.760560 0.776721 0.269975
Si Si5 0.113807 0.366297 0.702435
Si Si6 0.539381 0.781667 0.869020
Si Si7 0.369184 0.495951 0.335734
O O1 0.825209 0.339340 0.502587
O O2 0.793649 0.250429 0.304707
O O3 0.674166 0.407703 0.546271
O O4 0.951490 0.387130 0.028683
O O5 0.298606 0.915894 0.553812
O O6 0.433283 0.791278 0.474811
O O7 0.573739 0.940766 0.118816
O O8 0.433704 0.847113 0.125221
O O9 0.500000 0.000000 0.000000
O O10 0.826753 0.702125 0.268080
O O11 0.648300 0.824850 0.567933
O O12 0.648564 0.748551 0.321805
O O13 0.883185 0.825544 0.970198
O O14 0.224906 0.446356 0.513548
O O15 0.500000 0.500000 0.000000
#
# Coordination Sequence:
#
# PCOD9245375 Si02
#       7
#     4   4   4   4   4   4   4
#     4  12  26  43  69  95 143 178 226 278 347 422
#     4  12  23  41  68 103 132 178 228 282 341 400
#     4  12  24  39  64 102 136 167 221 291 338 386
#     4  10  21  37  69  92 130 169 228 271 332 393
#     4  11  24  45  65 101 137 182 222 277 344 414
#     4  11  19  38  64  99 128 168 223 288 319 387
#     4  12  26  44  67 100 133 179 227 283 342 396
#
# _framework density 22.389118
#
# number of rings (size 3 to 8) (size 9 to 14) (size 15 to 20)
#    0.000    0.571    5.714    3.000    4.000    0.000 
#    0.000    0.000    0.000    1.714    0.000    0.000 
#    0.000    0.000    0.000    0.000    0.000    0.000 
#
# Total GULP energy -156180.460097 kJ/mol
# GULP energy per Si atom -5577.873575 kJ/mol
# Density = 2.233816 g / cm^3
# Si number density = 22.389118 Si / 1000 Ang^3
#
#
#
# Elastic Constant Matrix: (Units=GPa)
#
#
# Indices 1 2 3 4 5 6 
#
# 1 52.7293 4.3395 26.4015 0.0000 25.7528 0.0000
# 2 4.3395 45.5466 20.4695 0.0000 10.4293 0.0000
# 3 26.4015 20.4695 169.3239 0.0000 32.7303 0.0000
# 4 0.0000 0.0000 0.0000 34.3658 0.0000 7.3730
# 5 25.7528 10.4293 32.7303 0.0000 41.1762 0.0000
# 6 0.0000 0.0000 0.0000 7.3730 0.0000 28.0124
#
#
#
# Elastic Compliance Matrix: (Units=1/GPa)
#
#
# Indices 1 2 3 4 5 6 
#
# 1 0.027621 0.001773 -0.001294 0.000000 -0.016695 0.000000
# 2 0.001773 0.023997 -0.002113 0.000000 -0.005507 0.000000
# 3 -0.001294 -0.002113 0.007211 0.000000 -0.004388 0.000000
# 4 0.000000 0.000000 0.000000 0.030840 0.000000 -0.008117
# 5 -0.016695 -0.005507 -0.004388 0.000000 0.039610 0.000000
# 6 0.000000 0.000000 0.000000 -0.008117 0.000000 0.037835
#
#
# Mechanical properties :
#
#
# Convention : Reuss Voigt Hill
#
# Bulk Modulus (GPa) = 17.99816 41.11341 29.55579
# Shear Modulus (GPa) = 26.46865 35.13682 30.80274
#
# Velocity S-wave (km/s) = 3.44206 3.96583 3.71319
# Velocity P-wave (km/s) = 4.88398 6.27482 5.62257
#
# Compressibility (1/GPa) = 0.05556125
#
# Stress axis : x y z
#
# Youngs Moduli (GPa) = 36.20480 41.67144 138.67445
#
# Poissons Ratio (x) = -0.07387 0.17941
# Poissons Ratio (y) = -0.06418 0.29300
# Poissons Ratio (z) = 0.04684 0.08805
#
# Static dielectric constant tensor:
#      x y z
#    x 1.893860 0.000000 0.016990 
#    y 0.000000 1.913800 0.000000 
#    z 0.016990 0.000000 1.879560 
# 
# From -- ./inp_files/18158.got.cif
#   From: 2010.05.17/outbox.cif.g08.bks.cpg/sg14_10_cif.got.tgz:18158.got - 2010.06.03 17:49:19.
