data_PCOD9245813
_publ_section_title
;
Structure prediction by ZEFSAII (Michael W. Deem and Ramdas Pophale) SiO2 
 PCOD9245813
Probable space group: P 21/C
;
_chemical_formula_sum "Si O2"
_cell_formula_units_Z 20
_cell_length_a 28.917121
_cell_length_b 5.005894
_cell_length_c 16.607068
_cell_angle_alpha 90.000000
_cell_angle_beta 20.178068
_cell_angle_gamma 90.000000
_cell_volume 829.224032
_symmetry_space_group_name_H-M "P 21/C"
_symmetry_group_IT_number 14
_symmetry_cell_setting 'monoclinic'
loop_
_space_group_symop_operation_xyz
x,y,z
-x,1/2+y,1/2-z
-x,-y,-z
x,1/2-y,1/2+z
loop_
_atom_site_type_symbol
_atom_site_label
_atom_site_fract_x
_atom_site_fract_y
_atom_site_fract_z
Si Si1 0.987695 0.627679 0.722160
Si Si2 0.861394 0.954423 0.176343
Si Si3 0.709377 0.056851 0.989342
Si Si4 0.495504 0.693341 0.928537
Si Si5 0.287469 0.612189 0.866879
O O1 0.095084 0.502963 0.486010
O O2 0.005234 0.938268 0.710911
O O3 0.841292 0.569065 0.927704
O O4 0.799553 0.672455 0.303066
O O5 0.747894 0.173378 0.381396
O O6 0.000000 0.000000 0.000000
O O7 0.746415 0.136621 0.021181
O O8 0.555508 0.959244 0.253492
O O9 0.596396 0.939812 0.779431
O O10 0.500000 0.500000 0.000000
O O11 0.345726 0.806202 0.184205
#
# Coordination Sequence:
#
# PCOD9245813 Si02
#       5
#     4   4   4   4   4
#     4  12  28  43  62  95 138 176 206 254 335 407
#     4  12  23  38  66  91 130 165 217 271 312 374
#     4  11  20  36  64  97 120 154 215 275 316 358
#     4   9  19  35  66 100 124 157 217 288 311 358
#     4  10  21  39  63 100 129 164 216 271 320 381
#
# _framework density 24.118936999999999
#
# number of rings (size 3 to 8) (size 9 to 14) (size 15 to 20)
#    0.000    1.200    4.000    1.800    8.400    0.000 
#    0.000    0.000    0.000    4.800    0.000    0.000 
#    0.000    0.000    0.000    0.000    0.000    0.000 
#
# Total GULP energy -111713.731865 kJ/mol
# GULP energy per Si atom -5585.686593 kJ/mol
# Density = 2.406404 g / cm^3
# Si number density = 24.118937 Si / 1000 Ang^3
#
#
#
# Elastic Constant Matrix: (Units=GPa)
#
#
# Indices 1 2 3 4 5 6 
#
# 1 26.9545 9.7936 26.3434 0.0000 13.9832 0.0000
# 2 9.7936 108.6029 21.2502 0.0000 8.8447 0.0000
# 3 26.3434 21.2502 107.2648 0.0000 35.2550 0.0000
# 4 0.0000 0.0000 0.0000 50.2196 0.0000 18.1230
# 5 13.9832 8.8447 35.2550 0.0000 22.5258 0.0000
# 6 0.0000 0.0000 0.0000 18.1230 0.0000 27.9286
#
#
#
# Elastic Compliance Matrix: (Units=1/GPa)
#
#
# Indices 1 2 3 4 5 6 
#
# 1 0.056296 -0.001985 -0.004536 0.000000 -0.027067 0.000000
# 2 -0.001985 0.009678 -0.001206 0.000000 -0.000680 0.000000
# 3 -0.004536 -0.001206 0.019758 0.000000 -0.027634 0.000000
# 4 0.000000 0.000000 0.000000 0.026001 0.000000 -0.016872
# 5 -0.027067 -0.000680 -0.027634 0.000000 0.104713 0.000000
# 6 0.000000 0.000000 0.000000 -0.016872 0.000000 0.046754
#
#
# Mechanical properties :
#
#
# Convention : Reuss Voigt Hill
#
# Bulk Modulus (GPa) = 14.22926 39.73294 26.98110
# Shear Modulus (GPa) = 16.55181 32.49714 24.52447
#
# Velocity S-wave (km/s) = 2.62249 3.67464 3.19221
# Velocity P-wave (km/s) = 3.88361 5.87482 4.97975
#
# Compressibility (1/GPa) = 0.07027772
#
# Stress axis : x y z
#
# Youngs Moduli (GPa) = 17.76325 103.32422 50.61148
#
# Poissons Ratio (x) = 0.20506 0.22959
# Poissons Ratio (y) = 0.03525 0.06106
# Poissons Ratio (z) = 0.08058 0.12466
#
# Static dielectric constant tensor:
#      x y z
#    x 2.037550 0.000000 0.029280 
#    y 0.000000 1.941890 0.000000 
#    z 0.029280 0.000000 1.960380 
# 
# From -- ./inp_files/56333.got.cif
#   From: 2010.05.17/outbox.cif.g08.bks.cpg/sg14_29_cif.got.tgz:56333.got - 2010.06.03 17:49:19.
