data_PCOD9245740
_publ_section_title
;
Structure prediction by ZEFSAII (Michael W. Deem and Ramdas Pophale) SiO2 
 PCOD9245740
Probable space group: P 21/C
;
_chemical_formula_sum "Si O2"
_cell_formula_units_Z 20
_cell_length_a 10.903560
_cell_length_b 4.881564
_cell_length_c 21.749518
_cell_angle_alpha 90.000000
_cell_angle_beta 43.921097
_cell_angle_gamma 90.000000
_cell_volume 803.023097
_symmetry_space_group_name_H-M "P 21/C"
_symmetry_group_IT_number 14
_symmetry_cell_setting 'monoclinic'
loop_
_space_group_symop_operation_xyz
x,y,z
-x,1/2+y,1/2-z
-x,-y,-z
x,1/2-y,1/2+z
loop_
_atom_site_type_symbol
_atom_site_label
_atom_site_fract_x
_atom_site_fract_y
_atom_site_fract_z
Si Si1 0.173192 0.271534 0.122261
Si Si2 0.981965 0.795340 0.146826
Si Si3 0.737754 0.992647 0.033077
Si Si4 0.639563 0.913506 0.821124
Si Si5 0.535446 0.807304 0.694075
O O1 0.272208 0.169775 0.146705
O O2 0.999898 0.081225 0.176307
O O3 0.283587 0.184371 0.021877
O O4 0.107123 0.579574 0.137959
O O5 0.783588 0.692606 0.220196
O O6 0.081280 0.849284 0.046341
O O7 0.719854 0.793528 0.097743
O O8 0.564997 0.185517 0.100744
O O9 0.597473 0.226812 0.814511
O O10 0.522387 0.091975 0.732384
#
# Coordination Sequence:
#
# PCOD9245740 Si02
#       5
#     4   4   4   4   4
#     4  10  21  39  60  97 126 150 196 252 304 377
#     4  10  22  38  60  99 124 152 196 251 304 376
#     4   8  23  39  65  86 130 151 210 239 314 352
#     4  10  21  41  65  90 124 166 193 250 317 347
#     4  10  24  41  62  85 119 164 212 250 286 355
#
# _framework density 24.905884
#
# number of rings (size 3 to 8) (size 9 to 14) (size 15 to 20)
#    2.400    0.000    0.000    1.800    2.800    4.000 
#    3.600    2.000    0.000    0.000    0.000    0.000 
#    0.000    0.000    0.000    0.000    0.000    0.000 
#
# Total GULP energy -111363.325593 kJ/mol
# GULP energy per Si atom -5568.166280 kJ/mol
# Density = 2.484920 g / cm^3
# Si number density = 24.905884 Si / 1000 Ang^3
#
#
#
# Elastic Constant Matrix: (Units=GPa)
#
#
# Indices 1 2 3 4 5 6 
#
# 1 80.5963 6.4693 41.7483 0.0000 3.6008 0.0000
# 2 6.4693 59.5684 2.3468 0.0000 5.0249 0.0000
# 3 41.7483 2.3468 189.3063 0.0000 -0.7895 0.0000
# 4 0.0000 0.0000 0.0000 23.5260 0.0000 -1.6822
# 5 3.6008 5.0249 -0.7895 0.0000 39.0205 0.0000
# 6 0.0000 0.0000 0.0000 -1.6822 0.0000 35.3083
#
#
#
# Elastic Compliance Matrix: (Units=1/GPa)
#
#
# Indices 1 2 3 4 5 6 
#
# 1 0.014181 -0.001316 -0.003116 0.000000 -0.001202 0.000000
# 2 -0.001316 0.017103 0.000070 0.000000 -0.002080 0.000000
# 3 -0.003116 0.000070 0.005970 0.000000 0.000399 0.000000
# 4 0.000000 0.000000 0.000000 0.042651 0.000000 0.002032
# 5 -0.001202 -0.002080 0.000399 0.000000 0.026014 0.000000
# 6 0.000000 0.000000 0.000000 0.002032 0.000000 0.028419
#
#
# Mechanical properties :
#
#
# Convention : Reuss Voigt Hill
#
# Bulk Modulus (GPa) = 35.05148 47.84443 41.44795
# Shear Modulus (GPa) = 32.77103 38.16474 35.46789
#
# Velocity S-wave (km/s) = 3.63132 3.91878 3.77779
# Velocity P-wave (km/s) = 5.62904 6.30298 5.97552
#
# Compressibility (1/GPa) = 0.02852947
#
# Stress axis : x y z
#
# Youngs Moduli (GPa) = 70.51703 58.46917 167.49169
#
# Poissons Ratio (x) = 0.07694 0.52192
# Poissons Ratio (y) = 0.09280 -0.01164
# Poissons Ratio (z) = 0.21974 -0.00406
#
# Static dielectric constant tensor:
#      x y z
#    x 1.967730 0.000000 0.026270 
#    y 0.000000 2.054330 0.000000 
#    z 0.026270 0.000000 2.000100 
# 
# From -- ./inp_files/50963.got.cif
#   From: 2010.05.17/outbox.cif.g08.bks.cpg/sg14_26_cif.got.tgz:50963.got - 2010.06.03 17:49:19.
