data_PCOD9245046
_publ_section_title
;
Structure prediction by ZEFSAII (Michael W. Deem and Ramdas Pophale) SiO2 
 PCOD9245046
Probable space group: P 21/C
;
_chemical_formula_sum "Si O2"
_cell_formula_units_Z 32
_cell_length_a 11.276726
_cell_length_b 9.866971
_cell_length_c 20.952386
_cell_angle_alpha 90.000000
_cell_angle_beta 140.750925
_cell_angle_gamma 90.000000
_cell_volume 1475.004267
_symmetry_space_group_name_H-M "P 21/C"
_symmetry_group_IT_number 14
_symmetry_cell_setting 'monoclinic'
loop_
_space_group_symop_operation_xyz
x,y,z
-x,1/2+y,1/2-z
-x,-y,-z
x,1/2-y,1/2+z
loop_
_atom_site_type_symbol
_atom_site_label
_atom_site_fract_x
_atom_site_fract_y
_atom_site_fract_z
Si Si1 0.031681 0.651110 0.988378
Si Si2 0.369712 0.298402 0.229829
Si Si3 0.830323 0.171967 0.589015
Si Si4 0.738302 0.839142 0.179166
Si Si5 0.561476 0.496858 0.212623
Si Si6 0.034556 0.903287 0.074193
Si Si7 0.854534 0.482761 0.618410
Si Si8 0.282509 0.030542 0.353047
O O1 0.848589 0.717262 0.878793
O O2 0.174371 0.642280 0.988533
O O3 0.000000 0.500000 0.000000
O O4 0.066178 0.751494 0.061648
O O5 0.379908 0.360529 0.305353
O O6 0.439807 0.395149 0.203290
O O7 0.463607 0.151323 0.274194
O O8 0.785312 0.330614 0.577458
O O9 0.045238 0.160035 0.705253
O O10 0.716035 0.067095 0.585278
O O11 0.728598 0.947811 0.119565
O O12 0.692738 0.692100 0.130622
O O13 0.771848 0.454962 0.317422
O O14 0.569660 0.486094 0.139686
O O15 0.877968 0.930337 0.063060
O O16 0.000000 0.000000 0.000000
O O17 0.067740 0.477655 0.735772
#
# Coordination Sequence:
#
# PCOD9245046 Si02
#       8
#     4   4   4   4   4   4   4   4
#     4  11  23  35  54  84 112 141 181 225 269 319
#     4  10  21  38  55  82 112 140 181 224 265 322
#     4   9  16  30  48  75 106 132 173 224 261 311
#     4   8  16  30  49  73 103 135 173 220 261 308
#     4  10  21  36  58  80 109 146 179 221 271 319
#     4  11  19  37  56  78 110 144 175 220 273 317
#     4   9  16  28  51  75 100 136 177 217 263 315
#     4   8  16  30  47  74 104 134 173 219 265 305
#
# _framework density 21.694852000000001
#
# number of rings (size 3 to 8) (size 9 to 14) (size 15 to 20)
#    0.000    2.500    2.500    1.500    3.500    1.000 
#    4.500    0.000    0.000    3.000    0.000    0.000 
#    0.000    0.000    0.000    0.000    0.000    0.000 
#
# Total GULP energy -178564.857733 kJ/mol
# GULP energy per Si atom -5580.151804 kJ/mol
# Density = 2.164547 g / cm^3
# Si number density = 21.694852 Si / 1000 Ang^3
#
#
#
# Elastic Constant Matrix: (Units=GPa)
#
#
# Indices 1 2 3 4 5 6 
#
# 1 115.8684 79.9395 17.9585 0.0000 -34.9333 0.0000
# 2 79.9395 146.6916 23.9077 0.0000 -44.0460 0.0000
# 3 17.9585 23.9077 57.3492 0.0000 -15.3762 0.0000
# 4 0.0000 0.0000 0.0000 26.2179 0.0000 -9.9125
# 5 -34.9333 -44.0460 -15.3762 0.0000 33.6032 0.0000
# 6 0.0000 0.0000 0.0000 -9.9125 0.0000 37.9525
#
#
#
# Elastic Compliance Matrix: (Units=1/GPa)
#
#
# Indices 1 2 3 4 5 6 
#
# 1 0.015052 -0.005772 -0.000160 0.000000 0.008009 0.000000
# 2 -0.005772 0.013490 -0.000780 0.000000 0.011325 0.000000
# 3 -0.000160 -0.000780 0.019940 0.000000 0.007936 0.000000
# 4 0.000000 0.000000 0.000000 0.042321 0.000000 0.011054
# 5 0.008009 0.011325 0.007936 0.000000 0.056561 0.000000
# 6 0.000000 0.000000 0.000000 0.011054 0.000000 0.029236
#
#
# Mechanical properties :
#
#
# Convention : Reuss Voigt Hill
#
# Bulk Modulus (GPa) = 28.52336 62.61340 45.56838
# Shear Modulus (GPa) = 24.78820 32.76162 28.77491
#
# Velocity S-wave (km/s) = 3.38388 3.89023 3.64586
# Velocity P-wave (km/s) = 5.33325 7.00729 6.22679
#
# Compressibility (1/GPa) = 0.03505898
#
# Stress axis : x y z
#
# Youngs Moduli (GPa) = 66.43680 74.12968 50.15075
#
# Poissons Ratio (x) = 0.42784 0.00802
# Poissons Ratio (y) = 0.38344 0.03911
# Poissons Ratio (z) = 0.01062 0.05781
#
# Static dielectric constant tensor:
#      x y z
#    x 1.889540 0.000000 0.068280 
#    y 0.000000 1.747400 0.000000 
#    z 0.068280 0.000000 1.873640 
# 
# From -- ./inp_files/66881.got.cif
#   From: 2010.05.17/outbox.cif.g08.bks.cpg/sg14_34_cif.got.tgz:66881.got - 2010.06.03 17:49:19.
