data_PCOD9245054
_publ_section_title
;
Structure prediction by ZEFSAII (Michael W. Deem and Ramdas Pophale) SiO2 
 PCOD9245054
Probable space group: P 21/C
;
_chemical_formula_sum "Si O2"
_cell_formula_units_Z 32
_cell_length_a 11.941406
_cell_length_b 11.708015
_cell_length_c 10.359164
_cell_angle_alpha 90.000000
_cell_angle_beta 80.671031
_cell_angle_gamma 90.000000
_cell_volume 1429.160780
_symmetry_space_group_name_H-M "P 21/C"
_symmetry_group_IT_number 14
_symmetry_cell_setting 'monoclinic'
loop_
_space_group_symop_operation_xyz
x,y,z
-x,1/2+y,1/2-z
-x,-y,-z
x,1/2-y,1/2+z
loop_
_atom_site_type_symbol
_atom_site_label
_atom_site_fract_x
_atom_site_fract_y
_atom_site_fract_z
Si Si1 0.019006 0.895294 0.339026
Si Si2 0.821782 0.463149 0.788997
Si Si3 0.622130 0.062719 0.841204
Si Si4 0.630511 0.970694 0.122572
Si Si5 0.188434 0.390837 0.791324
Si Si6 0.184489 0.197298 0.005087
Si Si7 0.949038 0.161297 0.047211
Si Si8 0.803809 0.223885 0.872786
O O1 0.028115 0.798233 0.446422
O O2 0.079556 0.821738 0.214963
O O3 0.094687 0.009787 0.335973
O O4 0.890236 0.933875 0.340343
O O5 0.711061 0.492120 0.726010
O O6 0.918671 0.405107 0.681670
O O7 0.792277 0.358423 0.889100
O O8 0.495827 0.063164 0.810184
O O9 0.699880 0.174967 0.810569
O O10 0.697133 0.961275 0.765069
O O11 0.612732 0.051060 0.999667
O O12 0.699728 0.866960 0.047213
O O13 0.166589 0.315296 0.664447
O O14 0.194701 0.308628 0.913108
O O15 0.073726 0.123413 0.977229
O O16 0.827694 0.157897 0.000068
#
# Coordination Sequence:
#
# PCOD9245054 Si02
#       8
#     4   4   4   4   4   4   4   4
#     4  10  22  38  58  90 127 164 201 248 319 379
#     4  11  21  34  58  88 117 161 204 248 309 376
#     4   9  20  41  61  83 116 160 214 254 311 362
#     4  10  21  37  62  85 112 162 211 259 302 375
#     4  10  22  41  61  91 126 166 205 259 313 376
#     4  11  23  37  62  93 123 161 209 256 315 372
#     4  11  22  36  59  88 128 164 202 255 305 381
#     4  10  21  36  58  86 120 159 203 253 310 370
#
# _framework density 22.390761000000001
#
# number of rings (size 3 to 8) (size 9 to 14) (size 15 to 20)
#    0.000    1.750    2.500    1.500    3.500    4.000 
#    0.000    0.000    0.000    0.750    0.000    0.000 
#    0.000    0.000    0.000    0.000    0.000    0.000 
#
# Total GULP energy -178214.789941 kJ/mol
# GULP energy per Si atom -5569.212186 kJ/mol
# Density = 2.233980 g / cm^3
# Si number density = 22.390761 Si / 1000 Ang^3
#
#
#
# Elastic Constant Matrix: (Units=GPa)
#
#
# Indices 1 2 3 4 5 6 
#
# 1 164.8535 10.9198 18.2992 0.0000 23.3161 0.0000
# 2 10.9198 62.3525 19.5284 0.0000 12.9289 0.0000
# 3 18.2992 19.5284 49.5426 0.0000 6.5628 0.0000
# 4 0.0000 0.0000 0.0000 30.7898 0.0000 -3.0241
# 5 23.3161 12.9289 6.5628 0.0000 25.7771 0.0000
# 6 0.0000 0.0000 0.0000 -3.0241 0.0000 4.7096
#
#
#
# Elastic Compliance Matrix: (Units=1/GPa)
#
#
# Indices 1 2 3 4 5 6 
#
# 1 0.007139 0.000704 -0.002082 0.000000 -0.006280 0.000000
# 2 0.000704 0.019926 -0.006940 0.000000 -0.008864 0.000000
# 3 -0.002082 -0.006940 0.023781 0.000000 -0.000690 0.000000
# 4 0.000000 0.000000 0.000000 0.034664 0.000000 0.022259
# 5 -0.006280 -0.008864 -0.000690 0.000000 0.049096 0.000000
# 6 0.000000 0.000000 0.000000 0.022259 0.000000 0.226626
#
#
# Mechanical properties :
#
#
# Convention : Reuss Voigt Hill
#
# Bulk Modulus (GPa) = 29.23218 41.58260 35.40739
# Shear Modulus (GPa) = 12.84445 27.45538 20.14992
#
# Velocity S-wave (km/s) = 2.39770 3.50550 3.00312
# Velocity P-wave (km/s) = 4.55512 5.91577 5.27946
#
# Compressibility (1/GPa) = 0.03420887
#
# Stress axis : x y z
#
# Youngs Moduli (GPa) = 140.08065 50.18514 42.05052
#
# Poissons Ratio (x) = -0.03534 0.08757
# Poissons Ratio (y) = -0.09865 0.29184
# Poissons Ratio (z) = 0.29171 0.34830
#
# Static dielectric constant tensor:
#      x y z
#    x 1.849520 0.000000 -0.002460 
#    y 0.000000 1.950170 0.000000 
#    z -0.002460 0.000000 2.013560 
# 
# From -- ./inp_files/29130.got.cif
#   From: 2010.05.17/outbox.cif.g08.bks.cpg/sg14_15_cif.got.tgz:29130.got - 2010.06.03 17:49:19.
