data_PCOD9245255
_publ_section_title
;
Structure prediction by ZEFSAII (Michael W. Deem and Ramdas Pophale) SiO2 
 PCOD9245255
Probable space group: P 21/C
;
_chemical_formula_sum "Si O2"
_cell_formula_units_Z 24
_cell_length_a 6.543993
_cell_length_b 8.618003
_cell_length_c 23.152984
_cell_angle_alpha 90.000000
_cell_angle_beta 55.261372
_cell_angle_gamma 90.000000
_cell_volume 1073.004306
_symmetry_space_group_name_H-M "P 21/C"
_symmetry_group_IT_number 14
_symmetry_cell_setting 'monoclinic'
loop_
_space_group_symop_operation_xyz
x,y,z
-x,1/2+y,1/2-z
-x,-y,-z
x,1/2-y,1/2+z
loop_
_atom_site_type_symbol
_atom_site_label
_atom_site_fract_x
_atom_site_fract_y
_atom_site_fract_z
Si Si1 0.627641 0.408053 0.029891
Si Si2 0.048390 0.521896 0.686496
Si Si3 0.153077 0.483505 0.899132
Si Si4 0.201590 0.658395 0.377290
Si Si5 0.763552 0.840332 0.738424
Si Si6 0.460352 0.944847 0.940483
O O1 0.635058 0.512722 0.086190
O O2 0.501711 0.242681 0.062110
O O3 0.500000 0.500000 0.000000
O O4 0.914612 0.391953 0.962253
O O5 0.062694 0.434383 0.745035
O O6 0.337049 0.548556 0.625346
O O7 0.953884 0.420605 0.647972
O O8 0.878991 0.670973 0.715846
O O9 0.097148 0.668434 0.903787
O O10 0.233427 0.419581 0.824662
O O11 0.484701 0.670231 0.308045
O O12 0.226602 0.561474 0.433135
O O13 0.500000 0.000000 0.000000
#
# Coordination Sequence:
#
# PCOD9245255 Si02
#       6
#     4   4   4   4   4   4
#     4  10  21  37  60  85 114 154 194 238 288 344
#     4  11  23  39  61  86 119 156 194 245 294 348
#     4  10  21  38  58  85 117 150 196 240 286 347
#     4  10  22  39  58  85 119 155 198 244 291 349
#     4  11  23  38  59  87 117 155 198 242 296 351
#     4  10  22  39  58  88 121 152 196 243 294 349
#
# _framework density 22.367104999999999
#
# number of rings (size 3 to 8) (size 9 to 14) (size 15 to 20)
#    0.000    1.667    0.000    4.000    0.000    7.333 
#    0.000    0.000    0.000    0.000    0.000    0.000 
#    0.000    0.000    0.000    0.000    0.000    0.000 
#
# Total GULP energy -133956.591871 kJ/mol
# GULP energy per Si atom -5581.524661 kJ/mol
# Density = 2.231620 g / cm^3
# Si number density = 22.367105 Si / 1000 Ang^3
#
#
#
# Elastic Constant Matrix: (Units=GPa)
#
#
# Indices 1 2 3 4 5 6 
#
# 1 80.9308 35.7131 37.0551 0.0000 33.6575 0.0000
# 2 35.7131 41.2156 25.4850 0.0000 5.2883 0.0000
# 3 37.0551 25.4850 113.1107 0.0000 26.2106 0.0000
# 4 0.0000 0.0000 0.0000 43.5840 0.0000 10.6823
# 5 33.6575 5.2883 26.2106 0.0000 59.5323 0.0000
# 6 0.0000 0.0000 0.0000 10.6823 0.0000 34.3956
#
#
#
# Elastic Compliance Matrix: (Units=1/GPa)
#
#
# Indices 1 2 3 4 5 6 
#
# 1 0.028191 -0.021981 -0.001160 0.000000 -0.013475 0.000000
# 2 -0.021981 0.045335 -0.005523 0.000000 0.010832 0.000000
# 3 -0.001160 -0.005523 0.011359 0.000000 -0.003854 0.000000
# 4 0.000000 0.000000 0.000000 0.024835 0.000000 -0.007713
# 5 -0.013475 0.010832 -0.003854 0.000000 0.025151 0.000000
# 6 0.000000 0.000000 0.000000 -0.007713 0.000000 0.031469
#
#
# Mechanical properties :
#
#
# Convention : Reuss Voigt Hill
#
# Bulk Modulus (GPa) = 36.29151 47.97373 42.13262
# Shear Modulus (GPa) = 21.47274 36.63596 29.05435
#
# Velocity S-wave (km/s) = 3.10177 4.05154 3.60804
# Velocity P-wave (km/s) = 5.39338 6.58646 6.01956
#
# Compressibility (1/GPa) = 0.02755465
#
# Stress axis : x y z
#
# Youngs Moduli (GPa) = 35.47196 22.05822 88.03857
#
# Poissons Ratio (x) = 0.48486 0.10217
# Poissons Ratio (y) = 0.77971 0.48627
# Poissons Ratio (z) = 0.04116 0.12184
#
# Static dielectric constant tensor:
#      x y z
#    x 1.881420 0.000000 0.004040 
#    y 0.000000 1.771420 0.000000 
#    z 0.004040 0.000000 1.863470 
# 
# From -- ./inp_files/70980.got.cif
#   From: 2010.05.17/outbox.cif.g08.bks.cpg/sg14_36_cif.got.tgz:70980.got - 2010.06.03 17:49:19.
