data_PCOD9245326
_publ_section_title
;
Structure prediction by ZEFSAII (Michael W. Deem and Ramdas Pophale) SiO2 
 PCOD9245326
Probable space group: P 21/C
;
_chemical_formula_sum "Si O2"
_cell_formula_units_Z 28
_cell_length_a 9.831650
_cell_length_b 8.593491
_cell_length_c 19.814839
_cell_angle_alpha 90.000000
_cell_angle_beta 44.652418
_cell_angle_gamma 90.000000
_cell_volume 1176.578512
_symmetry_space_group_name_H-M "P 21/C"
_symmetry_group_IT_number 14
_symmetry_cell_setting 'monoclinic'
loop_
_space_group_symop_operation_xyz
x,y,z
-x,1/2+y,1/2-z
-x,-y,-z
x,1/2-y,1/2+z
loop_
_atom_site_type_symbol
_atom_site_label
_atom_site_fract_x
_atom_site_fract_y
_atom_site_fract_z
Si Si1 0.045451 0.508390 0.158277
Si Si2 0.191497 0.465900 0.474260
Si Si3 0.604050 0.991562 0.234817
Si Si4 0.792251 0.193909 0.272406
Si Si5 0.309022 0.341105 0.759158
Si Si6 0.631768 0.687022 0.009038
Si Si7 0.516668 0.372056 0.552784
O O1 0.916291 0.351446 0.217765
O O2 0.917428 0.632139 0.162142
O O3 0.101429 0.586565 0.209768
O O4 0.233571 0.462398 0.048185
O O5 0.336139 0.440731 0.360877
O O6 0.223571 0.318427 0.511425
O O7 0.270724 0.611478 0.490333
O O8 0.000000 0.500000 0.500000
O O9 0.759590 0.107315 0.212713
O O10 0.402828 0.077096 0.291194
O O11 0.608465 0.833033 0.274382
O O12 0.568534 0.199198 0.378511
O O13 0.376798 0.411689 0.663812
O O14 0.561268 0.722231 0.957546
O O15 0.500000 0.500000 0.500000
#
# Coordination Sequence:
#
# PCOD9245326 Si02
#       7
#     4   4   4   4   4   4   4
#     4  12  25  42  67  98 130 176 228 272 330 402
#     4  10  21  37  63  94 126 169 217 264 325 400
#     4  11  23  43  66  94 133 175 216 272 337 392
#     4  12  25  44  68  99 136 175 220 278 336 394
#     4  11  23  42  67  95 129 174 221 271 330 396
#     4  11  23  42  64  97 134 170 220 283 329 381
#     4   9  19  38  63  89 127 171 212 264 328 389
#
# _framework density 23.797817999999999
#
# number of rings (size 3 to 8) (size 9 to 14) (size 15 to 20)
#    0.000    1.143    0.000    8.143    0.000    5.714 
#    0.000    4.286    0.000    0.000    0.000    0.000 
#    0.000    0.000    0.000    0.000    0.000    0.000 
#
# Total GULP energy -156265.213531 kJ/mol
# GULP energy per Si atom -5580.900483 kJ/mol
# Density = 2.374365 g / cm^3
# Si number density = 23.797818 Si / 1000 Ang^3
#
#
#
# Elastic Constant Matrix: (Units=GPa)
#
#
# Indices 1 2 3 4 5 6 
#
# 1 191.6467 50.7230 20.5999 0.0000 -10.2133 0.0000
# 2 50.7230 71.0873 24.1675 0.0000 -9.8564 0.0000
# 3 20.5999 24.1675 57.3026 0.0000 -10.2771 0.0000
# 4 0.0000 0.0000 0.0000 25.5601 0.0000 -9.3993
# 5 -10.2133 -9.8564 -10.2771 0.0000 34.3227 0.0000
# 6 0.0000 0.0000 0.0000 -9.3993 0.0000 46.2528
#
#
#
# Elastic Compliance Matrix: (Units=1/GPa)
#
#
# Indices 1 2 3 4 5 6 
#
# 1 0.006452 -0.004404 -0.000364 0.000000 0.000546 0.000000
# 2 -0.004404 0.019685 -0.006277 0.000000 0.002463 0.000000
# 3 -0.000364 -0.006277 0.021015 0.000000 0.004382 0.000000
# 4 0.000000 0.000000 0.000000 0.042283 0.000000 0.008593
# 5 0.000546 0.002463 0.004382 0.000000 0.031317 0.000000
# 6 0.000000 0.000000 0.000000 0.008593 0.000000 0.023366
#
#
# Mechanical properties :
#
#
# Convention : Reuss Voigt Hill
#
# Bulk Modulus (GPa) = 39.90175 56.77974 48.34074
# Shear Modulus (GPa) = 28.64280 36.19687 32.41983
#
# Velocity S-wave (km/s) = 3.47304 3.90425 3.69494
# Velocity P-wave (km/s) = 5.73464 6.65096 6.20972
#
# Compressibility (1/GPa) = 0.02506156
#
# Stress axis : x y z
#
# Youngs Moduli (GPa) = 154.99571 50.79947 47.58419
#
# Poissons Ratio (x) = 0.22373 0.01732
# Poissons Ratio (y) = 0.68261 0.29870
# Poissons Ratio (z) = 0.05642 0.31889
#
# Static dielectric constant tensor:
#      x y z
#    x 1.913770 0.000000 -0.066520 
#    y 0.000000 2.055190 0.000000 
#    z -0.066520 0.000000 1.989550 
# 
# From -- ./inp_files/64976.got.cif
#   From: 2010.05.17/outbox.cif.g08.bks.cpg/sg14_33_cif.got.tgz:64976.got - 2010.06.03 17:49:19.
