data_PCOD9245653
_publ_section_title
;
Structure prediction by ZEFSAII (Michael W. Deem and Ramdas Pophale) SiO2 
 PCOD9245653
Probable space group: P 21/C
;
_chemical_formula_sum "Si O2"
_cell_formula_units_Z 20
_cell_length_a 5.496780
_cell_length_b 13.511080
_cell_length_c 14.006729
_cell_angle_alpha 90.000000
_cell_angle_beta 124.559482
_cell_angle_gamma 90.000000
_cell_volume 856.680035
_symmetry_space_group_name_H-M "P 21/C"
_symmetry_group_IT_number 14
_symmetry_cell_setting 'monoclinic'
loop_
_space_group_symop_operation_xyz
x,y,z
-x,1/2+y,1/2-z
-x,-y,-z
x,1/2-y,1/2+z
loop_
_atom_site_type_symbol
_atom_site_label
_atom_site_fract_x
_atom_site_fract_y
_atom_site_fract_z
Si Si1 0.697995 0.944368 0.832421
Si Si2 0.753347 0.555709 0.883564
Si Si3 0.669474 0.411100 0.491102
Si Si4 0.444217 0.747250 0.318868
Si Si5 0.786872 0.692461 0.716706
O O1 0.523697 0.865579 0.859679
O O2 0.510796 0.979749 0.700161
O O3 0.748806 0.047331 0.901720
O O4 0.018309 0.895668 0.889902
O O5 0.622829 0.657679 0.900591
O O6 0.855921 0.596062 0.800686
O O7 0.000000 0.500000 0.000000
O O8 0.500000 0.500000 0.500000
O O9 0.428058 0.327741 0.419816
O O10 0.571538 0.747370 0.239045
O O11 0.099639 0.766701 0.253670
#
# Coordination Sequence:
#
# PCOD9245653 Si02
#       5
#     4   4   4   4   4
#     4  10  22  39  63  96 125 172 213 269 322 384
#     4   9  21  42  63  92 131 167 214 262 323 382
#     4  10  21  38  67  91 126 165 214 271 321 373
#     4  10  22  42  61  94 129 166 213 257 321 385
#     4   9  22  41  61  91 127 158 211 261 309 383
#
# _framework density 23.345939999999999
#
# number of rings (size 3 to 8) (size 9 to 14) (size 15 to 20)
#    1.200    1.200    0.000    1.200    5.600    2.400 
#    0.000    0.000    0.000    0.000    0.000    0.000 
#    0.000    0.000    0.000    0.000    0.000    0.000 
#
# Total GULP energy -111342.440369 kJ/mol
# GULP energy per Si atom -5567.122018 kJ/mol
# Density = 2.329280 g / cm^3
# Si number density = 23.345940 Si / 1000 Ang^3
#
#
#
# Elastic Constant Matrix: (Units=GPa)
#
#
# Indices 1 2 3 4 5 6 
#
# 1 110.0234 27.6178 41.1187 0.0000 42.2750 0.0000
# 2 27.6178 112.2347 48.4936 0.0000 15.9434 0.0000
# 3 41.1187 48.4936 144.2893 0.0000 32.3995 0.0000
# 4 0.0000 0.0000 0.0000 18.6049 0.0000 0.5106
# 5 42.2750 15.9434 32.3995 0.0000 45.0419 0.0000
# 6 0.0000 0.0000 0.0000 0.5106 0.0000 41.4722
#
#
#
# Elastic Compliance Matrix: (Units=1/GPa)
#
#
# Indices 1 2 3 4 5 6 
#
# 1 0.014604 -0.001437 -0.000853 0.000000 -0.012585 0.000000
# 2 -0.001437 0.010639 -0.003129 0.000000 -0.000166 0.000000
# 3 -0.000853 -0.003129 0.009299 0.000000 -0.004781 0.000000
# 4 0.000000 0.000000 0.000000 0.053767 0.000000 -0.000662
# 5 -0.012585 -0.000166 -0.004781 0.000000 0.037511 0.000000
# 6 0.000000 0.000000 0.000000 -0.000662 0.000000 0.024121
#
#
# Mechanical properties :
#
#
# Convention : Reuss Voigt Hill
#
# Bulk Modulus (GPa) = 42.18757 66.77862 54.48309
# Shear Modulus (GPa) = 29.64199 37.64496 33.64347
#
# Velocity S-wave (km/s) = 3.56713 4.01993 3.80028
# Velocity P-wave (km/s) = 5.92248 7.08608 6.53025
#
# Compressibility (1/GPa) = 0.02370366
#
# Stress axis : x y z
#
# Youngs Moduli (GPa) = 68.47447 93.99337 107.54364
#
# Poissons Ratio (x) = 0.13511 0.09172
# Poissons Ratio (y) = 0.09843 0.33647
# Poissons Ratio (z) = 0.05840 0.29407
#
# Static dielectric constant tensor:
#      x y z
#    x 1.953730 0.000000 -0.090300 
#    y 0.000000 2.035620 0.000000 
#    z -0.090300 0.000000 1.973450 
# 
# From -- ./inp_files/20661.got.cif
#   From: 2010.05.17/outbox.cif.g08.bks.cpg/sg14_11_cif.got.tgz:20661.got - 2010.06.03 17:49:19.
