data_PCOD9245919
_publ_section_title
;
Structure prediction by ZEFSAII (Michael W. Deem and Ramdas Pophale) SiO2 
 PCOD9245919
Probable space group: P 21/C
;
_chemical_formula_sum "Si O2"
_cell_formula_units_Z 20
_cell_length_a 21.727794
_cell_length_b 9.749362
_cell_length_c 12.520946
_cell_angle_alpha 90.000000
_cell_angle_beta 22.746064
_cell_angle_gamma 90.000000
_cell_volume 1025.520398
_symmetry_space_group_name_H-M "P 21/C"
_symmetry_group_IT_number 14
_symmetry_cell_setting 'monoclinic'
loop_
_space_group_symop_operation_xyz
x,y,z
-x,1/2+y,1/2-z
-x,-y,-z
x,1/2-y,1/2+z
loop_
_atom_site_type_symbol
_atom_site_label
_atom_site_fract_x
_atom_site_fract_y
_atom_site_fract_z
Si Si1 0.191312 0.196653 0.869949
Si Si2 0.819336 0.179210 0.440191
Si Si3 0.363378 0.482995 0.628090
Si Si4 0.649377 0.018489 0.522972
Si Si5 0.327624 0.554638 0.247448
O O1 0.277448 0.335867 0.766008
O O2 0.282021 0.129005 0.623239
O O3 0.213540 0.077911 0.923931
O O4 0.006039 0.208861 0.141332
O O5 0.766529 0.095382 0.630731
O O6 0.727583 0.323160 0.590142
O O7 0.758608 0.088436 0.438018
O O8 0.500000 0.500000 0.500000
O O9 0.468736 0.495117 0.352700
O O10 0.662639 0.103362 0.391739
O O11 0.500000 0.500000 0.000000
#
# Coordination Sequence:
#
# PCOD9245919 Si02
#       5
#     4   4   4   4   4
#     4  10  22  40  61  94 131 163 207 271 316 365
#     4  11  21  40  65  96 127 164 213 261 319 373
#     4  10  21  39  65  92 124 168 220 251 313 387
#     4   9  23  38  65  88 128 167 211 252 318 373
#     4  10  22  38  64  87 129 166 207 254 314 376
#
# _framework density 19.502295
#
# number of rings (size 3 to 8) (size 9 to 14) (size 15 to 20)
#    1.200    0.800    0.000    4.200    2.800    0.000 
#    0.000    0.000    0.000    4.800    0.000    0.000 
#    0.000    0.000    0.000    0.000    0.000    0.000 
#
# Total GULP energy -111405.747084 kJ/mol
# GULP energy per Si atom -5570.287354 kJ/mol
# Density = 1.945791 g / cm^3
# Si number density = 19.502295 Si / 1000 Ang^3
#
#
#
# Elastic Constant Matrix: (Units=GPa)
#
#
# Indices 1 2 3 4 5 6 
#
# 1 46.4908 29.5549 28.4376 0.0000 -17.0338 0.0000
# 2 29.5549 135.7131 50.4490 0.0000 -8.4382 0.0000
# 3 28.4376 50.4490 79.5769 0.0000 -5.6818 0.0000
# 4 0.0000 0.0000 0.0000 28.7017 0.0000 -6.7391
# 5 -17.0338 -8.4382 -5.6818 0.0000 21.4480 0.0000
# 6 0.0000 0.0000 0.0000 -6.7391 0.0000 29.8602
#
#
#
# Elastic Compliance Matrix: (Units=1/GPa)
#
#
# Indices 1 2 3 4 5 6 
#
# 1 0.040008 -0.003149 -0.010316 0.000000 0.027802 0.000000
# 2 -0.003149 0.009993 -0.005206 0.000000 0.000051 0.000000
# 3 -0.010316 -0.005206 0.019185 0.000000 -0.005158 0.000000
# 4 0.000000 0.000000 0.000000 0.036791 0.000000 0.008303
# 5 0.027802 0.000051 -0.005158 0.000000 0.067358 0.000000
# 6 0.000000 0.000000 0.000000 0.008303 0.000000 0.035363
#
#
# Mechanical properties :
#
#
# Convention : Reuss Voigt Hill
#
# Bulk Modulus (GPa) = 31.40317 53.18488 42.29402
# Shear Modulus (GPa) = 19.48139 26.22459 22.85299
#
# Velocity S-wave (km/s) = 3.16401 3.67098 3.42689
# Velocity P-wave (km/s) = 5.43003 6.73041 6.11489
#
# Compressibility (1/GPa) = 0.03184392
#
# Stress axis : x y z
#
# Youngs Moduli (GPa) = 24.99482 100.07263 52.12430
#
# Poissons Ratio (x) = 0.31518 0.53769
# Poissons Ratio (y) = 0.07872 0.27135
# Poissons Ratio (z) = 0.25784 0.52097
#
# Static dielectric constant tensor:
#      x y z
#    x 1.738040 0.000000 0.015200 
#    y 0.000000 1.669910 0.000000 
#    z 0.015200 0.000000 1.686670 
# 
# From -- ./inp_files/51198.got.cif
#   From: 2010.05.17/outbox.cif.g08.bks.cpg/sg14_26_cif.got.tgz:51198.got - 2010.06.03 17:49:19.
