data_PCOD9245663
_publ_section_title
;
Structure prediction by ZEFSAII (Michael W. Deem and Ramdas Pophale) SiO2 
 PCOD9245663
Probable space group: P 21/C
;
_chemical_formula_sum "Si O2"
_cell_formula_units_Z 16
_cell_length_a 9.300427
_cell_length_b 15.120457
_cell_length_c 5.183024
_cell_angle_alpha 90.000000
_cell_angle_beta 107.465624
_cell_angle_gamma 90.000000
_cell_volume 695.268570
_symmetry_space_group_name_H-M "P 21/C"
_symmetry_group_IT_number 14
_symmetry_cell_setting 'monoclinic'
loop_
_space_group_symop_operation_xyz
x,y,z
-x,1/2+y,1/2-z
-x,-y,-z
x,1/2-y,1/2+z
loop_
_atom_site_type_symbol
_atom_site_label
_atom_site_fract_x
_atom_site_fract_y
_atom_site_fract_z
Si Si1 0.053295 0.446198 0.280523
Si Si2 0.808041 0.196207 0.616236
Si Si3 0.391507 0.089657 0.118988
Si Si4 0.515008 0.392770 0.185796
O O1 0.231238 0.432029 0.406675
O O2 0.000000 0.500000 0.500000
O O3 0.964420 0.354331 0.236672
O O4 0.000000 0.500000 0.000000
O O5 0.798773 0.223240 0.313173
O O6 0.671151 0.134458 0.637310
O O7 0.389012 0.130448 0.404415
O O8 0.473580 0.996738 0.234582
O O9 0.480995 0.145588 0.951458
#
# Coordination Sequence:
#
# PCOD9245663 Si02
#       4
#     4   4   4   4
#     4  12  24  42  68  99 131 175 225 278 324 394
#     4  12  26  44  64  96 138 179 215 269 348 405
#     4  10  21  38  67  98 122 159 223 276 312 367
#     4  10  21  39  64  95 127 162 215 270 320 387
#
# _framework density 23.012689999999999
#
# number of rings (size 3 to 8) (size 9 to 14) (size 15 to 20)
#    0.000    1.000    2.500    4.500    7.000    0.000 
#    0.000    7.500    0.000    0.000    0.000    0.000 
#    0.000    0.000    0.000    0.000    0.000    0.000 
#
# Total GULP energy -89369.526894 kJ/mol
# GULP energy per Si atom -5585.595431 kJ/mol
# Density = 2.296031 g / cm^3
# Si number density = 23.012690 Si / 1000 Ang^3
#
#
#
# Elastic Constant Matrix: (Units=GPa)
#
#
# Indices 1 2 3 4 5 6 
#
# 1 96.7584 6.5505 69.5635 0.0000 7.2422 0.0000
# 2 6.5505 28.4537 14.1434 0.0000 0.1244 0.0000
# 3 69.5635 14.1434 190.1377 0.0000 3.8145 0.0000
# 4 0.0000 0.0000 0.0000 32.8180 0.0000 -3.0552
# 5 7.2422 0.1244 3.8145 0.0000 39.5002 0.0000
# 6 0.0000 0.0000 0.0000 -3.0552 0.0000 36.7771
#
#
#
# Elastic Compliance Matrix: (Units=1/GPa)
#
#
# Indices 1 2 3 4 5 6 
#
# 1 0.014211 -0.000726 -0.005103 0.000000 -0.002110 0.000000
# 2 -0.000726 0.036532 -0.002457 0.000000 0.000255 0.000000
# 3 -0.005103 -0.002457 0.007304 0.000000 0.000238 0.000000
# 4 0.000000 0.000000 0.000000 0.030709 0.000000 0.002551
# 5 -0.002110 0.000255 0.000238 0.000000 0.025679 0.000000
# 6 0.000000 0.000000 0.000000 0.002551 0.000000 0.027403
#
#
# Mechanical properties :
#
#
# Convention : Reuss Voigt Hill
#
# Bulk Modulus (GPa) = 24.11047 55.09608 39.60327
# Shear Modulus (GPa) = 29.03021 36.82523 32.92772
#
# Velocity S-wave (km/s) = 3.55559 4.00461 3.78676
# Velocity P-wave (km/s) = 5.23031 6.73618 6.03043
#
# Compressibility (1/GPa) = 0.04147575
#
# Stress axis : x y z
#
# Youngs Moduli (GPa) = 70.36944 27.37317 136.90695
#
# Poissons Ratio (x) = 0.01987 0.69861
# Poissons Ratio (y) = 0.05108 0.33638
# Poissons Ratio (z) = 0.35908 0.06726
#
# Static dielectric constant tensor:
#      x y z
#    x 1.892560 0.000000 -0.020290 
#    y 0.000000 1.895690 0.000000 
#    z -0.020290 0.000000 1.941830 
# 
# From -- ./inp_files/906.got.cif
#   From: 2010.05.17/outbox.cif.g08.bks.cpg/sg14_1_cif.got.tgz:906.got - 2010.06.03 17:49:19.
