data_PCOD9245986
_publ_section_title
;
Structure prediction by ZEFSAII (Michael W. Deem and Ramdas Pophale) SiO2 
 PCOD9245986
Probable space group: P 21/C
;
_chemical_formula_sum "Si O2"
_cell_formula_units_Z 28
_cell_length_a 17.359616
_cell_length_b 5.531683
_cell_length_c 13.802627
_cell_angle_alpha 90.000000
_cell_angle_beta 115.989415
_cell_angle_gamma 90.000000
_cell_volume 1191.402372
_symmetry_space_group_name_H-M "P 21/C"
_symmetry_group_IT_number 14
_symmetry_cell_setting 'monoclinic'
loop_
_space_group_symop_operation_xyz
x,y,z
-x,1/2+y,1/2-z
-x,-y,-z
x,1/2-y,1/2+z
loop_
_atom_site_type_symbol
_atom_site_label
_atom_site_fract_x
_atom_site_fract_y
_atom_site_fract_z
Si Si1 0.191060 0.523046 0.442640
Si Si2 0.168949 0.660292 0.749907
Si Si3 0.579087 0.863943 0.732743
Si Si4 0.400888 0.452029 0.081425
Si Si5 0.286807 0.731142 0.161344
Si Si6 0.695715 0.742979 0.142247
Si Si7 0.011127 0.188385 0.814199
O O1 0.166025 0.748145 0.359420
O O2 0.224965 0.590710 0.565908
O O3 0.268678 0.411408 0.423024
O O4 0.107566 0.353805 0.403752
O O5 0.226210 0.843190 0.717171
O O6 0.222347 0.412884 0.778404
O O7 0.071045 0.654745 0.661226
O O8 0.574343 0.784115 0.841949
O O9 0.484401 0.882593 0.638591
O O10 0.637614 0.680394 0.701497
O O11 0.632154 0.113151 0.757440
O O12 0.320677 0.554357 0.097522
O O13 0.371519 0.421021 0.956022
O O14 0.002780 0.459107 0.766612
#
# Coordination Sequence:
#
# PCOD9245986 Si02
#       7
#     4   4   4   4   4   4   4
#     4  11  21  40  64  90 124 160 207 253 320 375
#     4  10  22  40  61  90 125 160 209 249 316 379
#     4  11  24  39  60  86 123 158 206 255 313 372
#     4  12  22  42  60  88 123 158 208 257 316 372
#     4  11  23  39  62  89 119 165 204 257 308 379
#     4  11  22  39  62  89 118 163 202 256 312 381
#     4  10  21  39  67  95 132 172 212 268 322 384
#
# _framework density 23.501712999999999
#
# number of rings (size 3 to 8) (size 9 to 14) (size 15 to 20)
#    0.000    1.143    5.714    1.286    0.000    0.571 
#    0.000    1.429    0.000    5.143    0.000    0.000 
#    0.000    0.000    0.000    0.000    0.000    0.000 
#
# Total GULP energy -156270.107477 kJ/mol
# GULP energy per Si atom -5581.075267 kJ/mol
# Density = 2.344822 g / cm^3
# Si number density = 23.501713 Si / 1000 Ang^3
#
#
#
# Elastic Constant Matrix: (Units=GPa)
#
#
# Indices 1 2 3 4 5 6 
#
# 1 121.6646 -1.7530 17.2547 0.0000 6.4615 0.0000
# 2 -1.7530 36.0746 -10.3288 0.0000 3.5489 0.0000
# 3 17.2547 -10.3288 77.3024 0.0000 2.2202 0.0000
# 4 0.0000 0.0000 0.0000 22.3519 0.0000 1.1845
# 5 6.4615 3.5489 2.2202 0.0000 31.8352 0.0000
# 6 0.0000 0.0000 0.0000 1.1845 0.0000 37.4009
#
#
#
# Elastic Compliance Matrix: (Units=1/GPa)
#
#
# Indices 1 2 3 4 5 6 
#
# 1 0.008570 0.000042 -0.001861 0.000000 -0.001614 0.000000
# 2 0.000042 0.029215 0.003996 0.000000 -0.003544 0.000000
# 3 -0.001861 0.003996 0.013915 0.000000 -0.001038 0.000000
# 4 0.000000 0.000000 0.000000 0.044814 0.000000 -0.001419
# 5 -0.001614 -0.003544 -0.001038 0.000000 0.032207 0.000000
# 6 0.000000 0.000000 0.000000 -0.001419 0.000000 0.026782
#
#
# Mechanical properties :
#
#
# Convention : Reuss Voigt Hill
#
# Bulk Modulus (GPa) = 17.83956 27.26526 22.55241
# Shear Modulus (GPa) = 29.44065 33.64218 31.54142
#
# Velocity S-wave (km/s) = 3.54319 3.78759 3.66743
# Velocity P-wave (km/s) = 4.93419 5.54566 5.24884
#
# Compressibility (1/GPa) = 0.05605521
#
# Stress axis : x y z
#
# Youngs Moduli (GPa) = 116.69207 34.22881 71.86340
#
# Poissons Ratio (x) = -0.00145 0.13372
# Poissons Ratio (y) = -0.00496 -0.28716
# Poissons Ratio (z) = 0.21714 -0.13678
#
# Static dielectric constant tensor:
#      x y z
#    x 1.917650 0.000000 0.017810 
#    y 0.000000 2.014060 0.000000 
#    z 0.017810 0.000000 1.883200 
# 
# From -- ./inp_files/47900.got.cif
#   From: 2010.05.17/outbox.cif.g08.bks.cpg/sg14_24_cif.got.tgz:47900.got - 2010.06.03 17:49:19.
