data_PCOD9245581
_publ_section_title
;
Structure prediction by ZEFSAII (Michael W. Deem and Ramdas Pophale) SiO2 
 PCOD9245581
Probable space group: P 21/C
;
_chemical_formula_sum "Si O2"
_cell_formula_units_Z 28
_cell_length_a 9.122219
_cell_length_b 10.991169
_cell_length_c 25.750112
_cell_angle_alpha 90.000000
_cell_angle_beta 31.541080
_cell_angle_gamma 90.000000
_cell_volume 1350.567588
_symmetry_space_group_name_H-M "P 21/C"
_symmetry_group_IT_number 14
_symmetry_cell_setting 'monoclinic'
loop_
_space_group_symop_operation_xyz
x,y,z
-x,1/2+y,1/2-z
-x,-y,-z
x,1/2-y,1/2+z
loop_
_atom_site_type_symbol
_atom_site_label
_atom_site_fract_x
_atom_site_fract_y
_atom_site_fract_z
Si Si1 0.641765 0.683881 0.917912
Si Si2 0.843992 0.773259 0.093520
Si Si3 0.298929 0.588087 0.111162
Si Si4 0.564245 0.235026 0.126972
Si Si5 0.761259 0.197265 0.258127
Si Si6 0.659986 0.556273 0.731829
Si Si7 0.231460 0.065834 0.299486
O O1 0.572845 0.545878 0.918874
O O2 0.533276 0.768506 0.903734
O O3 0.963029 0.720759 0.831767
O O4 0.479830 0.679864 0.021435
O O5 0.535786 0.764446 0.161215
O O6 0.861632 0.888877 0.126772
O O7 0.856735 0.661618 0.129911
O O8 0.099944 0.759168 0.976857
O O9 0.229782 0.649490 0.185857
O O10 0.027764 0.552448 0.159809
O O11 0.400994 0.347830 0.203759
O O12 0.472493 0.122245 0.190126
O O13 0.752569 0.075397 0.224883
O O14 0.361975 0.543436 0.792338
#
# Coordination Sequence:
#
# PCOD9245581 Si02
#       7
#     4   4   4   4   4   4   4
#     4  11  23  39  64  96 126 165 214 259 316 381
#     4  10  23  40  63  92 126 166 213 260 312 383
#     4  11  22  39  65  95 126 164 215 259 314 376
#     4  11  21  40  66  89 128 165 208 265 314 374
#     4  11  23  41  66  94 131 167 210 270 317 375
#     4  10  23  42  62  94 130 168 215 259 322 382
#     4  10  21  38  64  88 127 167 203 258 316 371
#
# _framework density 20.732023999999999
#
# number of rings (size 3 to 8) (size 9 to 14) (size 15 to 20)
#    0.000    1.429    4.286    0.857    0.000    8.571 
#    0.000    2.143    0.000    0.000    0.000    0.000 
#    0.000    0.000    0.000    0.000    0.000    0.000 
#
# Total GULP energy -156170.775667 kJ/mol
# GULP energy per Si atom -5577.527702 kJ/mol
# Density = 2.068484 g / cm^3
# Si number density = 20.732024 Si / 1000 Ang^3
#
#
#
# Elastic Constant Matrix: (Units=GPa)
#
#
# Indices 1 2 3 4 5 6 
#
# 1 77.7955 5.4174 -0.4499 0.0000 -4.5036 0.0000
# 2 5.4174 28.2842 23.7861 0.0000 2.4652 0.0000
# 3 -0.4499 23.7861 54.4425 0.0000 -1.7083 0.0000
# 4 0.0000 0.0000 0.0000 18.8827 0.0000 -3.2427
# 5 -4.5036 2.4652 -1.7083 0.0000 30.6134 0.0000
# 6 0.0000 0.0000 0.0000 -3.2427 0.0000 19.7124
#
#
#
# Elastic Compliance Matrix: (Units=1/GPa)
#
#
# Indices 1 2 3 4 5 6 
#
# 1 0.013331 -0.004624 0.002207 0.000000 0.002457 0.000000
# 2 -0.004624 0.058569 -0.025842 0.000000 -0.006839 0.000000
# 3 0.002207 -0.025842 0.029804 0.000000 0.004069 0.000000
# 4 0.000000 0.000000 0.000000 0.054498 0.000000 0.008965
# 5 0.002457 -0.006839 0.004069 0.000000 0.033805 0.000000
# 6 0.000000 0.000000 0.000000 0.008965 0.000000 0.052204
#
#
# Mechanical properties :
#
#
# Convention : Reuss Voigt Hill
#
# Bulk Modulus (GPa) = 22.12971 24.22549 23.17760
# Shear Modulus (GPa) = 15.93417 22.62626 19.28022
#
# Velocity S-wave (km/s) = 2.77533 3.30717 3.05285
# Velocity P-wave (km/s) = 4.57900 5.12773 4.86111
#
# Compressibility (1/GPa) = 0.04518813
#
# Stress axis : x y z
#
# Youngs Moduli (GPa) = 75.01201 17.07378 33.55220
#
# Poissons Ratio (x) = 0.07895 -0.07406
# Poissons Ratio (y) = 0.34685 0.86705
# Poissons Ratio (z) = -0.16558 0.44122
#
# Static dielectric constant tensor:
#      x y z
#    x 1.739730 0.000000 -0.030730 
#    y 0.000000 1.773920 0.000000 
#    z -0.030730 0.000000 1.754420 
# 
# From -- ./inp_files/52011.got.cif
#   From: 2010.05.17/outbox.cif.g08.bks.cpg/sg14_27_cif.got.tgz:52011.got - 2010.06.03 17:49:19.
