data_PCOD9245115
_publ_section_title
;
Structure prediction by ZEFSAII (Michael W. Deem and Ramdas Pophale) SiO2 
 PCOD9245115
Probable space group: P 21/C
;
_chemical_formula_sum "Si O2"
_cell_formula_units_Z 16
_cell_length_a 13.185914
_cell_length_b 5.159206
_cell_length_c 14.710807
_cell_angle_alpha 90.000000
_cell_angle_beta 44.258412
_cell_angle_gamma 90.000000
_cell_volume 698.425483
_symmetry_space_group_name_H-M "P 21/C"
_symmetry_group_IT_number 14
_symmetry_cell_setting 'monoclinic'
loop_
_space_group_symop_operation_xyz
x,y,z
-x,1/2+y,1/2-z
-x,-y,-z
x,1/2-y,1/2+z
loop_
_atom_site_type_symbol
_atom_site_label
_atom_site_fract_x
_atom_site_fract_y
_atom_site_fract_z
Si Si1 0.359248 0.255839 0.546859
Si Si2 0.287530 0.871512 0.432014
Si Si3 0.909753 0.427063 0.328764
Si Si4 0.574064 0.878151 0.810470
O O1 0.234973 0.478030 0.630244
O O2 0.388198 0.181037 0.632315
O O3 0.501855 0.381533 0.410381
O O4 0.298711 0.046081 0.515600
O O5 0.153970 0.679491 0.534665
O O6 0.441560 0.721719 0.333415
O O7 0.293023 0.043632 0.338609
O O8 0.009341 0.682874 0.268601
#
# Coordination Sequence:
#
# PCOD9245115 Si02
#       4
#     4   4   4   4
#     4  10  21  39  63  93 130 166 204 270 310 384
#     4  11  20  38  66  93 131 168 204 270 315 384
#     4  11  23  43  66  87 126 180 217 254 312 369
#     4  10  21  36  62 102 125 161 210 259 334 371
#
# _framework density 22.908670999999998
#
# number of rings (size 3 to 8) (size 9 to 14) (size 15 to 20)
#    0.000    1.500    5.000    0.750    0.000    0.000 
#    0.000    2.500    0.000    0.000    0.000    0.000 
#    0.000    0.000    0.000    0.000    0.000    0.000 
#
# Total GULP energy -89314.080212 kJ/mol
# GULP energy per Si atom -5582.130013 kJ/mol
# Density = 2.285653 g / cm^3
# Si number density = 22.908671 Si / 1000 Ang^3
#
#
#
# Elastic Constant Matrix: (Units=GPa)
#
#
# Indices 1 2 3 4 5 6 
#
# 1 32.4693 14.4209 34.8091 0.0000 3.2801 0.0000
# 2 14.4209 116.1944 45.0409 0.0000 -10.6541 0.0000
# 3 34.8091 45.0409 110.7603 0.0000 -6.8214 0.0000
# 4 0.0000 0.0000 0.0000 40.0188 0.0000 -11.0589
# 5 3.2801 -10.6541 -6.8214 0.0000 32.3819 0.0000
# 6 0.0000 0.0000 0.0000 -11.0589 0.0000 29.4951
#
#
#
# Elastic Compliance Matrix: (Units=1/GPa)
#
#
# Indices 1 2 3 4 5 6 
#
# 1 0.048585 -0.000812 -0.015459 0.000000 -0.008445 0.000000
# 2 -0.000812 0.010437 -0.003822 0.000000 0.002711 0.000000
# 3 -0.015459 -0.003822 0.015663 0.000000 0.003608 0.000000
# 4 0.000000 0.000000 0.000000 0.027877 0.000000 0.010452
# 5 -0.008445 0.002711 0.003608 0.000000 0.033389 0.000000
# 6 0.000000 0.000000 0.000000 0.010452 0.000000 0.037823
#
#
# Mechanical properties :
#
#
# Convention : Reuss Voigt Hill
#
# Bulk Modulus (GPa) = 28.98589 49.77400 39.37995
# Shear Modulus (GPa) = 22.17692 31.38938 26.78315
#
# Velocity S-wave (km/s) = 3.11474 3.70563 3.42296
# Velocity P-wave (km/s) = 5.06120 6.33113 5.73145
#
# Compressibility (1/GPa) = 0.03449955
#
# Stress axis : x y z
#
# Youngs Moduli (GPa) = 20.58249 95.81090 63.84316
#
# Poissons Ratio (x) = 0.07778 0.98695
# Poissons Ratio (y) = 0.01671 0.24402
# Poissons Ratio (z) = 0.31818 0.36621
#
# Static dielectric constant tensor:
#      x y z
#    x 1.936430 0.000000 0.004570 
#    y 0.000000 1.961650 0.000000 
#    z 0.004570 0.000000 1.883940 
# 
# From -- ./inp_files/27347.got.cif
#   From: 2010.05.17/outbox.cif.g08.bks.cpg/sg14_14_cif.got.tgz:27347.got - 2010.06.03 17:49:19.
