data_PCOD9245503
_publ_section_title
;
Structure prediction by ZEFSAII (Michael W. Deem and Ramdas Pophale) SiO2 
 PCOD9245503
Probable space group: P 21/C
;
_chemical_formula_sum "Si O2"
_cell_formula_units_Z 32
_cell_length_a 14.542779
_cell_length_b 19.427940
_cell_length_c 14.368289
_cell_angle_alpha 90.000000
_cell_angle_beta 19.288643
_cell_angle_gamma 90.000000
_cell_volume 1340.984295
_symmetry_space_group_name_H-M "P 21/C"
_symmetry_group_IT_number 14
_symmetry_cell_setting 'monoclinic'
loop_
_space_group_symop_operation_xyz
x,y,z
-x,1/2+y,1/2-z
-x,-y,-z
x,1/2-y,1/2+z
loop_
_atom_site_type_symbol
_atom_site_label
_atom_site_fract_x
_atom_site_fract_y
_atom_site_fract_z
Si Si1 0.189433 0.441818 0.719570
Si Si2 0.747135 0.804748 0.102290
Si Si3 0.981381 0.747572 0.056402
Si Si4 0.318222 0.036260 0.298150
Si Si5 0.478721 0.307073 0.377545
Si Si6 0.939012 0.095443 0.989024
Si Si7 0.743609 0.100107 0.377346
Si Si8 0.599378 0.953357 0.581049
O O1 0.373917 0.508963 0.518569
O O2 0.224676 0.423897 0.795282
O O3 0.329559 0.381091 0.528174
O O4 0.878646 0.468966 0.005458
O O5 0.572153 0.781957 0.179400
O O6 0.528996 0.851674 0.369182
O O7 0.890182 0.749902 0.035209
O O8 0.004947 0.853183 0.824931
O O9 0.102548 0.822919 0.963131
O O10 0.701846 0.739472 0.381516
O O11 0.209451 0.694911 0.879572
O O12 0.309336 0.073477 0.405373
O O13 0.238964 0.080425 0.659567
O O14 0.861836 0.071350 0.166581
O O15 0.724081 0.060233 0.124570
O O16 0.661094 0.034620 0.516885
#
# Coordination Sequence:
#
# PCOD9245503 Si02
#       8
#     4   4   4   4   4   4   4   4
#     4  10  21  40  63  90 124 162 207 266 316 375
#     4  11  23  42  66  93 123 169 216 271 321 368
#     4  11  25  44  60  90 129 167 216 275 310 365
#     4  10  21  38  61  93 131 154 198 267 326 378
#     4  12  23  43  69  91 121 174 223 261 316 382
#     4  11  23  39  57  85 133 165 203 264 317 370
#     4  11  21  38  64  92 127 162 217 259 311 390
#     4  12  21  36  61  96 123 171 205 248 329 400
#
# _framework density 23.863067999999998
#
# number of rings (size 3 to 8) (size 9 to 14) (size 15 to 20)
#    0.000    1.000    0.000    9.000    0.000    0.000 
#    6.750    0.000    0.000    0.000    0.000    0.000 
#    0.000    0.000    0.000    0.000    0.000    0.000 
#
# Total GULP energy -178943.902177 kJ/mol
# GULP energy per Si atom -5591.996943 kJ/mol
# Density = 2.380875 g / cm^3
# Si number density = 23.863068 Si / 1000 Ang^3
#
#
#
# Elastic Constant Matrix: (Units=GPa)
#
#
# Indices 1 2 3 4 5 6 
#
# 1 134.6597 3.9762 -4.2393 0.0000 -11.8386 0.0000
# 2 3.9762 15.3239 -0.3768 0.0000 -1.3418 0.0000
# 3 -4.2393 -0.3768 92.9246 0.0000 -18.5156 0.0000
# 4 0.0000 0.0000 0.0000 41.7772 0.0000 0.5209
# 5 -11.8386 -1.3418 -18.5156 0.0000 25.9475 0.0000
# 6 0.0000 0.0000 0.0000 0.5209 0.0000 10.8816
#
#
#
# Elastic Compliance Matrix: (Units=1/GPa)
#
#
# Indices 1 2 3 4 5 6 
#
# 1 0.007900 -0.001634 0.001230 0.000000 0.004397 0.000000
# 2 -0.001634 0.065988 0.000844 0.000000 0.003269 0.000000
# 3 0.001230 0.000844 0.012755 0.000000 0.009707 0.000000
# 4 0.000000 0.000000 0.000000 0.023951 0.000000 -0.001146
# 5 0.004397 0.003269 0.009707 0.000000 0.047641 0.000000
# 6 0.000000 0.000000 0.000000 -0.001146 0.000000 0.091953
#
#
# Mechanical properties :
#
#
# Convention : Reuss Voigt Hill
#
# Bulk Modulus (GPa) = 11.42557 26.84761 19.13659
# Shear Modulus (GPa) = 17.95441 31.95779 24.95610
#
# Velocity S-wave (km/s) = 2.74595 3.66350 3.23740
# Velocity P-wave (km/s) = 3.85384 5.40093 4.69160
#
# Compressibility (1/GPa) = 0.08752297
#
# Stress axis : x y z
#
# Youngs Moduli (GPa) = 126.58690 15.15416 78.40046
#
# Poissons Ratio (x) = 0.02477 -0.09643
# Poissons Ratio (y) = 0.20690 -0.06620
# Poissons Ratio (z) = -0.15570 -0.01280
#
# Static dielectric constant tensor:
#      x y z
#    x 1.938400 0.000000 0.001700 
#    y 0.000000 1.947750 0.000000 
#    z 0.001700 0.000000 1.841340 
# 
# From -- ./inp_files/47654.got.cif
#   From: 2010.05.17/outbox.cif.g08.bks.cpg/sg14_24_cif.got.tgz:47654.got - 2010.06.03 17:49:19.
