data_PCOD9245057
_publ_section_title
;
Structure prediction by ZEFSAII (Michael W. Deem and Ramdas Pophale) SiO2 
 PCOD9245057
Probable space group: P 21/C
;
_chemical_formula_sum "Si O2"
_cell_formula_units_Z 20
_cell_length_a 22.238375
_cell_length_b 6.620428
_cell_length_c 13.647565
_cell_angle_alpha 90.000000
_cell_angle_beta 155.137596
_cell_angle_gamma 90.000000
_cell_volume 844.790219
_symmetry_space_group_name_H-M "P 21/C"
_symmetry_group_IT_number 14
_symmetry_cell_setting 'monoclinic'
loop_
_space_group_symop_operation_xyz
x,y,z
-x,1/2+y,1/2-z
-x,-y,-z
x,1/2-y,1/2+z
loop_
_atom_site_type_symbol
_atom_site_label
_atom_site_fract_x
_atom_site_fract_y
_atom_site_fract_z
Si Si1 0.807836 0.357100 0.942598
Si Si2 0.985056 0.800600 0.412382
Si Si3 0.575187 0.082255 0.482673
Si Si4 0.218273 0.551418 0.874746
Si Si5 0.603913 0.692556 0.647519
O O1 0.961748 0.336011 0.120075
O O2 0.697183 0.201523 0.727140
O O3 0.753559 0.587133 0.845825
O O4 0.797213 0.340337 0.043586
O O5 0.105304 0.654976 0.635729
O O6 0.837392 0.678832 0.199359
O O7 0.000000 0.000000 0.500000
O O8 0.429280 0.190769 0.299958
O O9 0.628387 0.080023 0.449996
O O10 0.570016 0.855211 0.514863
O O11 0.500000 0.500000 0.500000
#
# Coordination Sequence:
#
# PCOD9245057 Si02
#       5
#     4   4   4   4   4
#     4  10  21  36  58  88 114 154 197 235 296 353
#     4  10  22  38  59  82 120 155 188 246 295 345
#     4   9  19  39  58  82 121 151 190 247 293 344
#     4  10  22  38  56  90 116 151 201 239 291 360
#     4   9  18  37  60  81 114 154 190 242 296 347
#
# _framework density 23.674517000000002
#
# number of rings (size 3 to 8) (size 9 to 14) (size 15 to 20)
#    0.000    2.400    0.000    1.200    2.800    1.600 
#   10.800    0.000    0.000    0.000    0.000    0.000 
#    0.000    0.000    0.000    0.000    0.000    0.000 
#
# Total GULP energy -111621.608405 kJ/mol
# GULP energy per Si atom -5581.080420 kJ/mol
# Density = 2.362063 g / cm^3
# Si number density = 23.674517 Si / 1000 Ang^3
#
#
#
# Elastic Constant Matrix: (Units=GPa)
#
#
# Indices 1 2 3 4 5 6 
#
# 1 190.7267 55.6420 14.3836 0.0000 -7.9323 0.0000
# 2 55.6420 112.9910 21.1410 0.0000 12.3647 0.0000
# 3 14.3836 21.1410 41.9676 0.0000 -6.2043 0.0000
# 4 0.0000 0.0000 0.0000 12.8757 0.0000 -1.3882
# 5 -7.9323 12.3647 -6.2043 0.0000 24.8594 0.0000
# 6 0.0000 0.0000 0.0000 -1.3882 0.0000 25.7976
#
#
#
# Elastic Compliance Matrix: (Units=1/GPa)
#
#
# Indices 1 2 3 4 5 6 
#
# 1 0.006455 -0.003646 0.000205 0.000000 0.003924 0.000000
# 2 -0.003646 0.012892 -0.006608 0.000000 -0.009225 0.000000
# 3 0.000205 -0.006608 0.028639 0.000000 0.010500 0.000000
# 4 0.000000 0.000000 0.000000 0.078119 0.000000 0.004204
# 5 0.003924 -0.009225 0.010500 0.000000 0.048687 0.000000
# 6 0.000000 0.000000 0.000000 0.004204 0.000000 0.038990
#
#
# Mechanical properties :
#
#
# Convention : Reuss Voigt Hill
#
# Bulk Modulus (GPa) = 35.86074 58.66873 47.26473
# Shear Modulus (GPa) = 20.56125 29.67446 25.11785
#
# Velocity S-wave (km/s) = 2.95022 3.54423 3.26078
# Velocity P-wave (km/s) = 5.17546 6.44856 5.84676
#
# Compressibility (1/GPa) = 0.02788565
#
# Stress axis : x y z
#
# Youngs Moduli (GPa) = 154.92740 77.56879 34.91764
#
# Poissons Ratio (x) = 0.28284 -0.00715
# Poissons Ratio (y) = 0.56491 0.23074
# Poissons Ratio (z) = -0.03172 0.51259
#
# Static dielectric constant tensor:
#      x y z
#    x 1.932640 0.000000 0.009500 
#    y 0.000000 1.897370 0.000000 
#    z 0.009500 0.000000 1.933060 
# 
# From -- ./inp_files/50920.got.cif
#   From: 2010.05.17/outbox.cif.g08.bks.cpg/sg14_26_cif.got.tgz:50920.got - 2010.06.03 17:49:19.
