data_PCOD9245011
_publ_section_title
;
Structure prediction by ZEFSAII (Michael W. Deem and Ramdas Pophale) SiO2 
 PCOD9245011
Probable space group: P 21/C
;
_chemical_formula_sum "Si O2"
_cell_formula_units_Z 24
_cell_length_a 7.595772
_cell_length_b 8.622927
_cell_length_c 23.138529
_cell_angle_alpha 90.000000
_cell_angle_beta 36.490784
_cell_angle_gamma 90.000000
_cell_volume 901.271321
_symmetry_space_group_name_H-M "P 21/C"
_symmetry_group_IT_number 14
_symmetry_cell_setting 'monoclinic'
loop_
_space_group_symop_operation_xyz
x,y,z
-x,1/2+y,1/2-z
-x,-y,-z
x,1/2-y,1/2+z
loop_
_atom_site_type_symbol
_atom_site_label
_atom_site_fract_x
_atom_site_fract_y
_atom_site_fract_z
Si Si1 0.740036 0.783299 0.410166
Si Si2 0.261355 0.896982 0.336873
Si Si3 0.349166 0.932401 0.949623
Si Si4 0.138601 0.258234 0.962808
Si Si5 0.643701 0.098177 0.379045
Si Si6 0.260220 0.316245 0.757728
O O1 0.601701 0.621495 0.426991
O O2 0.548961 0.850361 0.514166
O O3 0.080052 0.787005 0.339626
O O4 0.695752 0.914216 0.371912
O O5 0.593260 0.840573 0.258440
O O6 0.080802 0.867493 0.443016
O O7 0.215966 0.064591 0.321900
O O8 0.495265 0.895444 0.848643
O O9 0.232938 0.106052 0.975901
O O10 0.067887 0.818151 0.031374
O O11 0.446374 0.349643 0.877006
O O12 0.954269 0.185803 0.303523
#
# Coordination Sequence:
#
# PCOD9245011 Si02
#       6
#     4   4   4   4   4   4
#     4   9  19  37  56  79 111 147 185 223 271 339
#     4   9  20  38  57  80 112 148 186 222 275 340
#     4  10  21  36  56  84 115 142 184 237 276 316
#     4   9  20  38  56  80 113 151 185 221 276 340
#     4   9  19  35  56  79 109 148 186 221 270 336
#     4  10  21  37  57  84 112 142 186 238 274 316
#
# _framework density 26.629052000000001
#
# number of rings (size 3 to 8) (size 9 to 14) (size 15 to 20)
#    0.000    2.667    0.000    1.000    0.000   11.333 
#    0.000    6.667    0.000    0.000    0.000    0.000 
#    0.000    0.000    0.000    0.000    0.000    0.000 
#
# Total GULP energy -134337.011314 kJ/mol
# GULP energy per Si atom -5597.375471 kJ/mol
# Density = 2.656844 g / cm^3
# Si number density = 26.629052 Si / 1000 Ang^3
#
#
#
# Elastic Constant Matrix: (Units=GPa)
#
#
# Indices 1 2 3 4 5 6 
#
# 1 84.7291 20.3180 15.1765 0.0000 -36.4523 0.0000
# 2 20.3180 79.2731 28.3539 0.0000 -3.3279 0.0000
# 3 15.1765 28.3539 102.9131 0.0000 -23.7392 0.0000
# 4 0.0000 0.0000 0.0000 42.7477 0.0000 -6.5338
# 5 -36.4523 -3.3279 -23.7392 0.0000 52.3402 0.0000
# 6 0.0000 0.0000 0.0000 -6.5338 0.0000 47.4037
#
#
#
# Elastic Compliance Matrix: (Units=1/GPa)
#
#
# Indices 1 2 3 4 5 6 
#
# 1 0.018324 -0.004732 0.001648 0.000000 0.013209 0.000000
# 2 -0.004732 0.015259 -0.004515 0.000000 -0.004373 0.000000
# 3 0.001648 -0.004515 0.012192 0.000000 0.006391 0.000000
# 4 0.000000 0.000000 0.000000 0.023896 0.000000 0.003294
# 5 0.013209 -0.004373 0.006391 0.000000 0.030926 0.000000
# 6 0.000000 0.000000 0.000000 0.003294 0.000000 0.021549
#
#
# Mechanical properties :
#
#
# Convention : Reuss Voigt Hill
#
# Bulk Modulus (GPa) = 32.70281 43.84577 38.27429
# Shear Modulus (GPa) = 33.89008 42.03612 37.96310
#
# Velocity S-wave (km/s) = 3.57132 3.97745 3.77984
# Velocity P-wave (km/s) = 5.41418 6.13144 5.78394
#
# Compressibility (1/GPa) = 0.03057841
#
# Stress axis : x y z
#
# Youngs Moduli (GPa) = 54.57185 65.53661 82.02155
#
# Poissons Ratio (x) = 0.31010 -0.13519
# Poissons Ratio (y) = 0.25822 0.37032
# Poissons Ratio (z) = -0.08995 0.29589
#
# Static dielectric constant tensor:
#      x y z
#    x 2.149250 0.000000 0.036000 
#    y 0.000000 2.042190 0.000000 
#    z 0.036000 0.000000 2.061790 
# 
# From -- ./inp_files/61674.got.cif
#   From: 2010.05.17/outbox.cif.g08.bks.cpg/sg14_31_cif.got.tgz:61674.got - 2010.06.03 17:49:19.
