data_PCOD9245544
_publ_section_title
;
Structure prediction by ZEFSAII (Michael W. Deem and Ramdas Pophale) SiO2 
 PCOD9245544
Probable space group: P 21/C
;
_chemical_formula_sum "Si O2"
_cell_formula_units_Z 32
_cell_length_a 14.208156
_cell_length_b 18.363498
_cell_length_c 11.341713
_cell_angle_alpha 90.000000
_cell_angle_beta 34.407315
_cell_angle_gamma 90.000000
_cell_volume 1672.152309
_symmetry_space_group_name_H-M "P 21/C"
_symmetry_group_IT_number 14
_symmetry_cell_setting 'monoclinic'
loop_
_space_group_symop_operation_xyz
x,y,z
-x,1/2+y,1/2-z
-x,-y,-z
x,1/2-y,1/2+z
loop_
_atom_site_type_symbol
_atom_site_label
_atom_site_fract_x
_atom_site_fract_y
_atom_site_fract_z
Si Si1 0.073612 0.315650 0.631265
Si Si2 0.851522 0.948537 0.107562
Si Si3 0.316583 0.982452 0.949937
Si Si4 0.689253 0.545397 0.021684
Si Si5 0.188476 0.338571 0.914465
Si Si6 0.733846 0.116599 0.570604
Si Si7 0.632104 0.636405 0.497915
Si Si8 0.898694 0.073229 0.633835
O O1 0.088251 0.372036 0.507366
O O2 0.126276 0.235670 0.536148
O O3 0.217124 0.335397 0.577253
O O4 0.887807 0.332044 0.873215
O O5 0.736170 0.936351 0.339764
O O6 0.757816 0.986795 0.094689
O O7 0.000000 0.000000 0.000000
O O8 0.492797 0.946513 0.743993
O O9 0.349829 0.048807 0.007634
O O10 0.185087 0.932619 0.152404
O O11 0.777901 0.599047 0.022759
O O12 0.733817 0.459887 0.998201
O O13 0.341085 0.336441 0.663417
O O14 0.035289 0.364783 0.993439
O O15 0.550549 0.152251 0.759289
O O16 0.765856 0.089806 0.670849
O O17 0.000000 0.000000 0.500000
#
# Coordination Sequence:
#
# PCOD9245544 Si02
#       8
#     4   4   4   4   4   4   4   4
#     4  11  25  44  61  90 136 171 208 270 329 383
#     4  11  21  39  64  89 128 170 215 260 322 382
#     4  10  21  38  62  98 124 157 216 275 310 375
#     4  11  22  37  66  96 122 167 222 262 314 386
#     4  12  24  39  66  95 128 169 210 267 333 384
#     4  11  21  42  70  92 124 168 216 267 315 377
#     4  10  22  43  65  89 124 167 211 267 323 371
#     4  12  19  37  66  96 124 159 212 263 320 380
#
# _framework density 19.137013
#
# number of rings (size 3 to 8) (size 9 to 14) (size 15 to 20)
#    0.000    1.000    5.000    2.625    1.750    2.000 
#    4.500    0.000    0.000    0.000    0.000    0.000 
#    0.000    0.000    0.000    0.000    0.000    0.000 
#
# Total GULP energy -178589.912385 kJ/mol
# GULP energy per Si atom -5580.934762 kJ/mol
# Density = 1.909346 g / cm^3
# Si number density = 19.137013 Si / 1000 Ang^3
#
#
#
# Elastic Constant Matrix: (Units=GPa)
#
#
# Indices 1 2 3 4 5 6 
#
# 1 67.1158 13.7466 45.7542 0.0000 5.5427 0.0000
# 2 13.7466 62.6959 52.1973 0.0000 1.8456 0.0000
# 3 45.7542 52.1973 160.3244 0.0000 0.8612 0.0000
# 4 0.0000 0.0000 0.0000 20.2383 0.0000 5.7909
# 5 5.5427 1.8456 0.8612 0.0000 38.3394 0.0000
# 6 0.0000 0.0000 0.0000 5.7909 0.0000 14.5221
#
#
#
# Elastic Compliance Matrix: (Units=1/GPa)
#
#
# Indices 1 2 3 4 5 6 
#
# 1 0.018767 0.000562 -0.005525 0.000000 -0.002616 0.000000
# 2 0.000562 0.021928 -0.007294 0.000000 -0.000973 0.000000
# 3 -0.005525 -0.007294 0.010184 0.000000 0.000921 0.000000
# 4 0.000000 0.000000 0.000000 0.055775 0.000000 -0.022241
# 5 -0.002616 -0.000973 0.000921 0.000000 0.026487 0.000000
# 6 0.000000 0.000000 0.000000 -0.022241 0.000000 0.077729
#
#
# Mechanical properties :
#
#
# Convention : Reuss Voigt Hill
#
# Bulk Modulus (GPa) = 37.92963 57.05913 47.49438
# Shear Modulus (GPa) = 20.47723 26.51584 23.49654
#
# Velocity S-wave (km/s) = 3.27468 3.72637 3.50781
# Velocity P-wave (km/s) = 5.84475 6.95668 6.42481
#
# Compressibility (1/GPa) = 0.02636461
#
# Stress axis : x y z
#
# Youngs Moduli (GPa) = 53.28547 45.60300 98.19424
#
# Poissons Ratio (x) = -0.02562 0.54248
# Poissons Ratio (y) = -0.02993 0.71627
# Poissons Ratio (z) = 0.29438 0.33265
#
# Static dielectric constant tensor:
#      x y z
#    x 1.644010 0.000000 -0.035400 
#    y 0.000000 1.661430 0.000000 
#    z -0.035400 0.000000 1.636550 
# 
# From -- ./inp_files/33045.got.cif
#   From: 2010.05.17/outbox.cif.g08.bks.cpg/sg14_17_cif.got.tgz:33045.got - 2010.06.03 17:49:19.
