data_PCOD9245898
_publ_section_title
;
Structure prediction by ZEFSAII (Michael W. Deem and Ramdas Pophale) SiO2 
 PCOD9245898
Probable space group: P 21/C
;
_chemical_formula_sum "Si O2"
_cell_formula_units_Z 32
_cell_length_a 23.337598
_cell_length_b 5.389864
_cell_length_c 12.396022
_cell_angle_alpha 90.000000
_cell_angle_beta 119.080044
_cell_angle_gamma 90.000000
_cell_volume 1362.695094
_symmetry_space_group_name_H-M "P 21/C"
_symmetry_group_IT_number 14
_symmetry_cell_setting 'monoclinic'
loop_
_space_group_symop_operation_xyz
x,y,z
-x,1/2+y,1/2-z
-x,-y,-z
x,1/2-y,1/2+z
loop_
_atom_site_type_symbol
_atom_site_label
_atom_site_fract_x
_atom_site_fract_y
_atom_site_fract_z
Si Si1 0.081181 0.502598 0.866620
Si Si2 0.709292 0.357651 0.930851
Si Si3 0.427245 0.081880 0.711365
Si Si4 0.199657 0.981894 0.308408
Si Si5 0.233223 0.469876 0.232109
Si Si6 0.647152 0.519927 0.505819
Si Si7 0.478002 0.694584 0.068341
Si Si8 0.035461 0.496706 0.416576
O O1 0.142872 0.494566 0.844069
O O2 0.077017 0.753399 0.933455
O O3 0.019640 0.503878 0.727677
O O4 0.075323 0.257129 0.934251
O O5 0.636825 0.420447 0.826327
O O6 0.757397 0.439631 0.881054
O O7 0.699745 0.077659 0.963480
O O8 0.732750 0.494453 0.060974
O O9 0.396952 0.285551 0.600478
O O10 0.461601 0.121687 0.857848
O O11 0.479706 0.938928 0.686642
O O12 0.197948 0.208759 0.223162
O O13 0.199328 0.706067 0.258588
O O14 0.305871 0.428957 0.350105
O O15 0.594210 0.312698 0.497893
O O16 0.500000 0.500000 0.000000
O O17 0.000000 0.500000 0.500000
#
# Coordination Sequence:
#
# PCOD9245898 Si02
#       8
#     4   4   4   4   4   4   4   4
#     4  10  22  39  63  93 136 163 211 266 298 357
#     4  10  25  40  63  84 119 163 200 261 312 368
#     4  11  22  41  56  84 116 147 200 252 310 375
#     4  11  24  43  62  98 125 164 215 258 304 369
#     4  11  25  41  66  88 123 166 209 252 318 371
#     4  10  23  42  56  85 119 150 204 256 309 380
#     4  11  25  37  61  86 113 155 198 255 322 382
#     4  10  21  39  64  96 129 177 208 250 313 362
#
# _framework density 23.482877999999999
#
# number of rings (size 3 to 8) (size 9 to 14) (size 15 to 20)
#    0.000    1.500    2.500    1.125    5.250    2.500 
#    0.000    0.000    0.000    0.000    0.000    0.000 
#    0.000    0.000    0.000    0.000    0.000    0.000 
#
# Total GULP energy -178633.976609 kJ/mol
# GULP energy per Si atom -5582.311769 kJ/mol
# Density = 2.342943 g / cm^3
# Si number density = 23.482878 Si / 1000 Ang^3
#
#
#
# Elastic Constant Matrix: (Units=GPa)
#
#
# Indices 1 2 3 4 5 6 
#
# 1 57.9001 14.9141 -8.7951 0.0000 -11.5071 0.0000
# 2 14.9141 92.9999 -4.5817 0.0000 -7.6900 0.0000
# 3 -8.7951 -4.5817 40.5672 0.0000 2.3339 0.0000
# 4 0.0000 0.0000 0.0000 8.6339 0.0000 -10.0578
# 5 -11.5071 -7.6900 2.3339 0.0000 38.8819 0.0000
# 6 0.0000 0.0000 0.0000 -10.0578 0.0000 25.8304
#
#
#
# Elastic Compliance Matrix: (Units=1/GPa)
#
#
# Indices 1 2 3 4 5 6 
#
# 1 0.019479 -0.002527 0.003647 0.000000 0.005046 0.000000
# 2 -0.002527 0.011310 0.000646 0.000000 0.001450 0.000000
# 3 0.003647 0.000646 0.025533 0.000000 -0.000325 0.000000
# 4 0.000000 0.000000 0.000000 0.211972 0.000000 0.082537
# 5 0.005046 0.001450 -0.000325 0.000000 0.027519 0.000000
# 6 0.000000 0.000000 0.000000 0.082537 0.000000 0.070852
#
#
# Mechanical properties :
#
#
# Convention : Reuss Voigt Hill
#
# Bulk Modulus (GPa) = 16.70712 21.61576 19.16144
# Shear Modulus (GPa) = 13.05202 27.33123 20.19163
#
# Velocity S-wave (km/s) = 2.36012 3.41527 2.93549
# Velocity P-wave (km/s) = 3.81535 4.97765 4.43474
#
# Compressibility (1/GPa) = 0.05985473
#
# Stress axis : x y z
#
# Youngs Moduli (GPa) = 51.33762 88.41999 39.16517
#
# Poissons Ratio (x) = 0.22342 -0.14285
# Poissons Ratio (y) = 0.12972 -0.02530
# Poissons Ratio (z) = -0.18725 -0.05713
#
# Static dielectric constant tensor:
#      x y z
#    x 1.934940 0.000000 0.085880 
#    y 0.000000 2.046880 0.000000 
#    z 0.085880 0.000000 1.946950 
# 
# From -- ./inp_files/35601.got.cif
#   From: 2010.05.17/outbox.cif.g08.bks.cpg/sg14_18_cif.got.tgz:35601.got - 2010.06.03 17:49:19.
