data_PCOD9245358
_publ_section_title
;
Structure prediction by ZEFSAII (Michael W. Deem and Ramdas Pophale) SiO2 
 PCOD9245358
Probable space group: P 21/C
;
_chemical_formula_sum "Si O2"
_cell_formula_units_Z 32
_cell_length_a 11.544463
_cell_length_b 16.017933
_cell_length_c 8.522952
_cell_angle_alpha 90.000000
_cell_angle_beta 67.913156
_cell_angle_gamma 90.000000
_cell_volume 1460.392435
_symmetry_space_group_name_H-M "P 21/C"
_symmetry_group_IT_number 14
_symmetry_cell_setting 'monoclinic'
loop_
_space_group_symop_operation_xyz
x,y,z
-x,1/2+y,1/2-z
-x,-y,-z
x,1/2-y,1/2+z
loop_
_atom_site_type_symbol
_atom_site_label
_atom_site_fract_x
_atom_site_fract_y
_atom_site_fract_z
Si Si1 0.913186 0.309698 0.896083
Si Si2 0.131936 0.089356 0.444881
Si Si3 0.242998 0.975432 0.129003
Si Si4 0.783005 0.862663 0.050617
Si Si5 0.697970 0.781544 0.789170
Si Si6 0.583879 0.161824 0.017925
Si Si7 0.003278 0.124357 0.825318
Si Si8 0.262386 0.712874 0.273949
O O1 0.830920 0.338260 0.790291
O O2 0.011242 0.375743 0.911399
O O3 0.980211 0.223049 0.810599
O O4 0.820872 0.277609 0.081220
O O5 0.237227 0.160245 0.374057
O O6 0.086450 0.082916 0.645898
O O7 0.188414 0.011763 0.320179
O O8 0.132163 0.918163 0.114106
O O9 0.369609 0.923398 0.085115
O O10 0.265570 0.051430 0.997712
O O11 0.706899 0.813083 0.223720
O O12 0.919563 0.879681 0.052725
O O13 0.777248 0.801327 0.904395
O O14 0.560027 0.815435 0.892666
O O15 0.649735 0.162289 0.154232
O O16 0.649474 0.234175 0.884494
#
# Coordination Sequence:
#
# PCOD9245358 Si02
#       8
#     4   4   4   4   4   4   4   4
#     4  11  20  36  63  95 129 170 216 269 330 406
#     4  11  24  38  67  98 133 179 214 272 338 402
#     4  11  25  42  67 101 137 172 216 286 350 385
#     4  11  25  40  68 100 133 177 225 278 335 400
#     4  11  24  42  65  96 131 181 234 267 324 404
#     4  11  23  45  67  95 131 179 231 282 326 395
#     4  12  22  41  66  98 143 166 217 275 345 404
#     4  10  21  37  66  92 126 175 220 267 330 401
#
# _framework density 21.911916999999999
#
# number of rings (size 3 to 8) (size 9 to 14) (size 15 to 20)
#    0.000    1.000    5.000    2.250    5.250    3.000 
#    0.000    1.250    0.000    6.000    0.000    0.000 
#    0.000    0.000    0.000    0.000    0.000    0.000 
#
# Total GULP energy -178877.444475 kJ/mol
# GULP energy per Si atom -5589.920140 kJ/mol
# Density = 2.186204 g / cm^3
# Si number density = 21.911917 Si / 1000 Ang^3
#
#
#
# Elastic Constant Matrix: (Units=GPa)
#
#
# Indices 1 2 3 4 5 6 
#
# 1 59.1042 10.4002 49.7110 0.0000 -23.6127 0.0000
# 2 10.4002 67.8863 20.9335 0.0000 -13.6858 0.0000
# 3 49.7110 20.9335 84.9749 0.0000 -9.7478 0.0000
# 4 0.0000 0.0000 0.0000 30.2571 0.0000 -5.8444
# 5 -23.6127 -13.6858 -9.7478 0.0000 39.9496 0.0000
# 6 0.0000 0.0000 0.0000 -5.8444 0.0000 20.7345
#
#
#
# Elastic Compliance Matrix: (Units=1/GPa)
#
#
# Indices 1 2 3 4 5 6 
#
# 1 0.047787 0.005668 -0.026635 0.000000 0.023688 0.000000
# 2 0.005668 0.017493 -0.006742 0.000000 0.007698 0.000000
# 3 -0.026635 -0.006742 0.027716 0.000000 -0.011290 0.000000
# 4 0.000000 0.000000 0.000000 0.034953 0.000000 0.009852
# 5 0.023688 0.007698 -0.011290 0.000000 0.038915 0.000000
# 6 0.000000 0.000000 0.000000 0.009852 0.000000 0.051006
#
#
# Mechanical properties :
#
#
# Convention : Reuss Voigt Hill
#
# Bulk Modulus (GPa) = 26.61169 41.56165 34.08667
# Shear Modulus (GPa) = 17.49388 26.91629 22.20508
#
# Velocity S-wave (km/s) = 2.82861 3.50864 3.18682
# Velocity P-wave (km/s) = 4.77905 5.95171 5.39732
#
# Compressibility (1/GPa) = 0.03757747
#
# Stress axis : x y z
#
# Youngs Moduli (GPa) = 20.92600 57.16568 36.08074
#
# Poissons Ratio (x) = -0.32399 0.96101
# Poissons Ratio (y) = -0.11860 0.24326
# Poissons Ratio (z) = 0.55736 0.38541
#
# Static dielectric constant tensor:
#      x y z
#    x 1.811070 0.000000 0.023900 
#    y 0.000000 1.831200 0.000000 
#    z 0.023900 0.000000 1.840840 
# 
# From -- ./inp_files/13867.got.cif
#   From: 2010.05.17/outbox.cif.g08.bks.cpg/sg14_7_cif.got.tgz:13867.got - 2010.06.03 17:49:19.
