data_PCOD9245603
_publ_section_title
;
Structure prediction by ZEFSAII (Michael W. Deem and Ramdas Pophale) SiO2 
 PCOD9245603
Probable space group: P 21/C
;
_chemical_formula_sum "Si O2"
_cell_formula_units_Z 24
_cell_length_a 16.314050
_cell_length_b 7.409082
_cell_length_c 22.773040
_cell_angle_alpha 90.000000
_cell_angle_beta 19.879075
_cell_angle_gamma 90.000000
_cell_volume 935.992260
_symmetry_space_group_name_H-M "P 21/C"
_symmetry_group_IT_number 14
_symmetry_cell_setting 'monoclinic'
loop_
_space_group_symop_operation_xyz
x,y,z
-x,1/2+y,1/2-z
-x,-y,-z
x,1/2-y,1/2+z
loop_
_atom_site_type_symbol
_atom_site_label
_atom_site_fract_x
_atom_site_fract_y
_atom_site_fract_z
Si Si1 0.756325 0.605649 0.683649
Si Si2 0.631372 0.156331 0.118461
Si Si3 0.093382 0.477966 0.853301
Si Si4 0.030126 0.132554 0.276327
Si Si5 0.626479 0.557860 0.975328
Si Si6 0.351082 0.843915 0.282214
O O1 0.589542 0.711984 0.749865
O O2 0.814024 0.777211 0.689101
O O3 0.000000 0.500000 0.500000
O O4 0.576511 0.473961 0.839271
O O5 0.596222 0.955064 0.118410
O O6 0.642131 0.168422 0.181718
O O7 0.860814 0.235416 0.929595
O O8 0.107440 0.510724 0.774540
O O9 0.225636 0.624520 0.804415
O O10 0.819810 0.468767 0.059942
O O11 0.265190 0.241817 0.099512
O O12 0.858555 0.058673 0.340870
O O13 0.500000 0.500000 0.000000
#
# Coordination Sequence:
#
# PCOD9245603 Si02
#       6
#     4   4   4   4   4   4
#     4  10  21  38  65 100 133 172 223 284 341 399
#     4   9  20  35  60  95 138 170 223 278 339 403
#     4   9  18  38  62  88 135 172 211 276 340 396
#     4  10  22  43  68  95 135 180 234 283 336 416
#     4  11  23  46  74  96 135 187 228 282 348 408
#     4   9  18  33  59  92 127 178 207 273 342 392
#
# _framework density 25.641238999999999
#
# number of rings (size 3 to 8) (size 9 to 14) (size 15 to 20)
#    0.000    2.333    1.667    0.000    4.667    0.000 
#    3.000   12.500    0.000    0.000    0.000    0.000 
#    0.000    0.000    0.000    0.000    0.000    0.000 
#
# Total GULP energy -134068.804706 kJ/mol
# GULP energy per Si atom -5586.200196 kJ/mol
# Density = 2.558288 g / cm^3
# Si number density = 25.641239 Si / 1000 Ang^3
#
#
#
# Elastic Constant Matrix: (Units=GPa)
#
#
# Indices 1 2 3 4 5 6 
#
# 1 204.4364 21.5802 47.7732 0.0000 -13.0375 0.0000
# 2 21.5802 52.2602 31.3621 0.0000 -1.1047 0.0000
# 3 47.7732 31.3621 112.2301 0.0000 0.9575 0.0000
# 4 0.0000 0.0000 0.0000 53.0379 0.0000 -2.8511
# 5 -13.0375 -1.1047 0.9575 0.0000 30.8577 0.0000
# 6 0.0000 0.0000 0.0000 -2.8511 0.0000 34.8488
#
#
#
# Elastic Compliance Matrix: (Units=1/GPa)
#
#
# Indices 1 2 3 4 5 6 
#
# 1 0.005653 -0.000993 -0.002149 0.000000 0.002420 0.000000
# 2 -0.000993 0.023197 -0.006065 0.000000 0.000599 0.000000
# 3 -0.002149 -0.006065 0.011533 0.000000 -0.001483 0.000000
# 4 0.000000 0.000000 0.000000 0.018938 0.000000 0.001549
# 5 0.002420 0.000599 -0.001483 0.000000 0.033497 0.000000
# 6 0.000000 0.000000 0.000000 0.001549 0.000000 0.028822
#
#
# Mechanical properties :
#
#
# Convention : Reuss Voigt Hill
#
# Bulk Modulus (GPa) = 45.52033 63.37307 54.44670
# Shear Modulus (GPa) = 33.92667 41.62962 37.77815
#
# Velocity S-wave (km/s) = 3.64143 4.03369 3.84257
# Velocity P-wave (km/s) = 5.95578 6.81639 6.40057
#
# Compressibility (1/GPa) = 0.02196821
#
# Stress axis : x y z
#
# Youngs Moduli (GPa) = 176.89991 43.10835 86.71090
#
# Poissons Ratio (x) = 0.04282 0.18637
# Poissons Ratio (y) = 0.17571 0.52587
# Poissons Ratio (z) = 0.38022 0.26144
#
# Static dielectric constant tensor:
#      x y z
#    x 2.103200 0.000000 -0.008050 
#    y 0.000000 2.259690 0.000000 
#    z -0.008050 0.000000 1.994060 
# 
# From -- ./inp_files/74152.got.cif
#   From: 2010.05.17/outbox.cif.g08.bks.cpg/sg14_38_cif.got.tgz:74152.got - 2010.06.03 17:49:19.
