data_PCOD9245435
_publ_section_title
;
Structure prediction by ZEFSAII (Michael W. Deem and Ramdas Pophale) SiO2 
 PCOD9245435
Probable space group: P 21/C
;
_chemical_formula_sum "Si O2"
_cell_formula_units_Z 20
_cell_length_a 21.223388
_cell_length_b 5.254507
_cell_length_c 9.060572
_cell_angle_alpha 90.000000
_cell_angle_beta 123.898635
_cell_angle_gamma 90.000000
_cell_volume 838.675155
_symmetry_space_group_name_H-M "P 21/C"
_symmetry_group_IT_number 14
_symmetry_cell_setting 'monoclinic'
loop_
_space_group_symop_operation_xyz
x,y,z
-x,1/2+y,1/2-z
-x,-y,-z
x,1/2-y,1/2+z
loop_
_atom_site_type_symbol
_atom_site_label
_atom_site_fract_x
_atom_site_fract_y
_atom_site_fract_z
Si Si1 0.944330 0.860369 0.315394
Si Si2 0.911001 0.143507 0.681485
Si Si3 0.470282 0.031357 0.627799
Si Si4 0.710684 0.979873 0.581853
Si Si5 0.768632 0.016868 0.323056
O O1 0.912644 0.579281 0.306253
O O2 0.002943 0.806212 0.257733
O O3 0.883806 0.075275 0.191662
O O4 0.000000 0.000000 0.500000
O O5 0.857217 0.038445 0.483281
O O6 0.501442 0.291309 0.739553
O O7 0.500000 0.000000 0.500000
O O8 0.379307 0.036886 0.511306
O O9 0.741857 0.230730 0.704049
O O10 0.728544 0.997262 0.431179
O O11 0.748470 0.730352 0.702412
#
# Coordination Sequence:
#
# PCOD9245435 Si02
#       5
#     4   4   4   4   4
#     4  10  21  38  60  83 119 152 226 258 324 376
#     4  10  23  37  58  89 114 170 205 274 316 385
#     4  12  24  44  72 100 136 175 221 270 326 385
#     4  12  26  45  68 103 134 177 219 272 324 405
#     4  12  26  44  69  96 141 173 223 268 340 389
#
# _framework density 23.847135999999999
#
# number of rings (size 3 to 8) (size 9 to 14) (size 15 to 20)
#    0.000    0.800    0.000    7.200    5.600    0.000 
#    0.000    0.000    0.000    0.000    0.000    0.000 
#    0.000    0.000    0.000    0.000    0.000    0.000 
#
# Total GULP energy -112006.952462 kJ/mol
# GULP energy per Si atom -5600.347623 kJ/mol
# Density = 2.379286 g / cm^3
# Si number density = 23.847136 Si / 1000 Ang^3
#
#
#
# Elastic Constant Matrix: (Units=GPa)
#
#
# Indices 1 2 3 4 5 6 
#
# 1 123.4857 34.7247 32.5460 0.0000 8.7519 0.0000
# 2 34.7247 151.9487 26.7399 0.0000 1.2982 0.0000
# 3 32.5460 26.7399 76.8712 0.0000 5.5823 0.0000
# 4 0.0000 0.0000 0.0000 67.0580 0.0000 -0.8988
# 5 8.7519 1.2982 5.5823 0.0000 58.0398 0.0000
# 6 0.0000 0.0000 0.0000 -0.8988 0.0000 27.7081
#
#
#
# Elastic Compliance Matrix: (Units=1/GPa)
#
#
# Indices 1 2 3 4 5 6 
#
# 1 0.009512 -0.001565 -0.003405 0.000000 -0.001072 0.000000
# 2 -0.001565 0.007268 -0.001884 0.000000 0.000255 0.000000
# 3 -0.003405 -0.001884 0.015171 0.000000 -0.000904 0.000000
# 4 0.000000 0.000000 0.000000 0.014919 0.000000 0.000484
# 5 -0.001072 0.000255 -0.000904 0.000000 0.017472 0.000000
# 6 0.000000 0.000000 0.000000 0.000484 0.000000 0.036106
#
#
# Mechanical properties :
#
#
# Convention : Reuss Voigt Hill
#
# Bulk Modulus (GPa) = 54.81580 60.03633 57.42606
# Shear Modulus (GPa) = 41.58422 47.78084 44.68253
#
# Velocity S-wave (km/s) = 4.18039 4.48105 4.33333
# Velocity P-wave (km/s) = 6.80714 7.21132 7.01214
#
# Compressibility (1/GPa) = 0.01824292
#
# Stress axis : x y z
#
# Youngs Moduli (GPa) = 105.13480 137.58414 65.91410
#
# Poissons Ratio (x) = 0.21537 0.22442
# Poissons Ratio (y) = 0.16457 0.12419
# Poissons Ratio (z) = 0.35795 0.25921
#
# Static dielectric constant tensor:
#      x y z
#    x 1.972090 0.000000 -0.040160 
#    y 0.000000 1.954080 0.000000 
#    z -0.040160 0.000000 1.879010 
# 
# From -- ./inp_files/19288.got.cif
#   From: 2010.05.17/outbox.cif.g08.bks.cpg/sg14_10_cif.got.tgz:19288.got - 2010.06.03 17:49:19.
