data_PCOD9245848
_publ_section_title
;
Structure prediction by ZEFSAII (Michael W. Deem and Ramdas Pophale) SiO2 
 PCOD9245848
Probable space group: P 21/C
;
_chemical_formula_sum "Si O2"
_cell_formula_units_Z 32
_cell_length_a 14.826766
_cell_length_b 5.074938
_cell_length_c 15.175085
_cell_angle_alpha 90.000000
_cell_angle_beta 97.602568
_cell_angle_gamma 90.000000
_cell_volume 1131.810742
_symmetry_space_group_name_H-M "P 21/C"
_symmetry_group_IT_number 14
_symmetry_cell_setting 'monoclinic'
loop_
_space_group_symop_operation_xyz
x,y,z
-x,1/2+y,1/2-z
-x,-y,-z
x,1/2-y,1/2+z
loop_
_atom_site_type_symbol
_atom_site_label
_atom_site_fract_x
_atom_site_fract_y
_atom_site_fract_z
Si Si1 0.641651 0.328778 0.244460
Si Si2 0.253322 0.847805 0.405069
Si Si3 0.247883 0.334693 0.200925
Si Si4 0.159030 0.076719 0.018398
Si Si5 0.541796 0.246791 0.891263
Si Si6 0.380293 0.251686 0.501040
Si Si7 0.999194 0.305928 0.398348
Si Si8 0.897291 0.123905 0.217787
O O1 0.658689 0.266317 0.143794
O O2 0.677585 0.625035 0.259060
O O3 0.549724 0.289132 0.287324
O O4 0.707881 0.123076 0.304136
O O5 0.220591 0.616177 0.466046
O O6 0.171677 0.851104 0.322701
O O7 0.090320 0.218263 0.460207
O O8 0.171386 0.389587 0.264506
O O9 0.206720 0.217996 0.106529
O O10 0.285845 0.386361 0.957359
O O11 0.084246 0.877963 0.051120
O O12 0.443751 0.219682 0.923168
O O13 0.576703 0.528351 0.929888
O O14 0.605420 0.020567 0.942948
O O15 0.037163 0.565933 0.354323
O O16 0.958507 0.150800 0.311491
#
# Coordination Sequence:
#
# PCOD9245848 Si02
#       8
#     4   4   4   4   4   4   4   4
#     4  11  24  44  69 101 142 186 229 291 362 430
#     4  10  23  42  70 105 140 182 242 298 355 429
#     4  11  23  42  68  97 137 185 238 294 357 426
#     4  10  21  40  66 100 135 184 244 300 356 426
#     4  10  22  43  70 101 140 182 222 277 356 421
#     4  10  22  43  71 102 137 177 227 287 344 424
#     4  10  21  39  63  94 137 184 239 301 364 424
#     4  10  22  41  65  96 140 191 241 302 370 428
#
# _framework density 28.273275000000002
#
# number of rings (size 3 to 8) (size 9 to 14) (size 15 to 20)
#    0.000    1.750    0.000    3.750    0.000    3.500 
#    0.000   20.000    0.000    0.000    0.000    0.000 
#    0.000    0.000    0.000    0.000    0.000    0.000 
#
# Total GULP energy -179327.565601 kJ/mol
# GULP energy per Si atom -5603.986425 kJ/mol
# Density = 2.820892 g / cm^3
# Si number density = 28.273275 Si / 1000 Ang^3
#
#
#
# Elastic Constant Matrix: (Units=GPa)
#
#
# Indices 1 2 3 4 5 6 
#
# 1 97.1455 58.1771 58.2348 0.0000 -6.2289 0.0000
# 2 58.1771 145.0875 42.5113 0.0000 13.4610 0.0000
# 3 58.2348 42.5113 153.7498 0.0000 -32.1400 0.0000
# 4 0.0000 0.0000 0.0000 43.1344 0.0000 7.4936
# 5 -6.2289 13.4610 -32.1400 0.0000 69.6018 0.0000
# 6 0.0000 0.0000 0.0000 7.4936 0.0000 35.0422
#
#
#
# Elastic Compliance Matrix: (Units=1/GPa)
#
#
# Indices 1 2 3 4 5 6 
#
# 1 0.016184 -0.005158 -0.004640 0.000000 0.000303 0.000000
# 2 -0.005158 0.009619 -0.001319 0.000000 -0.002931 0.000000
# 3 -0.004640 -0.001319 0.009511 0.000000 0.004232 0.000000
# 4 0.000000 0.000000 0.000000 0.024078 0.000000 -0.005149
# 5 0.000303 -0.002931 0.004232 0.000000 0.016915 0.000000
# 6 0.000000 0.000000 0.000000 -0.005149 0.000000 0.029638
#
#
# Mechanical properties :
#
#
# Convention : Reuss Voigt Hill
#
# Bulk Modulus (GPa) = 76.45346 79.31435 77.88391
# Shear Modulus (GPa) = 37.72490 45.35967 41.54228
#
# Velocity S-wave (km/s) = 3.65676 4.00975 3.83732
# Velocity P-wave (km/s) = 6.70290 7.03926 6.87314
#
# Compressibility (1/GPa) = 0.01307985
#
# Stress axis : x y z
#
# Youngs Moduli (GPa) = 61.79003 103.96234 105.14328
#
# Poissons Ratio (x) = 0.53622 0.48790
# Poissons Ratio (y) = 0.31870 0.13865
# Poissons Ratio (z) = 0.28673 0.13709
#
# Static dielectric constant tensor:
#      x y z
#    x 2.326810 0.000000 -0.019150 
#    y 0.000000 2.150310 0.000000 
#    z -0.019150 0.000000 2.224240 
# 
# From -- ./inp_files/48173.got.cif
#   From: 2010.05.17/outbox.cif.g08.bks.cpg/sg14_25_cif.got.tgz:48173.got - 2010.06.03 17:49:19.
