data_PCOD9245202
_publ_section_title
;
Structure prediction by ZEFSAII (Michael W. Deem and Ramdas Pophale) SiO2 
 PCOD9245202
Probable space group: P 21/C
;
_chemical_formula_sum "Si O2"
_cell_formula_units_Z 32
_cell_length_a 12.929014
_cell_length_b 7.994222
_cell_length_c 29.922752
_cell_angle_alpha 90.000000
_cell_angle_beta 149.786837
_cell_angle_gamma 90.000000
_cell_volume 1556.322992
_symmetry_space_group_name_H-M "P 21/C"
_symmetry_group_IT_number 14
_symmetry_cell_setting 'monoclinic'
loop_
_space_group_symop_operation_xyz
x,y,z
-x,1/2+y,1/2-z
-x,-y,-z
x,1/2-y,1/2+z
loop_
_atom_site_type_symbol
_atom_site_label
_atom_site_fract_x
_atom_site_fract_y
_atom_site_fract_z
Si Si1 0.430018 0.421564 0.617930
Si Si2 0.614475 0.400947 0.855311
Si Si3 0.124206 0.757040 0.311621
Si Si4 0.323621 0.685744 0.978883
Si Si5 0.622279 0.757041 0.811621
Si Si6 0.908087 0.314256 0.521117
Si Si7 0.306767 0.099053 0.855311
Si Si8 0.541702 0.078436 0.617930
O O1 0.481250 0.363620 0.687041
O O2 0.212660 0.515054 0.534551
O O3 0.591630 0.544419 0.654041
O O4 0.427405 0.250000 0.588703
O O5 0.645873 0.569418 0.838763
O O6 0.504803 0.272156 0.781196
O O7 0.819233 0.319971 0.952308
O O8 0.475467 0.455581 0.845959
O O9 0.208199 0.829140 0.389424
O O10 0.209179 0.569418 0.338763
O O11 0.233088 0.863620 0.312959
O O12 0.880018 0.772156 0.218804
O O13 0.168470 0.750000 0.959235
O O14 0.510000 0.819971 0.047692
O O15 0.425545 0.515054 0.034551
O O16 0.849497 0.829140 0.889424
#
# Coordination Sequence:
#
# PCOD9245202 Si02
#       8
#     4   4   4   4   4   4   4   4
#     4   9  20  38  56  82 119 152 192 245 294 348
#     4  10  22  38  57  85 117 149 194 248 292 349
#     4  11  21  37  60  83 112 156 195 237 301 361
#     4  10  21  37  58  84 114 151 193 242 294 354
#     4  11  21  37  60  83 112 156 195 237 301 361
#     4  10  21  37  58  84 114 151 193 242 294 354
#     4  10  22  38  57  85 117 149 194 248 292 349
#     4   9  20  38  56  82 119 152 192 245 294 348
#
# _framework density 20.561283
#
# number of rings (size 3 to 8) (size 9 to 14) (size 15 to 20)
#    0.000    2.000    0.000    3.000    0.000    5.000 
#    0.000    3.750    0.000    0.000    0.000    0.000 
#    0.000    0.000    0.000    0.000    0.000    0.000 
#
# Total GULP energy -178804.315327 kJ/mol
# GULP energy per Si atom -5587.634854 kJ/mol
# Density = 2.051448 g / cm^3
# Si number density = 20.561283 Si / 1000 Ang^3
#
#
#
# Elastic Constant Matrix: (Units=GPa)
#
#
# Indices 1 2 3 4 5 6 
#
# 1 35.6258 2.5016 15.4909 0.0000 -1.8340 0.0000
# 2 2.5016 63.0836 -21.5307 0.0000 1.6505 0.0000
# 3 15.4909 -21.5307 39.3186 0.0000 1.5803 0.0000
# 4 0.0000 0.0000 0.0000 16.0159 0.0000 1.2622
# 5 -1.8340 1.6505 1.5803 0.0000 23.1846 0.0000
# 6 0.0000 0.0000 0.0000 1.2622 0.0000 34.3930
#
#
#
# Elastic Compliance Matrix: (Units=1/GPa)
#
#
# Indices 1 2 3 4 5 6 
#
# 1 0.037341 -0.008235 -0.019417 0.000000 0.004863 0.000000
# 2 -0.008235 0.021416 0.015101 0.000000 -0.003205 0.000000
# 3 -0.019417 0.015101 0.041571 0.000000 -0.005445 0.000000
# 4 0.000000 0.000000 0.000000 0.062619 0.000000 -0.002298
# 5 0.004863 -0.003205 -0.005445 0.000000 0.044116 0.000000
# 6 0.000000 0.000000 0.000000 -0.002298 0.000000 0.029160
#
#
# Mechanical properties :
#
#
# Convention : Reuss Voigt Hill
#
# Bulk Modulus (GPa) = 13.29318 14.55020 13.92169
# Shear Modulus (GPa) = 17.45806 24.15645 20.80725
#
# Velocity S-wave (km/s) = 2.91705 3.43133 3.18459
# Velocity P-wave (km/s) = 4.22194 4.77395 4.50640
#
# Compressibility (1/GPa) = 0.07522655
#
# Stress axis : x y z
#
# Youngs Moduli (GPa) = 26.78025 46.69326 24.05520
#
# Poissons Ratio (x) = 0.38452 0.46707
# Poissons Ratio (y) = 0.22054 -0.36325
# Poissons Ratio (z) = 0.51998 -0.70510
#
# Static dielectric constant tensor:
#      x y z
#    x 1.751710 0.000000 0.006140 
#    y 0.000000 1.774410 0.000000 
#    z 0.006140 0.000000 1.662350 
# 
# From -- ./inp_files/40078.got.cif
#   From: 2010.05.17/outbox.cif.g08.bks.cpg/sg14_21_cif.got.tgz:40078.got - 2010.06.03 17:49:19.
