data_PCOD9245464
_publ_section_title
;
Structure prediction by ZEFSAII (Michael W. Deem and Ramdas Pophale) SiO2 
 PCOD9245464
Probable space group: P 21/C
;
_chemical_formula_sum "Si O2"
_cell_formula_units_Z 32
_cell_length_a 11.776531
_cell_length_b 8.180514
_cell_length_c 19.490728
_cell_angle_alpha 90.000000
_cell_angle_beta 129.895456
_cell_angle_gamma 90.000000
_cell_volume 1440.600947
_symmetry_space_group_name_H-M "P 21/C"
_symmetry_group_IT_number 14
_symmetry_cell_setting 'monoclinic'
loop_
_space_group_symop_operation_xyz
x,y,z
-x,1/2+y,1/2-z
-x,-y,-z
x,1/2-y,1/2+z
loop_
_atom_site_type_symbol
_atom_site_label
_atom_site_fract_x
_atom_site_fract_y
_atom_site_fract_z
Si Si1 0.068178 0.046305 0.138712
Si Si2 0.576511 0.012610 0.331973
Si Si3 0.297417 0.837336 0.159371
Si Si4 0.987988 0.038305 0.661313
Si Si5 0.495036 0.159394 0.449642
Si Si6 0.122730 0.119006 0.583277
Si Si7 0.772106 0.326986 0.528085
Si Si8 0.838495 0.775235 0.686783
O O1 0.085294 0.190328 0.086295
O O2 0.146605 0.113917 0.237734
O O3 0.894634 0.035170 0.088621
O O4 0.150384 0.888537 0.142537
O O5 0.643488 0.155340 0.311210
O O6 0.530107 0.087285 0.387295
O O7 0.431240 0.945571 0.239477
O O8 0.718217 0.891956 0.391564
O O9 0.268076 0.851936 0.066893
O O10 0.865248 0.160508 0.581048
O O11 0.119814 0.039633 0.658011
O O12 0.059969 0.122114 0.755446
O O13 0.910813 0.873157 0.652383
O O14 0.622862 0.294003 0.512029
O O15 0.335232 0.242842 0.391549
O O16 0.500000 0.000000 0.500000
O O17 0.000000 0.000000 0.500000
#
# Coordination Sequence:
#
# PCOD9245464 Si02
#       8
#     4   4   4   4   4   4   4   4
#     4  10  21  41  63  91 127 171 210 265 321 385
#     4  11  23  36  61  95 125 166 214 265 328 385
#     4  11  21  37  60  91 128 170 208 267 326 380
#     4  10  22  41  62  91 123 172 215 267 310 387
#     4  11  20  37  65  90 123 167 211 259 320 383
#     4  10  21  38  60  91 128 161 212 262 319 379
#     4   9  20  34  63  89 122 162 207 255 319 377
#     4  10  21  39  66  87 125 165 220 260 318 377
#
# _framework density 22.212954
#
# number of rings (size 3 to 8) (size 9 to 14) (size 15 to 20)
#    0.000    2.000    2.500    4.125    5.250    1.000 
#    0.000    1.250    5.500    3.000    0.000    0.000 
#    0.000    0.000    0.000    0.000    0.000    0.000 
#
# Total GULP energy -178468.996734 kJ/mol
# GULP energy per Si atom -5577.156148 kJ/mol
# Density = 2.216240 g / cm^3
# Si number density = 22.212954 Si / 1000 Ang^3
#
#
#
# Elastic Constant Matrix: (Units=GPa)
#
#
# Indices 1 2 3 4 5 6 
#
# 1 104.7093 31.3338 23.0584 0.0000 26.8775 0.0000
# 2 31.3338 47.8684 15.1444 0.0000 0.3681 0.0000
# 3 23.0584 15.1444 82.9993 0.0000 16.2264 0.0000
# 4 0.0000 0.0000 0.0000 30.0895 0.0000 -6.6364
# 5 26.8775 0.3681 16.2264 0.0000 36.4359 0.0000
# 6 0.0000 0.0000 0.0000 -6.6364 0.0000 48.4319
#
#
#
# Elastic Compliance Matrix: (Units=1/GPa)
#
#
# Indices 1 2 3 4 5 6 
#
# 1 0.015456 -0.009938 -0.000297 0.000000 -0.011169 0.000000
# 2 -0.009938 0.028659 -0.004212 0.000000 0.008917 0.000000
# 3 -0.000297 -0.004212 0.014073 0.000000 -0.006006 0.000000
# 4 0.000000 0.000000 0.000000 0.034270 0.000000 0.004696
# 5 -0.011169 0.008917 -0.006006 0.000000 0.038269 0.000000
# 6 0.000000 0.000000 0.000000 0.004696 0.000000 0.021291
#
#
# Mechanical properties :
#
#
# Convention : Reuss Voigt Hill
#
# Bulk Modulus (GPa) = 34.13408 41.62780 37.88094
# Shear Modulus (GPa) = 26.22231 34.06085 30.14158
#
# Velocity S-wave (km/s) = 3.43956 3.92008 3.68766
# Velocity P-wave (km/s) = 5.58339 6.26661 5.93484
#
# Compressibility (1/GPa) = 0.02929623
#
# Stress axis : x y z
#
# Youngs Moduli (GPa) = 64.69827 34.89252 71.05570
#
# Poissons Ratio (x) = 0.34675 0.02112
# Poissons Ratio (y) = 0.64294 0.29927
# Poissons Ratio (z) = 0.01923 0.14696
#
# Static dielectric constant tensor:
#      x y z
#    x 1.895920 0.000000 0.026490 
#    y 0.000000 1.507730 0.000000 
#    z 0.026490 0.000000 1.854370 
# 
# From -- ./inp_files/67068.got.cif
#   From: 2010.05.17/outbox.cif.g08.bks.cpg/sg14_34_cif.got.tgz:67068.got - 2010.06.03 17:49:19.
