data_PCOD9245354
_publ_section_title
;
Structure prediction by ZEFSAII (Michael W. Deem and Ramdas Pophale) SiO2 
 PCOD9245354
Probable space group: P 21/C
;
_chemical_formula_sum "Si O2"
_cell_formula_units_Z 26
_cell_length_a 14.660158
_cell_length_b 10.114130
_cell_length_c 14.394068
_cell_angle_alpha 90.000000
_cell_angle_beta 27.668399
_cell_angle_gamma 90.000000
_cell_volume 991.059183
_symmetry_space_group_name_H-M "P 21/C"
_symmetry_group_IT_number 14
_symmetry_cell_setting 'monoclinic'
loop_
_space_group_symop_operation_xyz
x,y,z
-x,1/2+y,1/2-z
-x,-y,-z
x,1/2-y,1/2+z
loop_
_atom_site_type_symbol
_atom_site_label
_atom_site_fract_x
_atom_site_fract_y
_atom_site_fract_z
Si Si1 0.693857 0.762153 0.230549
Si Si2 0.831992 0.809508 0.399842
Si Si3 0.500000 0.500000 0.500000
Si Si4 0.352187 0.544445 0.019481
Si Si5 0.843946 0.158410 0.484190
Si Si6 0.872264 0.465827 0.256970
Si Si7 0.865414 0.206593 0.137624
O O1 0.595791 0.633089 0.363614
O O2 0.556678 0.890538 0.362353
O O3 0.741080 0.732160 0.079622
O O4 0.902949 0.794993 0.087070
O O5 0.943126 0.688604 0.253087
O O6 0.025158 0.904415 0.243858
O O7 0.680198 0.891958 0.475655
O O8 0.653486 0.523771 0.451283
O O9 0.204297 0.590012 0.233784
O O10 0.295264 0.617770 0.973322
O O11 0.770910 0.266614 0.622357
O O12 0.929641 0.034224 0.465005
O O13 0.825272 0.338262 0.233938
#
# Coordination Sequence:
#
# PCOD9245354 Si02
#       7
#     4   4   2   4   4   4   4
#     4  11  23  42  63 100 130 166 223 284 320 385
#     4  10  24  43  64  95 135 178 216 267 344 403
#     4  12  20  34  68 100 124 162 222 278 330 366
#     4  11  24  44  64  95 137 170 217 279 328 395
#     4  11  21  41  68  90 130 180 215 264 346 386
#     4  10  21  37  65  97 127 162 218 284 317 380
#     4  11  22  43  65  94 133 168 220 273 328 388
#
# _framework density 26.234559000000001
#
# number of rings (size 3 to 8) (size 9 to 14) (size 15 to 20)
#    0.000    1.231    6.154    0.462    4.308    1.846 
#    5.538    0.769    0.000    0.000    0.000    0.000 
#    0.000    0.000    0.000    0.000    0.000    0.000 
#
# Total GULP energy -144787.244705 kJ/mol
# GULP energy per Si atom -5568.740181 kJ/mol
# Density = 2.617485 g / cm^3
# Si number density = 26.234559 Si / 1000 Ang^3
#
#
#
# Elastic Constant Matrix: (Units=GPa)
#
#
# Indices 1 2 3 4 5 6 
#
# 1 81.8553 -17.2688 25.5235 0.0000 -2.9997 0.0000
# 2 -17.2688 -21.5212 10.3453 0.0000 37.3690 0.0000
# 3 25.5235 10.3453 63.9713 0.0000 -27.0287 0.0000
# 4 0.0000 0.0000 0.0000 11.6244 0.0000 17.4221
# 5 -2.9997 37.3690 -27.0287 0.0000 -4.0761 0.0000
# 6 0.0000 0.0000 0.0000 17.4221 0.0000 -41.7393
#
#
#
# Elastic Compliance Matrix: (Units=1/GPa)
#
#
# Indices 1 2 3 4 5 6 
#
# 1 0.013231 0.000064 -0.002409 0.000000 0.006818 0.000000
# 2 0.000064 0.011206 0.010930 0.000000 0.030218 0.000000
# 3 -0.002409 0.010930 0.015233 0.000000 0.000964 0.000000
# 4 0.000000 0.000000 0.000000 0.052920 0.000000 0.022089
# 5 0.006818 0.030218 0.000964 0.000000 0.020286 0.000000
# 6 0.000000 0.000000 0.000000 0.022089 0.000000 -0.014738
#
#
# Mechanical properties :
#
#
# Convention : Reuss Voigt Hill
#
# Bulk Modulus (GPa) = 17.59339 17.94506 17.76923
# Shear Modulus (GPa) = 50.04211 0.20882 25.12547
#
# Velocity S-wave (km/s) = 4.37222 0.28244 3.09807
# Velocity P-wave (km/s) = 5.67531 2.63846 4.42553
#
# Compressibility (1/GPa) = 0.05683953
#
# Stress axis : x y z
#
# Youngs Moduli (GPa) = 75.58017 89.23395 65.64718
#
# Poissons Ratio (x) = -0.00567 0.15812
# Poissons Ratio (y) = -0.00480 -0.71750
# Poissons Ratio (z) = 0.18205 -0.97530
#
# Static dielectric constant tensor:
#      x y z
#    x 1.938970 0.000000 0.025570 
#    y 0.000000 2.436940 0.000000 
#    z 0.025570 0.000000 2.221160 
# 
# From -- ./inp_files/47105.got.cif
#   From: 2010.05.17/outbox.cif.g08.bks.cpg/sg14_24_cif.got.tgz:47105.got - 2010.06.03 17:49:19.
