data_PCOD9245138
_publ_section_title
;
Structure prediction by ZEFSAII (Michael W. Deem and Ramdas Pophale) SiO2 
 PCOD9245138
Probable space group: P 21/C
;
_chemical_formula_sum "Si O2"
_cell_formula_units_Z 32
_cell_length_a 14.211987
_cell_length_b 13.274026
_cell_length_c 8.412749
_cell_angle_alpha 90.000000
_cell_angle_beta 91.004636
_cell_angle_gamma 90.000000
_cell_volume 1586.823532
_symmetry_space_group_name_H-M "P 21/C"
_symmetry_group_IT_number 14
_symmetry_cell_setting 'monoclinic'
loop_
_space_group_symop_operation_xyz
x,y,z
-x,1/2+y,1/2-z
-x,-y,-z
x,1/2-y,1/2+z
loop_
_atom_site_type_symbol
_atom_site_label
_atom_site_fract_x
_atom_site_fract_y
_atom_site_fract_z
Si Si1 0.277039 0.928565 0.295614
Si Si2 0.919510 0.511452 0.626267
Si Si3 0.681311 0.412694 0.871803
Si Si4 0.577264 0.256648 0.223396
Si Si5 0.882695 0.175526 0.328663
Si Si6 0.934193 0.381879 0.165850
Si Si7 0.713283 0.534998 0.543681
Si Si8 0.476004 0.117764 0.961774
O O1 0.320838 0.972871 0.461603
O O2 0.323661 0.815835 0.303674
O O3 0.164331 0.941198 0.313020
O O4 0.298086 0.970408 0.119794
O O5 0.893886 0.400000 0.682806
O O6 0.823269 0.561492 0.563955
O O7 0.000000 0.500000 0.500000
O O8 0.971017 0.567372 0.771475
O O9 0.598572 0.332666 0.849750
O O10 0.776474 0.345108 0.882734
O O11 0.688306 0.475841 0.707963
O O12 0.529592 0.192516 0.082601
O O13 0.510950 0.343919 0.291532
O O14 0.911248 0.284138 0.270466
O O15 0.943858 0.145550 0.482246
O O16 0.636617 0.622731 0.528761
O O17 0.500000 0.000000 0.000000
#
# Coordination Sequence:
#
# PCOD9245138 Si02
#       8
#     4   4   4   4   4   4   4   4
#     4  11  21  36  67  99 128 163 224 279 324 392
#     4  11  22  40  64  91 127 173 219 266 328 400
#     4  10  21  36  64 100 128 163 216 284 325 383
#     4  12  21  40  65 100 132 168 228 272 337 404
#     4  10  22  34  61  95 129 160 215 273 329 385
#     4  11  21  36  61  98 125 167 213 270 334 383
#     4  11  24  45  64  94 139 172 215 279 342 392
#     4  12  25  42  68  96 137 179 217 286 344 399
#
# _framework density 20.166073000000001
#
# number of rings (size 3 to 8) (size 9 to 14) (size 15 to 20)
#    0.000    1.000    6.250    1.125    1.750    0.000 
#    2.250    4.375    0.000    0.000    0.000    0.000 
#    0.000    0.000    0.000    0.000    0.000    0.000 
#
# Total GULP energy -178286.422899 kJ/mol
# GULP energy per Si atom -5571.450716 kJ/mol
# Density = 2.012017 g / cm^3
# Si number density = 20.166073 Si / 1000 Ang^3
#
#
#
# Elastic Constant Matrix: (Units=GPa)
#
#
# Indices 1 2 3 4 5 6 
#
# 1 99.6863 8.6826 19.9548 0.0000 11.6774 0.0000
# 2 8.6826 30.9353 12.7790 0.0000 -0.4675 0.0000
# 3 19.9548 12.7790 109.2894 0.0000 8.9723 0.0000
# 4 0.0000 0.0000 0.0000 26.1625 0.0000 4.6346
# 5 11.6774 -0.4675 8.9723 0.0000 27.2628 0.0000
# 6 0.0000 0.0000 0.0000 4.6346 0.0000 4.0930
#
#
#
# Elastic Compliance Matrix: (Units=1/GPa)
#
#
# Indices 1 2 3 4 5 6 
#
# 1 0.011036 -0.002603 -0.001356 0.000000 -0.004326 0.000000
# 2 -0.002603 0.034680 -0.003824 0.000000 0.002968 0.000000
# 3 -0.001356 -0.003824 0.010075 0.000000 -0.002800 0.000000
# 4 0.000000 0.000000 0.000000 0.047813 0.000000 -0.054140
# 5 -0.004326 0.002968 -0.002800 0.000000 0.039505 0.000000
# 6 0.000000 0.000000 0.000000 -0.054140 0.000000 0.305624
#
#
# Mechanical properties :
#
#
# Convention : Reuss Voigt Hill
#
# Bulk Modulus (GPa) = 24.85886 35.86042 30.35964
# Shear Modulus (GPa) = 10.46666 24.73664 17.60165
#
# Velocity S-wave (km/s) = 2.28068 3.50615 2.95758
# Velocity P-wave (km/s) = 4.39194 5.84910 5.17209
#
# Compressibility (1/GPa) = 0.04022710
#
# Stress axis : x y z
#
# Youngs Moduli (GPa) = 90.61049 28.83473 99.26031
#
# Poissons Ratio (x) = 0.07505 0.13456
# Poissons Ratio (y) = 0.23585 0.37952
# Poissons Ratio (z) = 0.12283 0.11025
#
# Static dielectric constant tensor:
#      x y z
#    x 1.755830 0.000000 0.012920 
#    y 0.000000 1.712960 0.000000 
#    z 0.012920 0.000000 1.816280 
# 
# From -- ./inp_files/15564.got.cif
#   From: 2010.05.17/outbox.cif.g08.bks.cpg/sg14_8_cif.got.tgz:15564.got - 2010.06.03 17:49:19.
