data_PCOD9245741
_publ_section_title
;
Structure prediction by ZEFSAII (Michael W. Deem and Ramdas Pophale) SiO2 
 PCOD9245741
Probable space group: P 21/C
;
_chemical_formula_sum "Si O2"
_cell_formula_units_Z 32
_cell_length_a 6.664930
_cell_length_b 20.666790
_cell_length_c 9.947461
_cell_angle_alpha 90.000000
_cell_angle_beta 86.895883
_cell_angle_gamma 90.000000
_cell_volume 1368.179855
_symmetry_space_group_name_H-M "P 21/C"
_symmetry_group_IT_number 14
_symmetry_cell_setting 'monoclinic'
loop_
_space_group_symop_operation_xyz
x,y,z
-x,1/2+y,1/2-z
-x,-y,-z
x,1/2-y,1/2+z
loop_
_atom_site_type_symbol
_atom_site_label
_atom_site_fract_x
_atom_site_fract_y
_atom_site_fract_z
Si Si1 0.875215 0.751549 0.793135
Si Si2 0.175880 0.382613 0.129272
Si Si3 0.680756 0.449966 0.466985
Si Si4 0.903797 0.300584 0.978176
Si Si5 0.407719 0.143131 0.103608
Si Si6 0.467084 0.873620 0.593097
Si Si7 0.848686 0.022995 0.393205
Si Si8 0.062923 0.046078 0.146215
O O1 0.817880 0.676580 0.766655
O O2 0.683716 0.786097 0.868800
O O3 0.957139 0.783249 0.654468
O O4 0.047655 0.750232 0.903564
O O5 0.199274 0.454888 0.180453
O O6 0.343436 0.370693 0.010159
O O7 0.971696 0.365616 0.055700
O O8 0.500000 0.500000 0.500000
O O9 0.579863 0.379672 0.492233
O O10 0.802696 0.480641 0.337010
O O11 0.860974 0.459035 0.566843
O O12 0.681019 0.313849 0.934625
O O13 0.484033 0.123974 0.250515
O O14 0.211813 0.099173 0.081308
O O15 0.351079 0.939948 0.563756
O O16 0.000000 0.000000 0.500000
O O17 0.977732 0.068307 0.290972
#
# Coordination Sequence:
#
# PCOD9245741 Si02
#       8
#     4   4   4   4   4   4   4   4
#     4  10  22  47  64  91 136 168 219 284 318 398
#     4  10  24  42  60  97 129 163 222 271 324 392
#     4   9  20  39  60  95 133 167 220 266 319 397
#     4  10  23  45  64  95 129 172 221 270 332 389
#     4  11  20  38  70  97 123 179 225 263 337 401
#     4  12  22  41  71  96 125 171 224 272 334 410
#     4  12  21  40  66  94 134 170 206 276 344 383
#     4  10  21  39  60  99 137 165 214 279 321 395
#
# _framework density 23.388738
#
# number of rings (size 3 to 8) (size 9 to 14) (size 15 to 20)
#    0.750    0.750    3.750    1.875    0.000    1.000 
#    6.750    0.000    0.000    0.000    0.000    0.000 
#    0.000    0.000    0.000    0.000    0.000    0.000 
#
# Total GULP energy -178276.646515 kJ/mol
# GULP energy per Si atom -5571.145204 kJ/mol
# Density = 2.333550 g / cm^3
# Si number density = 23.388738 Si / 1000 Ang^3
#
#
#
# Elastic Constant Matrix: (Units=GPa)
#
#
# Indices 1 2 3 4 5 6 
#
# 1 91.2412 5.3251 2.9041 0.0000 12.4132 0.0000
# 2 5.3251 77.8752 2.0464 0.0000 11.6994 0.0000
# 3 2.9041 2.0464 29.8454 0.0000 3.7332 0.0000
# 4 0.0000 0.0000 0.0000 28.3262 0.0000 -0.4204
# 5 12.4132 11.6994 3.7332 0.0000 31.5080 0.0000
# 6 0.0000 0.0000 0.0000 -0.4204 0.0000 37.8363
#
#
#
# Elastic Compliance Matrix: (Units=1/GPa)
#
#
# Indices 1 2 3 4 5 6 
#
# 1 0.011591 -0.000108 -0.000563 0.000000 -0.004460 0.000000
# 2 -0.000108 0.013603 -0.000300 0.000000 -0.004973 0.000000
# 3 -0.000563 -0.000300 0.034044 0.000000 -0.003701 0.000000
# 4 0.000000 0.000000 0.000000 0.035309 0.000000 0.000392
# 5 -0.004460 -0.004973 -0.003701 0.000000 0.035780 0.000000
# 6 0.000000 0.000000 0.000000 0.000392 0.000000 0.026434
#
#
# Mechanical properties :
#
#
# Convention : Reuss Voigt Hill
#
# Bulk Modulus (GPa) = 17.45281 24.39035 20.92158
# Shear Modulus (GPa) = 28.12121 32.11319 30.11720
#
# Velocity S-wave (km/s) = 3.47124 3.70945 3.59232
# Velocity P-wave (km/s) = 4.85224 5.36634 5.11575
#
# Compressibility (1/GPa) = 0.05729735
#
# Stress axis : x y z
#
# Youngs Moduli (GPa) = 86.27454 73.51085 29.37355
#
# Poissons Ratio (x) = 0.00792 0.01653
# Poissons Ratio (y) = 0.00930 0.00882
# Poissons Ratio (z) = 0.04854 0.02207
#
# Static dielectric constant tensor:
#      x y z
#    x 1.887710 0.000000 0.007280 
#    y 0.000000 2.045710 0.000000 
#    z 0.007280 0.000000 1.949900 
# 
# From -- ./inp_files/22107.got.cif
#   From: 2010.05.17/outbox.cif.g08.bks.cpg/sg14_12_cif.got.tgz:22107.got - 2010.06.03 17:49:19.
