data_PCOD9245719
_publ_section_title
;
Structure prediction by ZEFSAII (Michael W. Deem and Ramdas Pophale) SiO2 
 PCOD9245719
Probable space group: P 21/C
;
_chemical_formula_sum "Si O2"
_cell_formula_units_Z 18
_cell_length_a 7.131246
_cell_length_b 8.452058
_cell_length_c 11.422862
_cell_angle_alpha 90.000000
_cell_angle_beta 88.895828
_cell_angle_gamma 90.000000
_cell_volume 688.370366
_symmetry_space_group_name_H-M "P 21/C"
_symmetry_group_IT_number 14
_symmetry_cell_setting 'monoclinic'
loop_
_space_group_symop_operation_xyz
x,y,z
-x,1/2+y,1/2-z
-x,-y,-z
x,1/2-y,1/2+z
loop_
_atom_site_type_symbol
_atom_site_label
_atom_site_fract_x
_atom_site_fract_y
_atom_site_fract_z
Si Si1 0.261458 0.090286 0.577526
Si Si2 0.849649 0.189750 0.588725
Si Si3 0.545913 0.119986 0.227044
Si Si4 0.363101 0.162537 0.899893
Si Si5 0.000000 0.500000 0.500000
O O1 0.382885 0.230359 0.516532
O O2 0.064392 0.160119 0.626624
O O3 0.213829 0.969973 0.472630
O O4 0.362984 0.985106 0.671314
O O5 0.703178 0.254380 0.684508
O O6 0.875659 0.334759 0.498962
O O7 0.380864 0.216816 0.290555
O O8 0.500952 0.985065 0.131376
O O9 0.161147 0.083425 0.916228
#
# Coordination Sequence:
#
# PCOD9245719 Si02
#       5
#     4   4   4   4   2
#     4  10  21  39  61  86 126 168 206 265 327 376
#     4   9  20  37  58  88 121 162 217 263 312 390
#     4  11  22  38  63  90 124 168 213 264 317 376
#     4  10  21  39  59  90 125 161 215 262 307 383
#     4   8  18  38  58  80 126 164 198 264 316 360
#
# _framework density 26.148714999999999
#
# number of rings (size 3 to 8) (size 9 to 14) (size 15 to 20)
#    0.000    2.222    0.000    2.000    0.000    7.111 
#    0.000   16.667    0.000    0.000    0.000    0.000 
#    0.000    0.000    0.000    0.000    0.000    0.000 
#
# Total GULP energy -100231.335680 kJ/mol
# GULP energy per Si atom -5568.407538 kJ/mol
# Density = 2.608920 g / cm^3
# Si number density = 26.148715 Si / 1000 Ang^3
#
#
#
# Elastic Constant Matrix: (Units=GPa)
#
#
# Indices 1 2 3 4 5 6 
#
# 1 104.0147 75.6821 62.0550 0.0000 -25.2386 0.0000
# 2 75.6821 180.7485 72.7119 0.0000 -27.2285 0.0000
# 3 62.0550 72.7119 91.1051 0.0000 -24.4578 0.0000
# 4 0.0000 0.0000 0.0000 68.7405 0.0000 -32.3169
# 5 -25.2386 -27.2285 -24.4578 0.0000 44.7582 0.0000
# 6 0.0000 0.0000 0.0000 -32.3169 0.0000 66.3627
#
#
#
# Elastic Compliance Matrix: (Units=1/GPa)
#
#
# Indices 1 2 3 4 5 6 
#
# 1 0.018216 -0.003672 -0.008577 0.000000 0.003351 0.000000
# 2 -0.003672 0.008994 -0.004411 0.000000 0.000990 0.000000
# 3 -0.008577 -0.004411 0.021470 0.000000 0.004212 0.000000
# 4 0.000000 0.000000 0.000000 0.018867 0.000000 0.009188
# 5 0.003351 0.000990 0.004212 0.000000 0.027136 0.000000
# 6 0.000000 0.000000 0.000000 0.009188 0.000000 0.019543
#
#
# Mechanical properties :
#
#
# Convention : Reuss Voigt Hill
#
# Bulk Modulus (GPa) = 65.10862 88.52959 76.81910
# Shear Modulus (GPa) = 32.75121 47.00024 39.87572
#
# Velocity S-wave (km/s) = 3.54290 4.24420 3.90931
# Velocity P-wave (km/s) = 6.45675 7.61231 7.05822
#
# Compressibility (1/GPa) = 0.01535895
#
# Stress axis : x y z
#
# Youngs Moduli (GPa) = 54.89602 111.18861 46.57679
#
# Poissons Ratio (x) = 0.40829 0.39951
# Poissons Ratio (y) = 0.20158 0.20545
# Poissons Ratio (z) = 0.47087 0.49045
#
# Static dielectric constant tensor:
#      x y z
#    x 1.989370 0.000000 0.064600 
#    y 0.000000 2.059930 0.000000 
#    z 0.064600 0.000000 2.121290 
# 
# From -- ./inp_files/22761.got.cif
#   From: 2010.05.17/outbox.cif.g08.bks.cpg/sg14_12_cif.got.tgz:22761.got - 2010.06.03 17:49:19.
