data_PCOD9245905
_publ_section_title
;
Structure prediction by ZEFSAII (Michael W. Deem and Ramdas Pophale) SiO2 
 PCOD9245905
Probable space group: P 21/C
;
_chemical_formula_sum "Si O2"
_cell_formula_units_Z 28
_cell_length_a 14.246704
_cell_length_b 11.756644
_cell_length_c 8.894438
_cell_angle_alpha 90.000000
_cell_angle_beta 52.780222
_cell_angle_gamma 90.000000
_cell_volume 1186.327346
_symmetry_space_group_name_H-M "P 21/C"
_symmetry_group_IT_number 14
_symmetry_cell_setting 'monoclinic'
loop_
_space_group_symop_operation_xyz
x,y,z
-x,1/2+y,1/2-z
-x,-y,-z
x,1/2-y,1/2+z
loop_
_atom_site_type_symbol
_atom_site_label
_atom_site_fract_x
_atom_site_fract_y
_atom_site_fract_z
Si Si1 0.017065 0.873959 0.043721
Si Si2 0.244096 0.396537 0.148658
Si Si3 0.383156 0.578578 0.151229
Si Si4 0.936412 0.157238 0.665017
Si Si5 0.607460 0.828473 0.963367
Si Si6 0.554787 0.244378 0.142668
Si Si7 0.810612 0.964441 0.629193
O O1 0.881762 0.838448 0.206754
O O2 0.080718 0.865767 0.142211
O O3 0.067213 0.789124 0.872053
O O4 0.000000 0.000000 0.000000
O O5 0.276202 0.490400 0.241295
O O6 0.338549 0.297122 0.067356
O O7 0.241387 0.454615 0.987873
O O8 0.393526 0.651334 0.293442
O O9 0.500000 0.500000 0.000000
O O10 0.367379 0.676098 0.039352
O O11 0.066677 0.106893 0.496876
O O12 0.845486 0.088852 0.650214
O O13 0.530202 0.823720 0.888243
O O14 0.715061 0.913066 0.835984
O O15 0.521046 0.836455 0.187628
#
# Coordination Sequence:
#
# PCOD9245905 Si02
#       7
#     4   4   4   4   4   4   4
#     4  11  26  45  70  97 138 185 225 280 347 410
#     4  11  22  40  70  91 132 179 229 278 344 416
#     4  11  21  44  64  93 138 174 225 288 340 402
#     4  10  24  41  67  98 138 168 224 291 342 399
#     4  11  18  38  68  99 123 175 232 272 343 415
#     4  10  22  36  67  97 130 179 222 284 337 397
#     4  10  21  39  65 100 129 167 228 291 336 402
#
# _framework density 23.602253999999999
#
# number of rings (size 3 to 8) (size 9 to 14) (size 15 to 20)
#    0.000    1.429    5.714    0.000    6.000    1.143 
#    2.571    6.429    0.000    0.000    0.000    0.000 
#    0.000    0.000    0.000    0.000    0.000    0.000 
#
# Total GULP energy -156639.516881 kJ/mol
# GULP energy per Si atom -5594.268460 kJ/mol
# Density = 2.354853 g / cm^3
# Si number density = 23.602254 Si / 1000 Ang^3
#
#
#
# Elastic Constant Matrix: (Units=GPa)
#
#
# Indices 1 2 3 4 5 6 
#
# 1 60.5763 40.7329 21.4939 0.0000 10.6729 0.0000
# 2 40.7329 133.2273 22.3253 0.0000 31.7190 0.0000
# 3 21.4939 22.3253 60.9150 0.0000 22.4915 0.0000
# 4 0.0000 0.0000 0.0000 34.8279 0.0000 1.3559
# 5 10.6729 31.7190 22.4915 0.0000 30.6437 0.0000
# 6 0.0000 0.0000 0.0000 1.3559 0.0000 28.6361
#
#
#
# Elastic Compliance Matrix: (Units=1/GPa)
#
#
# Indices 1 2 3 4 5 6 
#
# 1 0.022882 -0.006834 -0.007186 0.000000 0.004379 0.000000
# 2 -0.006834 0.012004 0.002361 0.000000 -0.011777 0.000000
# 3 -0.007186 0.002361 0.024780 0.000000 -0.018129 0.000000
# 4 0.000000 0.000000 0.000000 0.028766 0.000000 -0.001362
# 5 0.004379 -0.011777 -0.018129 0.000000 0.056605 0.000000
# 6 0.000000 0.000000 0.000000 -0.001362 0.000000 0.034985
#
#
# Mechanical properties :
#
#
# Convention : Reuss Voigt Hill
#
# Bulk Modulus (GPa) = 27.51262 47.09143 37.30202
# Shear Modulus (GPa) = 23.20654 30.16596 26.68625
#
# Velocity S-wave (km/s) = 3.13906 3.57893 3.36618
# Velocity P-wave (km/s) = 4.98200 6.08882 5.56300
#
# Compressibility (1/GPa) = 0.03634696
#
# Stress axis : x y z
#
# Youngs Moduli (GPa) = 43.70280 83.30632 40.35465
#
# Poissons Ratio (x) = 0.56934 0.28998
# Poissons Ratio (y) = 0.29868 -0.09526
# Poissons Ratio (z) = 0.31404 -0.19665
#
# Static dielectric constant tensor:
#      x y z
#    x 1.913470 0.000000 -0.057870 
#    y 0.000000 1.863470 0.000000 
#    z -0.057870 0.000000 1.939700 
# 
# From -- ./inp_files/15674.got.cif
#   From: 2010.05.17/outbox.cif.g08.bks.cpg/sg14_8_cif.got.tgz:15674.got - 2010.06.03 17:49:19.
