data_PCOD9245862
_publ_section_title
;
Structure prediction by ZEFSAII (Michael W. Deem and Ramdas Pophale) SiO2 
 PCOD9245862
Probable space group: P 21/C
;
_chemical_formula_sum "Si O2"
_cell_formula_units_Z 32
_cell_length_a 11.048186
_cell_length_b 9.147063
_cell_length_c 22.927269
_cell_angle_alpha 90.000000
_cell_angle_beta 140.042529
_cell_angle_gamma 90.000000
_cell_volume 1488.017374
_symmetry_space_group_name_H-M "P 21/C"
_symmetry_group_IT_number 14
_symmetry_cell_setting 'monoclinic'
loop_
_space_group_symop_operation_xyz
x,y,z
-x,1/2+y,1/2-z
-x,-y,-z
x,1/2-y,1/2+z
loop_
_atom_site_type_symbol
_atom_site_label
_atom_site_fract_x
_atom_site_fract_y
_atom_site_fract_z
Si Si1 0.900967 0.831426 0.902682
Si Si2 0.313803 0.268465 0.790857
Si Si3 0.733859 0.344171 0.945756
Si Si4 0.721955 0.679009 0.936458
Si Si5 0.387799 0.646818 0.966448
Si Si6 0.296023 0.886130 0.313038
Si Si7 0.332962 0.101695 0.914553
Si Si8 0.983566 0.870195 0.112642
O O1 0.828976 0.758857 0.815743
O O2 0.740103 0.793196 0.890039
O O3 0.952295 0.998618 0.906384
O O4 0.086437 0.755997 0.997926
O O5 0.533467 0.277398 0.851193
O O6 0.284076 0.435863 0.804509
O O7 0.294889 0.139203 0.832124
O O8 0.766081 0.510055 0.936317
O O9 0.709390 0.346854 0.007109
O O10 0.509361 0.664607 0.880740
O O11 0.865889 0.744750 0.037131
O O12 0.248505 0.666169 0.860657
O O13 0.500000 0.500000 0.000000
O O14 0.566479 0.750666 0.030258
O O15 0.166193 0.819083 0.215212
O O16 0.150781 0.066415 0.885479
O O17 0.500000 0.000000 0.000000
#
# Coordination Sequence:
#
# PCOD9245862 Si02
#       8
#     4   4   4   4   4   4   4   4
#     4  11  24  41  62  90 127 168 207 256 322 385
#     4   9  21  40  60  88 123 169 203 252 320 381
#     4  10  21  39  64  88 120 160 206 257 311 373
#     4  11  22  43  63  87 124 166 217 258 305 377
#     4  11  17  38  66  84 121 164 201 251 318 370
#     4  10  21  39  64  91 119 169 214 254 308 387
#     4  11  21  38  60  95 135 154 199 271 323 376
#     4  11  23  40  63  97 125 166 215 260 326 381
#
# _framework density 21.505123999999999
#
# number of rings (size 3 to 8) (size 9 to 14) (size 15 to 20)
#    0.000    1.500    5.000    2.250    1.750    1.000 
#    2.250    6.250    0.000    0.000    0.000    0.000 
#    0.000    0.000    0.000    0.000    0.000    0.000 
#
# Total GULP energy -178361.320035 kJ/mol
# GULP energy per Si atom -5573.791251 kJ/mol
# Density = 2.145618 g / cm^3
# Si number density = 21.505124 Si / 1000 Ang^3
#
#
#
# Elastic Constant Matrix: (Units=GPa)
#
#
# Indices 1 2 3 4 5 6 
#
# 1 52.5310 16.6872 -9.1759 0.0000 -0.5616 0.0000
# 2 16.6872 49.0576 14.7621 0.0000 3.9840 0.0000
# 3 -9.1759 14.7621 93.4902 0.0000 3.8321 0.0000
# 4 0.0000 0.0000 0.0000 29.8997 0.0000 -3.9530
# 5 -0.5616 3.9840 3.8321 0.0000 21.8413 0.0000
# 6 0.0000 0.0000 0.0000 -3.9530 0.0000 26.3097
#
#
#
# Elastic Compliance Matrix: (Units=1/GPa)
#
#
# Indices 1 2 3 4 5 6 
#
# 1 0.022479 -0.008838 0.003537 0.000000 0.001569 0.000000
# 2 -0.008838 0.025120 -0.004670 0.000000 -0.003990 0.000000
# 3 0.003537 -0.004670 0.011827 0.000000 -0.001132 0.000000
# 4 0.000000 0.000000 0.000000 0.034123 0.000000 0.005127
# 5 0.001569 -0.003990 -0.001132 0.000000 0.046752 0.000000
# 6 0.000000 0.000000 0.000000 0.005127 0.000000 0.038779
#
#
# Mechanical properties :
#
#
# Convention : Reuss Voigt Hill
#
# Bulk Modulus (GPa) = 25.32678 26.62504 25.97591
# Shear Modulus (GPa) = 23.56458 27.13050 25.34754
#
# Velocity S-wave (km/s) = 3.31383 3.55573 3.43691
# Velocity P-wave (km/s) = 5.14243 5.40974 5.27778
#
# Compressibility (1/GPa) = 0.03948389
#
# Stress axis : x y z
#
# Youngs Moduli (GPa) = 44.48668 39.80903 84.54974
#
# Poissons Ratio (x) = 0.35184 -0.29909
# Poissons Ratio (y) = 0.39318 0.39488
# Poissons Ratio (z) = -0.15737 0.18592
#
# Static dielectric constant tensor:
#      x y z
#    x 1.622410 0.000000 0.149230 
#    y 0.000000 1.745450 0.000000 
#    z 0.149230 0.000000 1.667100 
# 
# From -- ./inp_files/73131.got.cif
#   From: 2010.05.17/outbox.cif.g08.bks.cpg/sg14_37_cif.got.tgz:73131.got - 2010.06.03 17:49:19.
