data_PCOD9245333
_publ_section_title
;
Structure prediction by ZEFSAII (Michael W. Deem and Ramdas Pophale) SiO2 
 PCOD9245333
Probable space group: P 21/C
;
_chemical_formula_sum "Si O2"
_cell_formula_units_Z 28
_cell_length_a 13.516585
_cell_length_b 11.531559
_cell_length_c 8.413200
_cell_angle_alpha 90.000000
_cell_angle_beta 106.681380
_cell_angle_gamma 90.000000
_cell_volume 1256.155976
_symmetry_space_group_name_H-M "P 21/C"
_symmetry_group_IT_number 14
_symmetry_cell_setting 'monoclinic'
loop_
_space_group_symop_operation_xyz
x,y,z
-x,1/2+y,1/2-z
-x,-y,-z
x,1/2-y,1/2+z
loop_
_atom_site_type_symbol
_atom_site_label
_atom_site_fract_x
_atom_site_fract_y
_atom_site_fract_z
Si Si1 0.475590 0.212418 0.266199
Si Si2 0.261279 0.536123 0.577546
Si Si3 0.598883 0.582845 0.555278
Si Si4 0.177465 0.792245 0.460324
Si Si5 0.389353 0.855953 0.392249
Si Si6 0.928530 0.599517 0.392254
Si Si7 0.024913 0.698365 0.136866
O O1 0.399019 0.156748 0.105965
O O2 0.422544 0.327573 0.313770
O O3 0.572912 0.247497 0.198436
O O4 0.520827 0.136779 0.433271
O O5 0.300204 0.495480 0.421552
O O6 0.206121 0.661217 0.531185
O O7 0.358706 0.554894 0.740332
O O8 0.185231 0.445480 0.624112
O O9 0.500000 0.500000 0.500000
O O10 0.283474 0.840945 0.440635
O O11 0.093019 0.779770 0.283679
O O12 0.115117 0.857562 0.570163
O O13 0.000000 0.500000 0.500000
O O14 0.959038 0.617542 0.222570
O O15 0.954337 0.719622 0.494789
#
# Coordination Sequence:
#
# PCOD9245333 Si02
#       7
#     4   4   4   4   4   4   4
#     4  10  22  39  65  89 137 165 208 260 323 369
#     4  12  22  36  68  87 126 165 215 255 318 370
#     4  11  23  43  64  96 127 173 208 266 315 372
#     4  11  18  36  64  92 114 158 218 264 301 362
#     4  11  18  37  63  96 117 168 218 267 302 367
#     4  11  22  42  63  89 126 164 203 261 318 375
#     4  10  21  37  64  86 124 160 197 264 322 366
#
# _framework density 22.290227000000002
#
# number of rings (size 3 to 8) (size 9 to 14) (size 15 to 20)
#    0.000    1.143    7.143    0.857    0.000    1.714 
#    0.000    6.429    0.000    0.000    0.000    0.000 
#    0.000    0.000    0.000    0.000    0.000    0.000 
#
# Total GULP energy -156168.568411 kJ/mol
# GULP energy per Si atom -5577.448872 kJ/mol
# Density = 2.223949 g / cm^3
# Si number density = 22.290227 Si / 1000 Ang^3
#
#
#
# Elastic Constant Matrix: (Units=GPa)
#
#
# Indices 1 2 3 4 5 6 
#
# 1 80.8653 16.0985 -0.7144 0.0000 -31.6031 0.0000
# 2 16.0985 51.4356 5.5925 0.0000 -19.7337 0.0000
# 3 -0.7144 5.5925 68.1073 0.0000 -16.6444 0.0000
# 4 0.0000 0.0000 0.0000 26.1952 0.0000 -9.1622
# 5 -31.6031 -19.7337 -16.6444 0.0000 45.2613 0.0000
# 6 0.0000 0.0000 0.0000 -9.1622 0.0000 43.2040
#
#
#
# Elastic Compliance Matrix: (Units=1/GPa)
#
#
# Indices 1 2 3 4 5 6 
#
# 1 0.017777 -0.000826 0.003516 0.000000 0.013345 0.000000
# 2 -0.000826 0.023410 0.000464 0.000000 0.009800 0.000000
# 3 0.003516 0.000464 0.016845 0.000000 0.008852 0.000000
# 4 0.000000 0.000000 0.000000 0.041233 0.000000 0.008744
# 5 0.013345 0.009800 0.008852 0.000000 0.038940 0.000000
# 6 0.000000 0.000000 0.000000 0.008744 0.000000 0.025000
#
#
# Mechanical properties :
#
#
# Convention : Reuss Voigt Hill
#
# Bulk Modulus (GPa) = 15.54260 26.92905 21.23582
# Shear Modulus (GPa) = 28.03556 34.89422 31.46489
#
# Velocity S-wave (km/s) = 3.55033 3.96087 3.76120
# Velocity P-wave (km/s) = 4.87795 5.74676 5.33009
#
# Compressibility (1/GPa) = 0.06433932
#
# Stress axis : x y z
#
# Youngs Moduli (GPa) = 56.25144 42.71694 59.36588
#
# Poissons Ratio (x) = 0.03529 -0.20872
# Poissons Ratio (y) = 0.04647 -0.02755
# Poissons Ratio (z) = -0.19777 -0.01983
#
# Static dielectric constant tensor:
#      x y z
#    x 1.854060 0.000000 -0.009540 
#    y 0.000000 1.893540 0.000000 
#    z -0.009540 0.000000 1.876890 
# 
# From -- ./inp_files/15388.got.cif
#   From: 2010.05.17/outbox.cif.g08.bks.cpg/sg14_8_cif.got.tgz:15388.got - 2010.06.03 17:49:19.
