data_PCOD9245949
_publ_section_title
;
Structure prediction by ZEFSAII (Michael W. Deem and Ramdas Pophale) SiO2 
 PCOD9245949
Probable space group: P 21/C
;
_chemical_formula_sum "Si O2"
_cell_formula_units_Z 24
_cell_length_a 16.023889
_cell_length_b 13.013795
_cell_length_c 11.378206
_cell_angle_alpha 90.000000
_cell_angle_beta 22.248816
_cell_angle_gamma 90.000000
_cell_volume 898.380092
_symmetry_space_group_name_H-M "P 21/C"
_symmetry_group_IT_number 14
_symmetry_cell_setting 'monoclinic'
loop_
_space_group_symop_operation_xyz
x,y,z
-x,1/2+y,1/2-z
-x,-y,-z
x,1/2-y,1/2+z
loop_
_atom_site_type_symbol
_atom_site_label
_atom_site_fract_x
_atom_site_fract_y
_atom_site_fract_z
Si Si1 0.562209 0.483966 0.553914
Si Si2 0.792026 0.800922 0.792679
Si Si3 0.647240 0.099405 0.330472
Si Si4 0.812247 0.695162 0.526120
Si Si5 0.848815 0.424029 0.802400
Si Si6 0.343983 0.802860 0.917217
O O1 0.500000 0.500000 0.500000
O O2 0.709106 0.581388 0.400366
O O3 0.676434 0.377568 0.443722
O O4 0.328088 0.493253 0.925860
O O5 0.865502 0.776146 0.562504
O O6 0.904492 0.787473 0.774117
O O7 0.601024 0.716028 0.054812
O O8 0.454968 0.178679 0.630525
O O9 0.839856 0.081326 0.173753
O O10 0.739649 0.137465 0.087467
O O11 0.500000 0.000000 0.500000
O O12 0.925194 0.590004 0.424090
O O13 0.739861 0.312883 0.974085
#
# Coordination Sequence:
#
# PCOD9245949 Si02
#       6
#     4   4   4   4   4   4
#     4  11  22  41  67  93 128 171 215 261 328 386
#     4  10  22  42  62  94 134 167 210 271 318 382
#     4  11  21  44  64  90 128 169 212 265 316 385
#     4  11  23  41  66  95 135 162 220 265 317 381
#     4  11  25  40  66  95 125 169 214 262 325 379
#     4  10  21  39  66  87 126 171 209 260 326 375
#
# _framework density 26.714749999999999
#
# number of rings (size 3 to 8) (size 9 to 14) (size 15 to 20)
#    0.000    1.333    5.000    1.000    7.000    0.667 
#    0.000    6.667    0.000    0.000    0.000    0.000 
#    0.000    0.000    0.000    0.000    0.000    0.000 
#
# Total GULP energy -134137.067865 kJ/mol
# GULP energy per Si atom -5589.044494 kJ/mol
# Density = 2.665395 g / cm^3
# Si number density = 26.714750 Si / 1000 Ang^3
#
#
#
# Elastic Constant Matrix: (Units=GPa)
#
#
# Indices 1 2 3 4 5 6 
#
# 1 203.1263 17.9967 13.1130 0.0000 10.7022 0.0000
# 2 17.9967 92.7562 -0.6109 0.0000 11.8184 0.0000
# 3 13.1130 -0.6109 50.4271 0.0000 -0.0529 0.0000
# 4 0.0000 0.0000 0.0000 21.7599 0.0000 6.5180
# 5 10.7022 11.8184 -0.0529 0.0000 45.0024 0.0000
# 6 0.0000 0.0000 0.0000 6.5180 0.0000 49.7067
#
#
#
# Elastic Compliance Matrix: (Units=1/GPa)
#
#
# Indices 1 2 3 4 5 6 
#
# 1 0.005140 -0.000880 -0.001348 0.000000 -0.000993 0.000000
# 2 -0.000880 0.011306 0.000363 0.000000 -0.002759 0.000000
# 3 -0.001348 0.000363 0.020186 0.000000 0.000249 0.000000
# 4 0.000000 0.000000 0.000000 0.047835 0.000000 -0.006273
# 5 -0.000993 -0.002759 0.000249 0.000000 0.023182 0.000000
# 6 0.000000 0.000000 0.000000 -0.006273 0.000000 0.020941
#
#
# Mechanical properties :
#
#
# Convention : Reuss Voigt Hill
#
# Bulk Modulus (GPa) = 30.39392 45.25635 37.82514
# Shear Modulus (GPa) = 34.89495 44.34785 39.62140
#
# Velocity S-wave (km/s) = 3.61807 4.07879 3.85532
# Velocity P-wave (km/s) = 5.37176 6.25775 5.83160
#
# Compressibility (1/GPa) = 0.03290132
#
# Stress axis : x y z
#
# Youngs Moduli (GPa) = 194.53921 88.45172 49.53954
#
# Poissons Ratio (x) = 0.07781 0.06680
# Poissons Ratio (y) = 0.17114 -0.01797
# Poissons Ratio (z) = 0.26231 -0.03209
#
# Static dielectric constant tensor:
#      x y z
#    x 2.120350 0.000000 0.010150 
#    y 0.000000 2.102830 0.000000 
#    z 0.010150 0.000000 2.346920 
# 
# From -- ./inp_files/29730.got.cif
#   From: 2010.05.17/outbox.cif.g08.bks.cpg/sg14_15_cif.got.tgz:29730.got - 2010.06.03 17:49:19.
