data_PCOD9245830
_publ_section_title
;
Structure prediction by ZEFSAII (Michael W. Deem and Ramdas Pophale) SiO2 
 PCOD9245830
Probable space group: P 21/C
;
_chemical_formula_sum "Si O2"
_cell_formula_units_Z 24
_cell_length_a 11.959162
_cell_length_b 11.529145
_cell_length_c 10.657802
_cell_angle_alpha 90.000000
_cell_angle_beta 40.642408
_cell_angle_gamma 90.000000
_cell_volume 957.129263
_symmetry_space_group_name_H-M "P 21/C"
_symmetry_group_IT_number 14
_symmetry_cell_setting 'monoclinic'
loop_
_space_group_symop_operation_xyz
x,y,z
-x,1/2+y,1/2-z
-x,-y,-z
x,1/2-y,1/2+z
loop_
_atom_site_type_symbol
_atom_site_label
_atom_site_fract_x
_atom_site_fract_y
_atom_site_fract_z
Si Si1 0.665269 0.779631 0.379770
Si Si2 0.152507 0.434261 0.734499
Si Si3 0.335590 0.870991 0.239421
Si Si4 0.815874 0.366457 0.624799
Si Si5 0.402525 0.053609 0.793747
Si Si6 0.875485 0.525813 0.803725
O O1 0.815542 0.686316 0.221895
O O2 0.499068 0.700561 0.546496
O O3 0.617866 0.861951 0.305258
O O4 0.736119 0.870689 0.423556
O O5 0.260497 0.534859 0.709540
O O6 0.251521 0.411661 0.518933
O O7 0.966004 0.482309 0.854288
O O8 0.199764 0.769766 0.374912
O O9 0.583962 0.068764 0.706620
O O10 0.646564 0.425373 0.708614
O O11 0.823556 0.416338 0.760012
O O12 0.973846 0.415001 0.409755
#
# Coordination Sequence:
#
# PCOD9245830 Si02
#       6
#     4   4   4   4   4   4
#     4  10  21  39  63  90 116 163 199 247 296 349
#     4  10  22  39  62  89 122 159 198 240 308 357
#     4  11  23  36  67  91 118 153 209 245 290 359
#     4   9  20  39  61  87 118 164 194 237 309 352
#     4   9  20  37  61  84 123 156 188 249 295 350
#     4   9  20  39  61  83 123 160 193 243 301 355
#
# _framework density 25.074981000000001
#
# number of rings (size 3 to 8) (size 9 to 14) (size 15 to 20)
#    0.000    2.333    0.000    3.000    9.333    2.667 
#    0.000    2.500    0.000    0.000    0.000    0.000 
#    0.000    0.000    0.000    0.000    0.000    0.000 
#
# Total GULP energy -134325.657503 kJ/mol
# GULP energy per Si atom -5596.902396 kJ/mol
# Density = 2.501791 g / cm^3
# Si number density = 25.074981 Si / 1000 Ang^3
#
#
#
# Elastic Constant Matrix: (Units=GPa)
#
#
# Indices 1 2 3 4 5 6 
#
# 1 136.8224 50.2463 16.6352 0.0000 -22.9618 0.0000
# 2 50.2463 137.0140 12.3578 0.0000 -0.1486 0.0000
# 3 16.6352 12.3578 59.3455 0.0000 -19.5368 0.0000
# 4 0.0000 0.0000 0.0000 29.5218 0.0000 -13.8329
# 5 -22.9618 -0.1486 -19.5368 0.0000 33.1919 0.0000
# 6 0.0000 0.0000 0.0000 -13.8329 0.0000 30.8600
#
#
#
# Elastic Compliance Matrix: (Units=1/GPa)
#
#
# Indices 1 2 3 4 5 6 
#
# 1 0.009752 -0.003594 0.000286 0.000000 0.006898 0.000000
# 2 -0.003594 0.008795 -0.002021 0.000000 -0.003637 0.000000
# 3 0.000286 -0.002021 0.021400 0.000000 0.012785 0.000000
# 4 0.000000 0.000000 0.000000 0.042879 0.000000 0.019220
# 5 0.006898 -0.003637 0.012785 0.000000 0.042409 0.000000
# 6 0.000000 0.000000 0.000000 0.019220 0.000000 0.041020
#
#
# Mechanical properties :
#
#
# Convention : Reuss Voigt Hill
#
# Bulk Modulus (GPa) = 34.14437 54.62895 44.38666
# Shear Modulus (GPa) = 26.78428 35.64426 31.21427
#
# Velocity S-wave (km/s) = 3.27183 3.77438 3.53205
# Velocity P-wave (km/s) = 5.28390 6.38969 5.86292
#
# Compressibility (1/GPa) = 0.02928740
#
# Stress axis : x y z
#
# Youngs Moduli (GPa) = 102.54626 113.70023 46.72895
#
# Poissons Ratio (x) = 0.40869 -0.01336
# Poissons Ratio (y) = 0.36860 0.09445
# Poissons Ratio (z) = -0.02932 0.22980
#
# Static dielectric constant tensor:
#      x y z
#    x 1.983060 0.000000 -0.057280 
#    y 0.000000 1.936440 0.000000 
#    z -0.057280 0.000000 2.087530 
# 
# From -- ./inp_files/28961.got.cif
#   From: 2010.05.17/outbox.cif.g08.bks.cpg/sg14_15_cif.got.tgz:28961.got - 2010.06.03 17:49:19.
