data_PCOD9245210
_publ_section_title
;
Structure prediction by ZEFSAII (Michael W. Deem and Ramdas Pophale) SiO2 
 PCOD9245210
Probable space group: P 21/C
;
_chemical_formula_sum "Si O2"
_cell_formula_units_Z 20
_cell_length_a 7.992077
_cell_length_b 19.177791
_cell_length_c 5.313745
_cell_angle_alpha 90.000000
_cell_angle_beta 101.915483
_cell_angle_gamma 90.000000
_cell_volume 796.891180
_symmetry_space_group_name_H-M "P 21/C"
_symmetry_group_IT_number 14
_symmetry_cell_setting 'monoclinic'
loop_
_space_group_symop_operation_xyz
x,y,z
-x,1/2+y,1/2-z
-x,-y,-z
x,1/2-y,1/2+z
loop_
_atom_site_type_symbol
_atom_site_label
_atom_site_fract_x
_atom_site_fract_y
_atom_site_fract_z
Si Si1 0.605096 0.547394 0.220585
Si Si2 0.350287 0.786777 0.317024
Si Si3 0.043728 0.421760 0.604805
Si Si4 0.669833 0.411471 0.529599
Si Si5 0.062025 0.287491 0.299575
O O1 0.785031 0.575803 0.175887
O O2 0.662268 0.492682 0.456098
O O3 0.474164 0.600026 0.308563
O O4 0.500000 0.500000 0.000000
O O5 0.416297 0.741768 0.100734
O O6 0.373258 0.865640 0.228241
O O7 0.144220 0.778906 0.274100
O O8 0.087064 0.367534 0.394199
O O9 0.000000 0.500000 0.500000
O O10 0.865132 0.395034 0.670929
O O11 0.127402 0.260695 0.051194
#
# Coordination Sequence:
#
# PCOD9245210 Si02
#       5
#     4   4   4   4   4
#     4  10  21  37  58  85 119 152 200 257 306 359
#     4   9  18  32  58  85 113 154 201 246 302 367
#     4   9  19  40  61  90 118 163 211 252 315 376
#     4   9  20  38  56  82 118 153 195 250 305 362
#     4   9  18  37  58  88 124 162 205 261 313 374
#
# _framework density 25.097526999999999
#
# number of rings (size 3 to 8) (size 9 to 14) (size 15 to 20)
#    0.000    2.800    0.000    0.000    2.800    0.800 
#   21.600    2.000    0.000    0.000    0.000    0.000 
#    0.000    0.000    0.000    0.000    0.000    0.000 
#
# Total GULP energy -111625.697170 kJ/mol
# GULP energy per Si atom -5581.284858 kJ/mol
# Density = 2.504040 g / cm^3
# Si number density = 25.097527 Si / 1000 Ang^3
#
#
#
# Elastic Constant Matrix: (Units=GPa)
#
#
# Indices 1 2 3 4 5 6 
#
# 1 126.6791 4.2719 25.4612 0.0000 11.2789 0.0000
# 2 4.2719 132.3254 17.5684 0.0000 -1.6800 0.0000
# 3 25.4612 17.5684 73.3936 0.0000 -0.5176 0.0000
# 4 0.0000 0.0000 0.0000 40.6070 0.0000 -5.6476
# 5 11.2789 -1.6800 -0.5176 0.0000 7.6824 0.0000
# 6 0.0000 0.0000 0.0000 -5.6476 0.0000 16.9795
#
#
#
# Elastic Compliance Matrix: (Units=1/GPa)
#
#
# Indices 1 2 3 4 5 6 
#
# 1 0.009926 -0.000039 -0.003539 0.000000 -0.014820 0.000000
# 2 -0.000039 0.007825 -0.001848 0.000000 0.001643 0.000000
# 3 -0.003539 -0.001848 0.015336 0.000000 0.005825 0.000000
# 4 0.000000 0.000000 0.000000 0.025821 0.000000 0.008588
# 5 -0.014820 0.001643 0.005825 0.000000 0.152676 0.000000
# 6 0.000000 0.000000 0.000000 0.008588 0.000000 0.061751
#
#
# Mechanical properties :
#
#
# Convention : Reuss Voigt Hill
#
# Bulk Modulus (GPa) = 44.97221 47.44458 46.20840
# Shear Modulus (GPa) = 17.14691 32.06023 24.60357
#
# Velocity S-wave (km/s) = 2.61667 3.57799 3.13440
# Velocity P-wave (km/s) = 5.20453 6.00120 5.61701
#
# Compressibility (1/GPa) = 0.02223595
#
# Stress axis : x y z
#
# Youngs Moduli (GPa) = 100.74564 127.80224 65.20517
#
# Poissons Ratio (x) = 0.00496 0.23074
# Poissons Ratio (y) = 0.00391 0.12050
# Poissons Ratio (z) = 0.35651 0.23617
#
# Static dielectric constant tensor:
#      x y z
#    x 2.050390 0.000000 0.028360 
#    y 0.000000 2.001020 0.000000 
#    z 0.028360 0.000000 1.998250 
# 
# From -- ./inp_files/1124.got.cif
#   From: 2010.05.17/outbox.cif.g08.bks.cpg/sg14_1_cif.got.tgz:1124.got - 2010.06.03 17:49:19.
