data_PCOD9245631
_publ_section_title
;
Structure prediction by ZEFSAII (Michael W. Deem and Ramdas Pophale) SiO2 
 PCOD9245631
Probable space group: P 21/C
;
_chemical_formula_sum "Si O2"
_cell_formula_units_Z 32
_cell_length_a 5.296235
_cell_length_b 18.746395
_cell_length_c 18.359893
_cell_angle_alpha 90.000000
_cell_angle_beta 128.886355
_cell_angle_gamma 90.000000
_cell_volume 1418.906890
_symmetry_space_group_name_H-M "P 21/C"
_symmetry_group_IT_number 14
_symmetry_cell_setting 'monoclinic'
loop_
_space_group_symop_operation_xyz
x,y,z
-x,1/2+y,1/2-z
-x,-y,-z
x,1/2-y,1/2+z
loop_
_atom_site_type_symbol
_atom_site_label
_atom_site_fract_x
_atom_site_fract_y
_atom_site_fract_z
Si Si1 0.417165 0.554460 0.302108
Si Si2 0.573686 0.407579 0.291817
Si Si3 0.114101 0.778446 0.068619
Si Si4 0.955170 0.241279 0.600183
Si Si5 0.500608 0.205285 0.118473
Si Si6 0.411339 0.907058 0.495149
Si Si7 0.176617 0.884148 0.609623
Si Si8 0.122044 0.549235 0.800626
O O1 0.645988 0.484950 0.342352
O O2 0.518768 0.622435 0.366237
O O3 0.062228 0.522544 0.258548
O O4 0.367521 0.581680 0.210894
O O5 0.761850 0.342623 0.360940
O O6 0.191541 0.400736 0.239828
O O7 0.652083 0.418842 0.220899
O O8 0.176750 0.787614 0.993067
O O9 0.237106 0.700766 0.114176
O O10 0.723054 0.777069 0.992036
O O11 0.858419 0.273325 0.659812
O O12 0.788961 0.165383 0.560230
O O13 0.338253 0.246837 0.652293
O O14 0.792451 0.892686 0.554369
O O15 0.289712 0.920590 0.555040
O O16 0.296832 0.959571 0.409857
#
# Coordination Sequence:
#
# PCOD9245631 Si02
#       8
#     4   4   4   4   4   4   4   4
#     4  10  27  42  59  98 127 166 208 255 313 366
#     4  10  24  42  60  92 130 162 213 247 316 367
#     4   9  22  41  66  91 123 165 209 256 311 367
#     4   9  20  37  63  92 116 157 208 252 306 360
#     4  10  21  38  66  87 128 158 207 253 311 363
#     4  11  21  43  64  91 123 165 206 256 314 372
#     4  11  24  39  70  90 127 157 216 261 307 371
#     4  10  25  40  61  89 127 163 209 252 307 372
#
# _framework density 22.552572999999999
#
# number of rings (size 3 to 8) (size 9 to 14) (size 15 to 20)
#    1.500    0.500    1.250    0.750    5.250    3.500 
#    0.000    1.250    0.000    0.000    0.000    0.000 
#    0.000    0.000    0.000    0.000    0.000    0.000 
#
# Total GULP energy -178442.420993 kJ/mol
# GULP energy per Si atom -5576.325656 kJ/mol
# Density = 2.250124 g / cm^3
# Si number density = 22.552573 Si / 1000 Ang^3
#
#
#
# Elastic Constant Matrix: (Units=GPa)
#
#
# Indices 1 2 3 4 5 6 
#
# 1 112.9795 19.0985 0.1395 0.0000 -19.7088 0.0000
# 2 19.0985 110.9895 23.0338 0.0000 -4.5028 0.0000
# 3 0.1395 23.0338 31.2761 0.0000 -3.2690 0.0000
# 4 0.0000 0.0000 0.0000 33.5690 0.0000 1.4891
# 5 -19.7088 -4.5028 -3.2690 0.0000 19.7290 0.0000
# 6 0.0000 0.0000 0.0000 1.4891 0.0000 16.9043
#
#
#
# Elastic Compliance Matrix: (Units=1/GPa)
#
#
# Indices 1 2 3 4 5 6 
#
# 1 0.011119 -0.001999 0.002581 0.000000 0.011079 0.000000
# 2 -0.001999 0.011021 -0.008195 0.000000 -0.000840 0.000000
# 3 0.002581 -0.008195 0.038742 0.000000 0.007127 0.000000
# 4 0.000000 0.000000 0.000000 0.029906 0.000000 -0.002634
# 5 0.011079 -0.000840 0.007127 0.000000 0.062743 0.000000
# 6 0.000000 0.000000 0.000000 -0.002634 0.000000 0.059389
#
#
# Mechanical properties :
#
#
# Convention : Reuss Voigt Hill
#
# Bulk Modulus (GPa) = 21.90397 37.75431 29.82914
# Shear Modulus (GPa) = 20.54528 28.23867 24.39197
#
# Velocity S-wave (km/s) = 3.02154 3.54238 3.29228
# Velocity P-wave (km/s) = 4.68043 5.78863 5.26377
#
# Compressibility (1/GPa) = 0.04565382
#
# Stress axis : x y z
#
# Youngs Moduli (GPa) = 89.93971 90.73927 25.81167
#
# Poissons Ratio (x) = 0.18142 -0.06661
# Poissons Ratio (y) = 0.17982 0.21153
# Poissons Ratio (z) = -0.23212 0.74362
#
# Static dielectric constant tensor:
#      x y z
#    x 1.884870 0.000000 0.021120 
#    y 0.000000 1.860190 0.000000 
#    z 0.021120 0.000000 1.812910 
# 
# From -- ./inp_files/53731.got.cif
#   From: 2010.05.17/outbox.cif.g08.bks.cpg/sg14_27_cif.got.tgz:53731.got - 2010.06.03 17:49:19.
