data_PCOD9245318
_publ_section_title
;
Structure prediction by ZEFSAII (Michael W. Deem and Ramdas Pophale) SiO2 
 PCOD9245318
Probable space group: P 21/C
;
_chemical_formula_sum "Si O2"
_cell_formula_units_Z 32
_cell_length_a 11.335351
_cell_length_b 12.933470
_cell_length_c 11.375463
_cell_angle_alpha 90.000000
_cell_angle_beta 52.622307
_cell_angle_gamma 90.000000
_cell_volume 1325.243143
_symmetry_space_group_name_H-M "P 21/C"
_symmetry_group_IT_number 14
_symmetry_cell_setting 'monoclinic'
loop_
_space_group_symop_operation_xyz
x,y,z
-x,1/2+y,1/2-z
-x,-y,-z
x,1/2-y,1/2+z
loop_
_atom_site_type_symbol
_atom_site_label
_atom_site_fract_x
_atom_site_fract_y
_atom_site_fract_z
Si Si1 0.888929 0.379595 0.802855
Si Si2 0.673865 0.082086 0.234267
Si Si3 0.522353 0.614556 0.760892
Si Si4 0.954464 0.671737 0.987682
Si Si5 0.218741 0.529643 0.898537
Si Si6 0.873341 0.753296 0.777403
Si Si7 0.550344 0.756689 0.034407
Si Si8 0.326451 0.705381 0.497778
O O1 0.824613 0.403838 0.715519
O O2 0.061890 0.366186 0.721845
O O3 0.819712 0.456202 0.939721
O O4 0.820489 0.265908 0.875288
O O5 0.620952 0.964877 0.272127
O O6 0.545288 0.156496 0.367545
O O7 0.695319 0.121553 0.088808
O O8 0.392912 0.543994 0.781213
O O9 0.393037 0.319192 0.386738
O O10 0.427532 0.700250 0.886766
O O11 0.118659 0.619577 0.898947
O O12 0.915594 0.694530 0.875214
O O13 0.841083 0.581949 0.097265
O O14 0.937498 0.756325 0.103609
O O15 0.697647 0.738085 0.871795
O O16 0.428287 0.828075 0.043822
#
# Coordination Sequence:
#
# PCOD9245318 Si02
#       8
#     4   4   4   4   4   4   4   4
#     4   9  21  39  62  88 122 166 215 251 313 385
#     4  10  21  39  63  93 125 162 211 265 317 374
#     4  10  21  37  63  88 121 163 205 263 317 367
#     4  10  23  41  66  91 126 168 218 255 321 378
#     4   9  20  41  63  90 121 170 215 252 313 401
#     4  11  24  39  65  93 126 170 206 266 316 374
#     4  10  23  38  59  92 126 161 216 258 319 386
#     4   9  21  38  59  90 122 159 208 261 310 386
#
# _framework density 24.146509999999999
#
# number of rings (size 3 to 8) (size 9 to 14) (size 15 to 20)
#    0.000    2.250    0.000    0.750   14.000    6.000 
#    0.000    1.875    0.000    0.000    0.000    0.000 
#    0.000    0.000    0.000    0.000    0.000    0.000 
#
# Total GULP energy -178508.348785 kJ/mol
# GULP energy per Si atom -5578.385900 kJ/mol
# Density = 2.409155 g / cm^3
# Si number density = 24.146510 Si / 1000 Ang^3
#
#
#
# Elastic Constant Matrix: (Units=GPa)
#
#
# Indices 1 2 3 4 5 6 
#
# 1 80.7087 11.4283 19.1566 0.0000 12.6257 0.0000
# 2 11.4283 43.7318 31.2274 0.0000 9.7416 0.0000
# 3 19.1566 31.2274 51.0724 0.0000 9.4181 0.0000
# 4 0.0000 0.0000 0.0000 9.0874 0.0000 12.1253
# 5 12.6257 9.7416 9.4181 0.0000 36.0343 0.0000
# 6 0.0000 0.0000 0.0000 12.1253 0.0000 27.0299
#
#
#
# Elastic Compliance Matrix: (Units=1/GPa)
#
#
# Indices 1 2 3 4 5 6 
#
# 1 0.014077 0.000781 -0.005052 0.000000 -0.003823 0.000000
# 2 0.000781 0.041407 -0.024686 0.000000 -0.005016 0.000000
# 3 -0.005052 -0.024686 0.036785 0.000000 -0.001170 0.000000
# 4 0.000000 0.000000 0.000000 0.274108 0.000000 -0.122961
# 5 -0.003823 -0.005016 -0.001170 0.000000 0.030753 0.000000
# 6 0.000000 0.000000 0.000000 -0.122961 0.000000 0.092155
#
#
# Mechanical properties :
#
#
# Convention : Reuss Voigt Hill
#
# Bulk Modulus (GPa) = 29.10881 33.23750 31.17316
# Shear Modulus (GPa) = 8.95014 22.01035 15.48025
#
# Velocity S-wave (km/s) = 1.92734 3.02244 2.53474
# Velocity P-wave (km/s) = 4.12724 5.09657 4.63730
#
# Compressibility (1/GPa) = 0.03435386
#
# Stress axis : x y z
#
# Youngs Moduli (GPa) = 71.03813 24.15041 27.18527
#
# Poissons Ratio (x) = -0.01885 0.13735
# Poissons Ratio (y) = -0.05546 0.67109
# Poissons Ratio (z) = 0.35892 0.59617
#
# Static dielectric constant tensor:
#      x y z
#    x 1.997140 0.000000 0.043800 
#    y 0.000000 1.909920 0.000000 
#    z 0.043800 0.000000 1.975120 
# 
# From -- ./inp_files/29795.got.cif
#   From: 2010.05.17/outbox.cif.g08.bks.cpg/sg14_15_cif.got.tgz:29795.got - 2010.06.03 17:49:19.
