data_PCOD9245129
_publ_section_title
;
Structure prediction by ZEFSAII (Michael W. Deem and Ramdas Pophale) SiO2 
 PCOD9245129
Probable space group: P 21/C
;
_chemical_formula_sum "Si O2"
_cell_formula_units_Z 28
_cell_length_a 9.007153
_cell_length_b 11.563153
_cell_length_c 12.786108
_cell_angle_alpha 90.000000
_cell_angle_beta 83.009073
_cell_angle_gamma 90.000000
_cell_volume 1321.786552
_symmetry_space_group_name_H-M "P 21/C"
_symmetry_group_IT_number 14
_symmetry_cell_setting 'monoclinic'
loop_
_space_group_symop_operation_xyz
x,y,z
-x,1/2+y,1/2-z
-x,-y,-z
x,1/2-y,1/2+z
loop_
_atom_site_type_symbol
_atom_site_label
_atom_site_fract_x
_atom_site_fract_y
_atom_site_fract_z
Si Si1 0.090611 0.879949 0.492812
Si Si2 0.689244 0.874894 0.780584
Si Si3 0.094276 0.292104 0.352818
Si Si4 0.543375 0.200168 0.775612
Si Si5 0.366213 0.338503 0.477195
Si Si6 0.148356 0.615917 0.757933
Si Si7 0.445145 0.620154 0.962140
O O1 0.082340 0.839913 0.373014
O O2 0.267913 0.878988 0.498572
O O3 0.011893 0.800715 0.583816
O O4 0.000000 0.000000 0.500000
O O5 0.806588 0.771352 0.744792
O O6 0.542139 0.823021 0.734334
O O7 0.768915 0.992098 0.734532
O O8 0.654186 0.891550 0.906458
O O9 0.206772 0.329299 0.434752
O O10 0.986586 0.387927 0.312291
O O11 0.468106 0.119993 0.871182
O O12 0.718918 0.203484 0.785459
O O13 0.531148 0.139920 0.663482
O O14 0.454128 0.219237 0.493921
O O15 0.500000 0.500000 0.000000
#
# Coordination Sequence:
#
# PCOD9245129 Si02
#       7
#     4   4   4   4   4   4   4
#     4  11  21  38  63  93 125 165 209 268 322 373
#     4  10  22  42  63  90 131 167 212 268 311 385
#     4  11  22  39  62  92 129 165 213 265 314 388
#     4   9  22  39  60  92 123 167 208 265 307 380
#     4  10  21  40  60  87 129 167 210 261 314 378
#     4  11  23  41  64  93 129 168 213 263 327 376
#     4  10  21  36  63  91 119 161 216 259 315 375
#
# _framework density 21.183451999999999
#
# number of rings (size 3 to 8) (size 9 to 14) (size 15 to 20)
#    0.000    1.714    1.429    2.571    6.000    3.429 
#    0.000    0.000    0.000    0.000    0.000    0.000 
#    0.000    0.000    0.000    0.000    0.000    0.000 
#
# Total GULP energy -156082.755165 kJ/mol
# GULP energy per Si atom -5574.384113 kJ/mol
# Density = 2.113524 g / cm^3
# Si number density = 21.183452 Si / 1000 Ang^3
#
#
#
# Elastic Constant Matrix: (Units=GPa)
#
#
# Indices 1 2 3 4 5 6 
#
# 1 99.0762 21.1016 44.3228 0.0000 11.6077 0.0000
# 2 21.1016 50.3977 -6.2354 0.0000 8.3605 0.0000
# 3 44.3228 -6.2354 100.5725 0.0000 -4.9849 0.0000
# 4 0.0000 0.0000 0.0000 8.0279 0.0000 0.6486
# 5 11.6077 8.3605 -4.9849 0.0000 43.5101 0.0000
# 6 0.0000 0.0000 0.0000 0.6486 0.0000 25.9856
#
#
#
# Elastic Compliance Matrix: (Units=1/GPa)
#
#
# Indices 1 2 3 4 5 6 
#
# 1 0.015197 -0.006666 -0.007289 0.000000 -0.003608 0.000000
# 2 -0.006666 0.023537 0.004285 0.000000 -0.002253 0.000000
# 3 -0.007289 0.004285 0.013554 0.000000 0.002674 0.000000
# 4 0.000000 0.000000 0.000000 0.124817 0.000000 -0.003116
# 5 -0.003608 -0.002253 0.002674 0.000000 0.024685 0.000000
# 6 0.000000 0.000000 0.000000 -0.003116 0.000000 0.038561
#
#
# Mechanical properties :
#
#
# Convention : Reuss Voigt Hill
#
# Bulk Modulus (GPa) = 30.35130 40.93603 35.64366
# Shear Modulus (GPa) = 18.47245 28.22856 23.35050
#
# Velocity S-wave (km/s) = 2.95621 3.65441 3.32369
# Velocity P-wave (km/s) = 5.10011 6.09694 5.62067
#
# Compressibility (1/GPa) = 0.03294751
#
# Stress axis : x y z
#
# Youngs Moduli (GPa) = 65.80329 42.48570 73.77998
#
# Poissons Ratio (x) = 0.28322 0.53782
# Poissons Ratio (y) = 0.43866 -0.31618
# Poissons Ratio (z) = 0.47967 -0.18207
#
# Static dielectric constant tensor:
#      x y z
#    x 1.723880 0.000000 -0.030140 
#    y 0.000000 1.787480 0.000000 
#    z -0.030140 0.000000 1.793060 
# 
# From -- ./inp_files/24879.got.cif
#   From: 2010.05.17/outbox.cif.g08.bks.cpg/sg14_13_cif.got.tgz:24879.got - 2010.06.03 17:49:19.
