data_PCOD9245154
_publ_section_title
;
Structure prediction by ZEFSAII (Michael W. Deem and Ramdas Pophale) SiO2 
 PCOD9245154
Probable space group: P 21/C
;
_chemical_formula_sum "Si O2"
_cell_formula_units_Z 28
_cell_length_a 24.548907
_cell_length_b 12.155922
_cell_length_c 14.231156
_cell_angle_alpha 90.000000
_cell_angle_beta 160.397912
_cell_angle_gamma 90.000000
_cell_volume 1424.736391
_symmetry_space_group_name_H-M "P 21/C"
_symmetry_group_IT_number 14
_symmetry_cell_setting 'monoclinic'
loop_
_space_group_symop_operation_xyz
x,y,z
-x,1/2+y,1/2-z
-x,-y,-z
x,1/2-y,1/2+z
loop_
_atom_site_type_symbol
_atom_site_label
_atom_site_fract_x
_atom_site_fract_y
_atom_site_fract_z
Si Si1 0.893559 0.685426 0.391627
Si Si2 0.173487 0.088478 0.606721
Si Si3 0.681391 0.995986 0.637238
Si Si4 0.669907 0.438398 0.493731
Si Si5 0.185280 0.700244 0.738750
Si Si6 0.828518 0.526165 0.564436
Si Si7 0.155827 0.214402 0.396046
O O1 0.867434 0.800784 0.401004
O O2 0.827733 0.585209 0.345305
O O3 0.798361 0.686446 0.136923
O O4 0.080878 0.674880 0.663351
O O5 0.220172 0.132808 0.579696
O O6 0.010969 0.014023 0.339802
O O7 0.305683 0.017723 0.877349
O O8 0.511987 0.938797 0.340376
O O9 0.695509 0.104541 0.597533
O O10 0.709313 0.022555 0.791728
O O11 0.730483 0.316934 0.615858
O O12 0.782744 0.486231 0.593880
O O13 0.041023 0.704456 0.426648
O O14 0.808819 0.657925 0.528441
#
# Coordination Sequence:
#
# PCOD9245154 Si02
#       7
#     4   4   4   4   4   4   4
#     4  10  21  41  63  92 123 164 211 256 307 373
#     4  12  20  39  68  91 120 166 214 263 302 369
#     4  12  26  38  64  95 135 162 203 265 325 361
#     4  12  25  40  62  98 130 166 203 267 319 370
#     4  10  22  41  61  90 127 163 217 252 310 375
#     4  12  20  41  63  96 122 172 218 249 300 387
#     4  10  21  36  68  94 117 161 224 257 291 369
#
# _framework density 19.652757999999999
#
# number of rings (size 3 to 8) (size 9 to 14) (size 15 to 20)
#    0.857    0.000    7.143    1.286    2.000    0.000 
#    0.000    2.143    0.000    0.000    0.000    0.000 
#    0.000    0.000    0.000    0.000    0.000    0.000 
#
# Total GULP energy -156290.297196 kJ/mol
# GULP energy per Si atom -5581.796328 kJ/mol
# Density = 1.960803 g / cm^3
# Si number density = 19.652758 Si / 1000 Ang^3
#
#
#
# Elastic Constant Matrix: (Units=GPa)
#
#
# Indices 1 2 3 4 5 6 
#
# 1 44.3423 12.5704 -4.4527 0.0000 -19.6938 0.0000
# 2 12.5704 81.3994 -1.0033 0.0000 -3.3853 0.0000
# 3 -4.4527 -1.0033 51.3270 0.0000 -16.0903 0.0000
# 4 0.0000 0.0000 0.0000 14.0521 0.0000 -4.6936
# 5 -19.6938 -3.3853 -16.0903 0.0000 22.6407 0.0000
# 6 0.0000 0.0000 0.0000 -4.6936 0.0000 15.9548
#
#
#
# Elastic Compliance Matrix: (Units=1/GPa)
#
#
# Indices 1 2 3 4 5 6 
#
# 1 0.055940 -0.005586 0.025393 0.000000 0.065870 0.000000
# 2 -0.005586 0.012965 -0.001476 0.000000 -0.003969 0.000000
# 3 0.025393 -0.001476 0.036685 0.000000 0.047938 0.000000
# 4 0.000000 0.000000 0.000000 0.078918 0.000000 0.023216
# 5 0.065870 -0.003969 0.047938 0.000000 0.134940 0.000000
# 6 0.000000 0.000000 0.000000 0.023216 0.000000 0.069507
#
#
# Mechanical properties :
#
#
# Convention : Reuss Voigt Hill
#
# Bulk Modulus (GPa) = 7.02978 21.25528 14.14253
# Shear Modulus (GPa) = 12.50909 21.85983 17.18446
#
# Velocity S-wave (km/s) = 2.52564 3.33874 2.96024
# Velocity P-wave (km/s) = 3.47706 5.06969 4.34694
#
# Compressibility (1/GPa) = 0.14225202
#
# Stress axis : x y z
#
# Youngs Moduli (GPa) = 17.87622 77.13364 27.25914
#
# Poissons Ratio (x) = 0.43089 -0.69219
# Poissons Ratio (y) = 0.09986 0.04022
# Poissons Ratio (z) = -0.45393 0.11381
#
# Static dielectric constant tensor:
#      x y z
#    x 1.708110 0.000000 -0.022190 
#    y 0.000000 1.658250 0.000000 
#    z -0.022190 0.000000 1.679530 
# 
# From -- ./inp_files/52003.got.cif
#   From: 2010.05.17/outbox.cif.g08.bks.cpg/sg14_27_cif.got.tgz:52003.got - 2010.06.03 17:49:19.
