data_PCOD9245575
_publ_section_title
;
Structure prediction by ZEFSAII (Michael W. Deem and Ramdas Pophale) SiO2 
 PCOD9245575
Probable space group: P 21/C
;
_chemical_formula_sum "Si O2"
_cell_formula_units_Z 28
_cell_length_a 8.290539
_cell_length_b 13.323462
_cell_length_c 8.886930
_cell_angle_alpha 90.000000
_cell_angle_beta 89.153780
_cell_angle_gamma 90.000000
_cell_volume 981.531507
_symmetry_space_group_name_H-M "P 21/C"
_symmetry_group_IT_number 14
_symmetry_cell_setting 'monoclinic'
loop_
_space_group_symop_operation_xyz
x,y,z
-x,1/2+y,1/2-z
-x,-y,-z
x,1/2-y,1/2+z
loop_
_atom_site_type_symbol
_atom_site_label
_atom_site_fract_x
_atom_site_fract_y
_atom_site_fract_z
Si Si1 0.174507 0.430172 0.551789
Si Si2 0.162139 0.564161 0.818928
Si Si3 0.357764 0.648202 0.173238
Si Si4 0.154600 0.344561 0.247039
Si Si5 0.481961 0.427035 0.194651
Si Si6 0.019622 0.144403 0.323242
Si Si7 0.494189 0.835963 0.991949
O O1 0.179879 0.535136 0.640465
O O2 0.158464 0.432444 0.373699
O O3 0.331494 0.361805 0.582676
O O4 0.032791 0.372863 0.641767
O O5 0.338604 0.599235 0.863748
O O6 0.010917 0.637248 0.839842
O O7 0.111459 0.454815 0.882227
O O8 0.437553 0.539301 0.149464
O O9 0.167882 0.650270 0.135623
O O10 0.457139 0.736356 0.090025
O O11 0.374351 0.663011 0.353640
O O12 0.326005 0.357583 0.163708
O O13 0.124239 0.244224 0.342952
O O14 0.501635 0.418744 0.375082
#
# Coordination Sequence:
#
# PCOD9245575 Si02
#       7
#     4   4   4   4   4   4   4
#     4   9  22  37  66  93 135 166 221 285 338 406
#     4  10  21  38  64 100 125 172 227 282 337 404
#     4  12  24  45  68 106 139 184 229 290 347 412
#     4  11  22  40  64  98 129 179 220 287 343 400
#     4  11  23  40  71  97 138 176 235 285 338 408
#     4  10  24  39  64  96 140 169 225 282 344 412
#     4  11  26  41  72 101 141 180 233 284 351 412
#
# _framework density 28.526845999999999
#
# number of rings (size 3 to 8) (size 9 to 14) (size 15 to 20)
#    0.857    0.571    2.857    1.714   14.000    0.000 
#    0.000    0.714    0.000    1.714    0.000    0.000 
#    0.000    0.000    0.000    0.000    0.000    0.000 
#
# Total GULP energy -156726.687837 kJ/mol
# GULP energy per Si atom -5597.381708 kJ/mol
# Density = 2.846192 g / cm^3
# Si number density = 28.526846 Si / 1000 Ang^3
#
#
#
# Elastic Constant Matrix: (Units=GPa)
#
#
# Indices 1 2 3 4 5 6 
#
# 1 285.1247 69.3799 27.0436 0.0000 -16.6728 0.0000
# 2 69.3799 119.3179 -9.8909 0.0000 4.1592 0.0000
# 3 27.0436 -9.8909 109.7971 0.0000 1.6481 0.0000
# 4 0.0000 0.0000 0.0000 44.9226 0.0000 -0.9027
# 5 -16.6728 4.1592 1.6481 0.0000 52.1224 0.0000
# 6 0.0000 0.0000 0.0000 -0.9027 0.0000 37.1484
#
#
#
# Elastic Compliance Matrix: (Units=1/GPa)
#
#
# Indices 1 2 3 4 5 6 
#
# 1 0.004397 -0.002727 -0.001354 0.000000 0.001667 0.000000
# 2 -0.002727 0.010161 0.001613 0.000000 -0.001734 0.000000
# 3 -0.001354 0.001613 0.009599 0.000000 -0.000865 0.000000
# 4 0.000000 0.000000 0.000000 0.022271 0.000000 0.000541
# 5 0.001667 -0.001734 -0.000865 0.000000 0.019884 0.000000
# 6 0.000000 0.000000 0.000000 0.000541 0.000000 0.026932
#
#
# Mechanical properties :
#
#
# Convention : Reuss Voigt Hill
#
# Bulk Modulus (GPa) = 52.02409 76.36721 64.19565
# Shear Modulus (GPa) = 47.80716 55.35249 51.57983
#
# Velocity S-wave (km/s) = 4.09817 4.40974 4.25681
# Velocity P-wave (km/s) = 6.37729 7.26334 6.83469
#
# Compressibility (1/GPa) = 0.01922187
#
# Stress axis : x y z
#
# Youngs Moduli (GPa) = 227.44827 98.41857 104.17336
#
# Poissons Ratio (x) = 0.26837 0.14101
# Poissons Ratio (y) = 0.62021 -0.16803
# Poissons Ratio (z) = 0.30787 -0.15875
#
# Static dielectric constant tensor:
#      x y z
#    x 2.209400 0.000000 -0.003810 
#    y 0.000000 2.210130 0.000000 
#    z -0.003810 0.000000 2.302680 
# 
# From -- ./inp_files/24922.got.cif
#   From: 2010.05.17/outbox.cif.g08.bks.cpg/sg14_13_cif.got.tgz:24922.got - 2010.06.03 17:49:19.
