data_PCOD9245634
_publ_section_title
;
Structure prediction by ZEFSAII (Michael W. Deem and Ramdas Pophale) SiO2 
 PCOD9245634
Probable space group: P 21/C
;
_chemical_formula_sum "Si O2"
_cell_formula_units_Z 28
_cell_length_a 5.468636
_cell_length_b 26.661625
_cell_length_c 9.940559
_cell_angle_alpha 90.000000
_cell_angle_beta 47.750025
_cell_angle_gamma 90.000000
_cell_volume 1072.843387
_symmetry_space_group_name_H-M "P 21/C"
_symmetry_group_IT_number 14
_symmetry_cell_setting 'monoclinic'
loop_
_space_group_symop_operation_xyz
x,y,z
-x,1/2+y,1/2-z
-x,-y,-z
x,1/2-y,1/2+z
loop_
_atom_site_type_symbol
_atom_site_label
_atom_site_fract_x
_atom_site_fract_y
_atom_site_fract_z
Si Si1 0.267515 0.136912 0.986334
Si Si2 0.915518 0.604457 0.173137
Si Si3 0.017791 0.893484 0.341824
Si Si4 0.705749 0.796158 0.455035
Si Si5 0.954179 0.503555 0.747701
Si Si6 0.255492 0.558146 0.401425
Si Si7 0.544822 0.230839 0.737767
O O1 0.083451 0.140601 0.198537
O O2 0.083047 0.090147 0.984229
O O3 0.649087 0.119458 0.862387
O O4 0.298489 0.188412 0.892887
O O5 0.983093 0.547594 0.196717
O O6 0.531867 0.599321 0.277648
O O7 0.102999 0.615779 0.967326
O O8 0.890652 0.949471 0.365689
O O9 0.731139 0.854665 0.411387
O O10 0.537559 0.782515 0.657662
O O11 0.528092 0.769152 0.394622
O O12 0.088555 0.782011 0.344780
O O13 0.233865 0.526645 0.545587
O O14 0.699081 0.484135 0.729781
#
# Coordination Sequence:
#
# PCOD9245634 Si02
#       7
#     4   4   4   4   4   4   4
#     4  10  24  43  65  94 137 177 225 290 351 411
#     4  11  23  41  63  98 128 192 226 285 339 417
#     4  11  24  43  66  95 142 169 238 281 358 403
#     4  11  26  48  75 109 135 190 226 299 358 434
#     4  10  21  39  59  93 136 178 228 284 337 412
#     4  10  21  38  66  90 129 188 230 275 349 404
#     4  11  25  47  76 104 145 178 236 289 371 418
#
# _framework density 26.098872
#
# number of rings (size 3 to 8) (size 9 to 14) (size 15 to 20)
#    0.000    1.429    1.429    2.571    8.000    1.714 
#   15.429    0.000    0.000    0.000    0.000    0.000 
#    0.000    0.000    0.000    0.000    0.000    0.000 
#
# Total GULP energy -156551.616088 kJ/mol
# GULP energy per Si atom -5591.129146 kJ/mol
# Density = 2.603947 g / cm^3
# Si number density = 26.098872 Si / 1000 Ang^3
#
#
#
# Elastic Constant Matrix: (Units=GPa)
#
#
# Indices 1 2 3 4 5 6 
#
# 1 72.1467 14.5470 20.3590 0.0000 20.5619 0.0000
# 2 14.5470 74.6539 11.3867 0.0000 -1.1648 0.0000
# 3 20.3590 11.3867 105.1858 0.0000 25.9322 0.0000
# 4 0.0000 0.0000 0.0000 38.2018 0.0000 6.6891
# 5 20.5619 -1.1648 25.9322 0.0000 31.5728 0.0000
# 6 0.0000 0.0000 0.0000 6.6891 0.0000 29.3663
#
#
#
# Elastic Compliance Matrix: (Units=1/GPa)
#
#
# Indices 1 2 3 4 5 6 
#
# 1 0.017984 -0.003655 -0.000206 0.000000 -0.011678 0.000000
# 2 -0.003655 0.014480 -0.001979 0.000000 0.004540 0.000000
# 3 -0.000206 -0.001979 0.012221 0.000000 -0.009976 0.000000
# 4 0.000000 0.000000 0.000000 0.027264 0.000000 -0.006210
# 5 -0.011678 0.004540 -0.009976 0.000000 0.047639 0.000000
# 6 0.000000 0.000000 0.000000 -0.006210 0.000000 0.035467
#
#
# Mechanical properties :
#
#
# Convention : Reuss Voigt Hill
#
# Bulk Modulus (GPa) = 30.30003 38.28576 34.29289
# Shear Modulus (GPa) = 28.13126 33.54109 30.83617
#
# Velocity S-wave (km/s) = 3.28666 3.58879 3.44104
# Velocity P-wave (km/s) = 5.10272 5.64570 5.38106
#
# Compressibility (1/GPa) = 0.03300327
#
# Stress axis : x y z
#
# Youngs Moduli (GPa) = 55.60511 69.06009 81.82848
#
# Poissons Ratio (x) = 0.25242 0.01687
# Poissons Ratio (y) = 0.20324 0.16198
# Poissons Ratio (z) = 0.01147 0.13670
#
# Static dielectric constant tensor:
#      x y z
#    x 2.118170 0.000000 0.009320 
#    y 0.000000 2.048960 0.000000 
#    z 0.009320 0.000000 2.045780 
# 
# From -- ./inp_files/6898.got.cif
#   From: 2010.05.17/outbox.cif.g08.bks.cpg/sg14_4_cif.got.tgz:6898.got - 2010.06.03 17:49:19.
