data_PCOD9245386
_publ_section_title
;
Structure prediction by ZEFSAII (Michael W. Deem and Ramdas Pophale) SiO2 
 PCOD9245386
Probable space group: P 21/C
;
_chemical_formula_sum "Si O2"
_cell_formula_units_Z 32
_cell_length_a 20.590815
_cell_length_b 7.107318
_cell_length_c 20.229098
_cell_angle_alpha 90.000000
_cell_angle_beta 28.513282
_cell_angle_gamma 90.000000
_cell_volume 1413.201450
_symmetry_space_group_name_H-M "P 21/C"
_symmetry_group_IT_number 14
_symmetry_cell_setting 'monoclinic'
loop_
_space_group_symop_operation_xyz
x,y,z
-x,1/2+y,1/2-z
-x,-y,-z
x,1/2-y,1/2+z
loop_
_atom_site_type_symbol
_atom_site_label
_atom_site_fract_x
_atom_site_fract_y
_atom_site_fract_z
Si Si1 0.862999 0.329786 0.559627
Si Si2 0.056635 0.254059 0.494481
Si Si3 0.305122 0.145891 0.494153
Si Si4 0.312746 0.152324 0.336417
Si Si5 0.384516 0.585106 0.428069
Si Si6 0.892169 0.182131 0.769505
Si Si7 0.031426 0.249398 0.783545
Si Si8 0.395570 0.586009 0.266950
O O1 0.878447 0.539567 0.575689
O O2 0.702906 0.293302 0.691964
O O3 0.963970 0.207495 0.514400
O O4 0.923092 0.328151 0.431925
O O5 0.183828 0.126922 0.404297
O O6 0.953949 0.268376 0.648243
O O7 0.281924 0.083722 0.438790
O O8 0.333385 0.370772 0.468201
O O9 0.168247 0.124333 0.658032
O O10 0.447240 0.066294 0.393184
O O11 0.462178 0.083634 0.181943
O O12 0.332606 0.377984 0.324972
O O13 0.268994 0.693748 0.572054
O O14 0.395894 0.660369 0.342331
O O15 0.970511 0.253005 0.764528
O O16 0.928015 0.959858 0.732760
#
# Coordination Sequence:
#
# PCOD9245386 Si02
#       8
#     4   4   4   4   4   4   4   4
#     4  10  21  38  57  79 111 146 180 222 270 321
#     4  10  21  38  57  79 111 146 180 222 270 321
#     4   9  18  32  51  78 107 135 174 223 267 313
#     4   9  17  32  52  77 106 138 177 217 264 319
#     4   9  18  32  51  78 107 135 174 223 267 313
#     4  11  21  35  56  82 111 140 181 227 269 318
#     4  11  21  35  56  82 111 140 181 227 269 318
#     4   9  17  32  52  77 106 138 177 217 264 319
#
# _framework density 22.643622000000001
#
# number of rings (size 3 to 8) (size 9 to 14) (size 15 to 20)
#    0.000    2.250    2.500    0.750    0.000    3.500 
#    0.000    1.250    0.000    7.500    0.000    0.000 
#    0.000    0.000    0.000    0.000    0.000    0.000 
#
# Total GULP energy -178812.230935 kJ/mol
# GULP energy per Si atom -5587.882217 kJ/mol
# Density = 2.259208 g / cm^3
# Si number density = 22.643622 Si / 1000 Ang^3
#
#
#
# Elastic Constant Matrix: (Units=GPa)
#
#
# Indices 1 2 3 4 5 6 
#
# 1 112.6659 6.8194 45.5249 0.0000 -38.9365 0.0000
# 2 6.8194 52.0021 2.2992 0.0000 -11.6569 0.0000
# 3 45.5249 2.2992 112.3743 0.0000 -36.7179 0.0000
# 4 0.0000 0.0000 0.0000 15.6723 0.0000 -23.2086
# 5 -38.9365 -11.6569 -36.7179 0.0000 38.9013 0.0000
# 6 0.0000 0.0000 0.0000 -23.2086 0.0000 5.1151
#
#
#
# Elastic Compliance Matrix: (Units=1/GPa)
#
#
# Indices 1 2 3 4 5 6 
#
# 1 0.013814 0.001123 -0.001434 0.000000 0.012810 0.000000
# 2 0.001123 0.021129 0.002239 0.000000 0.009569 0.000000
# 3 -0.001434 0.002239 0.013280 0.000000 0.011770 0.000000
# 4 0.000000 0.000000 0.000000 -0.011157 0.000000 -0.050621
# 5 0.012810 0.009569 0.011770 0.000000 0.052505 0.000000
# 6 0.000000 0.000000 0.000000 -0.050621 0.000000 -0.034183
#
#
# Mechanical properties :
#
#
# Convention : Reuss Voigt Hill
#
# Bulk Modulus (GPa) = 19.20100 42.92550 31.06325
# Shear Modulus (GPa) = 72.57964 26.76432 49.67198
#
# Velocity S-wave (km/s) = 5.66768 3.44172 4.68871
# Velocity P-wave (km/s) = 7.16437 5.89848 6.56202
#
# Compressibility (1/GPa) = 0.05208063
#
# Stress axis : x y z
#
# Youngs Moduli (GPa) = 72.38943 47.32893 75.30229
#
# Poissons Ratio (x) = -0.05317 0.10796
# Poissons Ratio (y) = -0.08132 -0.16863
# Poissons Ratio (z) = 0.10379 -0.10599
#
# Static dielectric constant tensor:
#      x y z
#    x 1.823110 0.000000 -0.046880 
#    y 0.000000 1.950810 0.000000 
#    z -0.046880 0.000000 1.836870 
# 
# From -- ./inp_files/69779.got.cif
#   From: 2010.05.17/outbox.cif.g08.bks.cpg/sg14_35_cif.got.tgz:69779.got - 2010.06.03 17:49:19.
