data_PCOD9245059
_publ_section_title
;
Structure prediction by ZEFSAII (Michael W. Deem and Ramdas Pophale) SiO2 
 PCOD9245059
Probable space group: P 21/C
;
_chemical_formula_sum "Si O2"
_cell_formula_units_Z 32
_cell_length_a 17.133881
_cell_length_b 10.882662
_cell_length_c 7.516424
_cell_angle_alpha 90.000000
_cell_angle_beta 83.813834
_cell_angle_gamma 90.000000
_cell_volume 1393.368134
_symmetry_space_group_name_H-M "P 21/C"
_symmetry_group_IT_number 14
_symmetry_cell_setting 'monoclinic'
loop_
_space_group_symop_operation_xyz
x,y,z
-x,1/2+y,1/2-z
-x,-y,-z
x,1/2-y,1/2+z
loop_
_atom_site_type_symbol
_atom_site_label
_atom_site_fract_x
_atom_site_fract_y
_atom_site_fract_z
Si Si1 0.403602 0.946215 0.188890
Si Si2 0.146655 0.667074 0.136774
Si Si3 0.821117 0.855227 0.608991
Si Si4 0.038241 0.838298 0.955788
Si Si5 0.353116 0.353646 0.989004
Si Si6 0.577397 0.896095 0.154609
Si Si7 0.230560 0.899976 0.282441
Si Si8 0.073541 0.331432 0.225379
O O1 0.389218 0.059113 0.328082
O O2 0.485101 0.883291 0.221241
O O3 0.321506 0.876390 0.224546
O O4 0.412444 0.991389 0.983630
O O5 0.108142 0.604481 0.319909
O O6 0.182652 0.795363 0.196502
O O7 0.077265 0.712628 0.024227
O O8 0.212294 0.606161 0.998390
O O9 0.738786 0.835667 0.528934
O O10 0.888661 0.898438 0.453078
O O11 0.855258 0.729692 0.681674
O O12 0.800260 0.962917 0.755117
O O13 0.970731 0.788646 0.843110
O O14 0.992551 0.895980 0.134995
O O15 0.393749 0.222380 0.959356
O O16 0.372525 0.406213 0.178131
#
# Coordination Sequence:
#
# PCOD9245059 Si02
#       8
#     4   4   4   4   4   4   4   4
#     4  10  24  42  60  95 125 156 212 252 294 373
#     4   9  18  39  60  77 116 166 198 256 304 349
#     4  10  21  36  58  91 121 156 201 250 307 366
#     4   8  16  34  57  81 119 157 197 247 307 354
#     4  11  21  40  64  90 129 164 197 250 316 355
#     4  11  22  40  65  90 124 168 196 247 312 363
#     4  10  22  41  59  85 120 155 207 254 301 364
#     4   9  17  34  58  88 123 153 193 255 300 364
#
# _framework density 22.965931999999999
#
# number of rings (size 3 to 8) (size 9 to 14) (size 15 to 20)
#    0.000    2.250    1.250    1.125    1.750    1.000 
#    9.000   23.750    0.000    0.000    0.000    0.000 
#    0.000    0.000    0.000    0.000    0.000    0.000 
#
# Total GULP energy -178556.549606 kJ/mol
# GULP energy per Si atom -5579.892175 kJ/mol
# Density = 2.291366 g / cm^3
# Si number density = 22.965932 Si / 1000 Ang^3
#
#
#
# Elastic Constant Matrix: (Units=GPa)
#
#
# Indices 1 2 3 4 5 6 
#
# 1 131.3053 13.3626 27.1576 0.0000 -8.7945 0.0000
# 2 13.3626 19.8677 -5.0682 0.0000 3.4217 0.0000
# 3 27.1576 -5.0682 77.0997 0.0000 -1.6755 0.0000
# 4 0.0000 0.0000 0.0000 24.8759 0.0000 -6.0327
# 5 -8.7945 3.4217 -1.6755 0.0000 44.4396 0.0000
# 6 0.0000 0.0000 0.0000 -6.0327 0.0000 29.6022
#
#
#
# Elastic Compliance Matrix: (Units=1/GPa)
#
#
# Indices 1 2 3 4 5 6 
#
# 1 0.009316 -0.007612 -0.003732 0.000000 0.002289 0.000000
# 2 -0.007612 0.058066 0.006374 0.000000 -0.005737 0.000000
# 3 -0.003732 0.006374 0.014689 0.000000 -0.000675 0.000000
# 4 0.000000 0.000000 0.000000 0.042290 0.000000 0.008618
# 5 0.002289 -0.005737 -0.000675 0.000000 0.023372 0.000000
# 6 0.000000 0.000000 0.000000 0.008618 0.000000 0.035538
#
#
# Mechanical properties :
#
#
# Convention : Reuss Voigt Hill
#
# Bulk Modulus (GPa) = 13.86374 33.24186 23.55280
# Shear Modulus (GPa) = 23.01458 32.63826 27.82642
#
# Velocity S-wave (km/s) = 3.16906 3.77392 3.48464
# Velocity P-wave (km/s) = 4.40912 5.78755 5.14471
#
# Compressibility (1/GPa) = 0.07213060
#
# Stress axis : x y z
#
# Youngs Moduli (GPa) = 107.34632 17.22171 68.07788
#
# Poissons Ratio (x) = 0.13109 0.25406
# Poissons Ratio (y) = 0.81709 -0.43389
# Poissons Ratio (z) = 0.40061 -0.10976
#
# Static dielectric constant tensor:
#      x y z
#    x 1.844250 0.000000 -0.023700 
#    y 0.000000 1.923180 0.000000 
#    z -0.023700 0.000000 1.916050 
# 
# From -- ./inp_files/15787.got.cif
#   From: 2010.05.17/outbox.cif.g08.bks.cpg/sg14_8_cif.got.tgz:15787.got - 2010.06.03 17:49:19.
