data_PCOD9245221
_publ_section_title
;
Structure prediction by ZEFSAII (Michael W. Deem and Ramdas Pophale) SiO2 
 PCOD9245221
Probable space group: P 21/C
;
_chemical_formula_sum "Si O2"
_cell_formula_units_Z 28
_cell_length_a 10.001327
_cell_length_b 19.983790
_cell_length_c 5.198723
_cell_angle_alpha 90.000000
_cell_angle_beta 107.758437
_cell_angle_gamma 90.000000
_cell_volume 989.530437
_symmetry_space_group_name_H-M "P 21/C"
_symmetry_group_IT_number 14
_symmetry_cell_setting 'monoclinic'
loop_
_space_group_symop_operation_xyz
x,y,z
-x,1/2+y,1/2-z
-x,-y,-z
x,1/2-y,1/2+z
loop_
_atom_site_type_symbol
_atom_site_label
_atom_site_fract_x
_atom_site_fract_y
_atom_site_fract_z
Si Si1 0.134196 0.586802 0.043428
Si Si2 0.188476 0.707426 0.405200
Si Si3 0.455892 0.430192 0.241748
Si Si4 0.834588 0.936025 0.214057
Si Si5 0.559500 0.795949 0.493203
Si Si6 0.860685 0.713217 0.296970
Si Si7 0.720762 0.487157 0.269842
O O1 0.219622 0.639837 0.263430
O O2 0.198494 0.575807 0.798320
O O3 0.969115 0.602077 0.899501
O O4 0.145705 0.512471 0.169352
O O5 0.226160 0.764558 0.211566
O O6 0.020538 0.695962 0.340291
O O7 0.325013 0.408916 0.345685
O O8 0.513133 0.364887 0.124574
O O9 0.600552 0.466523 0.406010
O O10 0.373350 0.479113 0.003090
O O11 0.833649 0.956028 0.913468
O O12 0.536148 0.755063 0.741664
O O13 0.720995 0.822450 0.618859
O O14 0.845628 0.776773 0.092992
#
# Coordination Sequence:
#
# PCOD9245221 Si02
#       7
#     4   4   4   4   4   4   4
#     4  10  22  39  61  95 125 161 218 268 323 383
#     4  10  21  37  58  88 127 173 211 256 323 395
#     4  10  22  40  63  93 124 165 217 263 324 388
#     4  10  21  40  66  93 121 165 213 277 324 370
#     4  10  21  37  59  92 127 166 210 263 324 388
#     4   8  15  30  49  77 114 152 199 246 299 364
#     4  10  22  41  64  92 123 168 215 271 321 375
#
# _framework density 28.296247000000001
#
# number of rings (size 3 to 8) (size 9 to 14) (size 15 to 20)
#    0.000    2.286    0.000    1.714    4.000    0.000 
#    7.714    1.429    0.000    0.000    0.000    0.000 
#    0.000    0.000    0.000    0.000    0.000    0.000 
#
# Total GULP energy -156165.876523 kJ/mol
# GULP energy per Si atom -5577.352733 kJ/mol
# Density = 2.823184 g / cm^3
# Si number density = 28.296247 Si / 1000 Ang^3
#
#
#
# Elastic Constant Matrix: (Units=GPa)
#
#
# Indices 1 2 3 4 5 6 
#
# 1 98.9881 21.4268 27.7044 0.0000 -5.0385 0.0000
# 2 21.4268 75.9676 24.9196 0.0000 2.3493 0.0000
# 3 27.7044 24.9196 114.7178 0.0000 -2.6656 0.0000
# 4 0.0000 0.0000 0.0000 51.8182 0.0000 7.5099
# 5 -5.0385 2.3493 -2.6656 0.0000 34.8302 0.0000
# 6 0.0000 0.0000 0.0000 7.5099 0.0000 31.0673
#
#
#
# Elastic Compliance Matrix: (Units=1/GPa)
#
#
# Indices 1 2 3 4 5 6 
#
# 1 0.011338 -0.002544 -0.002147 0.000000 0.001647 0.000000
# 2 -0.002544 0.014794 -0.002636 0.000000 -0.001568 0.000000
# 3 -0.002147 -0.002636 0.009822 0.000000 0.000619 0.000000
# 4 0.000000 0.000000 0.000000 0.019999 0.000000 -0.004834
# 5 0.001647 -0.001568 0.000619 0.000000 0.029102 0.000000
# 6 0.000000 0.000000 0.000000 -0.004834 0.000000 0.033357
#
#
# Mechanical properties :
#
#
# Convention : Reuss Voigt Hill
#
# Bulk Modulus (GPa) = 46.94808 48.64167 47.79488
# Shear Modulus (GPa) = 35.67184 37.91798 36.79491
#
# Velocity S-wave (km/s) = 3.55442 3.66462 3.60994
# Velocity P-wave (km/s) = 5.78558 5.92734 5.85689
#
# Compressibility (1/GPa) = 0.02130012
#
# Stress axis : x y z
#
# Youngs Moduli (GPa) = 88.20075 67.59394 101.80748
#
# Poissons Ratio (x) = 0.17199 0.21859
# Poissons Ratio (y) = 0.22443 0.26832
# Poissons Ratio (z) = 0.18937 0.17815
#
# Static dielectric constant tensor:
#      x y z
#    x 2.293760 0.000000 -0.112010 
#    y 0.000000 2.267170 0.000000 
#    z -0.112010 0.000000 2.305200 
# 
# From -- ./inp_files/2975.got.cif
#   From: 2010.05.17/outbox.cif.g08.bks.cpg/sg14_2_cif.got.tgz:2975.got - 2010.06.03 17:49:19.
