data_PCOD9245044
_publ_section_title
;
Structure prediction by ZEFSAII (Michael W. Deem and Ramdas Pophale) SiO2 
 PCOD9245044
Probable space group: P 21/C
;
_chemical_formula_sum "Si O2"
_cell_formula_units_Z 32
_cell_length_a 12.879108
_cell_length_b 11.817318
_cell_length_c 24.442773
_cell_angle_alpha 90.000000
_cell_angle_beta 153.770778
_cell_angle_gamma 90.000000
_cell_volume 1644.150250
_symmetry_space_group_name_H-M "P 21/C"
_symmetry_group_IT_number 14
_symmetry_cell_setting 'monoclinic'
loop_
_space_group_symop_operation_xyz
x,y,z
-x,1/2+y,1/2-z
-x,-y,-z
x,1/2-y,1/2+z
loop_
_atom_site_type_symbol
_atom_site_label
_atom_site_fract_x
_atom_site_fract_y
_atom_site_fract_z
Si Si1 0.103674 0.279815 0.664745
Si Si2 0.306055 0.912015 0.787741
Si Si3 0.838868 0.498900 0.547188
Si Si4 0.469688 0.563068 0.095932
Si Si5 0.730333 0.427143 0.610329
Si Si6 0.007253 0.054560 0.562994
Si Si7 0.803795 0.183426 0.622876
Si Si8 0.793333 0.346654 0.243403
O O1 0.343942 0.342304 0.795493
O O2 0.114061 0.180522 0.624461
O O3 0.929290 0.382376 0.562640
O O4 0.001079 0.218276 0.671277
O O5 0.176376 0.938812 0.784483
O O6 0.303517 0.775991 0.785280
O O7 0.159885 0.969452 0.671587
O O8 0.568796 0.965494 0.911954
O O9 0.883683 0.464567 0.632030
O O10 0.004038 0.608148 0.619947
O O11 0.595010 0.442489 0.152084
O O12 0.361689 0.595068 0.985874
O O13 0.254617 0.560964 0.036340
O O14 0.500000 0.500000 0.500000
O O15 0.658901 0.298986 0.563890
O O16 0.000000 0.000000 0.500000
O O17 0.882193 0.159500 0.721922
#
# Coordination Sequence:
#
# PCOD9245044 Si02
#       8
#     4   4   4   4   4   4   4   4
#     4   9  21  39  65  90 123 160 210 266 305 381
#     4  10  22  37  61  83 127 168 201 264 315 369
#     4   9  19  36  60  90 125 162 205 240 312 388
#     4  10  22  40  63  93 127 167 217 261 310 378
#     4   8  16  29  51  85 120 163 195 235 296 375
#     4  11  26  45  66  91 117 162 222 280 331 361
#     4   9  18  32  56  94 132 167 201 240 304 383
#     4  10  21  36  57  97 135 171 197 250 312 388
#
# _framework density 19.462941000000001
#
# number of rings (size 3 to 8) (size 9 to 14) (size 15 to 20)
#    0.000    2.500    0.000    0.375   12.250    2.000 
#    4.500    0.000    0.000    3.000    0.000    0.000 
#    0.000    0.000    0.000    0.000    0.000    0.000 
#
# Total GULP energy -178215.009447 kJ/mol
# GULP energy per Si atom -5569.219045 kJ/mol
# Density = 1.941864 g / cm^3
# Si number density = 19.462941 Si / 1000 Ang^3
#
#
#
# Elastic Constant Matrix: (Units=GPa)
#
#
# Indices 1 2 3 4 5 6 
#
# 1 55.0208 42.7644 40.5722 0.0000 -14.0309 0.0000
# 2 42.7644 139.7569 58.8175 0.0000 -12.8725 0.0000
# 3 40.5722 58.8175 96.2003 0.0000 -2.8998 0.0000
# 4 0.0000 0.0000 0.0000 25.2103 0.0000 3.3344
# 5 -14.0309 -12.8725 -2.8998 0.0000 22.9514 0.0000
# 6 0.0000 0.0000 0.0000 3.3344 0.0000 22.0467
#
#
#
# Elastic Compliance Matrix: (Units=1/GPa)
#
#
# Indices 1 2 3 4 5 6 
#
# 1 0.034090 -0.004067 -0.011375 0.000000 0.017122 0.000000
# 2 -0.004067 0.010647 -0.004707 0.000000 0.002890 0.000000
# 3 -0.011375 -0.004707 0.017849 0.000000 -0.007339 0.000000
# 4 0.000000 0.000000 0.000000 0.040476 0.000000 -0.006122
# 5 0.017122 0.002890 -0.007339 0.000000 0.054732 0.000000
# 6 0.000000 0.000000 0.000000 -0.006122 0.000000 0.046284
#
#
# Mechanical properties :
#
#
# Convention : Reuss Voigt Hill
#
# Bulk Modulus (GPa) = 44.86689 63.92069 54.39379
# Shear Modulus (GPa) = 19.85663 23.96327 21.90995
#
# Velocity S-wave (km/s) = 3.19757 3.51269 3.35882
# Velocity P-wave (km/s) = 6.06095 7.02606 6.56127
#
# Compressibility (1/GPa) = 0.02228815
#
# Stress axis : x y z
#
# Youngs Moduli (GPa) = 29.33412 93.92238 56.02554
#
# Poissons Ratio (x) = 0.38200 0.63727
# Poissons Ratio (y) = 0.11931 0.26373
# Poissons Ratio (z) = 0.33366 0.44212
#
# Static dielectric constant tensor:
#      x y z
#    x 1.711490 0.000000 0.002380 
#    y 0.000000 1.752390 0.000000 
#    z 0.002380 0.000000 1.683770 
# 
# From -- ./inp_files/73321.got.cif
#   From: 2010.05.17/outbox.cif.g08.bks.cpg/sg14_37_cif.got.tgz:73321.got - 2010.06.03 17:49:19.
