data_PCOD9245917
_publ_section_title
;
Structure prediction by ZEFSAII (Michael W. Deem and Ramdas Pophale) SiO2 
 PCOD9245917
Probable space group: P 21/C
;
_chemical_formula_sum "Si O2"
_cell_formula_units_Z 28
_cell_length_a 14.173788
_cell_length_b 11.263935
_cell_length_c 9.227596
_cell_angle_alpha 90.000000
_cell_angle_beta 122.007290
_cell_angle_gamma 90.000000
_cell_volume 1249.253545
_symmetry_space_group_name_H-M "P 21/C"
_symmetry_group_IT_number 14
_symmetry_cell_setting 'monoclinic'
loop_
_space_group_symop_operation_xyz
x,y,z
-x,1/2+y,1/2-z
-x,-y,-z
x,1/2-y,1/2+z
loop_
_atom_site_type_symbol
_atom_site_label
_atom_site_fract_x
_atom_site_fract_y
_atom_site_fract_z
Si Si1 0.930264 0.553288 0.574161
Si Si2 0.983376 0.090382 0.354962
Si Si3 0.354044 0.353418 0.395350
Si Si4 0.721841 0.278299 0.332712
Si Si5 0.861962 0.319120 0.213141
Si Si6 0.790565 0.781694 0.487026
Si Si7 0.600142 0.375313 0.492720
O O1 0.843792 0.656709 0.473908
O O2 0.000000 0.500000 0.500000
O O3 0.895930 0.454710 0.661063
O O4 0.032230 0.607973 0.751716
O O5 0.101659 0.137466 0.385178
O O6 0.921851 0.211814 0.349553
O O7 0.000000 0.000000 0.500000
O O8 0.271468 0.350809 0.191126
O O9 0.296441 0.261590 0.461055
O O10 0.477329 0.329379 0.434770
O O11 0.374186 0.484554 0.476980
O O12 0.785783 0.372094 0.279877
O O13 0.792857 0.215283 0.516548
O O14 0.625930 0.336818 0.350179
O O15 0.677061 0.185725 0.177676
#
# Coordination Sequence:
#
# PCOD9245917 Si02
#       7
#     4   4   4   4   4   4   4
#     4  11  23  37  58  92 131 164 209 257 316 388
#     4  11  23  39  63  92 133 170 211 255 318 393
#     4  11  24  45  66  94 127 171 217 269 334 374
#     4  10  21  39  65  92 120 164 208 264 326 374
#     4  10  22  36  59  95 123 163 208 257 312 396
#     4  11  25  41  66  95 133 174 215 266 324 390
#     4  10  24  43  69  93 126 165 220 276 322 390
#
# _framework density 22.413384000000001
#
# number of rings (size 3 to 8) (size 9 to 14) (size 15 to 20)
#    0.000    1.429    0.000    4.286   12.000    4.571 
#    0.000    0.000    0.000    6.857    0.000    0.000 
#    0.000    0.000    0.000    0.000    0.000    0.000 
#
# Total GULP energy -156093.970984 kJ/mol
# GULP energy per Si atom -5574.784678 kJ/mol
# Density = 2.236237 g / cm^3
# Si number density = 22.413384 Si / 1000 Ang^3
#
#
#
# Elastic Constant Matrix: (Units=GPa)
#
#
# Indices 1 2 3 4 5 6 
#
# 1 126.5267 2.3149 10.5581 0.0000 -13.5640 0.0000
# 2 2.3149 36.1063 -9.0560 0.0000 -7.4000 0.0000
# 3 10.5581 -9.0560 62.9969 0.0000 -11.1850 0.0000
# 4 0.0000 0.0000 0.0000 28.0341 0.0000 1.8746
# 5 -13.5640 -7.4000 -11.1850 0.0000 45.6100 0.0000
# 6 0.0000 0.0000 0.0000 1.8746 0.0000 34.1945
#
#
#
# Elastic Compliance Matrix: (Units=1/GPa)
#
#
# Indices 1 2 3 4 5 6 
#
# 1 0.008226 -0.000354 -0.001051 0.000000 0.002131 0.000000
# 2 -0.000354 0.030369 0.005522 0.000000 0.006176 0.000000
# 3 -0.001051 0.005522 0.017719 0.000000 0.004928 0.000000
# 4 0.000000 0.000000 0.000000 0.035802 0.000000 -0.001963
# 5 0.002131 0.006176 0.004928 0.000000 0.024769 0.000000
# 6 0.000000 0.000000 0.000000 -0.001963 0.000000 0.029352
#
#
# Mechanical properties :
#
#
# Convention : Reuss Voigt Hill
#
# Bulk Modulus (GPa) = 15.49274 25.91821 20.70548
# Shear Modulus (GPa) = 31.34380 36.35524 33.84952
#
# Velocity S-wave (km/s) = 3.74363 4.03182 3.89039
# Velocity P-wave (km/s) = 5.06099 5.76740 5.42570
#
# Compressibility (1/GPa) = 0.06454635
#
# Stress axis : x y z
#
# Youngs Moduli (GPa) = 121.56382 32.92795 56.43733
#
# Poissons Ratio (x) = 0.01167 0.05933
# Poissons Ratio (y) = 0.04307 -0.31162
# Poissons Ratio (z) = 0.12779 -0.18181
#
# Static dielectric constant tensor:
#      x y z
#    x 1.957040 0.000000 0.003950 
#    y 0.000000 1.978340 0.000000 
#    z 0.003950 0.000000 1.816700 
# 
# From -- ./inp_files/15874.got.cif
#   From: 2010.05.17/outbox.cif.g08.bks.cpg/sg14_8_cif.got.tgz:15874.got - 2010.06.03 17:49:19.
