data_PCOD9245735
_publ_section_title
;
Structure prediction by ZEFSAII (Michael W. Deem and Ramdas Pophale) SiO2 
 PCOD9245735
Probable space group: P 21/C
;
_chemical_formula_sum "Si O2"
_cell_formula_units_Z 26
_cell_length_a 12.100567
_cell_length_b 6.802289
_cell_length_c 13.848581
_cell_angle_alpha 90.000000
_cell_angle_beta 86.777622
_cell_angle_gamma 90.000000
_cell_volume 1138.095911
_symmetry_space_group_name_H-M "P 21/C"
_symmetry_group_IT_number 14
_symmetry_cell_setting 'monoclinic'
loop_
_space_group_symop_operation_xyz
x,y,z
-x,1/2+y,1/2-z
-x,-y,-z
x,1/2-y,1/2+z
loop_
_atom_site_type_symbol
_atom_site_label
_atom_site_fract_x
_atom_site_fract_y
_atom_site_fract_z
Si Si1 0.852727 0.098788 0.051429
Si Si2 0.522733 0.061511 0.853082
Si Si3 0.358908 0.400265 0.839725
Si Si4 0.388992 0.760015 0.469068
Si Si5 0.081029 0.223438 0.097890
Si Si6 0.000000 0.500000 0.000000
Si Si7 0.888341 0.776930 0.677597
O O1 0.875094 0.943359 0.135707
O O2 0.731499 0.183662 0.058899
O O3 0.874286 0.974577 0.952555
O O4 0.953712 0.256032 0.058736
O O5 0.412130 0.185146 0.839114
O O6 0.585965 0.015001 0.752128
O O7 0.484716 0.862429 0.908472
O O8 0.595100 0.196713 0.921184
O O9 0.390931 0.515371 0.935623
O O10 0.229554 0.382358 0.827742
O O11 0.083209 0.225090 0.210810
O O12 0.125204 0.408666 0.037699
O O13 0.022264 0.386522 0.891145
#
# Coordination Sequence:
#
# PCOD9245735 Si02
#       7
#     4   4   4   4   4   2   4
#     4  10  21  39  60  92 128 172 216 262 328 385
#     4  11  24  42  65  94 127 169 217 271 323 381
#     4  12  23  44  67  99 129 171 225 267 332 393
#     4  11  23  42  65  90 132 169 213 272 325 382
#     4  10  21  39  63  91 134 172 214 274 323 390
#     4  10  22  40  60  98 126 170 226 262 320 412
#     4  11  22  39  66  95 133 172 214 269 332 389
#
# _framework density 22.845174
#
# number of rings (size 3 to 8) (size 9 to 14) (size 15 to 20)
#    0.000    1.231    3.077    3.231    0.000    0.000 
#    0.000   12.308    0.000    0.000    0.000    0.000 
#    0.000    0.000    0.000    0.000    0.000    0.000 
#
# Total GULP energy -145106.534212 kJ/mol
# GULP energy per Si atom -5581.020547 kJ/mol
# Density = 2.279318 g / cm^3
# Si number density = 22.845174 Si / 1000 Ang^3
#
#
#
# Elastic Constant Matrix: (Units=GPa)
#
#
# Indices 1 2 3 4 5 6 
#
# 1 68.4068 4.1953 4.1509 0.0000 0.9169 0.0000
# 2 4.1953 78.1201 21.2815 0.0000 -5.0451 0.0000
# 3 4.1509 21.2815 149.0737 0.0000 12.6843 0.0000
# 4 0.0000 0.0000 0.0000 34.6842 0.0000 -7.4622
# 5 0.9169 -5.0451 12.6843 0.0000 22.1485 0.0000
# 6 0.0000 0.0000 0.0000 -7.4622 0.0000 32.8971
#
#
#
# Elastic Compliance Matrix: (Units=1/GPa)
#
#
# Indices 1 2 3 4 5 6 
#
# 1 0.014689 -0.000763 -0.000245 0.000000 -0.000641 0.000000
# 2 -0.000763 0.013766 -0.002327 0.000000 0.004500 0.000000
# 3 -0.000245 -0.002327 0.007455 0.000000 -0.004789 0.000000
# 4 0.000000 0.000000 0.000000 0.030311 0.000000 0.006876
# 5 -0.000641 0.004500 -0.004789 0.000000 0.048944 0.000000
# 6 0.000000 0.000000 0.000000 0.006876 0.000000 0.031957
#
#
# Mechanical properties :
#
#
# Convention : Reuss Voigt Hill
#
# Bulk Modulus (GPa) = 34.20184 39.42845 36.81514
# Shear Modulus (GPa) = 30.57368 35.67749 33.12558
#
# Velocity S-wave (km/s) = 3.66225 3.95613 3.81202
# Velocity P-wave (km/s) = 5.73466 6.17774 5.96032
#
# Compressibility (1/GPa) = 0.02923819
#
# Stress axis : x y z
#
# Youngs Moduli (GPa) = 68.07942 72.64117 134.14540
#
# Poissons Ratio (x) = 0.05545 0.03293
# Poissons Ratio (y) = 0.05197 0.31214
# Poissons Ratio (z) = 0.01671 0.16903
#
# Static dielectric constant tensor:
#      x y z
#    x 1.863100 0.000000 0.006270 
#    y 0.000000 2.007070 0.000000 
#    z 0.006270 0.000000 1.845840 
# 
# From -- ./inp_files/28130.got.cif
#   From: 2010.05.17/outbox.cif.g08.bks.cpg/sg14_15_cif.got.tgz:28130.got - 2010.06.03 17:49:19.
