data_PCOD9245974
_publ_section_title
;
Structure prediction by ZEFSAII (Michael W. Deem and Ramdas Pophale) SiO2 
 PCOD9245974
Probable space group: P 21/C
;
_chemical_formula_sum "Si O2"
_cell_formula_units_Z 28
_cell_length_a 13.934530
_cell_length_b 16.350401
_cell_length_c 12.177702
_cell_angle_alpha 90.000000
_cell_angle_beta 151.014720
_cell_angle_gamma 90.000000
_cell_volume 1344.484983
_symmetry_space_group_name_H-M "P 21/C"
_symmetry_group_IT_number 14
_symmetry_cell_setting 'monoclinic'
loop_
_space_group_symop_operation_xyz
x,y,z
-x,1/2+y,1/2-z
-x,-y,-z
x,1/2-y,1/2+z
loop_
_atom_site_type_symbol
_atom_site_label
_atom_site_fract_x
_atom_site_fract_y
_atom_site_fract_z
Si Si1 0.375050 0.586919 0.094370
Si Si2 0.470254 0.099605 0.478157
Si Si3 0.103687 0.044647 0.206435
Si Si4 0.075292 0.818538 0.449221
Si Si5 0.221104 0.647695 0.527939
Si Si6 0.688648 0.926345 0.100378
Si Si7 0.669489 0.113540 0.105191
O O1 0.471861 0.629534 0.084822
O O2 0.252404 0.510102 0.926238
O O3 0.214257 0.638986 0.997700
O O4 0.546618 0.565091 0.351793
O O5 0.245502 0.111980 0.291527
O O6 0.615566 0.136236 0.714059
O O7 0.500000 0.000000 0.500000
O O8 0.929735 0.072826 0.111169
O O9 0.000000 0.000000 0.000000
O O10 0.085195 0.725200 0.421281
O O11 0.190884 0.831084 0.679394
O O12 0.867317 0.865190 0.252429
O O13 0.321012 0.645693 0.509194
O O14 0.748784 0.019389 0.189559
O O15 0.548094 0.892041 0.057431
#
# Coordination Sequence:
#
# PCOD9245974 Si02
#       7
#     4   4   4   4   4   4   4
#     4  10  22  40  69  95 131 172 222 278 336 401
#     4  10  21  39  66  98 130 169 217 277 332 398
#     4  11  22  38  68 103 127 174 224 276 334 404
#     4  11  26  42  65  98 137 181 218 282 348 409
#     4  12  25  41  67 101 141 173 223 283 353 410
#     4  10  22  45  72  97 127 185 232 281 336 410
#     4  10  23  43  69  96 132 177 237 280 332 420
#
# _framework density 20.825818000000002
#
# number of rings (size 3 to 8) (size 9 to 14) (size 15 to 20)
#    0.000    1.429    2.857    3.000    4.000    5.714 
#    0.000    0.000    0.000    0.000    0.000    0.000 
#    0.000    0.000    0.000    0.000    0.000    0.000 
#
# Total GULP energy -156336.501180 kJ/mol
# GULP energy per Si atom -5583.446471 kJ/mol
# Density = 2.077842 g / cm^3
# Si number density = 20.825818 Si / 1000 Ang^3
#
#
#
# Elastic Constant Matrix: (Units=GPa)
#
#
# Indices 1 2 3 4 5 6 
#
# 1 125.1270 -0.3839 42.5344 0.0000 -24.5965 0.0000
# 2 -0.3839 33.0884 8.6752 0.0000 -6.3722 0.0000
# 3 42.5344 8.6752 49.3171 0.0000 -1.9316 0.0000
# 4 0.0000 0.0000 0.0000 6.9288 0.0000 6.7785
# 5 -24.5965 -6.3722 -1.9316 0.0000 35.2695 0.0000
# 6 0.0000 0.0000 0.0000 6.7785 0.0000 17.8524
#
#
#
# Elastic Compliance Matrix: (Units=1/GPa)
#
#
# Indices 1 2 3 4 5 6 
#
# 1 0.014505 0.005605 -0.013088 0.000000 0.010411 0.000000
# 2 0.005605 0.034922 -0.010599 0.000000 0.009638 0.000000
# 3 -0.013088 -0.010599 0.033068 0.000000 -0.009231 0.000000
# 4 0.000000 0.000000 0.000000 0.229617 0.000000 -0.087185
# 5 0.010411 0.009638 -0.009231 0.000000 0.036849 0.000000
# 6 0.000000 0.000000 0.000000 -0.087185 0.000000 0.089118
#
#
# Mechanical properties :
#
#
# Convention : Reuss Voigt Hill
#
# Bulk Modulus (GPa) = 21.58462 34.35376 27.96919
# Shear Modulus (GPa) = 10.21059 22.45726 16.33393
#
# Velocity S-wave (km/s) = 2.21664 3.28737 2.80359
# Velocity P-wave (km/s) = 4.11560 5.56243 4.89279
#
# Compressibility (1/GPa) = 0.04632929
#
# Stress axis : x y z
#
# Youngs Moduli (GPa) = 68.94377 28.63514 30.24096
#
# Poissons Ratio (x) = -0.16049 0.39579
# Poissons Ratio (y) = -0.38641 0.32054
# Poissons Ratio (z) = 0.90233 0.30352
#
# Static dielectric constant tensor:
#      x y z
#    x 1.772670 0.000000 0.031330 
#    y 0.000000 1.779490 0.000000 
#    z 0.031330 0.000000 1.689920 
# 
# From -- ./inp_files/32933.got.cif
#   From: 2010.05.17/outbox.cif.g08.bks.cpg/sg14_17_cif.got.tgz:32933.got - 2010.06.03 17:49:19.
