data_PCOD9245254
_publ_section_title
;
Structure prediction by ZEFSAII (Michael W. Deem and Ramdas Pophale) SiO2 
 PCOD9245254
Probable space group: P 21/C
;
_chemical_formula_sum "Si O2"
_cell_formula_units_Z 20
_cell_length_a 19.409855
_cell_length_b 6.607525
_cell_length_c 17.614282
_cell_angle_alpha 90.000000
_cell_angle_beta 22.581818
_cell_angle_gamma 90.000000
_cell_volume 867.480891
_symmetry_space_group_name_H-M "P 21/C"
_symmetry_group_IT_number 14
_symmetry_cell_setting 'monoclinic'
loop_
_space_group_symop_operation_xyz
x,y,z
-x,1/2+y,1/2-z
-x,-y,-z
x,1/2-y,1/2+z
loop_
_atom_site_type_symbol
_atom_site_label
_atom_site_fract_x
_atom_site_fract_y
_atom_site_fract_z
Si Si1 0.676194 0.550704 0.740322
Si Si2 0.250602 0.444112 0.019342
Si Si3 0.153760 0.985585 0.086337
Si Si4 0.566503 0.098876 0.088913
Si Si5 0.661288 0.702548 0.909221
O O1 0.807618 0.464642 0.542136
O O2 0.544380 0.366605 0.894801
O O3 0.548020 0.728240 0.836272
O O4 0.760286 0.646368 0.730543
O O5 0.239523 0.200402 0.017848
O O6 0.056403 0.506027 0.185376
O O7 0.422161 0.502236 0.793869
O O8 0.271668 0.435686 0.088965
O O9 0.266056 0.834704 0.026861
O O10 0.648826 0.936094 0.946644
#
# Coordination Sequence:
#
# PCOD9245254 Si02
#       5
#     4   4   4   4   4
#     4  10  21  37  60  85 114 153 187 235 292 334
#     4  10  22  35  60  86 112 152 195 236 283 338
#     4  10  22  35  60  86 112 152 195 236 283 338
#     4  10  21  40  59  82 116 152 194 234 281 342
#     4  10  21  37  60  85 114 153 187 235 292 334
#
# _framework density 23.055264000000001
#
# number of rings (size 3 to 8) (size 9 to 14) (size 15 to 20)
#    0.000    2.000    2.000    0.600    5.600    0.800 
#    0.000    0.000    0.000    6.000    0.000    0.000 
#    0.000    0.000    0.000    0.000    0.000    0.000 
#
# Total GULP energy -111524.677338 kJ/mol
# GULP energy per Si atom -5576.233867 kJ/mol
# Density = 2.300279 g / cm^3
# Si number density = 23.055264 Si / 1000 Ang^3
#
#
#
# Elastic Constant Matrix: (Units=GPa)
#
#
# Indices 1 2 3 4 5 6 
#
# 1 125.3177 9.5849 25.0560 0.0000 11.6515 0.0000
# 2 9.5849 22.5649 -2.0400 0.0000 -1.5685 0.0000
# 3 25.0560 -2.0400 87.5430 0.0000 -11.9879 0.0000
# 4 0.0000 0.0000 0.0000 22.7966 0.0000 1.1946
# 5 11.6515 -1.5685 -11.9879 0.0000 20.9614 0.0000
# 6 0.0000 0.0000 0.0000 1.1946 0.0000 27.8841
#
#
#
# Elastic Compliance Matrix: (Units=1/GPa)
#
#
# Indices 1 2 3 4 5 6 
#
# 1 0.009966 -0.005180 -0.004107 0.000000 -0.008276 0.000000
# 2 -0.005180 0.047454 0.003764 0.000000 0.008583 0.000000
# 3 -0.004107 0.003764 0.014145 0.000000 0.010654 0.000000
# 4 0.000000 0.000000 0.000000 0.043965 0.000000 -0.001884
# 5 -0.008276 0.008583 0.010654 0.000000 0.059042 0.000000
# 6 0.000000 0.000000 0.000000 -0.001884 0.000000 0.035943
#
#
# Mechanical properties :
#
#
# Convention : Reuss Voigt Hill
#
# Bulk Modulus (GPa) = 16.52360 33.40306 24.96333
# Shear Modulus (GPa) = 20.68385 27.85006 24.26695
#
# Velocity S-wave (km/s) = 2.99848 3.47936 3.24783
# Velocity P-wave (km/s) = 4.37840 5.53723 4.99156
#
# Compressibility (1/GPa) = 0.06051951
#
# Stress axis : x y z
#
# Youngs Moduli (GPa) = 100.33680 21.07309 70.69688
#
# Poissons Ratio (x) = 0.10916 0.29032
# Poissons Ratio (y) = 0.51974 -0.26608
# Poissons Ratio (z) = 0.41204 -0.07931
#
# Static dielectric constant tensor:
#      x y z
#    x 1.975540 0.000000 0.001630 
#    y 0.000000 2.051560 0.000000 
#    z 0.001630 0.000000 1.818720 
# 
# From -- ./inp_files/48369.got.cif
#   From: 2010.05.17/outbox.cif.g08.bks.cpg/sg14_25_cif.got.tgz:48369.got - 2010.06.03 17:49:19.
