data_PCOD9245172
_publ_section_title
;
Structure prediction by ZEFSAII (Michael W. Deem and Ramdas Pophale) SiO2 
 PCOD9245172
Probable space group: P 21/C
;
_chemical_formula_sum "Si O2"
_cell_formula_units_Z 28
_cell_length_a 14.723569
_cell_length_b 18.802979
_cell_length_c 5.207168
_cell_angle_alpha 90.000000
_cell_angle_beta 57.462071
_cell_angle_gamma 90.000000
_cell_volume 1215.310497
_symmetry_space_group_name_H-M "P 21/C"
_symmetry_group_IT_number 14
_symmetry_cell_setting 'monoclinic'
loop_
_space_group_symop_operation_xyz
x,y,z
-x,1/2+y,1/2-z
-x,-y,-z
x,1/2-y,1/2+z
loop_
_atom_site_type_symbol
_atom_site_label
_atom_site_fract_x
_atom_site_fract_y
_atom_site_fract_z
Si Si1 0.342565 0.431746 0.205026
Si Si2 0.833564 0.074658 0.431632
Si Si3 0.691435 0.088209 0.148461
Si Si4 0.798378 0.575690 0.080851
Si Si5 0.186322 0.269778 0.045286
Si Si6 0.507452 0.300070 0.986073
Si Si7 0.950703 0.211536 0.396918
O O1 0.374444 0.513912 0.214333
O O2 0.247348 0.420379 0.561307
O O3 0.298754 0.430737 0.979245
O O4 0.424670 0.367011 0.115085
O O5 0.785400 0.083280 0.220448
O O6 0.921949 0.132744 0.360922
O O7 0.869201 0.993748 0.427150
O O8 0.739893 0.087231 0.787750
O O9 0.621519 0.157944 0.302925
O O10 0.850606 0.649846 0.925354
O O11 0.251048 0.254146 0.200574
O O12 0.079463 0.222024 0.209811
O O13 0.499159 0.249989 0.748167
O O14 0.908708 0.263742 0.236741
#
# Coordination Sequence:
#
# PCOD9245172 Si02
#       7
#     4   4   4   4   4   4   4
#     4  10  22  40  60  83 116 157 195 237 287 338
#     4  10  21  38  61  85 111 152 201 239 279 341
#     4  10  22  40  60  83 116 157 195 237 287 338
#     4  10  21  38  61  85 111 152 201 239 279 341
#     4  10  21  37  56  83 115 148 185 234 297 347
#     4  12  25  38  57  90 122 152 192 240 289 340
#     4  10  21  37  56  83 115 148 185 234 297 347
#
# _framework density 23.039380000000001
#
# number of rings (size 3 to 8) (size 9 to 14) (size 15 to 20)
#    0.000    1.714    0.000    3.857    0.000    6.857 
#    0.000   11.429    0.000    0.000    0.000    0.000 
#    0.000    0.000    0.000    0.000    0.000    0.000 
#
# Total GULP energy -156490.369387 kJ/mol
# GULP energy per Si atom -5588.941764 kJ/mol
# Density = 2.298694 g / cm^3
# Si number density = 23.039380 Si / 1000 Ang^3
#
#
#
# Elastic Constant Matrix: (Units=GPa)
#
#
# Indices 1 2 3 4 5 6 
#
# 1 25.7483 25.3002 22.5585 0.0000 10.0085 0.0000
# 2 25.3002 149.3453 28.0179 0.0000 -6.8608 0.0000
# 3 22.5585 28.0179 82.8653 0.0000 37.3403 0.0000
# 4 0.0000 0.0000 0.0000 35.3646 0.0000 -0.3476
# 5 10.0085 -6.8608 37.3403 0.0000 38.6750 0.0000
# 6 0.0000 0.0000 0.0000 -0.3476 0.0000 43.7407
#
#
#
# Elastic Compliance Matrix: (Units=1/GPa)
#
#
# Indices 1 2 3 4 5 6 
#
# 1 0.058492 -0.008372 -0.009917 0.000000 -0.007047 0.000000
# 2 -0.008372 0.009362 -0.004622 0.000000 0.008290 0.000000
# 3 -0.009917 -0.004622 0.027513 0.000000 -0.024817 0.000000
# 4 0.000000 0.000000 0.000000 0.028279 0.000000 0.000225
# 5 -0.007047 0.008290 -0.024817 0.000000 0.053111 0.000000
# 6 0.000000 0.000000 0.000000 0.000225 0.000000 0.022864
#
#
# Mechanical properties :
#
#
# Convention : Reuss Voigt Hill
#
# Bulk Modulus (GPa) = 20.18351 45.52357 32.85354
# Shear Modulus (GPa) = 19.08707 35.69489 27.39098
#
# Velocity S-wave (km/s) = 2.88141 3.94038 3.45175
# Velocity P-wave (km/s) = 4.45528 6.36428 5.49334
#
# Compressibility (1/GPa) = 0.04954539
#
# Stress axis : x y z
#
# Youngs Moduli (GPa) = 17.09645 106.81393 36.34649
#
# Poissons Ratio (x) = 0.89427 0.36044
# Poissons Ratio (y) = 0.14314 0.16798
# Poissons Ratio (z) = 0.16954 0.49366
#
# Static dielectric constant tensor:
#      x y z
#    x 1.866380 0.000000 0.044770 
#    y 0.000000 1.875530 0.000000 
#    z 0.044770 0.000000 1.971000 
# 
# From -- ./inp_files/4172.got.cif
#   From: 2010.05.17/outbox.cif.g08.bks.cpg/sg14_3_cif.got.tgz:4172.got - 2010.06.03 17:49:19.
