data_PCOD9245086
_publ_section_title
;
Structure prediction by ZEFSAII (Michael W. Deem and Ramdas Pophale) SiO2 
 PCOD9245086
Probable space group: P 21/C
;
_chemical_formula_sum "Si O2"
_cell_formula_units_Z 32
_cell_length_a 12.864721
_cell_length_b 15.766589
_cell_length_c 11.896155
_cell_angle_alpha 90.000000
_cell_angle_beta 144.301458
_cell_angle_gamma 90.000000
_cell_volume 1407.994263
_symmetry_space_group_name_H-M "P 21/C"
_symmetry_group_IT_number 14
_symmetry_cell_setting 'monoclinic'
loop_
_space_group_symop_operation_xyz
x,y,z
-x,1/2+y,1/2-z
-x,-y,-z
x,1/2-y,1/2+z
loop_
_atom_site_type_symbol
_atom_site_label
_atom_site_fract_x
_atom_site_fract_y
_atom_site_fract_z
Si Si1 0.697479 0.499999 0.528696
Si Si2 0.735961 0.500000 0.820796
Si Si3 0.168965 0.404182 0.730706
Si Si4 0.749331 0.333744 0.969024
Si Si5 0.250664 0.166257 0.530970
Si Si6 0.331047 0.849800 0.158035
Si Si7 0.831031 0.404182 0.269290
Si Si8 0.668958 0.650199 0.341970
O O1 0.773290 0.500000 0.720670
O O2 0.481080 0.499999 0.353634
O O3 0.747658 0.418209 0.498566
O O4 0.747661 0.581789 0.498568
O O5 0.801198 0.413175 0.936387
O O6 0.801199 0.586826 0.936388
O O7 0.164151 0.343376 0.832701
O O8 0.188353 0.500000 0.791615
O O9 0.323010 0.383809 0.777243
O O10 0.999998 0.399906 0.499998
O O11 0.767567 0.240437 0.934032
O O12 0.536739 0.341152 0.804351
O O13 0.835843 0.343377 0.167293
O O14 0.463256 0.158849 0.695643
O O15 0.232428 0.259564 0.565962
O O16 0.323014 0.883810 0.277246
#
# Coordination Sequence:
#
# PCOD9245086 Si02
#       8
#     4   4   4   4   4   4   4   4
#     4   9  18  33  53  82 116 143 176 233 290 335
#     4   9  18  33  53  82 116 143 176 233 290 335
#     4  11  23  39  59  82 117 158 196 236 282 342
#     4  10  21  36  60  88 113 146 191 240 289 341
#     4  10  21  36  60  88 113 146 191 240 289 341
#     4  10  21  36  60  88 113 146 191 240 289 341
#     4  11  23  39  59  82 117 158 196 236 282 342
#     4  10  21  36  60  88 113 146 191 240 289 341
#
# _framework density 22.727366
#
# number of rings (size 3 to 8) (size 9 to 14) (size 15 to 20)
#    0.000    2.000    2.500    0.750    3.500    2.000 
#    0.000    0.000    0.000    1.500    0.000    0.000 
#    0.000    0.000    0.000    0.000    0.000    0.000 
#
# Total GULP energy -178907.058792 kJ/mol
# GULP energy per Si atom -5590.845587 kJ/mol
# Density = 2.267564 g / cm^3
# Si number density = 22.727366 Si / 1000 Ang^3
#
#
#
# Elastic Constant Matrix: (Units=GPa)
#
#
# Indices 1 2 3 4 5 6 
#
# 1 35.8118 -1.2694 39.7324 0.0000 2.9115 0.0000
# 2 -1.2694 86.7397 66.3916 0.0000 28.1086 0.0000
# 3 39.7324 66.3916 76.1788 0.0000 -48.3232 0.0000
# 4 0.0000 0.0000 0.0000 -21.9045 0.0000 10.1298
# 5 2.9115 28.1086 -48.3232 0.0000 5.0340 0.0000
# 6 0.0000 0.0000 0.0000 10.1298 0.0000 13.1289
#
#
#
# Elastic Compliance Matrix: (Units=1/GPa)
#
#
# Indices 1 2 3 4 5 6 
#
# 1 0.026119 -0.004857 0.000347 0.000000 0.015349 0.000000
# 2 -0.004857 0.005421 0.003853 0.000000 0.009528 0.000000
# 3 0.000347 0.003853 0.000823 0.000000 -0.013818 0.000000
# 4 0.000000 0.000000 0.000000 -0.033647 0.000000 0.025961
# 5 0.015349 0.009528 -0.013818 0.000000 0.003928 0.000000
# 6 0.000000 0.000000 0.000000 0.025961 0.000000 0.056137
#
#
# Mechanical properties :
#
#
# Convention : Reuss Voigt Hill
#
# Bulk Modulus (GPa) = 32.20839 45.38217 38.79528
# Shear Modulus (GPa) = 70.97846 5.51008 38.24427
#
# Velocity S-wave (km/s) = 5.59448 1.55875 4.10657
# Velocity P-wave (km/s) = 7.47886 4.82193 6.29223
#
# Compressibility (1/GPa) = 0.03104781
#
# Stress axis : x y z
#
# Youngs Moduli (GPa) = 38.28696 184.47395 1215.47314
#
# Poissons Ratio (x) = 0.89606 -0.42195
# Poissons Ratio (y) = 0.18598 -4.68334
# Poissons Ratio (z) = -0.01329 -0.71080
#
# Static dielectric constant tensor:
#      x y z
#    x 1.872350 0.000000 0.086270 
#    y 0.000000 1.808200 0.000000 
#    z 0.086270 0.000000 1.834050 
# 
# From -- ./inp_files/25266.got.cif
#   From: 2010.05.17/outbox.cif.g08.bks.cpg/sg14_13_cif.got.tgz:25266.got - 2010.06.03 17:49:19.
