data_PCOD9245250
_publ_section_title
;
Structure prediction by ZEFSAII (Michael W. Deem and Ramdas Pophale) SiO2 
 PCOD9245250
Probable space group: P 21/C
;
_chemical_formula_sum "Si O2"
_cell_formula_units_Z 28
_cell_length_a 23.836799
_cell_length_b 11.827453
_cell_length_c 19.261601
_cell_angle_alpha 90.000000
_cell_angle_beta 166.586504
_cell_angle_gamma 90.000000
_cell_volume 1259.727294
_symmetry_space_group_name_H-M "P 21/C"
_symmetry_group_IT_number 14
_symmetry_cell_setting 'monoclinic'
loop_
_space_group_symop_operation_xyz
x,y,z
-x,1/2+y,1/2-z
-x,-y,-z
x,1/2-y,1/2+z
loop_
_atom_site_type_symbol
_atom_site_label
_atom_site_fract_x
_atom_site_fract_y
_atom_site_fract_z
Si Si1 0.628885 0.199894 0.775388
Si Si2 0.141164 0.400235 0.707277
Si Si3 0.497923 0.827655 0.734078
Si Si4 0.941315 0.232045 0.364013
Si Si5 0.840695 0.866667 0.606892
Si Si6 0.407226 0.383626 0.422509
Si Si7 0.615793 0.010551 0.971140
O O1 0.418218 0.107187 0.514228
O O2 0.557446 0.264686 0.759808
O O3 0.607713 0.291691 0.687350
O O4 0.892611 0.149208 0.099997
O O5 0.135520 0.401814 0.783461
O O6 0.000000 0.500000 0.500000
O O7 0.021474 0.284831 0.533682
O O8 0.235662 0.826081 0.382640
O O9 0.613923 0.946280 0.895537
O O10 0.691585 0.751158 0.927064
O O11 0.189324 0.188677 0.625918
O O12 0.772300 0.122560 0.161529
O O13 0.665861 0.955161 0.358130
O O14 0.500000 0.500000 0.500000
O O15 0.299079 0.430313 0.364916
#
# Coordination Sequence:
#
# PCOD9245250 Si02
#       7
#     4   4   4   4   4   4   4
#     4   9  21  38  55  84 114 153 196 240 292 367
#     4  10  21  39  58  83 117 155 197 244 300 348
#     4   9  20  39  56  80 118 151 187 243 296 350
#     4  10  21  37  61  85 117 155 200 251 293 366
#     4  10  21  37  60  80 115 153 195 237 296 364
#     4  10  22  34  57  89 116 149 192 254 303 341
#     4  10  21  38  58  86 114 155 199 242 301 356
#
# _framework density 22.227032999999999
#
# number of rings (size 3 to 8) (size 9 to 14) (size 15 to 20)
#    0.000    2.286    0.000    2.143    6.000    0.571 
#    0.000    5.714    0.000    0.000    0.000    0.000 
#    0.000    0.000    0.000    0.000    0.000    0.000 
#
# Total GULP energy -156215.714524 kJ/mol
# GULP energy per Si atom -5579.132662 kJ/mol
# Density = 2.217644 g / cm^3
# Si number density = 22.227033 Si / 1000 Ang^3
#
#
#
# Elastic Constant Matrix: (Units=GPa)
#
#
# Indices 1 2 3 4 5 6 
#
# 1 28.5355 5.6700 14.0779 0.0000 -5.5574 0.0000
# 2 5.6700 71.9341 27.6420 0.0000 -1.4784 0.0000
# 3 14.0779 27.6420 132.2853 0.0000 -3.0012 0.0000
# 4 0.0000 0.0000 0.0000 41.7719 0.0000 -6.4956
# 5 -5.5574 -1.4784 -3.0012 0.0000 25.4477 0.0000
# 6 0.0000 0.0000 0.0000 -6.4956 0.0000 23.0426
#
#
#
# Elastic Compliance Matrix: (Units=1/GPa)
#
#
# Indices 1 2 3 4 5 6 
#
# 1 0.038673 -0.001493 -0.003624 0.000000 0.007931 0.000000
# 2 -0.001493 0.015179 -0.003008 0.000000 0.000201 0.000000
# 3 -0.003624 -0.003008 0.008575 0.000000 0.000045 0.000000
# 4 0.000000 0.000000 0.000000 0.025037 0.000000 0.007058
# 5 0.007931 0.000201 0.000045 0.000000 0.041045 0.000000
# 6 0.000000 0.000000 0.000000 0.007058 0.000000 0.045387
#
#
# Mechanical properties :
#
#
# Convention : Reuss Voigt Hill
#
# Bulk Modulus (GPa) = 21.65560 36.39273 29.02416
# Shear Modulus (GPa) = 24.32622 30.41012 27.36817
#
# Velocity S-wave (km/s) = 3.31183 3.70288 3.51280
# Velocity P-wave (km/s) = 4.93845 5.88986 5.43501
#
# Compressibility (1/GPa) = 0.04617743
#
# Stress axis : x y z
#
# Youngs Moduli (GPa) = 25.85770 65.87857 116.62190
#
# Poissons Ratio (x) = 0.09834 0.42261
# Poissons Ratio (y) = 0.03860 0.35085
# Poissons Ratio (z) = 0.09370 0.19819
#
# Static dielectric constant tensor:
#      x y z
#    x 1.837070 0.000000 -0.030510 
#    y 0.000000 1.876520 0.000000 
#    z -0.030510 0.000000 1.836480 
# 
# From -- ./inp_files/61265.got.cif
#   From: 2010.05.17/outbox.cif.g08.bks.cpg/sg14_31_cif.got.tgz:61265.got - 2010.06.03 17:49:19.
