data_PCOD9245122
_publ_section_title
;
Structure prediction by ZEFSAII (Michael W. Deem and Ramdas Pophale) SiO2 
 PCOD9245122
Probable space group: P 21/C
;
_chemical_formula_sum "Si O2"
_cell_formula_units_Z 32
_cell_length_a 6.741863
_cell_length_b 18.919588
_cell_length_c 14.787093
_cell_angle_alpha 90.000000
_cell_angle_beta 117.125691
_cell_angle_gamma 90.000000
_cell_volume 1678.682385
_symmetry_space_group_name_H-M "P 21/C"
_symmetry_group_IT_number 14
_symmetry_cell_setting 'monoclinic'
loop_
_space_group_symop_operation_xyz
x,y,z
-x,1/2+y,1/2-z
-x,-y,-z
x,1/2-y,1/2+z
loop_
_atom_site_type_symbol
_atom_site_label
_atom_site_fract_x
_atom_site_fract_y
_atom_site_fract_z
Si Si1 0.063406 0.304499 0.382652
Si Si2 0.658013 0.422257 0.710354
Si Si3 0.762687 0.577750 0.710358
Si Si4 0.908749 0.829375 0.741585
Si Si5 0.257905 0.572468 0.882738
Si Si6 0.425573 0.670631 0.758420
Si Si7 0.492428 0.572461 0.117266
Si Si8 0.298091 0.304504 0.617349
O O1 0.801434 0.317320 0.344309
O O2 0.173129 0.374675 0.362537
O O3 0.074361 0.243484 0.309338
O O4 0.189332 0.283804 0.500002
O O5 0.669985 0.500004 0.669994
O O6 0.631575 0.432591 0.812929
O O7 0.448021 0.374685 0.637460
O O8 0.881760 0.378796 0.736550
O O9 0.591343 0.621210 0.736563
O O10 0.994290 0.567414 0.812929
O O11 0.680200 0.867536 0.664601
O O12 0.887201 0.817318 0.844312
O O13 0.351004 0.632476 0.835410
O O14 0.376535 0.500005 0.876525
O O15 0.326573 0.586410 0.000002
O O16 0.544302 0.743494 0.809331
#
# Coordination Sequence:
#
# PCOD9245122 Si02
#       8
#     4   4   4   4   4   4   4   4
#     4  11  25  43  67  95 125 169 218 264 320 379
#     4  11  23  42  64  92 134 170 209 264 320 379
#     4  11  23  42  64  92 134 170 209 264 320 379
#     4  11  22  44  62  93 130 165 211 271 319 379
#     4  10  21  36  62  96 127 165 210 260 323 385
#     4  11  22  44  62  93 130 165 211 271 319 379
#     4  10  21  36  62  96 127 165 210 260 323 385
#     4  11  25  43  67  95 125 169 218 264 320 379
#
# _framework density 19.062570000000001
#
# number of rings (size 3 to 8) (size 9 to 14) (size 15 to 20)
#    0.000    1.250    5.000    0.750    0.000    4.000 
#    0.000    1.250    0.000    0.000    0.000    0.000 
#    0.000    0.000    0.000    0.000    0.000    0.000 
#
# Total GULP energy -178838.352855 kJ/mol
# GULP energy per Si atom -5588.698527 kJ/mol
# Density = 1.901918 g / cm^3
# Si number density = 19.062570 Si / 1000 Ang^3
#
#
#
# Elastic Constant Matrix: (Units=GPa)
#
#
# Indices 1 2 3 4 5 6 
#
# 1 109.2417 42.7996 21.4342 0.0000 -2.5439 0.0000
# 2 42.7996 100.3284 11.2173 0.0000 -1.0785 0.0000
# 3 21.4342 11.2173 53.6277 0.0000 0.6473 0.0000
# 4 0.0000 0.0000 0.0000 13.6801 0.0000 -0.9972
# 5 -2.5439 -1.0785 0.6473 0.0000 6.4696 0.0000
# 6 0.0000 0.0000 0.0000 -0.9972 0.0000 43.2476
#
#
#
# Elastic Compliance Matrix: (Units=1/GPa)
#
#
# Indices 1 2 3 4 5 6 
#
# 1 0.011785 -0.004556 -0.003809 0.000000 0.004256 0.000000
# 2 -0.004556 0.011991 -0.000691 0.000000 0.000277 0.000000
# 3 -0.003809 -0.000691 0.020358 0.000000 -0.003650 0.000000
# 4 0.000000 0.000000 0.000000 0.073222 0.000000 0.001688
# 5 0.004256 0.000277 -0.003650 0.000000 0.156655 0.000000
# 6 0.000000 0.000000 0.000000 0.001688 0.000000 0.023162
#
#
# Mechanical properties :
#
#
# Convention : Reuss Voigt Hill
#
# Bulk Modulus (GPa) = 38.42667 46.01109 42.21888
# Shear Modulus (GPa) = 15.43411 25.19590 20.31501
#
# Velocity S-wave (km/s) = 2.84853 3.63953 3.26805
# Velocity P-wave (km/s) = 5.56963 6.46922 6.03621
#
# Compressibility (1/GPa) = 0.02602359
#
# Stress axis : x y z
#
# Youngs Moduli (GPa) = 84.85054 83.39584 49.12102
#
# Poissons Ratio (x) = 0.37995 0.18709
# Poissons Ratio (y) = 0.38658 0.03392
# Poissons Ratio (z) = 0.32318 0.05759
#
# Static dielectric constant tensor:
#      x y z
#    x 1.650740 0.000000 -0.000940 
#    y 0.000000 1.666550 0.000000 
#    z -0.000940 0.000000 1.622910 
# 
# From -- ./inp_files/37876.got.cif
#   From: 2010.05.17/outbox.cif.g08.bks.cpg/sg14_19_cif.got.tgz:37876.got - 2010.06.03 17:49:19.
