data_PCOD9245437
_publ_section_title
;
Structure prediction by ZEFSAII (Michael W. Deem and Ramdas Pophale) SiO2 
 PCOD9245437
Probable space group: P 21/C
;
_chemical_formula_sum "Si O2"
_cell_formula_units_Z 28
_cell_length_a 9.237575
_cell_length_b 13.553068
_cell_length_c 19.616853
_cell_angle_alpha 90.000000
_cell_angle_beta 39.129997
_cell_angle_gamma 90.000000
_cell_volume 1549.925193
_symmetry_space_group_name_H-M "P 21/C"
_symmetry_group_IT_number 14
_symmetry_cell_setting 'monoclinic'
loop_
_space_group_symop_operation_xyz
x,y,z
-x,1/2+y,1/2-z
-x,-y,-z
x,1/2-y,1/2+z
loop_
_atom_site_type_symbol
_atom_site_label
_atom_site_fract_x
_atom_site_fract_y
_atom_site_fract_z
Si Si1 0.251592 0.999307 0.127949
Si Si2 0.946427 0.612965 0.031727
Si Si3 0.888552 0.222420 0.783978
Si Si4 0.962400 0.851674 0.892047
Si Si5 0.774489 0.840452 0.744893
Si Si6 0.338187 0.743022 0.334449
Si Si7 0.427780 0.248498 0.391102
O O1 0.165397 0.891827 0.182468
O O2 0.261451 0.069410 0.190301
O O3 0.074451 0.052416 0.140443
O O4 0.500000 0.000000 0.000000
O O5 0.880563 0.627654 0.134324
O O6 0.730495 0.654592 0.067515
O O7 0.000000 0.500000 0.000000
O O8 0.162070 0.679849 0.930947
O O9 0.011894 0.257362 0.668727
O O10 0.636943 0.271274 0.865995
O O11 0.047064 0.266058 0.784897
O O12 0.182156 0.846256 0.860963
O O13 0.736356 0.831662 0.018441
O O14 0.530292 0.791203 0.816936
O O15 0.465693 0.782589 0.220012
#
# Coordination Sequence:
#
# PCOD9245437 Si02
#       7
#     4   4   4   4   4   4   4
#     4  11  22  37  63  87 115 156 201 237 291 357
#     4  10  22  38  62  87 116 157 199 239 296 349
#     4  10  21  38  60  84 121 151 195 244 294 345
#     4   9  19  37  60  85 116 154 193 239 297 343
#     4  10  24  40  58  89 120 151 196 248 290 345
#     4   9  20  40  59  81 123 150 191 243 293 343
#     4   9  18  37  61  82 115 157 185 242 293 343
#
# _framework density 18.065387000000001
#
# number of rings (size 3 to 8) (size 9 to 14) (size 15 to 20)
#    0.000    2.286    1.429    0.000    8.000    0.000 
#   10.286    1.429    0.000    0.000    0.000    0.000 
#    0.000    0.000    0.000    0.000    0.000    0.000 
#
# Total GULP energy -156074.610685 kJ/mol
# GULP energy per Si atom -5574.093239 kJ/mol
# Density = 1.802427 g / cm^3
# Si number density = 18.065387 Si / 1000 Ang^3
#
#
#
# Elastic Constant Matrix: (Units=GPa)
#
#
# Indices 1 2 3 4 5 6 
#
# 1 159.7851 71.3797 44.1539 0.0000 -29.1033 0.0000
# 2 71.3797 125.8336 54.8565 0.0000 -9.2934 0.0000
# 3 44.1539 54.8565 107.0867 0.0000 -16.7876 0.0000
# 4 0.0000 0.0000 0.0000 18.3910 0.0000 1.3208
# 5 -29.1033 -9.2934 -16.7876 0.0000 17.7090 0.0000
# 6 0.0000 0.0000 0.0000 1.3208 0.0000 12.5948
#
#
#
# Elastic Compliance Matrix: (Units=1/GPa)
#
#
# Indices 1 2 3 4 5 6 
#
# 1 0.011680 -0.005707 0.000760 0.000000 0.016920 0.000000
# 2 -0.005707 0.013024 -0.005541 0.000000 -0.007797 0.000000
# 3 0.000760 -0.005541 0.013628 0.000000 0.011261 0.000000
# 4 0.000000 0.000000 0.000000 0.054787 0.000000 -0.005745
# 5 0.016920 -0.007797 0.011261 0.000000 0.090860 0.000000
# 6 0.000000 0.000000 0.000000 -0.005745 0.000000 0.080000
#
#
# Mechanical properties :
#
#
# Convention : Reuss Voigt Hill
#
# Bulk Modulus (GPa) = 57.61403 81.49843 69.55623
# Shear Modulus (GPa) = 17.19747 24.55998 20.87872
#
# Velocity S-wave (km/s) = 3.08873 3.69115 3.40329
# Velocity P-wave (km/s) = 6.68442 7.96097 7.35046
#
# Compressibility (1/GPa) = 0.01735688
#
# Stress axis : x y z
#
# Youngs Moduli (GPa) = 85.61842 76.78065 73.37565
#
# Poissons Ratio (x) = 0.43820 -0.05579
# Poissons Ratio (y) = 0.48864 0.40657
# Poissons Ratio (z) = -0.06510 0.42543
#
# Static dielectric constant tensor:
#      x y z
#    x 1.636800 0.000000 -0.001760 
#    y 0.000000 1.590130 0.000000 
#    z -0.001760 0.000000 1.642990 
# 
# From -- ./inp_files/65541.got.cif
#   From: 2010.05.17/outbox.cif.g08.bks.cpg/sg14_33_cif.got.tgz:65541.got - 2010.06.03 17:49:19.
