data_PCOD9245173
_publ_section_title
;
Structure prediction by ZEFSAII (Michael W. Deem and Ramdas Pophale) SiO2 
 PCOD9245173
Probable space group: P 21/C
;
_chemical_formula_sum "Si O2"
_cell_formula_units_Z 28
_cell_length_a 22.249452
_cell_length_b 4.883773
_cell_length_c 13.606167
_cell_angle_alpha 90.000000
_cell_angle_beta 122.788284
_cell_angle_gamma 90.000000
_cell_volume 1242.910724
_symmetry_space_group_name_H-M "P 21/C"
_symmetry_group_IT_number 14
_symmetry_cell_setting 'monoclinic'
loop_
_space_group_symop_operation_xyz
x,y,z
-x,1/2+y,1/2-z
-x,-y,-z
x,1/2-y,1/2+z
loop_
_atom_site_type_symbol
_atom_site_label
_atom_site_fract_x
_atom_site_fract_y
_atom_site_fract_z
Si Si1 0.047021 0.476814 0.408140
Si Si2 0.163224 0.797935 0.155045
Si Si3 0.255013 0.183205 0.768940
Si Si4 0.459088 0.039048 0.250208
Si Si5 0.400971 0.398082 0.903164
Si Si6 0.365953 0.572276 0.496393
Si Si7 0.955020 0.979838 0.327108
O O1 0.115552 0.583907 0.525213
O O2 0.057192 0.496080 0.300378
O O3 0.024155 0.168169 0.411504
O O4 0.978948 0.671970 0.372992
O O5 0.221194 0.566773 0.178830
O O6 0.111153 0.621281 0.178918
O O7 0.201708 0.062746 0.236522
O O8 0.326799 0.304352 0.784420
O O9 0.288029 0.046238 0.897716
O O10 0.478983 0.347662 0.239234
O O11 0.452610 0.017806 0.361547
O O12 0.388506 0.945368 0.128766
O O13 0.378423 0.635165 0.958351
O O14 0.418990 0.131813 0.983235
#
# Coordination Sequence:
#
# PCOD9245173 Si02
#       7
#     4   4   4   4   4   4   4
#     4  10  21  37  56  83 117 150 192 256 310 344
#     4  12  20  37  60  87 110 156 212 238 290 380
#     4  10  22  41  58  85 122 162 200 240 306 364
#     4  12  26  40  70 102 118 162 218 242 308 384
#     4  10  22  45  62  88 132 165 191 262 309 354
#     4  10  22  45  62  88 132 165 191 262 309 354
#     4  10  21  37  56  83 117 150 192 256 310 344
#
# _framework density 22.527766
#
# number of rings (size 3 to 8) (size 9 to 14) (size 15 to 20)
#    0.857    0.571    1.429    4.286    0.000    3.429 
#    5.143    0.000    0.000    0.000    0.000    0.000 
#    0.000    0.000    0.000    0.000    0.000    0.000 
#
# Total GULP energy -156375.312270 kJ/mol
# GULP energy per Si atom -5584.832581 kJ/mol
# Density = 2.247649 g / cm^3
# Si number density = 22.527766 Si / 1000 Ang^3
#
#
#
# Elastic Constant Matrix: (Units=GPa)
#
#
# Indices 1 2 3 4 5 6 
#
# 1 10.9549 -3.5963 6.3486 0.0000 1.5805 0.0000
# 2 -3.5963 115.9359 0.7344 0.0000 8.6651 0.0000
# 3 6.3486 0.7344 64.0793 0.0000 3.3826 0.0000
# 4 0.0000 0.0000 0.0000 26.7867 0.0000 7.2058
# 5 1.5805 8.6651 3.3826 0.0000 36.1056 0.0000
# 6 0.0000 0.0000 0.0000 7.2058 0.0000 25.3530
#
#
#
# Elastic Compliance Matrix: (Units=1/GPa)
#
#
# Indices 1 2 3 4 5 6 
#
# 1 0.098576 0.003436 -0.009582 0.000000 -0.004242 0.000000
# 2 0.003436 0.008903 -0.000323 0.000000 -0.002257 0.000000
# 3 -0.009582 -0.000323 0.016615 0.000000 -0.001060 0.000000
# 4 0.000000 0.000000 0.000000 0.040423 0.000000 -0.011489
# 5 -0.004242 -0.002257 -0.001060 0.000000 0.028523 0.000000
# 6 0.000000 0.000000 0.000000 -0.011489 0.000000 0.042709
#
#
# Mechanical properties :
#
#
# Convention : Reuss Voigt Hill
#
# Bulk Modulus (GPa) = 8.99652 21.99371 15.49511
# Shear Modulus (GPa) = 17.49859 30.14795 23.82327
#
# Velocity S-wave (km/s) = 2.79006 3.66219 3.25546
# Velocity P-wave (km/s) = 3.79229 5.25988 4.58518
#
# Compressibility (1/GPa) = 0.11115412
#
# Stress axis : x y z
#
# Youngs Moduli (GPa) = 10.14450 112.32499 60.18810
#
# Poissons Ratio (x) = -0.38590 0.57670
# Poissons Ratio (y) = -0.03485 0.01946
# Poissons Ratio (z) = 0.09720 0.03631
#
# Static dielectric constant tensor:
#      x y z
#    x 1.861150 0.000000 0.050500 
#    y 0.000000 1.807850 0.000000 
#    z 0.050500 0.000000 1.873340 
# 
# From -- ./inp_files/50905.got.cif
#   From: 2010.05.17/outbox.cif.g08.bks.cpg/sg14_26_cif.got.tgz:50905.got - 2010.06.03 17:49:19.
