data_PCOD9245290
_publ_section_title
;
Structure prediction by ZEFSAII (Michael W. Deem and Ramdas Pophale) SiO2 
 PCOD9245290
Probable space group: P 21/C
;
_chemical_formula_sum "Si O2"
_cell_formula_units_Z 24
_cell_length_a 22.496661
_cell_length_b 5.347298
_cell_length_c 9.172873
_cell_angle_alpha 90.000000
_cell_angle_beta 126.874587
_cell_angle_gamma 90.000000
_cell_volume 882.716325
_symmetry_space_group_name_H-M "P 21/C"
_symmetry_group_IT_number 14
_symmetry_cell_setting 'monoclinic'
loop_
_space_group_symop_operation_xyz
x,y,z
-x,1/2+y,1/2-z
-x,-y,-z
x,1/2-y,1/2+z
loop_
_atom_site_type_symbol
_atom_site_label
_atom_site_fract_x
_atom_site_fract_y
_atom_site_fract_z
Si Si1 0.307568 0.254511 0.270171
Si Si2 0.657565 0.264016 0.232103
Si Si3 0.975533 0.429791 0.629122
Si Si4 0.799797 0.739760 0.642543
Si Si5 0.166485 0.753613 0.442198
Si Si6 0.524376 0.058592 0.703567
O O1 0.359488 0.493291 0.354446
O O2 0.228733 0.256799 0.235905
O O3 0.347662 0.003962 0.378446
O O4 0.279091 0.234224 0.061417
O O5 0.746739 0.242767 0.386185
O O6 0.607919 0.336823 0.295586
O O7 0.891389 0.323041 0.519257
O O8 0.983323 0.690751 0.732571
O O9 0.000000 0.500000 0.500000
O O10 0.839964 0.479846 0.676245
O O11 0.843776 0.978997 0.649184
O O12 0.485573 0.294343 0.727434
O O13 0.500000 0.000000 0.500000
#
# Coordination Sequence:
#
# PCOD9245290 Si02
#       6
#     4   4   4   4   4   4
#     4  10  21  37  61  97 132 169 224 293 356 414
#     4  10  23  43  71 102 139 188 244 303 363 441
#     4  12  28  50  76 109 154 202 249 311 387 458
#     4  10  21  37  61  97 133 169 223 294 354 414
#     4  10  23  43  70 102 137 185 244 300 361 441
#     4  12  28  50  75 109 155 205 254 315 389 458
#
# _framework density 27.188804000000001
#
# number of rings (size 3 to 8) (size 9 to 14) (size 15 to 20)
#    0.000    1.333    0.000    4.000    0.000   16.000 
#    0.000    0.000    0.000    0.000    0.000    0.000 
#    0.000    0.000    0.000    0.000    0.000    0.000 
#
# Total GULP energy -134186.957558 kJ/mol
# GULP energy per Si atom -5591.123232 kJ/mol
# Density = 2.712692 g / cm^3
# Si number density = 27.188804 Si / 1000 Ang^3
#
#
#
# Elastic Constant Matrix: (Units=GPa)
#
#
# Indices 1 2 3 4 5 6 
#
# 1 178.7331 70.7627 56.8517 0.0000 -14.0452 0.0000
# 2 70.7627 311.3213 67.9662 0.0000 -29.8509 0.0000
# 3 56.8517 67.9662 115.2653 0.0000 -14.9688 0.0000
# 4 0.0000 0.0000 0.0000 42.6325 0.0000 -10.1125
# 5 -14.0452 -29.8509 -14.9688 0.0000 33.0818 0.0000
# 6 0.0000 0.0000 0.0000 -10.1125 0.0000 62.8615
#
#
#
# Elastic Compliance Matrix: (Units=1/GPa)
#
#
# Indices 1 2 3 4 5 6 
#
# 1 0.006892 -0.000878 -0.002767 0.000000 0.000882 0.000000
# 2 -0.000878 0.004002 -0.001600 0.000000 0.002514 0.000000
# 3 -0.002767 -0.001600 0.011308 0.000000 0.002498 0.000000
# 4 0.000000 0.000000 0.000000 0.024387 0.000000 0.003923
# 5 0.000882 0.002514 0.002498 0.000000 0.034002 0.000000
# 6 0.000000 0.000000 0.000000 0.003923 0.000000 0.016539
#
#
# Mechanical properties :
#
#
# Convention : Reuss Voigt Hill
#
# Bulk Modulus (GPa) = 85.38314 110.72008 98.05161
# Shear Modulus (GPa) = 44.83309 55.03112 49.93211
#
# Velocity S-wave (km/s) = 4.06514 4.50381 4.29008
# Velocity P-wave (km/s) = 7.31476 8.23752 7.78982
#
# Compressibility (1/GPa) = 0.01171191
#
# Stress axis : x y z
#
# Youngs Moduli (GPa) = 145.09652 249.86728 88.42916
#
# Poissons Ratio (x) = 0.21935 0.24470
# Poissons Ratio (y) = 0.12738 0.14152
# Poissons Ratio (z) = 0.40150 0.39987
#
# Static dielectric constant tensor:
#      x y z
#    x 2.201810 0.000000 0.142460 
#    y 0.000000 2.214500 0.000000 
#    z 0.142460 0.000000 2.161820 
# 
# From -- ./inp_files/18387.got.cif
#   From: 2010.05.17/outbox.cif.g08.bks.cpg/sg14_10_cif.got.tgz:18387.got - 2010.06.03 17:49:19.
