data_PCOD9245064
_publ_section_title
;
Structure prediction by ZEFSAII (Michael W. Deem and Ramdas Pophale) SiO2 
 PCOD9245064
Probable space group: P 21/C
;
_chemical_formula_sum "Si O2"
_cell_formula_units_Z 28
_cell_length_a 11.429512
_cell_length_b 12.406416
_cell_length_c 13.670317
_cell_angle_alpha 90.000000
_cell_angle_beta 132.401728
_cell_angle_gamma 90.000000
_cell_volume 1431.412772
_symmetry_space_group_name_H-M "P 21/C"
_symmetry_group_IT_number 14
_symmetry_cell_setting 'monoclinic'
loop_
_space_group_symop_operation_xyz
x,y,z
-x,1/2+y,1/2-z
-x,-y,-z
x,1/2-y,1/2+z
loop_
_atom_site_type_symbol
_atom_site_label
_atom_site_fract_x
_atom_site_fract_y
_atom_site_fract_z
Si Si1 0.708568 0.333298 0.923697
Si Si2 0.272556 0.435503 0.994875
Si Si3 0.996812 0.174609 0.439523
Si Si4 0.843199 0.483106 0.274666
Si Si5 0.167981 0.097525 0.028729
Si Si6 0.536620 0.716418 0.379867
Si Si7 0.253075 0.754436 0.846551
O O1 0.869069 0.345769 0.951478
O O2 0.573083 0.286590 0.778158
O O3 0.655597 0.449762 0.934585
O O4 0.746023 0.259616 0.037679
O O5 0.204078 0.448172 0.846680
O O6 0.133531 0.410117 0.994246
O O7 0.388057 0.334034 0.063645
O O8 0.895215 0.183596 0.282384
O O9 0.082249 0.289101 0.507282
O O10 0.792143 0.534504 0.349070
O O11 0.766553 0.365350 0.212629
O O12 0.033073 0.466426 0.392686
O O13 0.322306 0.131007 0.054848
O O14 0.416201 0.695263 0.400387
#
# Coordination Sequence:
#
# PCOD9245064 Si02
#       7
#     4   4   4   4   4   4   4
#     4  10  21  37  58  80 118 156 181 241 290 336
#     4  10  21  36  59  84 110 153 192 237 283 342
#     4   9  19  37  55  84 114 145 196 233 284 344
#     4   9  19  35  61  84 109 151 198 238 280 336
#     4   9  19  36  56  87 110 148 193 244 279 330
#     4  10  22  36  54  87 118 142 192 235 282 348
#     4   9  20  36  55  84 113 150 190 234 285 341
#
# _framework density 19.561094000000001
#
# number of rings (size 3 to 8) (size 9 to 14) (size 15 to 20)
#    0.000    2.571    0.000    0.429    6.000    1.143 
#    0.000    1.429    0.000    3.429    0.000    0.000 
#    0.000    0.000    0.000    0.000    0.000    0.000 
#
# Total GULP energy -156233.806112 kJ/mol
# GULP energy per Si atom -5579.778790 kJ/mol
# Density = 1.951657 g / cm^3
# Si number density = 19.561094 Si / 1000 Ang^3
#
#
#
# Elastic Constant Matrix: (Units=GPa)
#
#
# Indices 1 2 3 4 5 6 
#
# 1 44.4838 0.9320 29.7035 0.0000 10.2253 0.0000
# 2 0.9320 17.2368 19.4403 0.0000 -4.1914 0.0000
# 3 29.7035 19.4403 91.4440 0.0000 -17.5992 0.0000
# 4 0.0000 0.0000 0.0000 24.5075 0.0000 -1.6465
# 5 10.2253 -4.1914 -17.5992 0.0000 23.7738 0.0000
# 6 0.0000 0.0000 0.0000 -1.6465 0.0000 18.0975
#
#
#
# Elastic Compliance Matrix: (Units=1/GPa)
#
#
# Indices 1 2 3 4 5 6 
#
# 1 0.048933 0.018801 -0.027176 0.000000 -0.037850 0.000000
# 2 0.018801 0.083594 -0.026353 0.000000 -0.012857 0.000000
# 3 -0.027176 -0.026353 0.031161 0.000000 0.030110 0.000000
# 4 0.000000 0.000000 0.000000 0.041055 0.000000 0.003735
# 5 -0.037850 -0.012857 0.030110 0.000000 0.078366 0.000000
# 6 0.000000 0.000000 0.000000 0.003735 0.000000 0.055596
#
#
# Mechanical properties :
#
#
# Convention : Reuss Voigt Hill
#
# Bulk Modulus (GPa) = 10.61220 28.14627 19.37923
# Shear Modulus (GPa) = 11.37468 20.14835 15.76151
#
# Velocity S-wave (km/s) = 2.41404 3.21288 2.84167
# Velocity P-wave (km/s) = 3.63415 5.30882 4.54921
#
# Compressibility (1/GPa) = 0.09423121
#
# Stress axis : x y z
#
# Youngs Moduli (GPa) = 20.43593 11.96255 32.09158
#
# Poissons Ratio (x) = -0.22491 0.87214
# Poissons Ratio (y) = -0.38421 0.84571
# Poissons Ratio (z) = 0.55538 0.31525
#
# Static dielectric constant tensor:
#      x y z
#    x 1.691590 0.000000 0.015180 
#    y 0.000000 1.694780 0.000000 
#    z 0.015180 0.000000 1.657540 
# 
# From -- ./inp_files/25589.got.cif
#   From: 2010.05.17/outbox.cif.g08.bks.cpg/sg14_13_cif.got.tgz:25589.got - 2010.06.03 17:49:19.
