data_PCOD9245548
_publ_section_title
;
Structure prediction by ZEFSAII (Michael W. Deem and Ramdas Pophale) SiO2 
 PCOD9245548
Probable space group: P 21/C
;
_chemical_formula_sum "Si O2"
_cell_formula_units_Z 20
_cell_length_a 11.262349
_cell_length_b 10.112434
_cell_length_c 11.564020
_cell_angle_alpha 90.000000
_cell_angle_beta 41.577260
_cell_angle_gamma 90.000000
_cell_volume 874.015456
_symmetry_space_group_name_H-M "P 21/C"
_symmetry_group_IT_number 14
_symmetry_cell_setting 'monoclinic'
loop_
_space_group_symop_operation_xyz
x,y,z
-x,1/2+y,1/2-z
-x,-y,-z
x,1/2-y,1/2+z
loop_
_atom_site_type_symbol
_atom_site_label
_atom_site_fract_x
_atom_site_fract_y
_atom_site_fract_z
Si Si1 0.407199 0.689080 0.562147
Si Si2 0.481908 0.476997 0.321447
Si Si3 0.053198 0.848346 0.445918
Si Si4 0.913462 0.917382 0.961133
Si Si5 0.221859 0.895481 0.553108
O O1 0.494244 0.595669 0.403536
O O2 0.502579 0.659389 0.614047
O O3 0.206528 0.643607 0.737742
O O4 0.365097 0.828760 0.535972
O O5 0.285645 0.469608 0.412334
O O6 0.647075 0.491475 0.113802
O O7 0.919205 0.736512 0.497983
O O8 0.139405 0.807131 0.507554
O O9 0.000000 0.000000 0.500000
O O10 0.048685 0.935122 0.753617
O O11 0.000000 0.000000 0.000000
#
# Coordination Sequence:
#
# PCOD9245548 Si02
#       5
#     4   4   4   4   4
#     4   9  20  40  59  88 127 159 204 257 303 360
#     4  10  21  38  63  87 119 166 205 244 305 371
#     4  10  21  39  63  90 125 166 203 248 308 367
#     4  11  24  41  63  94 125 156 205 258 303 359
#     4  10  22  40  62  89 123 160 202 257 306 355
#
# _framework density 22.88289
#
# number of rings (size 3 to 8) (size 9 to 14) (size 15 to 20)
#    0.000    2.000    0.000    2.400    0.000    8.800 
#    0.000    2.000    0.000    0.000    0.000    0.000 
#    0.000    0.000    0.000    0.000    0.000    0.000 
#
# Total GULP energy -111503.687604 kJ/mol
# GULP energy per Si atom -5575.184380 kJ/mol
# Density = 2.283081 g / cm^3
# Si number density = 22.882890 Si / 1000 Ang^3
#
#
#
# Elastic Constant Matrix: (Units=GPa)
#
#
# Indices 1 2 3 4 5 6 
#
# 1 84.1664 2.2218 5.3052 0.0000 -12.4699 0.0000
# 2 2.2218 45.5248 18.7058 0.0000 1.6844 0.0000
# 3 5.3052 18.7058 119.2146 0.0000 14.4830 0.0000
# 4 0.0000 0.0000 0.0000 20.4048 0.0000 1.9267
# 5 -12.4699 1.6844 14.4830 0.0000 29.2242 0.0000
# 6 0.0000 0.0000 0.0000 1.9267 0.0000 30.1392
#
#
#
# Elastic Compliance Matrix: (Units=1/GPa)
#
#
# Indices 1 2 3 4 5 6 
#
# 1 0.012880 -0.000335 -0.001267 0.000000 0.006143 0.000000
# 2 -0.000335 0.023496 -0.003713 0.000000 0.000343 0.000000
# 3 -0.001267 -0.003713 0.009648 0.000000 -0.005108 0.000000
# 4 0.000000 0.000000 0.000000 0.049306 0.000000 -0.003152
# 5 0.006143 0.000343 -0.005108 0.000000 0.039351 0.000000
# 6 0.000000 0.000000 0.000000 -0.003152 0.000000 0.033381
#
#
# Mechanical properties :
#
#
# Convention : Reuss Voigt Hill
#
# Bulk Modulus (GPa) = 28.25482 33.48571 30.87027
# Shear Modulus (GPa) = 26.24814 30.79850 28.52332
#
# Velocity S-wave (km/s) = 3.39051 3.67266 3.53440
# Velocity P-wave (km/s) = 5.26325 5.71400 5.49325
#
# Compressibility (1/GPa) = 0.03539219
#
# Stress axis : x y z
#
# Youngs Moduli (GPa) = 77.63929 42.56127 103.65050
#
# Poissons Ratio (x) = 0.01427 0.13131
# Poissons Ratio (y) = 0.02604 0.38490
# Poissons Ratio (z) = 0.09836 0.15805
#
# Static dielectric constant tensor:
#      x y z
#    x 1.944680 0.000000 0.036110 
#    y 0.000000 1.943270 0.000000 
#    z 0.036110 0.000000 1.842990 
# 
# From -- ./inp_files/28879.got.cif
#   From: 2010.05.17/outbox.cif.g08.bks.cpg/sg14_15_cif.got.tgz:28879.got - 2010.06.03 17:49:19.
