data_PCOD9245996
_publ_section_title
;
Structure prediction by ZEFSAII (Michael W. Deem and Ramdas Pophale) SiO2 
 PCOD9245996
Probable space group: P 21/C
;
_chemical_formula_sum "Si O2"
_cell_formula_units_Z 28
_cell_length_a 14.254215
_cell_length_b 6.779929
_cell_length_c 13.404991
_cell_angle_alpha 90.000000
_cell_angle_beta 71.378958
_cell_angle_gamma 90.000000
_cell_volume 1227.675243
_symmetry_space_group_name_H-M "P 21/C"
_symmetry_group_IT_number 14
_symmetry_cell_setting 'monoclinic'
loop_
_space_group_symop_operation_xyz
x,y,z
-x,1/2+y,1/2-z
-x,-y,-z
x,1/2-y,1/2+z
loop_
_atom_site_type_symbol
_atom_site_label
_atom_site_fract_x
_atom_site_fract_y
_atom_site_fract_z
Si Si1 0.414090 0.992914 0.820808
Si Si2 0.271145 0.705352 0.744389
Si Si3 0.035422 0.356256 0.117650
Si Si4 0.576859 0.901586 0.609330
Si Si5 0.149734 0.384833 0.894453
Si Si6 0.593933 0.257073 0.479601
Si Si7 0.094033 0.996530 0.809832
O O1 0.339551 0.851097 0.786867
O O2 0.511856 0.006726 0.718362
O O3 0.373635 0.211278 0.857615
O O4 0.437160 0.898531 0.920208
O O5 0.237227 0.515943 0.818849
O O6 0.327278 0.653272 0.623460
O O7 0.174592 0.833317 0.751718
O O8 0.056067 0.388739 0.226135
O O9 0.950325 0.510147 0.114333
O O10 0.132461 0.393083 0.018521
O O11 0.993353 0.135995 0.113783
O O12 0.497049 0.811822 0.558057
O O13 0.633639 0.062420 0.524376
O O14 0.144189 0.159173 0.862366
#
# Coordination Sequence:
#
# PCOD9245996 Si02
#       7
#     4   4   4   4   4   4   4
#     4  11  21  41  63  94 126 172 217 266 322 382
#     4  10  26  40  59  97 134 164 210 269 335 388
#     4  10  21  39  69  90 121 166 214 267 309 389
#     4  10  21  39  68  91 121 170 226 264 311 389
#     4  10  22  42  63  93 127 163 213 264 322 387
#     4  10  22  41  63  93 129 166 216 272 321 382
#     4  11  21  42  63  97 125 168 218 261 324 391
#
# _framework density 22.807334999999998
#
# number of rings (size 3 to 8) (size 9 to 14) (size 15 to 20)
#    0.000    1.714    2.857    0.857    2.000    2.286 
#    2.571    0.000    0.000    0.000    0.000    0.000 
#    0.000    0.000    0.000    0.000    0.000    0.000 
#
# Total GULP energy -156537.894586 kJ/mol
# GULP energy per Si atom -5590.639092 kJ/mol
# Density = 2.275542 g / cm^3
# Si number density = 22.807335 Si / 1000 Ang^3
#
#
#
# Elastic Constant Matrix: (Units=GPa)
#
#
# Indices 1 2 3 4 5 6 
#
# 1 46.7424 14.1083 22.5759 0.0000 -1.0421 0.0000
# 2 14.1083 120.6885 36.3472 0.0000 -6.8381 0.0000
# 3 22.5759 36.3472 132.3607 0.0000 -9.0571 0.0000
# 4 0.0000 0.0000 0.0000 34.1347 0.0000 2.9235
# 5 -1.0421 -6.8381 -9.0571 0.0000 25.6193 0.0000
# 6 0.0000 0.0000 0.0000 2.9235 0.0000 37.3384
#
#
#
# Elastic Compliance Matrix: (Units=1/GPa)
#
#
# Indices 1 2 3 4 5 6 
#
# 1 0.023641 -0.001719 -0.003613 0.000000 -0.000775 0.000000
# 2 -0.001719 0.009220 -0.002126 0.000000 0.001639 0.000000
# 3 -0.003613 -0.002126 0.008922 0.000000 0.002440 0.000000
# 4 0.000000 0.000000 0.000000 0.029493 0.000000 -0.002309
# 5 -0.000775 0.001639 0.002440 0.000000 0.040302 0.000000
# 6 0.000000 0.000000 0.000000 -0.002309 0.000000 0.026963
#
#
# Mechanical properties :
#
#
# Convention : Reuss Voigt Hill
#
# Bulk Modulus (GPa) = 37.22287 49.53937 43.38112
# Shear Modulus (GPa) = 30.78559 34.53584 32.66071
#
# Velocity S-wave (km/s) = 3.67796 3.89555 3.78832
# Velocity P-wave (km/s) = 5.86452 6.48087 6.18038
#
# Compressibility (1/GPa) = 0.02686520
#
# Stress axis : x y z
#
# Youngs Moduli (GPa) = 42.30012 108.45898 112.07921
#
# Poissons Ratio (x) = 0.18647 0.40495
# Poissons Ratio (y) = 0.07273 0.23833
# Poissons Ratio (z) = 0.15283 0.23064
#
# Static dielectric constant tensor:
#      x y z
#    x 1.890070 0.000000 -0.016430 
#    y 0.000000 1.862250 0.000000 
#    z -0.016430 0.000000 1.812510 
# 
# From -- ./inp_files/47917.got.cif
#   From: 2010.05.17/outbox.cif.g08.bks.cpg/sg14_24_cif.got.tgz:47917.got - 2010.06.03 17:49:19.
