data_PCOD9245055
_publ_section_title
;
Structure prediction by ZEFSAII (Michael W. Deem and Ramdas Pophale) SiO2 
 PCOD9245055
Probable space group: P 21/C
;
_chemical_formula_sum "Si O2"
_cell_formula_units_Z 28
_cell_length_a 10.029982
_cell_length_b 6.002205
_cell_length_c 30.722740
_cell_angle_alpha 90.000000
_cell_angle_beta 49.986575
_cell_angle_gamma 90.000000
_cell_volume 1416.574707
_symmetry_space_group_name_H-M "P 21/C"
_symmetry_group_IT_number 14
_symmetry_cell_setting 'monoclinic'
loop_
_space_group_symop_operation_xyz
x,y,z
-x,1/2+y,1/2-z
-x,-y,-z
x,1/2-y,1/2+z
loop_
_atom_site_type_symbol
_atom_site_label
_atom_site_fract_x
_atom_site_fract_y
_atom_site_fract_z
Si Si1 0.214453 0.517394 0.881234
Si Si2 0.174649 0.354516 0.457746
Si Si3 0.627299 0.582659 0.418475
Si Si4 0.643404 0.307636 0.968479
Si Si5 0.493887 0.656034 0.356559
Si Si6 0.417433 0.415322 0.757987
Si Si7 0.133771 0.186672 0.560266
O O1 0.139569 0.347238 0.932111
O O2 0.387293 0.620744 0.866959
O O3 0.260170 0.408583 0.825386
O O4 0.072783 0.708067 0.900745
O O5 0.340533 0.485460 0.403409
O O6 0.213464 0.259225 0.497577
O O7 0.000000 0.500000 0.500000
O O8 0.437642 0.644149 0.478605
O O9 0.649059 0.320182 0.421822
O O10 0.621644 0.668138 0.370867
O O11 0.775547 0.688672 0.418462
O O12 0.821653 0.426093 0.942370
O O13 0.500000 0.500000 0.000000
O O14 0.594065 0.585040 0.291858
O O15 0.491936 0.669958 0.751843
#
# Coordination Sequence:
#
# PCOD9245055 Si02
#       7
#     4   4   4   4   4   4   4
#     4  11  24  40  64  91 127 164 216 268 325 382
#     4  12  23  35  60  98 128 162 208 267 328 389
#     4  10  21  36  58  86 124 167 206 247 318 389
#     4   9  18  34  53  81 125 163 197 238 310 384
#     4  11  22  40  66  91 124 163 224 267 315 388
#     4  10  22  45  68  95 125 174 225 279 320 380
#     4  11  23  36  58  90 132 162 198 259 331 384
#
# _framework density 19.765991
#
# number of rings (size 3 to 8) (size 9 to 14) (size 15 to 20)
#    0.000    1.429    2.857    3.857    4.000    1.143 
#    0.000    0.000    3.143    0.000    0.000    0.000 
#    0.000    0.000    0.000    0.000    0.000    0.000 
#
# Total GULP energy -155910.065525 kJ/mol
# GULP energy per Si atom -5568.216626 kJ/mol
# Density = 1.972100 g / cm^3
# Si number density = 19.765991 Si / 1000 Ang^3
#
#
#
# Elastic Constant Matrix: (Units=GPa)
#
#
# Indices 1 2 3 4 5 6 
#
# 1 108.6405 32.1780 57.1183 0.0000 31.3727 0.0000
# 2 32.1780 72.2126 28.6437 0.0000 8.6068 0.0000
# 3 57.1183 28.6437 116.3517 0.0000 42.6691 0.0000
# 4 0.0000 0.0000 0.0000 32.8309 0.0000 -0.7521
# 5 31.3727 8.6068 42.6691 0.0000 29.6575 0.0000
# 6 0.0000 0.0000 0.0000 -0.7521 0.0000 31.9036
#
#
#
# Elastic Compliance Matrix: (Units=1/GPa)
#
#
# Indices 1 2 3 4 5 6 
#
# 1 0.014933 -0.004493 -0.001926 0.000000 -0.011722 0.000000
# 2 -0.004493 0.016759 -0.003979 0.000000 0.005614 0.000000
# 3 -0.001926 -0.003979 0.019791 0.000000 -0.025282 0.000000
# 4 0.000000 0.000000 0.000000 0.030476 0.000000 0.000718
# 5 -0.011722 0.005614 -0.025282 0.000000 0.080863 0.000000
# 6 0.000000 0.000000 0.000000 0.000718 0.000000 0.031361
#
#
# Mechanical properties :
#
#
# Convention : Reuss Voigt Hill
#
# Bulk Modulus (GPa) = 32.58643 59.23164 45.90904
# Shear Modulus (GPa) = 22.20165 30.82941 26.51553
#
# Velocity S-wave (km/s) = 3.35509 3.95361 3.66658
# Velocity P-wave (km/s) = 5.61522 7.13252 6.41886
#
# Compressibility (1/GPa) = 0.03068762
#
# Stress axis : x y z
#
# Youngs Moduli (GPa) = 66.96558 59.66841 50.52737
#
# Poissons Ratio (x) = 0.26810 0.09732
# Poissons Ratio (y) = 0.30089 0.20104
# Poissons Ratio (z) = 0.12898 0.23741
#
# Static dielectric constant tensor:
#      x y z
#    x 1.737260 0.000000 0.000270 
#    y 0.000000 1.818220 0.000000 
#    z 0.000270 0.000000 1.688600 
# 
# From -- ./inp_files/79202.got.cif
#   From: 2010.05.17/outbox.cif.g08.bks.cpg/sg14_40_cif.got.tgz:79202.got - 2010.06.03 17:49:19.
