data_PCOD9245579
_publ_section_title
;
Structure prediction by ZEFSAII (Michael W. Deem and Ramdas Pophale) SiO2 
 PCOD9245579
Probable space group: P 21/C
;
_chemical_formula_sum "Si O2"
_cell_formula_units_Z 32
_cell_length_a 27.100369
_cell_length_b 9.519689
_cell_length_c 10.823026
_cell_angle_alpha 90.000000
_cell_angle_beta 31.830989
_cell_angle_gamma 90.000000
_cell_volume 1472.649744
_symmetry_space_group_name_H-M "P 21/C"
_symmetry_group_IT_number 14
_symmetry_cell_setting 'monoclinic'
loop_
_space_group_symop_operation_xyz
x,y,z
-x,1/2+y,1/2-z
-x,-y,-z
x,1/2-y,1/2+z
loop_
_atom_site_type_symbol
_atom_site_label
_atom_site_fract_x
_atom_site_fract_y
_atom_site_fract_z
Si Si1 0.972856 0.296976 0.887644
Si Si2 0.874645 0.198840 0.857583
Si Si3 0.164373 0.128708 0.088432
Si Si4 0.432262 0.998170 0.955372
Si Si5 0.834412 0.968018 0.662456
Si Si6 0.291861 0.705205 0.632612
Si Si7 0.692311 0.764626 0.858190
Si Si8 0.360588 0.001936 0.388427
O O1 0.923369 0.257711 0.124528
O O2 0.930993 0.450421 0.939492
O O3 0.941590 0.211422 0.834847
O O4 0.082244 0.301339 0.683637
O O5 0.848548 0.036466 0.903671
O O6 0.781157 0.282017 0.097384
O O7 0.147660 0.143441 0.268415
O O8 0.269542 0.173484 0.836099
O O9 0.401101 0.146151 0.960902
O O10 0.386455 0.871263 0.974924
O O11 0.386677 0.994300 0.189098
O O12 0.542739 0.990713 0.739338
O O13 0.772280 0.884363 0.697427
O O14 0.762329 0.098515 0.844413
O O15 0.308174 0.859551 0.541953
O O16 0.689241 0.649325 0.973122
#
# Coordination Sequence:
#
# PCOD9245579 Si02
#       8
#     4   4   4   4   4   4   4   4
#     4  10  23  38  63  86 128 161 211 255 310 357
#     4  10  21  40  59  92 117 167 208 254 301 371
#     4  11  22  36  63  84 123 165 206 250 305 371
#     4  10  24  40  60  90 124 157 199 266 312 374
#     4   9  21  39  57  87 121 164 199 252 305 358
#     4  10  21  38  64  86 122 159 207 251 307 376
#     4  11  22  39  62  89 122 159 207 252 315 367
#     4  11  22  40  63  90 121 157 207 253 319 376
#
# _framework density 21.72954
#
# number of rings (size 3 to 8) (size 9 to 14) (size 15 to 20)
#    0.000    1.750    1.250    3.000    8.750    0.000 
#    0.000    0.625    0.000    8.250    0.000    0.000 
#    0.000    0.000    0.000    0.000    0.000    0.000 
#
# Total GULP energy -178351.387363 kJ/mol
# GULP energy per Si atom -5573.480855 kJ/mol
# Density = 2.168008 g / cm^3
# Si number density = 21.729540 Si / 1000 Ang^3
#
#
#
# Elastic Constant Matrix: (Units=GPa)
#
#
# Indices 1 2 3 4 5 6 
#
# 1 75.6097 26.7056 1.6596 0.0000 -6.2265 0.0000
# 2 26.7056 79.7939 21.8860 0.0000 -4.4083 0.0000
# 3 1.6596 21.8860 49.2654 0.0000 -3.2687 0.0000
# 4 0.0000 0.0000 0.0000 33.8147 0.0000 -12.6485
# 5 -6.2265 -4.4083 -3.2687 0.0000 31.5380 0.0000
# 6 0.0000 0.0000 0.0000 -12.6485 0.0000 25.3035
#
#
#
# Elastic Compliance Matrix: (Units=1/GPa)
#
#
# Indices 1 2 3 4 5 6 
#
# 1 0.015356 -0.005587 0.002128 0.000000 0.002471 0.000000
# 2 -0.005587 0.016361 -0.007050 0.000000 0.000453 0.000000
# 3 0.002128 -0.007050 0.023482 0.000000 0.001869 0.000000
# 4 0.000000 0.000000 0.000000 0.036374 0.000000 0.018182
# 5 0.002471 0.000453 0.001869 0.000000 0.032453 0.000000
# 6 0.000000 0.000000 0.000000 0.018182 0.000000 0.048609
#
#
# Mechanical properties :
#
#
# Convention : Reuss Voigt Hill
#
# Bulk Modulus (GPa) = 29.25439 33.90793 31.58116
# Shear Modulus (GPa) = 24.38487 28.42578 26.40533
#
# Velocity S-wave (km/s) = 3.35356 3.62078 3.48973
# Velocity P-wave (km/s) = 5.33735 5.75486 5.55003
#
# Compressibility (1/GPa) = 0.03418291
#
# Stress axis : x y z
#
# Youngs Moduli (GPa) = 65.12192 61.12202 42.58507
#
# Poissons Ratio (x) = 0.34146 -0.09064
# Poissons Ratio (y) = 0.36381 0.30022
# Poissons Ratio (z) = -0.13861 0.43091
#
# Static dielectric constant tensor:
#      x y z
#    x 1.828330 0.000000 -0.004480 
#    y 0.000000 1.807680 0.000000 
#    z -0.004480 0.000000 1.808790 
# 
# From -- ./inp_files/31587.got.cif
#   From: 2010.05.17/outbox.cif.g08.bks.cpg/sg14_16_cif.got.tgz:31587.got - 2010.06.03 17:49:19.
