data_PCOD9245501
_publ_section_title
;
Structure prediction by ZEFSAII (Michael W. Deem and Ramdas Pophale) SiO2 
 PCOD9245501
Probable space group: P 21/C
;
_chemical_formula_sum "Si O2"
_cell_formula_units_Z 24
_cell_length_a 11.634694
_cell_length_b 13.378164
_cell_length_c 8.294558
_cell_angle_alpha 90.000000
_cell_angle_beta 49.348777
_cell_angle_gamma 90.000000
_cell_volume 979.509459
_symmetry_space_group_name_H-M "P 21/C"
_symmetry_group_IT_number 14
_symmetry_cell_setting 'monoclinic'
loop_
_space_group_symop_operation_xyz
x,y,z
-x,1/2+y,1/2-z
-x,-y,-z
x,1/2-y,1/2+z
loop_
_atom_site_type_symbol
_atom_site_label
_atom_site_fract_x
_atom_site_fract_y
_atom_site_fract_z
Si Si1 0.676750 0.435652 0.729614
Si Si2 0.015817 0.866606 0.626727
Si Si3 0.127090 0.819995 0.167087
Si Si4 0.464639 0.142795 0.679652
Si Si5 0.703900 0.746789 0.935674
Si Si6 0.869619 0.558906 0.803622
O O1 0.724403 0.374216 0.529643
O O2 0.567141 0.524999 0.772760
O O3 0.803148 0.499363 0.712963
O O4 0.601588 0.361872 0.928986
O O5 0.842501 0.827225 0.808957
O O6 0.070863 0.846585 0.395234
O O7 0.117852 0.796620 0.647313
O O8 0.057633 0.978266 0.642117
O O9 0.005648 0.864188 0.147591
O O10 0.329789 0.202554 0.710570
O O11 0.448017 0.198834 0.862939
O O12 0.746612 0.639630 0.981562
#
# Coordination Sequence:
#
# PCOD9245501 Si02
#       6
#     4   4   4   4   4   4
#     4  10  22  40  60  86 118 160 200 243 300 354
#     4  11  22  37  60  92 121 153 197 248 303 354
#     4  11  22  36  60  88 121 155 193 249 301 352
#     4  10  22  40  61  83 118 161 203 241 290 364
#     4  10  21  39  62  88 119 160 199 244 301 353
#     4  10  21  38  61  91 121 152 200 253 303 350
#
# _framework density 24.502058999999999
#
# number of rings (size 3 to 8) (size 9 to 14) (size 15 to 20)
#    0.000    1.667    0.000    5.000    0.000    6.667 
#    0.000    0.000    0.000   10.000    0.000    0.000 
#    0.000    0.000    0.000    0.000    0.000    0.000 
#
# Total GULP energy -133862.796150 kJ/mol
# GULP energy per Si atom -5577.616506 kJ/mol
# Density = 2.444629 g / cm^3
# Si number density = 24.502059 Si / 1000 Ang^3
#
#
#
# Elastic Constant Matrix: (Units=GPa)
#
#
# Indices 1 2 3 4 5 6 
#
# 1 26.0780 12.1747 -7.2573 0.0000 3.0209 0.0000
# 2 12.1747 116.1590 50.8619 0.0000 4.5223 0.0000
# 3 -7.2573 50.8619 102.3742 0.0000 10.2635 0.0000
# 4 0.0000 0.0000 0.0000 44.1153 0.0000 -3.0336
# 5 3.0209 4.5223 10.2635 0.0000 13.0793 0.0000
# 6 0.0000 0.0000 0.0000 -3.0336 0.0000 34.9655
#
#
#
# Elastic Compliance Matrix: (Units=1/GPa)
#
#
# Indices 1 2 3 4 5 6 
#
# 1 0.046309 -0.008134 0.008807 0.000000 -0.014794 0.000000
# 2 -0.008134 0.012434 -0.007068 0.000000 0.003125 0.000000
# 3 0.008807 -0.007068 0.015046 0.000000 -0.011398 0.000000
# 4 0.000000 0.000000 0.000000 0.022804 0.000000 0.001978
# 5 -0.014794 0.003125 -0.011398 0.000000 0.087737 0.000000
# 6 0.000000 0.000000 0.000000 0.001978 0.000000 0.028771
#
#
# Mechanical properties :
#
#
# Convention : Reuss Voigt Hill
#
# Bulk Modulus (GPa) = 16.39330 39.57443 27.98387
# Shear Modulus (GPa) = 20.30671 31.02081 25.66376
#
# Velocity S-wave (km/s) = 2.88197 3.56202 3.23989
# Velocity P-wave (km/s) = 4.21657 5.75359 5.04397
#
# Compressibility (1/GPa) = 0.06100052
#
# Stress axis : x y z
#
# Youngs Moduli (GPa) = 21.59425 80.42193 66.46075
#
# Poissons Ratio (x) = 0.65415 -0.58533
# Poissons Ratio (y) = 0.17565 0.46972
# Poissons Ratio (z) = -0.19018 0.56840
#
# Static dielectric constant tensor:
#      x y z
#    x 2.084490 0.000000 -0.069390 
#    y 0.000000 1.927660 0.000000 
#    z -0.069390 0.000000 2.012830 
# 
# From -- ./inp_files/8461.got.cif
#   From: 2010.05.17/outbox.cif.g08.bks.cpg/sg14_5_cif.got.tgz:8461.got - 2010.06.03 17:49:19.
