data_PCOD9245705
_publ_section_title
;
Structure prediction by ZEFSAII (Michael W. Deem and Ramdas Pophale) SiO2 
 PCOD9245705
Probable space group: P 21/C
;
_chemical_formula_sum "Si O2"
_cell_formula_units_Z 28
_cell_length_a 18.050602
_cell_length_b 13.668932
_cell_length_c 14.277922
_cell_angle_alpha 90.000000
_cell_angle_beta 20.761214
_cell_angle_gamma 90.000000
_cell_volume 1248.750671
_symmetry_space_group_name_H-M "P 21/C"
_symmetry_group_IT_number 14
_symmetry_cell_setting 'monoclinic'
loop_
_space_group_symop_operation_xyz
x,y,z
-x,1/2+y,1/2-z
-x,-y,-z
x,1/2-y,1/2+z
loop_
_atom_site_type_symbol
_atom_site_label
_atom_site_fract_x
_atom_site_fract_y
_atom_site_fract_z
Si Si1 0.409006 0.348840 0.090655
Si Si2 0.812530 0.296492 0.726632
Si Si3 0.985916 0.946040 0.870898
Si Si4 0.977947 0.515077 0.168429
Si Si5 0.199022 0.343432 0.154522
Si Si6 0.262014 0.158136 0.369695
Si Si7 0.693845 0.420600 0.374507
O O1 0.251187 0.433358 0.311871
O O2 0.392748 0.349150 0.997415
O O3 0.303426 0.247864 0.252603
O O4 0.633589 0.345827 0.873675
O O5 0.880519 0.365539 0.731392
O O6 0.728736 0.192754 0.860481
O O7 0.017599 0.282343 0.419844
O O8 0.978312 0.934318 0.768269
O O9 0.093377 0.049463 0.767175
O O10 0.757264 0.500244 0.377378
O O11 0.056433 0.403505 0.091421
O O12 0.144959 0.561452 0.900447
O O13 0.254835 0.307194 0.985696
O O14 0.450814 0.080145 0.137300
#
# Coordination Sequence:
#
# PCOD9245705 Si02
#       7
#     4   4   4   4   4   4   4
#     4  10  21  39  58  88 120 156 194 247 293 349
#     4  10  21  39  59  88 119 153 197 241 293 356
#     4  10  22  37  59  90 118 157 196 240 292 351
#     4  10  21  39  63  85 118 157 194 245 291 348
#     4  10  22  38  60  83 120 160 195 242 297 346
#     4  10  22  40  59  89 120 152 199 247 289 351
#     4  10  22  40  60  88 116 156 199 241 297 348
#
# _framework density 22.422409999999999
#
# number of rings (size 3 to 8) (size 9 to 14) (size 15 to 20)
#    0.000    2.000    0.000    3.857    2.000    6.857 
#   10.286    0.000    0.000    0.000    0.000    0.000 
#    0.000    0.000    0.000    0.000    0.000    0.000 
#
# Total GULP energy -156460.234515 kJ/mol
# GULP energy per Si atom -5587.865518 kJ/mol
# Density = 2.237138 g / cm^3
# Si number density = 22.422410 Si / 1000 Ang^3
#
#
#
# Elastic Constant Matrix: (Units=GPa)
#
#
# Indices 1 2 3 4 5 6 
#
# 1 124.8557 30.3447 28.5961 0.0000 -5.6225 0.0000
# 2 30.3447 39.6924 7.4916 0.0000 0.0195 0.0000
# 3 28.5961 7.4916 31.1903 0.0000 -6.0775 0.0000
# 4 0.0000 0.0000 0.0000 24.5312 0.0000 -11.3290
# 5 -5.6225 0.0195 -6.0775 0.0000 39.6392 0.0000
# 6 0.0000 0.0000 0.0000 -11.3290 0.0000 28.7358
#
#
#
# Elastic Compliance Matrix: (Units=1/GPa)
#
#
# Indices 1 2 3 4 5 6 
#
# 1 0.011895 -0.007381 -0.009074 0.000000 0.000300 0.000000
# 2 -0.007381 0.031010 -0.000915 0.000000 -0.001203 0.000000
# 3 -0.009074 -0.000915 0.041593 0.000000 0.005090 0.000000
# 4 0.000000 0.000000 0.000000 0.049839 0.000000 0.019649
# 5 0.000300 -0.001203 0.005090 0.000000 0.026051 0.000000
# 6 0.000000 0.000000 0.000000 0.019649 0.000000 0.042546
#
#
# Mechanical properties :
#
#
# Convention : Reuss Voigt Hill
#
# Bulk Modulus (GPa) = 20.09821 36.51147 28.30484
# Shear Modulus (GPa) = 19.66489 27.20165 23.43327
#
# Velocity S-wave (km/s) = 2.96466 3.48680 3.23628
# Velocity P-wave (km/s) = 4.54993 5.70344 5.15903
#
# Compressibility (1/GPa) = 0.04975567
#
# Stress axis : x y z
#
# Youngs Moduli (GPa) = 84.06932 32.24778 24.04278
#
# Poissons Ratio (x) = 0.23802 0.21817
# Poissons Ratio (y) = 0.62052 0.02201
# Poissons Ratio (z) = 0.76288 0.02952
#
# Static dielectric constant tensor:
#      x y z
#    x 1.852140 0.000000 -0.028990 
#    y 0.000000 1.835080 0.000000 
#    z -0.028990 0.000000 1.821850 
# 
# From -- ./inp_files/50555.got.cif
#   From: 2010.05.17/outbox.cif.g08.bks.cpg/sg14_26_cif.got.tgz:50555.got - 2010.06.03 17:49:19.
