data_PCOD9245739
_publ_section_title
;
Structure prediction by ZEFSAII (Michael W. Deem and Ramdas Pophale) SiO2 
 PCOD9245739
Probable space group: P 21/C
;
_chemical_formula_sum "Si O2"
_cell_formula_units_Z 32
_cell_length_a 12.165267
_cell_length_b 20.204917
_cell_length_c 13.690156
_cell_angle_alpha 90.000000
_cell_angle_beta 27.705737
_cell_angle_gamma 90.000000
_cell_volume 1564.499161
_symmetry_space_group_name_H-M "P 21/C"
_symmetry_group_IT_number 14
_symmetry_cell_setting 'monoclinic'
loop_
_space_group_symop_operation_xyz
x,y,z
-x,1/2+y,1/2-z
-x,-y,-z
x,1/2-y,1/2+z
loop_
_atom_site_type_symbol
_atom_site_label
_atom_site_fract_x
_atom_site_fract_y
_atom_site_fract_z
Si Si1 0.473735 0.147015 0.131528
Si Si2 0.990201 0.413942 0.924022
Si Si3 0.742617 0.529589 0.847590
Si Si4 0.441290 0.210588 0.574779
Si Si5 0.030825 0.369640 0.475099
Si Si6 0.262818 0.955821 0.190123
Si Si7 0.135653 0.885223 0.689578
Si Si8 0.516480 0.855897 0.647046
O O1 0.227407 0.118058 0.282799
O O2 0.518711 0.218574 0.050688
O O3 0.448786 0.153016 0.266706
O O4 0.687559 0.098090 0.932330
O O5 0.055115 0.490220 0.845427
O O6 0.922990 0.375901 0.877780
O O7 0.789594 0.419124 0.165608
O O8 0.863701 0.565618 0.660617
O O9 0.862343 0.464479 0.795808
O O10 0.500000 0.500000 0.000000
O O11 0.679856 0.585100 0.976848
O O12 0.181147 0.191311 0.815900
O O13 0.620932 0.153642 0.474587
O O14 0.435637 0.205603 0.462136
O O15 0.040975 0.364382 0.584439
O O16 0.758346 0.370921 0.657832
O O17 0.500000 0.000000 0.000000
#
# Coordination Sequence:
#
# PCOD9245739 Si02
#       8
#     4   4   4   4   4   4   4   4
#     4  11  25  43  65  90 131 174 209 265 311 385
#     4  10  24  41  63  94 128 164 211 260 322 378
#     4  11  20  37  62  96 129 154 210 273 320 372
#     4  10  24  43  60  94 129 164 220 258 311 380
#     4  10  21  39  60  93 122 166 208 256 327 375
#     4   9  22  42  60  89 123 162 212 255 312 374
#     4  11  23  37  65  95 129 164 206 268 318 381
#     4  10  24  40  64  93 123 166 215 259 319 377
#
# _framework density 20.45383
#
# number of rings (size 3 to 8) (size 9 to 14) (size 15 to 20)
#    0.000    1.750    3.750    0.375    7.000    8.000 
#    0.000    0.000    0.000    0.000    0.000    0.000 
#    0.000    0.000    0.000    0.000    0.000    0.000 
#
# Total GULP energy -178458.189254 kJ/mol
# GULP energy per Si atom -5576.818414 kJ/mol
# Density = 2.040728 g / cm^3
# Si number density = 20.453830 Si / 1000 Ang^3
#
#
#
# Elastic Constant Matrix: (Units=GPa)
#
#
# Indices 1 2 3 4 5 6 
#
# 1 106.5379 10.1120 34.3336 0.0000 43.6028 0.0000
# 2 10.1120 81.1906 16.3289 0.0000 20.3030 0.0000
# 3 34.3336 16.3289 111.1500 0.0000 28.5739 0.0000
# 4 0.0000 0.0000 0.0000 10.7991 0.0000 4.2335
# 5 43.6028 20.3030 28.5739 0.0000 36.7916 0.0000
# 6 0.0000 0.0000 0.0000 4.2335 0.0000 17.3673
#
#
#
# Elastic Compliance Matrix: (Units=1/GPa)
#
#
# Indices 1 2 3 4 5 6 
#
# 1 0.019202 0.003828 -0.000126 0.000000 -0.024771 0.000000
# 2 0.003828 0.015052 -0.000115 0.000000 -0.012754 0.000000
# 3 -0.000126 -0.000115 0.011243 0.000000 -0.008519 0.000000
# 4 0.000000 0.000000 0.000000 0.102384 0.000000 -0.024957
# 5 -0.024771 -0.012754 -0.008519 0.000000 0.070192 0.000000
# 6 0.000000 0.000000 0.000000 -0.024957 0.000000 0.063663
#
#
# Mechanical properties :
#
#
# Convention : Reuss Voigt Hill
#
# Bulk Modulus (GPa) = 18.98547 46.71416 32.84981
# Shear Modulus (GPa) = 17.11637 28.86520 22.99079
#
# Velocity S-wave (km/s) = 2.89594 3.76072 3.35630
# Velocity P-wave (km/s) = 4.52595 6.46110 5.57808
#
# Compressibility (1/GPa) = 0.05267186
#
# Stress axis : x y z
#
# Youngs Moduli (GPa) = 52.07884 66.43461 88.94726
#
# Poissons Ratio (x) = -0.25433 0.01117
# Poissons Ratio (y) = -0.19937 0.01024
# Poissons Ratio (z) = 0.00654 0.00765
#
# Static dielectric constant tensor:
#      x y z
#    x 1.748340 0.000000 0.007800 
#    y 0.000000 1.760060 0.000000 
#    z 0.007800 0.000000 1.735970 
# 
# From -- ./inp_files/30722.got.cif
#   From: 2010.05.17/outbox.cif.g08.bks.cpg/sg14_16_cif.got.tgz:30722.got - 2010.06.03 17:49:19.
