data_PCOD9245680
_publ_section_title
;
Structure prediction by ZEFSAII (Michael W. Deem and Ramdas Pophale) SiO2 
 PCOD9245680
Probable space group: P 21/C
;
_chemical_formula_sum "Si O2"
_cell_formula_units_Z 20
_cell_length_a 15.352376
_cell_length_b 9.806878
_cell_length_c 9.315143
_cell_angle_alpha 90.000000
_cell_angle_beta 148.009768
_cell_angle_gamma 90.000000
_cell_volume 742.997057
_symmetry_space_group_name_H-M "P 21/C"
_symmetry_group_IT_number 14
_symmetry_cell_setting 'monoclinic'
loop_
_space_group_symop_operation_xyz
x,y,z
-x,1/2+y,1/2-z
-x,-y,-z
x,1/2-y,1/2+z
loop_
_atom_site_type_symbol
_atom_site_label
_atom_site_fract_x
_atom_site_fract_y
_atom_site_fract_z
Si Si1 0.506939 0.611887 0.681509
Si Si2 0.552759 0.344845 0.086076
Si Si3 0.821907 0.157384 0.367618
Si Si4 0.039667 0.260733 0.906881
Si Si5 0.152780 0.073171 0.289575
O O1 0.560202 0.737731 0.655764
O O2 0.336342 0.558224 0.373603
O O3 0.445287 0.678964 0.742575
O O4 0.662338 0.517258 0.930448
O O5 0.500000 0.500000 0.000000
O O6 0.729732 0.302762 0.268337
O O7 0.935343 0.148884 0.667054
O O8 0.925513 0.164844 0.366676
O O9 0.098030 0.359539 0.862661
O O10 0.175551 0.191835 0.198724
O O11 0.000000 0.000000 0.000000
#
# Coordination Sequence:
#
# PCOD9245680 Si02
#       5
#     4   4   4   4   4
#     4  10  21  39  63  94 128 167 224 266 319 406
#     4  10  21  38  69  95 129 165 218 278 332 366
#     4   9  18  39  62  87 123 166 211 271 314 373
#     4  10  21  40  62  91 132 165 218 270 320 401
#     4  11  25  42  65  92 137 177 209 270 345 383
#
# _framework density 26.918006999999999
#
# number of rings (size 3 to 8) (size 9 to 14) (size 15 to 20)
#    1.200    0.800    2.000    1.200    5.600    0.000 
#    0.000   10.000    0.000    0.000    0.000    0.000 
#    0.000    0.000    0.000    0.000    0.000    0.000 
#
# Total GULP energy -111661.786860 kJ/mol
# GULP energy per Si atom -5583.089343 kJ/mol
# Density = 2.685674 g / cm^3
# Si number density = 26.918007 Si / 1000 Ang^3
#
#
#
# Elastic Constant Matrix: (Units=GPa)
#
#
# Indices 1 2 3 4 5 6 
#
# 1 167.8557 10.0259 65.2877 0.0000 -47.9049 0.0000
# 2 10.0259 59.1291 14.3987 0.0000 -26.0630 0.0000
# 3 65.2877 14.3987 168.6057 0.0000 -25.6515 0.0000
# 4 0.0000 0.0000 0.0000 48.8499 0.0000 -8.0374
# 5 -47.9049 -26.0630 -25.6515 0.0000 52.1866 0.0000
# 6 0.0000 0.0000 0.0000 -8.0374 0.0000 18.3706
#
#
#
# Elastic Compliance Matrix: (Units=1/GPa)
#
#
# Indices 1 2 3 4 5 6 
#
# 1 0.009237 0.002870 -0.002501 0.000000 0.008683 0.000000
# 2 0.002870 0.022585 -0.000998 0.000000 0.013424 0.000000
# 3 -0.002501 -0.000998 0.007090 0.000000 0.000691 0.000000
# 4 0.000000 0.000000 0.000000 0.022059 0.000000 0.009651
# 5 0.008683 0.013424 0.000691 0.000000 0.034177 0.000000
# 6 0.000000 0.000000 0.000000 0.009651 0.000000 0.058657
#
#
# Mechanical properties :
#
#
# Convention : Reuss Voigt Hill
#
# Bulk Modulus (GPa) = 26.55688 63.89057 45.22373
# Shear Modulus (GPa) = 29.83056 44.27328 37.05192
#
# Velocity S-wave (km/s) = 3.33258 4.05995 3.71411
# Velocity P-wave (km/s) = 4.96944 6.76493 5.93547
#
# Compressibility (1/GPa) = 0.03765502
#
# Stress axis : x y z
#
# Youngs Moduli (GPa) = 108.26169 44.27636 141.05027
#
# Poissons Ratio (x) = -0.12708 0.35273
# Poissons Ratio (y) = -0.31073 0.14075
# Poissons Ratio (z) = 0.27074 0.04418
#
# Static dielectric constant tensor:
#      x y z
#    x 2.106920 0.000000 0.039070 
#    y 0.000000 2.289440 0.000000 
#    z 0.039070 0.000000 2.153980 
# 
# From -- ./inp_files/16035.got.cif
#   From: 2010.05.17/outbox.cif.g08.bks.cpg/sg14_9_cif.got.tgz:16035.got - 2010.06.03 17:49:19.
