data_PCOD9245755
_publ_section_title
;
Structure prediction by ZEFSAII (Michael W. Deem and Ramdas Pophale) SiO2 
 PCOD9245755
Probable space group: P 21/C
;
_chemical_formula_sum "Si O2"
_cell_formula_units_Z 24
_cell_length_a 7.636574
_cell_length_b 13.871184
_cell_length_c 9.231373
_cell_angle_alpha 90.000000
_cell_angle_beta 91.503446
_cell_angle_gamma 90.000000
_cell_volume 977.527231
_symmetry_space_group_name_H-M "P 21/C"
_symmetry_group_IT_number 14
_symmetry_cell_setting 'monoclinic'
loop_
_space_group_symop_operation_xyz
x,y,z
-x,1/2+y,1/2-z
-x,-y,-z
x,1/2-y,1/2+z
loop_
_atom_site_type_symbol
_atom_site_label
_atom_site_fract_x
_atom_site_fract_y
_atom_site_fract_z
Si Si1 0.596495 0.046817 0.727217
Si Si2 0.899762 0.418852 0.701116
Si Si3 0.240508 0.426605 0.531531
Si Si4 0.352737 0.230111 0.498636
Si Si5 0.393750 0.765490 0.734799
Si Si6 0.228059 0.463734 0.049653
O O1 0.651507 0.152690 0.784907
O O2 0.403577 0.042164 0.654717
O O3 0.614447 0.973759 0.861172
O O4 0.720165 0.017327 0.596440
O O5 0.823658 0.491122 0.578137
O O6 0.769910 0.328963 0.720414
O O7 0.904819 0.477373 0.852891
O O8 0.088207 0.393269 0.639708
O O9 0.288032 0.332658 0.439443
O O10 0.448650 0.261149 0.647234
O O11 0.512872 0.191300 0.404809
O O12 0.205153 0.149591 0.513212
#
# Coordination Sequence:
#
# PCOD9245755 Si02
#       6
#     4   4   4   4   4   4
#     4  10  21  39  63  88 117 155 200 249 296 346
#     4  11  24  40  58  87 125 160 197 242 294 356
#     4  11  24  40  60  88 124 160 194 242 301 354
#     4  11  22  38  63  89 116 155 201 249 295 345
#     4  11  22  38  63  90 116 155 204 247 290 348
#     4  10  21  39  61  88 118 151 200 250 294 350
#
# _framework density 24.551745
#
# number of rings (size 3 to 8) (size 9 to 14) (size 15 to 20)
#    0.000    1.333    0.000    8.000    0.000    4.000 
#    0.000    8.333    0.000    0.000    0.000    0.000 
#    0.000    0.000    0.000    0.000    0.000    0.000 
#
# Total GULP energy -134373.397234 kJ/mol
# GULP energy per Si atom -5598.891551 kJ/mol
# Density = 2.449586 g / cm^3
# Si number density = 24.551745 Si / 1000 Ang^3
#
#
#
# Elastic Constant Matrix: (Units=GPa)
#
#
# Indices 1 2 3 4 5 6 
#
# 1 66.3529 32.8016 5.0289 0.0000 -23.4515 0.0000
# 2 32.8016 133.6578 12.6366 0.0000 -25.5016 0.0000
# 3 5.0289 12.6366 99.7567 0.0000 -27.8125 0.0000
# 4 0.0000 0.0000 0.0000 36.4361 0.0000 -8.7278
# 5 -23.4515 -25.5016 -27.8125 0.0000 31.5086 0.0000
# 6 0.0000 0.0000 0.0000 -8.7278 0.0000 27.7519
#
#
#
# Elastic Compliance Matrix: (Units=1/GPa)
#
#
# Indices 1 2 3 4 5 6 
#
# 1 0.022526 -0.002372 0.004382 0.000000 0.018714 0.000000
# 2 -0.002372 0.009201 0.000714 0.000000 0.006311 0.000000
# 3 0.004382 0.000714 0.014304 0.000000 0.016465 0.000000
# 4 0.000000 0.000000 0.000000 0.029681 0.000000 0.009335
# 5 0.018714 0.006311 0.016465 0.000000 0.065308 0.000000
# 6 0.000000 0.000000 0.000000 0.009335 0.000000 0.038969
#
#
# Mechanical properties :
#
#
# Convention : Reuss Voigt Hill
#
# Bulk Modulus (GPa) = 19.42562 44.52241 31.97401
# Shear Modulus (GPa) = 26.08257 35.75933 30.92095
#
# Velocity S-wave (km/s) = 3.26291 3.82054 3.55268
# Velocity P-wave (km/s) = 4.70369 6.13478 5.46627
#
# Compressibility (1/GPa) = 0.05147841
#
# Stress axis : x y z
#
# Youngs Moduli (GPa) = 44.39399 108.68913 69.91256
#
# Poissons Ratio (x) = 0.25779 -0.30639
# Poissons Ratio (y) = 0.10529 -0.04989
# Poissons Ratio (z) = -0.19456 -0.07757
#
# Static dielectric constant tensor:
#      x y z
#    x 1.966400 0.000000 0.011390 
#    y 0.000000 2.014990 0.000000 
#    z 0.011390 0.000000 1.936860 
# 
# From -- ./inp_files/8440.got.cif
#   From: 2010.05.17/outbox.cif.g08.bks.cpg/sg14_5_cif.got.tgz:8440.got - 2010.06.03 17:49:19.
