data_PCOD9245535
_publ_section_title
;
Structure prediction by ZEFSAII (Michael W. Deem and Ramdas Pophale) SiO2 
 PCOD9245535
Probable space group: P 21/C
;
_chemical_formula_sum "Si O2"
_cell_formula_units_Z 28
_cell_length_a 4.820368
_cell_length_b 29.235799
_cell_length_c 7.925750
_cell_angle_alpha 90.000000
_cell_angle_beta 73.412415
_cell_angle_gamma 90.000000
_cell_volume 1070.471952
_symmetry_space_group_name_H-M "P 21/C"
_symmetry_group_IT_number 14
_symmetry_cell_setting 'monoclinic'
loop_
_space_group_symop_operation_xyz
x,y,z
-x,1/2+y,1/2-z
-x,-y,-z
x,1/2-y,1/2+z
loop_
_atom_site_type_symbol
_atom_site_label
_atom_site_fract_x
_atom_site_fract_y
_atom_site_fract_z
Si Si1 0.285085 0.620894 0.258936
Si Si2 0.875573 0.762150 0.759033
Si Si3 0.519986 0.294101 0.959711
Si Si4 0.655657 0.959988 0.579820
Si Si5 0.742914 0.582092 0.729637
Si Si6 0.707135 0.848097 0.966178
Si Si7 0.256952 0.523157 0.656707
O O1 0.362461 0.654840 0.089420
O O2 0.422774 0.571792 0.212658
O O3 0.941780 0.620924 0.327369
O O4 0.412868 0.643586 0.411192
O O5 0.655285 0.721413 0.844807
O O6 0.728078 0.789980 0.635915
O O7 0.211740 0.760705 0.644572
O O8 0.830928 0.796877 0.925709
O O9 0.794478 0.925742 0.418988
O O10 0.500000 0.000000 0.500000
O O11 0.843207 0.985417 0.689284
O O12 0.437725 0.560929 0.728659
O O13 0.728459 0.631617 0.649282
O O14 0.996631 0.549358 0.611336
O O15 0.500000 0.500000 0.500000
#
# Coordination Sequence:
#
# PCOD9245535 Si02
#       7
#     4   4   4   4   4   4   4
#     4  10  22  40  60  83 119 159 197 238 297 360
#     4  10  21  38  62  92 124 158 201 246 302 364
#     4  10  21  39  63  91 122 161 199 249 303 363
#     4  10  23  39  57  86 118 151 198 253 299 348
#     4  11  22  36  55  82 110 143 189 240 287 333
#     4  10  21  39  60  84 116 157 199 238 289 364
#     4  11  22  37  57  78 108 149 191 234 290 350
#
# _framework density 26.156690000000001
#
# number of rings (size 3 to 8) (size 9 to 14) (size 15 to 20)
#    0.000    1.714    0.000    4.286    0.000    6.857 
#    0.000    1.429    0.000    0.000    0.000    0.000 
#    0.000    0.000    0.000    0.000    0.000    0.000 
#
# Total GULP energy -156461.306242 kJ/mol
# GULP energy per Si atom -5587.903794 kJ/mol
# Density = 2.609716 g / cm^3
# Si number density = 26.156690 Si / 1000 Ang^3
#
#
#
# Elastic Constant Matrix: (Units=GPa)
#
#
# Indices 1 2 3 4 5 6 
#
# 1 129.5145 7.8544 6.0649 0.0000 -22.3493 0.0000
# 2 7.8544 88.5101 21.2041 0.0000 -1.8699 0.0000
# 3 6.0649 21.2041 75.0568 0.0000 -18.0880 0.0000
# 4 0.0000 0.0000 0.0000 48.9531 0.0000 0.9419
# 5 -22.3493 -1.8699 -18.0880 0.0000 28.7700 0.0000
# 6 0.0000 0.0000 0.0000 0.9419 0.0000 25.7770
#
#
#
# Elastic Compliance Matrix: (Units=1/GPa)
#
#
# Indices 1 2 3 4 5 6 
#
# 1 0.009076 -0.000985 0.001448 0.000000 0.007897 0.000000
# 2 -0.000985 0.012289 -0.003988 0.000000 -0.002474 0.000000
# 3 0.001448 -0.003988 0.017138 0.000000 0.011641 0.000000
# 4 0.000000 0.000000 0.000000 0.020442 0.000000 -0.000747
# 5 0.007897 -0.002474 0.011641 0.000000 0.048050 0.000000
# 6 0.000000 0.000000 0.000000 -0.000747 0.000000 0.038822
#
#
# Mechanical properties :
#
#
# Convention : Reuss Voigt Hill
#
# Bulk Modulus (GPa) = 31.79515 40.36979 36.08247
# Shear Modulus (GPa) = 30.60871 37.89723 34.25297
#
# Velocity S-wave (km/s) = 3.42454 3.81051 3.62267
# Velocity P-wave (km/s) = 5.27434 5.90147 5.59669
#
# Compressibility (1/GPa) = 0.03145134
#
# Stress axis : x y z
#
# Youngs Moduli (GPa) = 110.18372 81.37490 58.34893
#
# Poissons Ratio (x) = 0.08019 -0.08449
# Poissons Ratio (y) = 0.10858 0.23272
# Poissons Ratio (z) = -0.15955 0.32455
#
# Static dielectric constant tensor:
#      x y z
#    x 1.951700 0.000000 -0.015490 
#    y 0.000000 2.156580 0.000000 
#    z -0.015490 0.000000 2.238120 
# 
# From -- ./inp_files/6895.got.cif
#   From: 2010.05.17/outbox.cif.g08.bks.cpg/sg14_4_cif.got.tgz:6895.got - 2010.06.03 17:49:19.
