data_PCOD9245088
_publ_section_title
;
Structure prediction by ZEFSAII (Michael W. Deem and Ramdas Pophale) SiO2 
 PCOD9245088
Probable space group: P 21/C
;
_chemical_formula_sum "Si O2"
_cell_formula_units_Z 32
_cell_length_a 17.716896
_cell_length_b 12.017691
_cell_length_c 14.358890
_cell_angle_alpha 90.000000
_cell_angle_beta 149.465539
_cell_angle_gamma 90.000000
_cell_volume 1553.250684
_symmetry_space_group_name_H-M "P 21/C"
_symmetry_group_IT_number 14
_symmetry_cell_setting 'monoclinic'
loop_
_space_group_symop_operation_xyz
x,y,z
-x,1/2+y,1/2-z
-x,-y,-z
x,1/2-y,1/2+z
loop_
_atom_site_type_symbol
_atom_site_label
_atom_site_fract_x
_atom_site_fract_y
_atom_site_fract_z
Si Si1 0.577635 0.763003 0.206260
Si Si2 0.914816 0.769742 0.092758
Si Si3 0.595764 0.019264 0.192753
Si Si4 0.492861 0.250539 0.668121
Si Si5 0.154331 0.268703 0.267059
Si Si6 0.931241 0.119319 0.909394
Si Si7 0.408595 0.885269 0.385551
Si Si8 0.878687 0.937222 0.429102
O O1 0.741656 0.708406 0.381473
O O2 0.594431 0.895815 0.234978
O O3 0.485437 0.734702 0.199371
O O4 0.494748 0.715275 0.029183
O O5 0.915438 0.790778 0.204290
O O6 0.029350 0.841769 0.153854
O O7 0.933500 0.643481 0.071049
O O8 0.767594 0.030165 0.349094
O O9 0.533428 0.127237 0.174799
O O10 0.500000 0.000000 0.000000
O O11 0.318156 0.220690 0.464975
O O12 0.586314 0.154443 0.716393
O O13 0.193445 0.361531 0.229839
O O14 0.029477 0.198712 0.080412
O O15 0.758074 0.113934 0.751766
O O16 0.000000 0.000000 0.000000
O O17 0.500000 0.000000 0.500000
O O18 0.000000 0.000000 0.500000
#
# Coordination Sequence:
#
# PCOD9245088 Si02
#       8
#     4   4   4   4   4   4   4   4
#     4  10  23  42  64  95 128 162 217 264 319 388
#     4   9  21  41  62  88 123 164 206 260 318 375
#     4  11  20  39  65  91 124 167 202 264 326 372
#     4  11  23  41  67  95 128 165 212 268 322 385
#     4  10  21  41  63  88 123 167 206 259 319 375
#     4  11  24  42  63  86 125 170 210 258 318 380
#     4  12  25  42  64  93 130 170 216 268 320 384
#     4  10  21  36  60  89 124 159 205 259 311 383
#
# _framework density 20.601953000000002
#
# number of rings (size 3 to 8) (size 9 to 14) (size 15 to 20)
#    0.000    1.500    2.500    3.000    5.250    2.000 
#    2.250    0.000    0.000    0.000    0.000    0.000 
#    0.000    0.000    0.000    0.000    0.000    0.000 
#
# Total GULP energy -178284.601548 kJ/mol
# GULP energy per Si atom -5571.393798 kJ/mol
# Density = 2.055506 g / cm^3
# Si number density = 20.601953 Si / 1000 Ang^3
#
#
#
# Elastic Constant Matrix: (Units=GPa)
#
#
# Indices 1 2 3 4 5 6 
#
# 1 135.9600 27.8103 18.9733 0.0000 16.4125 0.0000
# 2 27.8103 52.7997 11.7242 0.0000 22.2938 0.0000
# 3 18.9733 11.7242 41.1066 0.0000 17.3005 0.0000
# 4 0.0000 0.0000 0.0000 21.1061 0.0000 11.2616
# 5 16.4125 22.2938 17.3005 0.0000 38.3862 0.0000
# 6 0.0000 0.0000 0.0000 11.2616 0.0000 31.1151
#
#
#
# Elastic Compliance Matrix: (Units=1/GPa)
#
#
# Indices 1 2 3 4 5 6 
#
# 1 0.008544 -0.003802 -0.002778 0.000000 -0.000193 0.000000
# 2 -0.003802 0.026838 -0.000030 0.000000 -0.013948 0.000000
# 3 -0.002778 -0.000030 0.030989 0.000000 -0.012761 0.000000
# 4 0.000000 0.000000 0.000000 0.058719 0.000000 -0.021253
# 5 -0.000193 -0.013948 -0.012761 0.000000 0.039986 0.000000
# 6 0.000000 0.000000 0.000000 -0.021253 0.000000 0.039831
#
#
# Mechanical properties :
#
#
# Convention : Reuss Voigt Hill
#
# Bulk Modulus (GPa) = 18.81413 38.54245 28.67829
# Shear Modulus (GPa) = 21.20069 29.54539 25.37304
#
# Velocity S-wave (km/s) = 3.21138 3.79107 3.51320
# Velocity P-wave (km/s) = 4.78567 6.15725 5.51427
#
# Compressibility (1/GPa) = 0.05315155
#
# Stress axis : x y z
#
# Youngs Moduli (GPa) = 117.04529 37.26096 32.27002
#
# Poissons Ratio (x) = 0.14166 0.08964
# Poissons Ratio (y) = 0.44498 0.00095
# Poissons Ratio (z) = 0.32514 0.00110
#
# Static dielectric constant tensor:
#      x y z
#    x 1.753100 0.000000 -0.014570 
#    y 0.000000 1.469890 0.000000 
#    z -0.014570 0.000000 1.840290 
# 
# From -- ./inp_files/48941.got.cif
#   From: 2010.05.17/outbox.cif.g08.bks.cpg/sg14_25_cif.got.tgz:48941.got - 2010.06.03 17:49:19.
