data_PCOD9245744
_publ_section_title
;
Structure prediction by ZEFSAII (Michael W. Deem and Ramdas Pophale) SiO2 
 PCOD9245744
Probable space group: P 21/C
;
_chemical_formula_sum "Si O2"
_cell_formula_units_Z 24
_cell_length_a 19.095861
_cell_length_b 6.987218
_cell_length_c 16.883118
_cell_angle_alpha 90.000000
_cell_angle_beta 22.608740
_cell_angle_gamma 90.000000
_cell_volume 866.005019
_symmetry_space_group_name_H-M "P 21/C"
_symmetry_group_IT_number 14
_symmetry_cell_setting 'monoclinic'
loop_
_space_group_symop_operation_xyz
x,y,z
-x,1/2+y,1/2-z
-x,-y,-z
x,1/2-y,1/2+z
loop_
_atom_site_type_symbol
_atom_site_label
_atom_site_fract_x
_atom_site_fract_y
_atom_site_fract_z
Si Si1 0.135285 0.674056 0.800933
Si Si2 0.759796 0.256976 0.970268
Si Si3 0.227311 0.243231 0.878093
Si Si4 0.401254 0.183080 0.033421
Si Si5 0.341159 0.312279 0.428489
Si Si6 0.823784 0.289244 0.569528
O O1 0.183553 0.812691 0.677340
O O2 0.299703 0.523130 0.636805
O O3 0.091164 0.758062 0.932915
O O4 0.935015 0.615045 0.978838
O O5 0.558181 0.335848 0.193059
O O6 0.883018 0.285107 0.920063
O O7 0.739776 0.025640 0.986497
O O8 0.363799 0.245355 0.661080
O O9 0.284015 0.294433 0.908043
O O10 0.181714 0.018953 0.931515
O O11 0.314679 0.275429 0.043813
O O12 0.616923 0.206261 0.795128
#
# Coordination Sequence:
#
# PCOD9245744 Si02
#       6
#     4   4   4   4   4   4
#     4  11  22  37  58  89 124 157 198 259 324 376
#     4   9  20  38  58  82 113 155 207 252 301 369
#     4  11  22  37  58  89 124 157 198 259 324 376
#     4  10  21  39  61  85 117 162 212 257 302 373
#     4   9  20  38  58  82 113 155 207 252 301 369
#     4  10  21  39  61  85 117 162 212 257 302 373
#
# _framework density 27.713463999999998
#
# number of rings (size 3 to 8) (size 9 to 14) (size 15 to 20)
#    0.000    2.000    0.000    3.000    0.000    6.667 
#    0.000    8.333    0.000    0.000    0.000    0.000 
#    0.000    0.000    0.000    0.000    0.000    0.000 
#
# Total GULP energy -134032.276616 kJ/mol
# GULP energy per Si atom -5584.678192 kJ/mol
# Density = 2.765039 g / cm^3
# Si number density = 27.713464 Si / 1000 Ang^3
#
#
#
# Elastic Constant Matrix: (Units=GPa)
#
#
# Indices 1 2 3 4 5 6 
#
# 1 263.5630 59.6793 23.9155 0.0000 47.6617 0.0000
# 2 59.6793 71.3157 41.8928 0.0000 16.7255 0.0000
# 3 23.9155 41.8928 80.9369 0.0000 12.4129 0.0000
# 4 0.0000 0.0000 0.0000 21.9685 0.0000 0.8512
# 5 47.6617 16.7255 12.4129 0.0000 55.7910 0.0000
# 6 0.0000 0.0000 0.0000 0.8512 0.0000 28.1553
#
#
#
# Elastic Compliance Matrix: (Units=1/GPa)
#
#
# Indices 1 2 3 4 5 6 
#
# 1 0.005295 -0.004321 0.001208 0.000000 -0.003497 0.000000
# 2 -0.004321 0.024506 -0.011230 0.000000 -0.001157 0.000000
# 3 0.001208 -0.011230 0.018070 0.000000 -0.001686 0.000000
# 4 0.000000 0.000000 0.000000 0.045573 0.000000 -0.001378
# 5 -0.003497 -0.001157 -0.001686 0.000000 0.021634 0.000000
# 6 0.000000 0.000000 0.000000 -0.001378 0.000000 0.035559
#
#
# Mechanical properties :
#
#
# Convention : Reuss Voigt Hill
#
# Bulk Modulus (GPa) = 52.12319 74.08785 63.10552
# Shear Modulus (GPa) = 26.92260 40.53817 33.73038
#
# Velocity S-wave (km/s) = 3.12021 3.82875 3.49250
# Velocity P-wave (km/s) = 5.64178 6.80716 6.25168
#
# Compressibility (1/GPa) = 0.01918532
#
# Stress axis : x y z
#
# Youngs Moduli (GPa) = 188.84580 40.80600 55.34161
#
# Poissons Ratio (x) = 0.17631 -0.06686
# Poissons Ratio (y) = 0.81596 0.62150
# Poissons Ratio (z) = -0.22814 0.45826
#
# Static dielectric constant tensor:
#      x y z
#    x 2.190010 0.000000 0.012920 
#    y 0.000000 2.208850 0.000000 
#    z 0.012920 0.000000 2.218350 
# 
# From -- ./inp_files/48482.got.cif
#   From: 2010.05.17/outbox.cif.g08.bks.cpg/sg14_25_cif.got.tgz:48482.got - 2010.06.03 17:49:19.
