data_PCOD9245875
_publ_section_title
;
Structure prediction by ZEFSAII (Michael W. Deem and Ramdas Pophale) SiO2 
 PCOD9245875
Probable space group: P 21/C
;
_chemical_formula_sum "Si O2"
_cell_formula_units_Z 30
_cell_length_a 19.895496
_cell_length_b 5.067575
_cell_length_c 12.157974
_cell_angle_alpha 90.000000
_cell_angle_beta 113.197551
_cell_angle_gamma 90.000000
_cell_volume 1126.687785
_symmetry_space_group_name_H-M "P 21/C"
_symmetry_group_IT_number 14
_symmetry_cell_setting 'monoclinic'
loop_
_space_group_symop_operation_xyz
x,y,z
-x,1/2+y,1/2-z
-x,-y,-z
x,1/2-y,1/2+z
loop_
_atom_site_type_symbol
_atom_site_label
_atom_site_fract_x
_atom_site_fract_y
_atom_site_fract_z
Si Si1 0.715535 0.414030 0.968215
Si Si2 0.173360 0.916264 0.868100
Si Si3 0.000000 0.500000 0.000000
Si Si4 0.253191 0.310209 0.776112
Si Si5 0.965739 0.119318 0.776591
Si Si6 0.430404 0.734578 0.055343
Si Si7 0.844637 0.744341 0.950790
Si Si8 0.412482 0.265655 0.385130
O O1 0.772151 0.571785 0.930148
O O2 0.755427 0.139432 0.013196
O O3 0.726303 0.543131 0.096943
O O4 0.630705 0.345331 0.894178
O O5 0.118234 0.676255 0.811943
O O6 0.208172 0.052562 0.785525
O O7 0.131226 0.114774 0.921322
O O8 0.979121 0.251733 0.902115
O O9 0.913375 0.582319 0.953828
O O10 0.191225 0.443703 0.661266
O O11 0.333824 0.262869 0.778150
O O12 0.009049 0.314430 0.716880
O O13 0.426375 0.491094 0.968420
O O14 0.408662 0.988998 0.967809
O O15 0.514703 0.784655 0.142940
#
# Coordination Sequence:
#
# PCOD9245875 Si02
#       8
#     4   4   2   4   4   4   4   4
#     4  10  22  40  62  92 131 172 218 275 334 393
#     4  11  22  41  64  90 128 168 209 273 331 389
#     4  12  24  46  68 100 130 184 224 284 348 406
#     4  10  21  39  64  91 128 170 219 268 327 395
#     4  12  27  47  69  96 133 170 223 280 334 403
#     4   9  17  33  63  92 128 167 216 263 325 390
#     4  11  24  42  62  95 129 172 224 276 339 404
#     4   9  17  33  61  96 123 169 217 262 320 398
#
# _framework density 26.626716999999999
#
# number of rings (size 3 to 8) (size 9 to 14) (size 15 to 20)
#    0.000    1.600    4.000    0.800    1.867    1.600 
#    4.800    0.000    2.933    0.000    0.000    0.000 
#    0.000    0.000    0.000    0.000    0.000    0.000 
#
# Total GULP energy -167108.764388 kJ/mol
# GULP energy per Si atom -5570.292146 kJ/mol
# Density = 2.656611 g / cm^3
# Si number density = 26.626717 Si / 1000 Ang^3
#
#
#
# Elastic Constant Matrix: (Units=GPa)
#
#
# Indices 1 2 3 4 5 6 
#
# 1 223.3821 25.1883 53.8842 0.0000 40.5210 0.0000
# 2 25.1883 97.7286 1.7332 0.0000 -2.2550 0.0000
# 3 53.8842 1.7332 66.9634 0.0000 26.3666 0.0000
# 4 0.0000 0.0000 0.0000 17.4149 0.0000 1.0565
# 5 40.5210 -2.2550 26.3666 0.0000 47.0368 0.0000
# 6 0.0000 0.0000 0.0000 1.0565 0.0000 42.5566
#
#
#
# Elastic Compliance Matrix: (Units=1/GPa)
#
#
# Indices 1 2 3 4 5 6 
#
# 1 0.006125 -0.001593 -0.003567 0.000000 -0.003353 0.000000
# 2 -0.001593 0.010676 0.000338 0.000000 0.001694 0.000000
# 3 -0.003567 0.000338 0.021274 0.000000 -0.008836 0.000000
# 4 0.000000 0.000000 0.000000 0.057509 0.000000 -0.001428
# 5 -0.003353 0.001694 -0.008836 0.000000 0.029183 0.000000
# 6 0.000000 0.000000 0.000000 -0.001428 0.000000 0.023534
#
#
# Mechanical properties :
#
#
# Convention : Reuss Voigt Hill
#
# Bulk Modulus (GPa) = 35.17151 61.07618 48.12384
# Shear Modulus (GPa) = 29.86478 41.88622 35.87550
#
# Velocity S-wave (km/s) = 3.35268 3.97052 3.67461
# Velocity P-wave (km/s) = 5.31272 6.63384 6.00969
#
# Compressibility (1/GPa) = 0.02843210
#
# Stress axis : x y z
#
# Youngs Moduli (GPa) = 163.26635 93.66786 47.00494
#
# Poissons Ratio (x) = 0.14919 0.16767
# Poissons Ratio (y) = 0.26004 -0.01590
# Poissons Ratio (z) = 0.58238 -0.03168
#
# Static dielectric constant tensor:
#      x y z
#    x 2.178710 0.000000 -0.114150 
#    y 0.000000 2.150380 0.000000 
#    z -0.114150 0.000000 2.259390 
# 
# From -- ./inp_files/34713.got.cif
#   From: 2010.05.17/outbox.cif.g08.bks.cpg/sg14_18_cif.got.tgz:34713.got - 2010.06.03 17:49:19.
