data_PCOD9245806
_publ_section_title
;
Structure prediction by ZEFSAII (Michael W. Deem and Ramdas Pophale) SiO2 
 PCOD9245806
Probable space group: P 21/C
;
_chemical_formula_sum "Si O2"
_cell_formula_units_Z 32
_cell_length_a 7.761829
_cell_length_b 23.673281
_cell_length_c 13.567504
_cell_angle_alpha 90.000000
_cell_angle_beta 146.041321
_cell_angle_gamma 90.000000
_cell_volume 1392.577655
_symmetry_space_group_name_H-M "P 21/C"
_symmetry_group_IT_number 14
_symmetry_cell_setting 'monoclinic'
loop_
_space_group_symop_operation_xyz
x,y,z
-x,1/2+y,1/2-z
-x,-y,-z
x,1/2-y,1/2+z
loop_
_atom_site_type_symbol
_atom_site_label
_atom_site_fract_x
_atom_site_fract_y
_atom_site_fract_z
Si Si1 0.082250 0.422744 0.325100
Si Si2 0.597112 0.609791 0.932814
Si Si3 0.427522 0.307247 0.442499
Si Si4 0.283711 0.991499 0.496464
Si Si5 0.716063 0.543945 0.384549
Si Si6 0.804842 0.678255 0.402855
Si Si7 0.470363 0.789226 0.242805
Si Si8 0.120923 0.190476 0.293633
O O1 0.231201 0.362512 0.372064
O O2 0.301993 0.458334 0.503651
O O3 0.757449 0.411046 0.229249
O O4 0.987791 0.453697 0.178302
O O5 0.680792 0.638029 0.075588
O O6 0.806799 0.555143 0.016655
O O7 0.652809 0.660888 0.884326
O O8 0.473989 0.300000 0.346747
O O9 0.763251 0.314084 0.649450
O O10 0.264573 0.249324 0.396464
O O11 0.466472 0.969572 0.679850
O O12 0.500000 0.000000 0.500000
O O13 0.000000 0.500000 0.500000
O O14 0.759870 0.611817 0.394402
O O15 0.118281 0.698397 0.602394
O O16 0.860282 0.688489 0.314208
O O17 0.548967 0.724856 0.305603
#
# Coordination Sequence:
#
# PCOD9245806 Si02
#       8
#     4   4   4   4   4   4   4   4
#     4  11  23  41  69  98 130 172 224 275 323 393
#     4  11  21  40  66  95 124 172 219 276 319 398
#     4  10  23  44  60  98 130 173 209 274 341 404
#     4  10  21  39  65  98 130 171 225 270 324 391
#     4  12  21  38  68  98 127 174 232 271 319 397
#     4  10  21  39  62  94 122 170 212 270 327 392
#     4  10  22  40  62  91 131 163 211 269 333 393
#     4  10  22  38  68  85 135 167 213 264 342 396
#
# _framework density 22.978968999999999
#
# number of rings (size 3 to 8) (size 9 to 14) (size 15 to 20)
#    0.000    1.500    3.750    2.250    1.750    5.000 
#    2.250    1.250    0.000    0.000    0.000    0.000 
#    0.000    0.000    0.000    0.000    0.000    0.000 
#
# Total GULP energy -178535.845511 kJ/mol
# GULP energy per Si atom -5579.245172 kJ/mol
# Density = 2.292667 g / cm^3
# Si number density = 22.978969 Si / 1000 Ang^3
#
#
#
# Elastic Constant Matrix: (Units=GPa)
#
#
# Indices 1 2 3 4 5 6 
#
# 1 51.5970 11.5817 20.5477 0.0000 -18.4193 0.0000
# 2 11.5817 127.5523 46.3893 0.0000 -16.7277 0.0000
# 3 20.5477 46.3893 111.2067 0.0000 -30.8326 0.0000
# 4 0.0000 0.0000 0.0000 38.1266 0.0000 -7.2265
# 5 -18.4193 -16.7277 -30.8326 0.0000 20.5120 0.0000
# 6 0.0000 0.0000 0.0000 -7.2265 0.0000 23.8349
#
#
#
# Elastic Compliance Matrix: (Units=1/GPa)
#
#
# Indices 1 2 3 4 5 6 
#
# 1 0.029189 0.000300 0.003114 0.000000 0.031137 0.000000
# 2 0.000300 0.009353 -0.003031 0.000000 0.003342 0.000000
# 3 0.003114 -0.003031 0.016753 0.000000 0.025508 0.000000
# 4 0.000000 0.000000 0.000000 0.027828 0.000000 0.008437
# 5 0.031137 0.003342 0.025508 0.000000 0.117780 0.000000
# 6 0.000000 0.000000 0.000000 0.008437 0.000000 0.044513
#
#
# Mechanical properties :
#
#
# Convention : Reuss Voigt Hill
#
# Bulk Modulus (GPa) = 17.83682 49.71036 33.77359
# Shear Modulus (GPa) = 18.98720 30.61717 24.80219
#
# Velocity S-wave (km/s) = 2.87764 3.65416 3.28890
# Velocity P-wave (km/s) = 4.33822 6.28362 5.39926
#
# Compressibility (1/GPa) = 0.05606380
#
# Stress axis : x y z
#
# Youngs Moduli (GPa) = 34.25970 106.91653 59.69034
#
# Poissons Ratio (x) = -0.03213 -0.18590
# Poissons Ratio (y) = -0.01029 0.18089
# Poissons Ratio (z) = -0.10670 0.32401
#
# Static dielectric constant tensor:
#      x y z
#    x 1.896410 0.000000 -0.019680 
#    y 0.000000 1.850210 0.000000 
#    z -0.019680 0.000000 1.932000 
# 
# From -- ./inp_files/42253.got.cif
#   From: 2010.05.17/outbox.cif.g08.bks.cpg/sg14_22_cif.got.tgz:42253.got - 2010.06.03 17:49:19.
