data_PCOD9245267
_publ_section_title
;
Structure prediction by ZEFSAII (Michael W. Deem and Ramdas Pophale) SiO2 
 PCOD9245267
Probable space group: P 21/C
;
_chemical_formula_sum "Si O2"
_cell_formula_units_Z 30
_cell_length_a 14.792788
_cell_length_b 8.169946
_cell_length_c 12.848259
_cell_angle_alpha 90.000000
_cell_angle_beta 110.210329
_cell_angle_gamma 90.000000
_cell_volume 1457.188503
_symmetry_space_group_name_H-M "P 21/C"
_symmetry_group_IT_number 14
_symmetry_cell_setting 'monoclinic'
loop_
_space_group_symop_operation_xyz
x,y,z
-x,1/2+y,1/2-z
-x,-y,-z
x,1/2-y,1/2+z
loop_
_atom_site_type_symbol
_atom_site_label
_atom_site_fract_x
_atom_site_fract_y
_atom_site_fract_z
Si Si1 0.385133 0.966674 0.623420
Si Si2 0.603270 0.970428 0.989257
Si Si3 0.927815 0.372582 0.418999
Si Si4 0.305688 0.146006 0.392694
Si Si5 0.758246 0.283020 0.481601
Si Si6 0.419807 0.308155 0.742959
Si Si7 0.000000 0.000000 0.500000
Si Si8 0.884168 0.449039 0.164677
O O1 0.288455 0.863663 0.605271
O O2 0.476449 0.847550 0.666698
O O3 0.367294 0.041692 0.501388
O O4 0.401333 0.118255 0.708008
O O5 0.584474 0.899926 0.867586
O O6 0.669944 0.127149 0.001550
O O7 0.665936 0.832937 0.072986
O O8 0.500000 0.000000 0.000000
O O9 0.823328 0.392662 0.432569
O O10 0.922388 0.409772 0.294275
O O11 0.000000 0.500000 0.500000
O O12 0.960113 0.188013 0.458994
O O13 0.341803 0.118228 0.290524
O O14 0.194867 0.096126 0.361983
O O15 0.823289 0.204716 0.597188
O O16 0.038284 0.984843 0.393310
#
# Coordination Sequence:
#
# PCOD9245267 Si02
#       8
#     4   4   4   4   4   4   2   4
#     4  10  21  37  60  90 137 175 231 275 339 397
#     4  11  23  39  63  99 137 183 232 271 333 406
#     4  11  26  48  77 106 135 188 234 296 375 434
#     4  10  22  39  61  97 130 178 231 283 339 413
#     4  10  23  44  63  97 137 173 231 288 338 428
#     4  11  21  36  61  92 132 187 223 278 326 393
#     4  10  26  48  72 108 144 174 242 294 356 450
#     4  10  24  46  70 102 140 182 226 299 364 415
#
# _framework density 20.587591
#
# number of rings (size 3 to 8) (size 9 to 14) (size 15 to 20)
#    0.000    1.600    0.000    3.600    5.600    5.333 
#    7.200    0.000    0.000    0.000    0.000    0.000 
#    0.000    0.000    0.000    0.000    0.000    0.000 
#
# Total GULP energy -167038.504488 kJ/mol
# GULP energy per Si atom -5567.950150 kJ/mol
# Density = 2.054073 g / cm^3
# Si number density = 20.587591 Si / 1000 Ang^3
#
#
#
# Elastic Constant Matrix: (Units=GPa)
#
#
# Indices 1 2 3 4 5 6 
#
# 1 91.9851 47.0928 62.2031 0.0000 -25.7406 0.0000
# 2 47.0928 76.1578 52.3163 0.0000 6.3490 0.0000
# 3 62.2031 52.3163 124.7351 0.0000 -14.4691 0.0000
# 4 0.0000 0.0000 0.0000 11.4264 0.0000 0.1387
# 5 -25.7406 6.3490 -14.4691 0.0000 35.2186 0.0000
# 6 0.0000 0.0000 0.0000 0.1387 0.0000 39.0855
#
#
#
# Elastic Compliance Matrix: (Units=1/GPa)
#
#
# Indices 1 2 3 4 5 6 
#
# 1 0.028500 -0.016004 -0.004987 0.000000 0.021666 0.000000
# 2 -0.016004 0.029141 -0.006518 0.000000 -0.019628 0.000000
# 3 -0.004987 -0.006518 0.013599 0.000000 0.003117 0.000000
# 4 0.000000 0.000000 0.000000 0.087520 0.000000 -0.000311
# 5 0.021666 -0.019628 0.003117 0.000000 0.049049 0.000000
# 6 0.000000 0.000000 0.000000 -0.000311 0.000000 0.025586
#
#
# Mechanical properties :
#
#
# Convention : Reuss Voigt Hill
#
# Bulk Modulus (GPa) = 61.64354 68.45584 65.04969
# Shear Modulus (GPa) = 17.01726 25.89715 21.45721
#
# Velocity S-wave (km/s) = 2.87815 3.55054 3.23188
# Velocity P-wave (km/s) = 6.40719 7.08037 6.75217
#
# Compressibility (1/GPa) = 0.01622230
#
# Stress axis : x y z
#
# Youngs Moduli (GPa) = 35.08803 34.31642 73.53313
#
# Poissons Ratio (x) = 0.54919 0.36670
# Poissons Ratio (y) = 0.56153 0.47930
# Poissons Ratio (z) = 0.17498 0.22368
#
# Static dielectric constant tensor:
#      x y z
#    x 1.737270 0.000000 0.012970 
#    y 0.000000 1.777200 0.000000 
#    z 0.012970 0.000000 1.734160 
# 
# From -- ./inp_files/31629.got.cif
#   From: 2010.05.17/outbox.cif.g08.bks.cpg/sg14_16_cif.got.tgz:31629.got - 2010.06.03 17:49:19.
