data_PCOD9245831
_publ_section_title
;
Structure prediction by ZEFSAII (Michael W. Deem and Ramdas Pophale) SiO2 
 PCOD9245831
Probable space group: P 21/C
;
_chemical_formula_sum "Si O2"
_cell_formula_units_Z 24
_cell_length_a 15.088394
_cell_length_b 12.090231
_cell_length_c 21.593394
_cell_angle_alpha 90.000000
_cell_angle_beta 19.459644
_cell_angle_gamma 90.000000
_cell_volume 1312.287514
_symmetry_space_group_name_H-M "P 21/C"
_symmetry_group_IT_number 14
_symmetry_cell_setting 'monoclinic'
loop_
_space_group_symop_operation_xyz
x,y,z
-x,1/2+y,1/2-z
-x,-y,-z
x,1/2-y,1/2+z
loop_
_atom_site_type_symbol
_atom_site_label
_atom_site_fract_x
_atom_site_fract_y
_atom_site_fract_z
Si Si1 0.385598 0.330665 0.092484
Si Si2 0.026733 0.330655 0.451346
Si Si3 0.918598 0.461253 0.755089
Si Si4 0.890189 0.419111 0.019774
Si Si5 0.723847 0.961251 0.102460
Si Si6 0.249647 0.080895 0.160312
O O1 0.245851 0.335721 0.252074
O O2 0.232023 0.420944 0.151860
O O3 0.349426 0.207567 0.091143
O O4 0.688888 0.369441 0.898939
O O5 0.162405 0.369451 0.425414
O O6 0.912835 0.207570 0.527727
O O7 0.803531 0.420948 0.580359
O O8 0.123142 0.453733 0.563430
O O9 0.072817 0.447938 0.717357
O O10 0.587873 0.447935 0.202294
O O11 0.000000 0.500000 0.000000
O O12 0.071144 0.428970 0.839427
O O13 0.500000 0.000000 0.000000
#
# Coordination Sequence:
#
# PCOD9245831 Si02
#       6
#     4   4   4   4   4   4
#     4   9  21  41  62  84 118 159 194 239 298 351
#     4   9  21  41  62  84 118 159 194 239 298 351
#     4  10  21  39  63  90 117 152 198 244 294 352
#     4  11  24  40  60  88 122 158 197 243 296 348
#     4  10  21  39  63  90 117 152 198 244 294 352
#     4  11  24  40  60  88 122 158 197 243 296 348
#
# _framework density 18.288675000000001
#
# number of rings (size 3 to 8) (size 9 to 14) (size 15 to 20)
#    0.000    2.000    0.000    2.000    4.667    4.000 
#    0.000    0.000    0.000    0.000    0.000    0.000 
#    0.000    0.000    0.000    0.000    0.000    0.000 
#
# Total GULP energy -134106.233958 kJ/mol
# GULP energy per Si atom -5587.759748 kJ/mol
# Density = 1.824705 g / cm^3
# Si number density = 18.288675 Si / 1000 Ang^3
#
#
#
# Elastic Constant Matrix: (Units=GPa)
#
#
# Indices 1 2 3 4 5 6 
#
# 1 176.3097 95.4764 68.4689 0.0000 -25.9197 0.0000
# 2 95.4764 135.9035 80.5571 0.0000 -18.8462 0.0000
# 3 68.4689 80.5571 124.4466 0.0000 -39.6018 0.0000
# 4 0.0000 0.0000 0.0000 25.7236 0.0000 8.8283
# 5 -25.9197 -18.8462 -39.6018 0.0000 26.3665 0.0000
# 6 0.0000 0.0000 0.0000 8.8283 0.0000 18.7336
#
#
#
# Elastic Compliance Matrix: (Units=1/GPa)
#
#
# Indices 1 2 3 4 5 6 
#
# 1 0.009784 -0.006472 0.000757 0.000000 0.006129 0.000000
# 2 -0.006472 0.016718 -0.010503 0.000000 -0.010188 0.000000
# 3 0.000757 -0.010503 0.023496 0.000000 0.028527 0.000000
# 4 0.000000 0.000000 0.000000 0.046375 0.000000 -0.021855
# 5 0.006129 -0.010188 0.028527 0.000000 0.079516 0.000000
# 6 0.000000 0.000000 0.000000 -0.021855 0.000000 0.063679
#
#
# Mechanical properties :
#
#
# Convention : Reuss Voigt Hill
#
# Bulk Modulus (GPa) = 56.94420 102.85162 79.89791
# Shear Modulus (GPa) = 17.99475 26.97524 22.48500
#
# Velocity S-wave (km/s) = 3.14017 3.84470 3.51015
# Velocity P-wave (km/s) = 6.65969 8.72175 7.75952
#
# Compressibility (1/GPa) = 0.01756105
#
# Stress axis : x y z
#
# Youngs Moduli (GPa) = 102.21063 59.81572 42.56045
#
# Poissons Ratio (x) = 0.38714 -0.03222
# Poissons Ratio (y) = 0.66153 0.44702
# Poissons Ratio (z) = -0.07738 0.62826
#
# Static dielectric constant tensor:
#      x y z
#    x 1.593240 0.000000 0.013860 
#    y 0.000000 1.616790 0.000000 
#    z 0.013860 0.000000 1.604180 
# 
# From -- ./inp_files/24104.got.cif
#   From: 2010.05.17/outbox.cif.g08.bks.cpg/sg14_13_cif.got.tgz:24104.got - 2010.06.03 17:49:19.
