data_PCOD9245790
_publ_section_title
;
Structure prediction by ZEFSAII (Michael W. Deem and Ramdas Pophale) SiO2 
 PCOD9245790
Probable space group: P 21/C
;
_chemical_formula_sum "Si O2"
_cell_formula_units_Z 32
_cell_length_a 13.340688
_cell_length_b 5.281550
_cell_length_c 22.508655
_cell_angle_alpha 90.000000
_cell_angle_beta 75.874637
_cell_angle_gamma 90.000000
_cell_volume 1537.996196
_symmetry_space_group_name_H-M "P 21/C"
_symmetry_group_IT_number 14
_symmetry_cell_setting 'monoclinic'
loop_
_space_group_symop_operation_xyz
x,y,z
-x,1/2+y,1/2-z
-x,-y,-z
x,1/2-y,1/2+z
loop_
_atom_site_type_symbol
_atom_site_label
_atom_site_fract_x
_atom_site_fract_y
_atom_site_fract_z
Si Si1 0.989771 0.565191 0.793622
Si Si2 0.759855 0.488330 0.840834
Si Si3 0.483896 0.097340 0.786565
Si Si4 0.816467 0.079239 0.646429
Si Si5 0.458079 0.483900 0.073409
Si Si6 0.271363 0.083091 0.892500
Si Si7 0.551741 0.514769 0.558219
Si Si8 0.294974 0.481700 0.717574
O O1 0.878236 0.533291 0.840960
O O2 0.994809 0.822346 0.752813
O O3 0.076910 0.572322 0.831930
O O4 0.664718 0.539435 0.899973
O O5 0.744057 0.701243 0.792152
O O6 0.749289 0.201828 0.818491
O O7 0.482007 0.886285 0.733705
O O8 0.371999 0.089822 0.834027
O O9 0.583348 0.980458 0.804548
O O10 0.794190 0.836194 0.608539
O O11 0.734225 0.057944 0.711821
O O12 0.795363 0.337990 0.614569
O O13 0.523221 0.253992 0.089741
O O14 0.495994 0.744981 0.094708
O O15 0.500000 0.500000 0.000000
O O16 0.326881 0.059658 0.949096
O O17 0.500000 0.500000 0.500000
#
# Coordination Sequence:
#
# PCOD9245790 Si02
#       8
#     4   4   4   4   4   4   4   4
#     4  12  23  38  57  81 118 169 215 243 280 342
#     4  12  22  37  59  82 115 159 200 254 292 336
#     4  12  21  30  46  74 111 153 184 218 274 352
#     4  12  23  37  53  81 118 166 203 237 286 346
#     4  10  21  39  62  90 115 143 196 260 314 362
#     4  12  22  37  55  81 120 157 194 246 294 350
#     4  10  22  41  63  89 116 149 198 248 310 371
#     4  12  22  35  53  80 119 160 205 229 285 355
#
# _framework density 20.806293
#
# number of rings (size 3 to 8) (size 9 to 14) (size 15 to 20)
#    0.000    0.500    5.000    5.250    0.000    0.000 
#    0.000    0.000    0.000    0.000    0.000   21.000 
#    0.000    0.000    0.000    0.000    0.000    0.000 
#
# Total GULP energy -178464.358685 kJ/mol
# GULP energy per Si atom -5577.011209 kJ/mol
# Density = 2.075894 g / cm^3
# Si number density = 20.806293 Si / 1000 Ang^3
#
#
#
# Elastic Constant Matrix: (Units=GPa)
#
#
# Indices 1 2 3 4 5 6 
#
# 1 133.9162 36.6198 9.5170 0.0000 33.1812 0.0000
# 2 36.6198 133.9385 4.3580 0.0000 13.9321 0.0000
# 3 9.5170 4.3580 35.9946 0.0000 15.6840 0.0000
# 4 0.0000 0.0000 0.0000 20.8272 0.0000 6.5716
# 5 33.1812 13.9321 15.6840 0.0000 36.4694 0.0000
# 6 0.0000 0.0000 0.0000 6.5716 0.0000 27.1305
#
#
#
# Elastic Compliance Matrix: (Units=1/GPa)
#
#
# Indices 1 2 3 4 5 6 
#
# 1 0.010143 -0.001869 0.001544 0.000000 -0.009178 0.000000
# 2 -0.001869 0.008125 0.000150 0.000000 -0.001468 0.000000
# 3 0.001544 0.000150 0.034448 0.000000 -0.016277 0.000000
# 4 0.000000 0.000000 0.000000 0.051987 0.000000 -0.012592
# 5 -0.009178 -0.001468 -0.016277 0.000000 0.043332 0.000000
# 6 0.000000 0.000000 0.000000 -0.012592 0.000000 0.039909
#
#
# Mechanical properties :
#
#
# Convention : Reuss Voigt Hill
#
# Bulk Modulus (GPa) = 19.09637 44.98212 32.03925
# Shear Modulus (GPa) = 24.30152 33.77571 29.03861
#
# Velocity S-wave (km/s) = 3.42129 4.03344 3.73991
# Velocity P-wave (km/s) = 4.98047 6.58468 5.83794
#
# Compressibility (1/GPa) = 0.05236596
#
# Stress axis : x y z
#
# Youngs Moduli (GPa) = 98.59214 123.07916 29.02944
#
# Poissons Ratio (x) = 0.22999 -0.04481
# Poissons Ratio (y) = 0.18423 -0.00436
# Poissons Ratio (z) = -0.15220 -0.01848
#
# Static dielectric constant tensor:
#      x y z
#    x 1.747660 0.000000 -0.033350 
#    y 0.000000 1.535050 0.000000 
#    z -0.033350 0.000000 1.608070 
# 
# From -- ./inp_files/72765.got.cif
#   From: 2010.05.17/outbox.cif.g08.bks.cpg/sg14_37_cif.got.tgz:72765.got - 2010.06.03 17:49:19.
