data_PCOD9245207
_publ_section_title
;
Structure prediction by ZEFSAII (Michael W. Deem and Ramdas Pophale) SiO2 
 PCOD9245207
Probable space group: P 21/C
;
_chemical_formula_sum "Si O2"
_cell_formula_units_Z 28
_cell_length_a 6.993631
_cell_length_b 16.873593
_cell_length_c 15.239216
_cell_angle_alpha 90.000000
_cell_angle_beta 40.059897
_cell_angle_gamma 90.000000
_cell_volume 1157.393132
_symmetry_space_group_name_H-M "P 21/C"
_symmetry_group_IT_number 14
_symmetry_cell_setting 'monoclinic'
loop_
_space_group_symop_operation_xyz
x,y,z
-x,1/2+y,1/2-z
-x,-y,-z
x,1/2-y,1/2+z
loop_
_atom_site_type_symbol
_atom_site_label
_atom_site_fract_x
_atom_site_fract_y
_atom_site_fract_z
Si Si1 0.863490 0.104697 0.705894
Si Si2 0.920595 0.640296 0.249643
Si Si3 0.426834 0.534781 0.405915
Si Si4 0.366012 0.224590 0.921904
Si Si5 0.661236 0.800394 0.378235
Si Si6 0.062844 0.580784 0.372019
Si Si7 0.946549 0.353118 0.987223
O O1 0.660532 0.035763 0.814113
O O2 0.663892 0.185497 0.779478
O O3 0.936827 0.093938 0.577735
O O4 0.149379 0.121643 0.665222
O O5 0.598279 0.605907 0.392025
O O6 0.876195 0.733940 0.261607
O O7 0.139420 0.608723 0.247485
O O8 0.988526 0.608222 0.129698
O O9 0.327107 0.564250 0.345393
O O10 0.138901 0.498550 0.553965
O O11 0.422410 0.265535 0.996346
O O12 0.134372 0.152477 0.019239
O O13 0.197808 0.287474 0.919859
O O14 0.378066 0.815010 0.417142
#
# Coordination Sequence:
#
# PCOD9245207 Si02
#       7
#     4   4   4   4   4   4   4
#     4  10  22  38  56  82 117 152 189 235 287 343
#     4  11  22  36  60  87 113 148 191 238 282 336
#     4  10  21  39  60  83 114 151 189 237 288 334
#     4   9  19  37  59  83 111 146 193 242 281 333
#     4  10  21  37  58  85 114 149 192 239 286 334
#     4   9  20  38  61  85 110 145 193 240 283 332
#     4  11  22  35  56  84 116 154 190 230 287 344
#
# _framework density 24.192299999999999
#
# number of rings (size 3 to 8) (size 9 to 14) (size 15 to 20)
#    0.000    2.000    0.000    3.000    0.000    6.286 
#    0.000    5.714    0.000    0.000    0.000    0.000 
#    0.000    0.000    0.000    0.000    0.000    0.000 
#
# Total GULP energy -156687.782999 kJ/mol
# GULP energy per Si atom -5595.992250 kJ/mol
# Density = 2.413724 g / cm^3
# Si number density = 24.192300 Si / 1000 Ang^3
#
#
#
# Elastic Constant Matrix: (Units=GPa)
#
#
# Indices 1 2 3 4 5 6 
#
# 1 110.7617 21.4916 9.2196 0.0000 6.0873 0.0000
# 2 21.4916 42.0482 -2.2380 0.0000 -6.5627 0.0000
# 3 9.2196 -2.2380 48.3954 0.0000 10.4463 0.0000
# 4 0.0000 0.0000 0.0000 24.8663 0.0000 -3.2294
# 5 6.0873 -6.5627 10.4463 0.0000 41.9256 0.0000
# 6 0.0000 0.0000 0.0000 -3.2294 0.0000 36.0654
#
#
#
# Elastic Compliance Matrix: (Units=1/GPa)
#
#
# Indices 1 2 3 4 5 6 
#
# 1 0.010396 -0.005715 -0.001824 0.000000 -0.001950 0.000000
# 2 -0.005715 0.027524 0.001324 0.000000 0.004808 0.000000
# 3 -0.001824 0.001324 0.022162 0.000000 -0.005050 0.000000
# 4 0.000000 0.000000 0.000000 0.040688 0.000000 0.003643
# 5 -0.001950 0.004808 -0.005050 0.000000 0.026146 0.000000
# 6 0.000000 0.000000 0.000000 0.003643 0.000000 0.028054
#
#
# Mechanical properties :
#
#
# Convention : Reuss Voigt Hill
#
# Bulk Modulus (GPa) = 20.98571 28.68352 24.83461
# Shear Modulus (GPa) = 27.27996 32.08694 29.68345
#
# Velocity S-wave (km/s) = 3.36166 3.64583 3.50663
# Velocity P-wave (km/s) = 4.87453 5.44105 5.16556
#
# Compressibility (1/GPa) = 0.04765148
#
# Stress axis : x y z
#
# Youngs Moduli (GPa) = 96.18821 36.33165 45.12258
#
# Poissons Ratio (x) = 0.20764 0.08230
# Poissons Ratio (y) = 0.54972 -0.05973
# Poissons Ratio (z) = 0.17545 -0.04809
#
# Static dielectric constant tensor:
#      x y z
#    x 1.896270 0.000000 0.005950 
#    y 0.000000 1.931810 0.000000 
#    z 0.005950 0.000000 1.962300 
# 
# From -- ./inp_files/38049.got.cif
#   From: 2010.05.17/outbox.cif.g08.bks.cpg/sg14_20_cif.got.tgz:38049.got - 2010.06.03 17:49:19.
