data_PCOD9245599
_publ_section_title
;
Structure prediction by ZEFSAII (Michael W. Deem and Ramdas Pophale) SiO2 
 PCOD9245599
Probable space group: P 21/C
;
_chemical_formula_sum "Si O2"
_cell_formula_units_Z 32
_cell_length_a 17.017244
_cell_length_b 6.534107
_cell_length_c 13.242896
_cell_angle_alpha 90.000000
_cell_angle_beta 89.815368
_cell_angle_gamma 90.000000
_cell_volume 1472.502977
_symmetry_space_group_name_H-M "P 21/C"
_symmetry_group_IT_number 14
_symmetry_cell_setting 'monoclinic'
loop_
_space_group_symop_operation_xyz
x,y,z
-x,1/2+y,1/2-z
-x,-y,-z
x,1/2-y,1/2+z
loop_
_atom_site_type_symbol
_atom_site_label
_atom_site_fract_x
_atom_site_fract_y
_atom_site_fract_z
Si Si1 0.017843 0.160104 0.847730
Si Si2 0.352751 0.716438 0.000962
Si Si3 0.778871 0.023767 0.890008
Si Si4 0.118521 0.979067 0.299568
Si Si5 0.913848 0.201844 0.023688
Si Si6 0.454851 0.946405 0.140177
Si Si7 0.617589 0.381469 0.707603
Si Si8 0.661062 0.673316 0.883516
O O1 0.957110 0.117477 0.758141
O O2 0.093797 0.284960 0.812875
O O3 0.972089 0.283865 0.936413
O O4 0.040673 0.948154 0.900519
O O5 0.337287 0.790458 0.888226
O O6 0.354290 0.476236 0.022182
O O7 0.286962 0.816700 0.073436
O O8 0.434681 0.813485 0.040862
O O9 0.740053 0.801627 0.898565
O O10 0.808843 0.052507 0.775736
O O11 0.851967 0.063494 0.962820
O O12 0.126669 0.873042 0.407787
O O13 0.544682 0.987893 0.164510
O O14 0.407582 0.159233 0.130675
O O15 0.418783 0.808399 0.230214
O O16 0.662776 0.528495 0.784906
#
# Coordination Sequence:
#
# PCOD9245599 Si02
#       8
#     4   4   4   4   4   4   4   4
#     4  10  21  38  64  97 123 163 210 270 327 370
#     4  10  24  41  62  90 130 172 212 262 315 387
#     4  10  25  42  60  95 129 177 218 253 325 393
#     4  11  21  40  65  92 130 166 215 270 316 378
#     4  10  22  40  64  94 129 163 218 262 324 386
#     4  10  21  39  64 100 120 163 214 263 327 377
#     4  11  21  40  68  93 127 164 211 272 324 375
#     4  10  23  44  61  91 135 160 218 267 311 395
#
# _framework density 21.731705000000002
#
# number of rings (size 3 to 8) (size 9 to 14) (size 15 to 20)
#    0.000    1.750    2.500    0.750    0.000    8.500 
#    0.000    0.000    0.000    0.000    0.000    0.000 
#    0.000    0.000    0.000    0.000    0.000    0.000 
#
# Total GULP energy -178812.229527 kJ/mol
# GULP energy per Si atom -5587.882173 kJ/mol
# Density = 2.168224 g / cm^3
# Si number density = 21.731705 Si / 1000 Ang^3
#
#
#
# Elastic Constant Matrix: (Units=GPa)
#
#
# Indices 1 2 3 4 5 6 
#
# 1 49.3633 6.6202 5.2136 0.0000 6.2725 0.0000
# 2 6.6202 64.7892 -2.8989 0.0000 3.2367 0.0000
# 3 5.2136 -2.8989 44.5925 0.0000 2.5696 0.0000
# 4 0.0000 0.0000 0.0000 19.8563 0.0000 0.5364
# 5 6.2725 3.2367 2.5696 0.0000 21.2145 0.0000
# 6 0.0000 0.0000 0.0000 0.5364 0.0000 27.3117
#
#
#
# Elastic Compliance Matrix: (Units=1/GPa)
#
#
# Indices 1 2 3 4 5 6 
#
# 1 0.021506 -0.002013 -0.002313 0.000000 -0.005771 0.000000
# 2 -0.002013 0.015801 0.001377 0.000000 -0.001982 0.000000
# 3 -0.002313 0.001377 0.022918 0.000000 -0.002302 0.000000
# 4 0.000000 0.000000 0.000000 0.050389 0.000000 -0.000990
# 5 -0.005771 -0.001982 -0.002302 0.000000 0.049425 0.000000
# 6 0.000000 0.000000 0.000000 -0.000990 0.000000 0.036634
#
#
# Mechanical properties :
#
#
# Convention : Reuss Voigt Hill
#
# Bulk Modulus (GPa) = 18.40693 19.62385 19.01539
# Shear Modulus (GPa) = 22.65744 23.66383 23.16064
#
# Velocity S-wave (km/s) = 3.23243 3.30344 3.26813
# Velocity P-wave (km/s) = 4.73497 4.85798 4.79687
#
# Compressibility (1/GPa) = 0.05432737
#
# Stress axis : x y z
#
# Youngs Moduli (GPa) = 46.49972 63.28730 43.63416
#
# Poissons Ratio (x) = 0.12737 0.10091
# Poissons Ratio (y) = 0.09358 -0.06007
# Poissons Ratio (z) = 0.10754 -0.08713
#
# Static dielectric constant tensor:
#      x y z
#    x 1.820310 0.000000 -0.000540 
#    y 0.000000 1.790800 0.000000 
#    z -0.000540 0.000000 1.815820 
# 
# From -- ./inp_files/48182.got.cif
#   From: 2010.05.17/outbox.cif.g08.bks.cpg/sg14_25_cif.got.tgz:48182.got - 2010.06.03 17:49:19.
