data_PCOD9245299
_publ_section_title
;
Structure prediction by ZEFSAII (Michael W. Deem and Ramdas Pophale) SiO2 
 PCOD9245299
Probable space group: P 21/C
;
_chemical_formula_sum "Si O2"
_cell_formula_units_Z 28
_cell_length_a 11.010382
_cell_length_b 6.412623
_cell_length_c 19.697007
_cell_angle_alpha 90.000000
_cell_angle_beta 80.803905
_cell_angle_gamma 90.000000
_cell_volume 1372.840980
_symmetry_space_group_name_H-M "P 21/C"
_symmetry_group_IT_number 14
_symmetry_cell_setting 'monoclinic'
loop_
_space_group_symop_operation_xyz
x,y,z
-x,1/2+y,1/2-z
-x,-y,-z
x,1/2-y,1/2+z
loop_
_atom_site_type_symbol
_atom_site_label
_atom_site_fract_x
_atom_site_fract_y
_atom_site_fract_z
Si Si1 0.936758 0.352932 0.923118
Si Si2 0.949336 0.228691 0.669590
Si Si3 0.160973 0.545012 0.685284
Si Si4 0.855232 0.546023 0.569831
Si Si5 0.606434 0.947108 0.909375
Si Si6 0.361917 0.707032 0.466582
Si Si7 0.720591 0.872592 0.509036
O O1 0.874071 0.213049 0.870059
O O2 0.023483 0.528088 0.879939
O O3 0.019143 0.179747 0.956346
O O4 0.838029 0.498180 0.970091
O O5 0.873640 0.148704 0.740609
O O6 0.882940 0.414911 0.634497
O O7 0.076542 0.339037 0.681986
O O8 0.302219 0.484559 0.660491
O O9 0.775903 0.379768 0.533003
O O10 0.759630 0.735024 0.569679
O O11 0.465043 0.893074 0.909427
O O12 0.667624 0.770439 0.953318
O O13 0.604952 0.145574 0.959553
O O14 0.370972 0.951682 0.458814
#
# Coordination Sequence:
#
# PCOD9245299 Si02
#       7
#     4   4   4   4   4   4   4
#     4  11  21  35  58  88 122 155 197 248 313 357
#     4  11  22  38  60  85 119 156 205 253 297 361
#     4  11  21  38  61  88 114 156 204 250 305 356
#     4  10  24  36  58  88 126 160 196 242 306 366
#     4  10  21  37  62  90 116 157 203 245 297 366
#     4  10  21  39  59  88 126 155 196 245 298 365
#     4  11  20  36  60  92 122 157 193 249 312 360
#
# _framework density 20.395658999999998
#
# number of rings (size 3 to 8) (size 9 to 14) (size 15 to 20)
#    0.000    1.429    4.286    1.714    0.000    1.143 
#    0.000    0.000    3.143    0.000    0.000    0.000 
#    0.000    0.000    0.000    0.000    0.000    0.000 
#
# Total GULP energy -156031.763973 kJ/mol
# GULP energy per Si atom -5572.562999 kJ/mol
# Density = 2.034924 g / cm^3
# Si number density = 20.395659 Si / 1000 Ang^3
#
#
#
# Elastic Constant Matrix: (Units=GPa)
#
#
# Indices 1 2 3 4 5 6 
#
# 1 84.3620 38.5792 33.8766 0.0000 -19.1553 0.0000
# 2 38.5792 111.1340 20.9750 0.0000 -7.1372 0.0000
# 3 33.8766 20.9750 54.8173 0.0000 -25.3500 0.0000
# 4 0.0000 0.0000 0.0000 38.4128 0.0000 2.9910
# 5 -19.1553 -7.1372 -25.3500 0.0000 26.8453 0.0000
# 6 0.0000 0.0000 0.0000 2.9910 0.0000 24.6098
#
#
#
# Elastic Compliance Matrix: (Units=1/GPa)
#
#
# Indices 1 2 3 4 5 6 
#
# 1 0.017879 -0.004564 -0.007037 0.000000 0.004899 0.000000
# 2 -0.004564 0.010904 -0.002694 0.000000 -0.002901 0.000000
# 3 -0.007037 -0.002694 0.037224 0.000000 0.029413 0.000000
# 4 0.000000 0.000000 0.000000 0.026282 0.000000 -0.003194
# 5 0.004899 -0.002901 0.029413 0.000000 0.067749 0.000000
# 6 0.000000 0.000000 0.000000 -0.003194 0.000000 0.041022
#
#
# Mechanical properties :
#
#
# Convention : Reuss Voigt Hill
#
# Bulk Modulus (GPa) = 26.72515 48.57498 37.65006
# Shear Modulus (GPa) = 20.65066 28.43240 24.54153
#
# Velocity S-wave (km/s) = 3.18544 3.73774 3.47258
# Velocity P-wave (km/s) = 5.16344 6.51887 5.88034
#
# Compressibility (1/GPa) = 0.03741794
#
# Stress axis : x y z
#
# Youngs Moduli (GPa) = 55.93164 91.70546 26.86439
#
# Poissons Ratio (x) = 0.41852 0.18906
# Poissons Ratio (y) = 0.25526 0.07236
# Poissons Ratio (z) = 0.39362 0.24701
#
# Static dielectric constant tensor:
#      x y z
#    x 1.786100 0.000000 -0.012560 
#    y 0.000000 1.770380 0.000000 
#    z -0.012560 0.000000 1.698230 
# 
# From -- ./inp_files/66457.got.cif
#   From: 2010.05.17/outbox.cif.g08.bks.cpg/sg14_34_cif.got.tgz:66457.got - 2010.06.03 17:49:19.
