data_PCOD9245304
_publ_section_title
;
Structure prediction by ZEFSAII (Michael W. Deem and Ramdas Pophale) SiO2 
 PCOD9245304
Probable space group: P 21/C
;
_chemical_formula_sum "Si O2"
_cell_formula_units_Z 32
_cell_length_a 16.737228
_cell_length_b 22.417744
_cell_length_c 9.984544
_cell_angle_alpha 90.000000
_cell_angle_beta 20.699014
_cell_angle_gamma 90.000000
_cell_volume 1324.165916
_symmetry_space_group_name_H-M "P 21/C"
_symmetry_group_IT_number 14
_symmetry_cell_setting 'monoclinic'
loop_
_space_group_symop_operation_xyz
x,y,z
-x,1/2+y,1/2-z
-x,-y,-z
x,1/2-y,1/2+z
loop_
_atom_site_type_symbol
_atom_site_label
_atom_site_fract_x
_atom_site_fract_y
_atom_site_fract_z
Si Si1 0.825765 0.604800 0.116105
Si Si2 0.084112 0.232117 0.609450
Si Si3 0.422909 0.869095 0.441668
Si Si4 0.162235 0.876395 0.317672
Si Si5 0.232188 0.747198 0.649713
Si Si6 0.264804 0.978558 0.319986
Si Si7 0.979426 0.429328 0.559181
Si Si8 0.738519 0.856120 0.187913
O O1 0.608687 0.599369 0.555004
O O2 0.865981 0.540628 0.987002
O O3 0.804049 0.666754 0.070916
O O4 0.042070 0.617633 0.865616
O O5 0.873923 0.242397 0.833317
O O6 0.256509 0.284910 0.300187
O O7 0.983757 0.241110 0.914504
O O8 0.397426 0.801434 0.426125
O O9 0.174000 0.896863 0.810864
O O10 0.520583 0.872279 0.439412
O O11 0.315695 0.817809 0.067940
O O12 0.950358 0.866048 0.751785
O O13 0.274808 0.939261 0.172322
O O14 0.181985 0.931786 0.558714
O O15 0.500000 0.000000 0.000000
O O16 0.000000 0.500000 0.500000
O O17 0.196252 0.394105 0.280841
#
# Coordination Sequence:
#
# PCOD9245304 Si02
#       8
#     4   4   4   4   4   4   4   4
#     4  10  21  37  62  91 121 165 217 259 320 388
#     4  10  21  40  65  94 131 168 213 268 331 383
#     4  11  22  40  65  91 125 169 215 268 321 384
#     4   8  19  38  59  86 122 165 201 264 317 378
#     4  10  21  39  66  94 130 168 215 269 331 381
#     4  11  21  37  60  87 119 167 213 258 318 389
#     4  11  24  42  63  87 131 168 209 268 327 382
#     4   9  20  40  62  88 126 168 205 262 328 374
#
# _framework density 24.166157999999999
#
# number of rings (size 3 to 8) (size 9 to 14) (size 15 to 20)
#    0.000    2.000    2.500    1.125    1.750    2.500 
#    0.000    3.750    0.000    0.000    0.000    0.000 
#    0.000    0.000    0.000    0.000    0.000    0.000 
#
# Total GULP energy -178499.228321 kJ/mol
# GULP energy per Si atom -5578.100885 kJ/mol
# Density = 2.411115 g / cm^3
# Si number density = 24.166158 Si / 1000 Ang^3
#
#
#
# Elastic Constant Matrix: (Units=GPa)
#
#
# Indices 1 2 3 4 5 6 
#
# 1 69.0227 33.9648 25.2687 0.0000 -27.2774 0.0000
# 2 33.9648 148.7471 18.3567 0.0000 -29.9833 0.0000
# 3 25.2687 18.3567 42.4659 0.0000 -7.1656 0.0000
# 4 0.0000 0.0000 0.0000 37.6165 0.0000 -2.4353
# 5 -27.2774 -29.9833 -7.1656 0.0000 31.8096 0.0000
# 6 0.0000 0.0000 0.0000 -2.4353 0.0000 35.7880
#
#
#
# Elastic Compliance Matrix: (Units=1/GPa)
#
#
# Indices 1 2 3 4 5 6 
#
# 1 0.027314 -0.000658 -0.012600 0.000000 0.019964 0.000000
# 2 -0.000658 0.008549 -0.002120 0.000000 0.007017 0.000000
# 3 -0.012600 -0.002120 0.030979 0.000000 -0.005824 0.000000
# 4 0.000000 0.000000 0.000000 0.026702 0.000000 0.001817
# 5 0.019964 0.007017 -0.005824 0.000000 0.053858 0.000000
# 6 0.000000 0.000000 0.000000 0.001817 0.000000 0.028066
#
#
# Mechanical properties :
#
#
# Convention : Reuss Voigt Hill
#
# Bulk Modulus (GPa) = 27.71077 46.15734 36.93405
# Shear Modulus (GPa) = 22.90923 33.21919 28.06421
#
# Velocity S-wave (km/s) = 3.08228 3.71160 3.41149
# Velocity P-wave (km/s) = 4.91517 6.12450 5.55286
#
# Compressibility (1/GPa) = 0.03608706
#
# Stress axis : x y z
#
# Youngs Moduli (GPa) = 36.61125 116.97281 32.27968
#
# Poissons Ratio (x) = 0.07693 0.40672
# Poissons Ratio (y) = 0.02408 0.06844
# Poissons Ratio (z) = 0.46129 0.24800
#
# Static dielectric constant tensor:
#      x y z
#    x 1.987780 0.000000 0.058970 
#    y 0.000000 1.824820 0.000000 
#    z 0.058970 0.000000 1.932800 
# 
# From -- ./inp_files/34455.got.cif
#   From: 2010.05.17/outbox.cif.g08.bks.cpg/sg14_18_cif.got.tgz:34455.got - 2010.06.03 17:49:19.
