data_PCOD9245783
_publ_section_title
;
Structure prediction by ZEFSAII (Michael W. Deem and Ramdas Pophale) SiO2 
 PCOD9245783
Probable space group: P 21/C
;
_chemical_formula_sum "Si O2"
_cell_formula_units_Z 20
_cell_length_a 7.507251
_cell_length_b 8.100924
_cell_length_c 18.656066
_cell_angle_alpha 90.000000
_cell_angle_beta 44.391325
_cell_angle_gamma 90.000000
_cell_volume 793.702093
_symmetry_space_group_name_H-M "P 21/C"
_symmetry_group_IT_number 14
_symmetry_cell_setting 'monoclinic'
loop_
_space_group_symop_operation_xyz
x,y,z
-x,1/2+y,1/2-z
-x,-y,-z
x,1/2-y,1/2+z
loop_
_atom_site_type_symbol
_atom_site_label
_atom_site_fract_x
_atom_site_fract_y
_atom_site_fract_z
Si Si1 0.080317 0.067047 0.582595
Si Si2 0.247643 0.256522 0.336163
Si Si3 0.058257 0.121265 0.757071
Si Si4 0.948282 0.578709 0.418300
Si Si5 0.518500 0.245983 0.396894
O O1 0.952714 0.238430 0.591470
O O2 0.364306 0.085680 0.468649
O O3 0.100067 0.087552 0.662490
O O4 0.918539 0.908618 0.608929
O O5 0.485135 0.246861 0.320684
O O6 0.276040 0.293055 0.243198
O O7 0.086836 0.417204 0.408551
O O8 0.801253 0.227639 0.841064
O O9 0.989219 0.955931 0.821822
O O10 0.652633 0.602992 0.522831
#
# Coordination Sequence:
#
# PCOD9245783 Si02
#       5
#     4   4   4   4   4
#     4  10  21  39  62  88 123 155 201 251 290 356
#     4  10  21  39  63  85 120 160 195 250 298 349
#     4  10  21  40  61  89 121 156 204 242 298 361
#     4   8  21  36  62  82 118 155 191 245 296 345
#     4  10  21  41  60  89 121 156 201 245 297 358
#
# _framework density 25.198370000000001
#
# number of rings (size 3 to 8) (size 9 to 14) (size 15 to 20)
#    2.400    0.000    0.000    3.000    0.000    0.800 
#    3.600    2.000    0.000    0.000    0.000    0.000 
#    0.000    0.000    0.000    0.000    0.000    0.000 
#
# Total GULP energy -111536.913626 kJ/mol
# GULP energy per Si atom -5576.845681 kJ/mol
# Density = 2.514102 g / cm^3
# Si number density = 25.198370 Si / 1000 Ang^3
#
#
#
# Elastic Constant Matrix: (Units=GPa)
#
#
# Indices 1 2 3 4 5 6 
#
# 1 95.5416 22.7066 19.8857 0.0000 20.2329 0.0000
# 2 22.7066 163.5111 5.3526 0.0000 -4.2751 0.0000
# 3 19.8857 5.3526 63.5999 0.0000 10.6022 0.0000
# 4 0.0000 0.0000 0.0000 24.6882 0.0000 3.0641
# 5 20.2329 -4.2751 10.6022 0.0000 33.3994 0.0000
# 6 0.0000 0.0000 0.0000 3.0641 0.0000 28.1608
#
#
#
# Elastic Compliance Matrix: (Units=1/GPa)
#
#
# Indices 1 2 3 4 5 6 
#
# 1 0.013023 -0.001911 -0.002698 0.000000 -0.007277 0.000000
# 2 -0.001911 0.006445 -0.000291 0.000000 0.002075 0.000000
# 3 -0.002698 -0.000291 0.017237 0.000000 -0.003875 0.000000
# 4 0.000000 0.000000 0.000000 0.041060 0.000000 -0.004468
# 5 -0.007277 0.002075 -0.003875 0.000000 0.035845 0.000000
# 6 0.000000 0.000000 0.000000 -0.004468 0.000000 0.035996
#
#
# Mechanical properties :
#
#
# Convention : Reuss Voigt Hill
#
# Bulk Modulus (GPa) = 37.16556 46.50471 41.83514
# Shear Modulus (GPa) = 29.69578 35.56354 32.62966
#
# Velocity S-wave (km/s) = 3.43662 3.76086 3.60239
# Velocity P-wave (km/s) = 5.52525 6.11181 5.82592
#
# Compressibility (1/GPa) = 0.02690663
#
# Stress axis : x y z
#
# Youngs Moduli (GPa) = 76.78472 155.16225 58.01387
#
# Poissons Ratio (x) = 0.29644 0.15653
# Poissons Ratio (y) = 0.14670 0.01688
# Poissons Ratio (z) = 0.20717 0.04514
#
# Static dielectric constant tensor:
#      x y z
#    x 1.967740 0.000000 0.051080 
#    y 0.000000 2.061520 0.000000 
#    z 0.051080 0.000000 2.016000 
# 
# From -- ./inp_files/64692.got.cif
#   From: 2010.05.17/outbox.cif.g08.bks.cpg/sg14_33_cif.got.tgz:64692.got - 2010.06.03 17:49:19.
