data_PCOD9245638
_publ_section_title
;
Structure prediction by ZEFSAII (Michael W. Deem and Ramdas Pophale) SiO2 
 PCOD9245638
Probable space group: P 21/C
;
_chemical_formula_sum "Si O2"
_cell_formula_units_Z 32
_cell_length_a 9.353095
_cell_length_b 12.045605
_cell_length_c 15.484141
_cell_angle_alpha 90.000000
_cell_angle_beta 122.432968
_cell_angle_gamma 90.000000
_cell_volume 1472.392329
_symmetry_space_group_name_H-M "P 21/C"
_symmetry_group_IT_number 14
_symmetry_cell_setting 'monoclinic'
loop_
_space_group_symop_operation_xyz
x,y,z
-x,1/2+y,1/2-z
-x,-y,-z
x,1/2-y,1/2+z
loop_
_atom_site_type_symbol
_atom_site_label
_atom_site_fract_x
_atom_site_fract_y
_atom_site_fract_z
Si Si1 0.677566 0.318678 0.183659
Si Si2 0.765645 0.922568 0.970295
Si Si3 0.074468 0.308809 0.986751
Si Si4 0.097818 0.005630 0.163943
Si Si5 0.405214 0.573661 0.312030
Si Si6 0.969064 0.048225 0.295527
Si Si7 0.627528 0.979656 0.387960
Si Si8 0.829975 0.344480 0.056543
O O1 0.817971 0.386965 0.283656
O O2 0.607944 0.207083 0.203919
O O3 0.525222 0.407168 0.122971
O O4 0.754124 0.283958 0.115340
O O5 0.813135 0.795448 0.002786
O O6 0.570798 0.950072 0.922043
O O7 0.795494 0.940199 0.877406
O O8 0.909114 0.991006 0.065749
O O9 0.203619 0.404115 0.060132
O O10 0.938906 0.282738 0.018342
O O11 0.981569 0.359055 0.873276
O O12 0.081584 0.072555 0.247842
O O13 0.418618 0.516363 0.223161
O O14 0.226312 0.534047 0.291656
O O15 0.045623 0.936944 0.361655
O O16 0.681054 0.086580 0.460983
#
# Coordination Sequence:
#
# PCOD9245638 Si02
#       8
#     4   4   4   4   4   4   4   4
#     4  11  23  39  64  95 127 163 217 261 314 378
#     4  11  24  41  62  90 133 169 209 256 319 372
#     4  11  20  41  66  96 121 164 212 267 313 376
#     4  10  24  43  63  89 126 176 207 261 310 384
#     4  12  22  39  64  96 129 170 209 261 310 381
#     4  10  21  40  66  89 122 163 215 257 315 368
#     4  11  20  40  64  94 124 164 210 262 321 365
#     4  10  21  38  66  93 121 161 212 271 316 367
#
# _framework density 21.733339000000001
#
# number of rings (size 3 to 8) (size 9 to 14) (size 15 to 20)
#    0.000    1.250    5.000    1.875    1.750    0.500 
#    0.000    0.000    2.750    0.000    0.000    0.000 
#    0.000    0.000    0.000    0.000    0.000    0.000 
#
# Total GULP energy -178809.482484 kJ/mol
# GULP energy per Si atom -5587.796328 kJ/mol
# Density = 2.168387 g / cm^3
# Si number density = 21.733339 Si / 1000 Ang^3
#
#
#
# Elastic Constant Matrix: (Units=GPa)
#
#
# Indices 1 2 3 4 5 6 
#
# 1 83.6213 -3.2003 40.5559 0.0000 4.8728 0.0000
# 2 -3.2003 20.6478 -6.9212 0.0000 1.1605 0.0000
# 3 40.5559 -6.9212 41.6757 0.0000 15.5019 0.0000
# 4 0.0000 0.0000 0.0000 8.9608 0.0000 9.4755
# 5 4.8728 1.1605 15.5019 0.0000 46.3428 0.0000
# 6 0.0000 0.0000 0.0000 9.4755 0.0000 16.0617
#
#
#
# Elastic Compliance Matrix: (Units=1/GPa)
#
#
# Indices 1 2 3 4 5 6 
#
# 1 0.024667 -0.005763 -0.027468 0.000000 0.006739 0.000000
# 2 -0.005763 0.053553 0.016875 0.000000 -0.006380 0.000000
# 3 -0.027468 0.016875 0.060086 0.000000 -0.017634 0.000000
# 4 0.000000 0.000000 0.000000 0.296668 0.000000 -0.175017
# 5 0.006739 -0.006380 -0.017634 0.000000 0.026928 0.000000
# 6 0.000000 0.000000 0.000000 -0.175017 0.000000 0.165510
#
#
# Mechanical properties :
#
#
# Convention : Reuss Voigt Hill
#
# Bulk Modulus (GPa) = 9.47019 22.97928 16.22474
# Shear Modulus (GPa) = 7.19089 21.97375 14.58232
#
# Velocity S-wave (km/s) = 1.82095 3.18317 2.59311
# Velocity P-wave (km/s) = 2.96447 4.90982 4.05552
#
# Compressibility (1/GPa) = 0.10559449
#
# Stress axis : x y z
#
# Youngs Moduli (GPa) = 40.53937 18.67300 16.64268
#
# Poissons Ratio (x) = 0.10761 0.45715
# Poissons Ratio (y) = 0.23362 -0.28084
# Poissons Ratio (z) = 1.11355 -0.31510
#
# Static dielectric constant tensor:
#      x y z
#    x 1.802240 0.000000 0.012950 
#    y 0.000000 1.765940 0.000000 
#    z 0.012950 0.000000 1.791980 
# 
# From -- ./inp_files/41227.got.cif
#   From: 2010.05.17/outbox.cif.g08.bks.cpg/sg14_21_cif.got.tgz:41227.got - 2010.06.03 17:49:19.
