data_PCOD9245010
_publ_section_title
;
Structure prediction by ZEFSAII (Michael W. Deem and Ramdas Pophale) SiO2 
 PCOD9245010
Probable space group: P 21/C
;
_chemical_formula_sum "Si O2"
_cell_formula_units_Z 28
_cell_length_a 10.336226
_cell_length_b 15.435914
_cell_length_c 12.709319
_cell_angle_alpha 90.000000
_cell_angle_beta 32.462637
_cell_angle_gamma 90.000000
_cell_volume 1088.399380
_symmetry_space_group_name_H-M "P 21/C"
_symmetry_group_IT_number 14
_symmetry_cell_setting 'monoclinic'
loop_
_space_group_symop_operation_xyz
x,y,z
-x,1/2+y,1/2-z
-x,-y,-z
x,1/2-y,1/2+z
loop_
_atom_site_type_symbol
_atom_site_label
_atom_site_fract_x
_atom_site_fract_y
_atom_site_fract_z
Si Si1 0.775184 0.680108 0.842612
Si Si2 0.342208 0.923537 0.658850
Si Si3 0.891215 0.164331 0.379018
Si Si4 0.055416 0.389219 0.984472
Si Si5 0.547513 0.729255 0.291707
Si Si6 0.207036 0.935932 0.985030
Si Si7 0.587258 0.469875 0.325900
O O1 0.948986 0.754452 0.764584
O O2 0.947071 0.597100 0.701870
O O3 0.653854 0.723802 0.822617
O O4 0.538126 0.647715 0.063091
O O5 0.185388 0.888172 0.670163
O O6 0.204621 0.940527 0.860743
O O7 0.500000 0.000000 0.500000
O O8 0.039241 0.117498 0.368502
O O9 0.651413 0.200075 0.604859
O O10 0.785590 0.395689 0.213314
O O11 0.202457 0.307271 0.926249
O O12 0.233211 0.471778 0.872295
O O13 0.384347 0.641347 0.407690
O O14 0.334533 0.024678 0.936809
O O15 0.500000 0.500000 0.500000
#
# Coordination Sequence:
#
# PCOD9245010 Si02
#       7
#     4   4   4   4   4   4   4
#     4   9  20  39  60  82 116 156 200 251 293 353
#     4  11  23  37  58  89 124 158 192 242 309 367
#     4   9  18  38  61  85 117 155 202 244 296 368
#     4   9  18  36  59  81 112 146 185 245 295 339
#     4   8  17  36  58  80 107 145 193 241 283 336
#     4  10  21  36  56  84 114 148 193 237 290 355
#     4  10  21  36  57  84 112 149 195 239 293 356
#
# _framework density 25.725852
#
# number of rings (size 3 to 8) (size 9 to 14) (size 15 to 20)
#    0.000    2.571    0.000    0.857    0.000    6.286 
#    0.000   27.143    0.000    0.000    0.000    0.000 
#    0.000    0.000    0.000    0.000    0.000    0.000 
#
# Total GULP energy -155998.430758 kJ/mol
# GULP energy per Si atom -5571.372527 kJ/mol
# Density = 2.566730 g / cm^3
# Si number density = 25.725852 Si / 1000 Ang^3
#
#
#
# Elastic Constant Matrix: (Units=GPa)
#
#
# Indices 1 2 3 4 5 6 
#
# 1 78.7920 14.6366 29.7209 0.0000 -15.2382 0.0000
# 2 14.6366 45.2425 28.1315 0.0000 -20.0461 0.0000
# 3 29.7209 28.1315 115.0738 0.0000 -24.4949 0.0000
# 4 0.0000 0.0000 0.0000 31.8431 0.0000 -19.2766
# 5 -15.2382 -20.0461 -24.4949 0.0000 40.2681 0.0000
# 6 0.0000 0.0000 0.0000 -19.2766 0.0000 41.7635
#
#
#
# Elastic Compliance Matrix: (Units=1/GPa)
#
#
# Indices 1 2 3 4 5 6 
#
# 1 0.014618 -0.001696 -0.002715 0.000000 0.003036 0.000000
# 2 -0.001696 0.030752 -0.004546 0.000000 0.011901 0.000000
# 3 -0.002715 -0.004546 0.011260 0.000000 0.003559 0.000000
# 4 0.000000 0.000000 0.000000 0.043581 0.000000 0.020116
# 5 0.003036 0.011901 0.003559 0.000000 0.034072 0.000000
# 6 0.000000 0.000000 0.000000 0.020116 0.000000 0.033229
#
#
# Mechanical properties :
#
#
# Convention : Reuss Voigt Hill
#
# Bulk Modulus (GPa) = 25.82894 42.67626 34.25260
# Shear Modulus (GPa) = 25.21029 33.88288 29.54659
#
# Velocity S-wave (km/s) = 3.13383 3.63309 3.39265
# Velocity P-wave (km/s) = 4.81211 5.85013 5.35632
#
# Compressibility (1/GPa) = 0.03871626
#
# Stress axis : x y z
#
# Youngs Moduli (GPa) = 68.40964 32.51827 88.80834
#
# Poissons Ratio (x) = 0.05515 0.24108
# Poissons Ratio (y) = 0.11602 0.40376
# Poissons Ratio (z) = 0.18570 0.14784
#
# Static dielectric constant tensor:
#      x y z
#    x 2.040820 0.000000 -0.029500 
#    y 0.000000 2.670660 0.000000 
#    z -0.029500 0.000000 2.069030 
# 
# From -- ./inp_files/45277.got.cif
#   From: 2010.05.17/outbox.cif.g08.bks.cpg/sg14_23_cif.got.tgz:45277.got - 2010.06.03 17:49:19.
