data_PCOD9245020
_publ_section_title
;
Structure prediction by ZEFSAII (Michael W. Deem and Ramdas Pophale) SiO2 
 PCOD9245020
Probable space group: P 21/C
;
_chemical_formula_sum "Si O2"
_cell_formula_units_Z 20
_cell_length_a 8.328513
_cell_length_b 15.265145
_cell_length_c 16.529294
_cell_angle_alpha 90.000000
_cell_angle_beta 155.651328
_cell_angle_gamma 90.000000
_cell_volume 866.410803
_symmetry_space_group_name_H-M "P 21/C"
_symmetry_group_IT_number 14
_symmetry_cell_setting 'monoclinic'
loop_
_space_group_symop_operation_xyz
x,y,z
-x,1/2+y,1/2-z
-x,-y,-z
x,1/2-y,1/2+z
loop_
_atom_site_type_symbol
_atom_site_label
_atom_site_fract_x
_atom_site_fract_y
_atom_site_fract_z
Si Si1 0.415931 0.039839 0.665860
Si Si2 0.455021 0.921915 0.545160
Si Si3 0.581830 0.320373 0.116695
Si Si4 0.451258 0.062843 0.856246
Si Si5 0.519744 0.871831 0.961162
O O1 0.360983 0.124571 0.583713
O O2 0.617104 0.067596 0.841959
O O3 0.615536 0.964720 0.701500
O O4 0.000000 0.000000 0.500000
O O5 0.585156 0.839912 0.550243
O O6 0.999256 0.905855 0.354556
O O7 0.500000 0.000000 0.500000
O O8 0.014438 0.360583 0.319524
O O9 0.611891 0.217112 0.141482
O O10 0.628072 0.113596 0.014480
O O11 0.433488 0.960909 0.874305
#
# Coordination Sequence:
#
# PCOD9245020 Si02
#       5
#     4   4   4   4   4
#     4   9  18  35  61  82 112 145 193 235 291 340
#     4   8  16  32  58  83 109 147 189 223 288 343
#     4  10  21  36  56  88 111 151 195 234 285 339
#     4   9  19  38  56  80 115 156 182 235 289 341
#     4  10  22  37  58  81 119 151 193 235 285 339
#
# _framework density 23.083739000000001
#
# number of rings (size 3 to 8) (size 9 to 14) (size 15 to 20)
#    0.000    2.800    0.000    0.000    8.400    0.800 
#    3.600    2.000    0.000    0.000    0.000    0.000 
#    0.000    0.000    0.000    0.000    0.000    0.000 
#
# Total GULP energy -111547.052859 kJ/mol
# GULP energy per Si atom -5577.352643 kJ/mol
# Density = 2.303120 g / cm^3
# Si number density = 23.083739 Si / 1000 Ang^3
#
#
#
# Elastic Constant Matrix: (Units=GPa)
#
#
# Indices 1 2 3 4 5 6 
#
# 1 145.3355 40.2885 28.0661 0.0000 -29.1104 0.0000
# 2 40.2885 111.8934 14.1853 0.0000 -9.6820 0.0000
# 3 28.0661 14.1853 62.1337 0.0000 -11.0479 0.0000
# 4 0.0000 0.0000 0.0000 27.7613 0.0000 -1.3275
# 5 -29.1104 -9.6820 -11.0479 0.0000 41.0658 0.0000
# 6 0.0000 0.0000 0.0000 -1.3275 0.0000 26.8763
#
#
#
# Elastic Compliance Matrix: (Units=1/GPa)
#
#
# Indices 1 2 3 4 5 6 
#
# 1 0.009116 -0.002502 -0.002628 0.000000 0.005165 0.000000
# 2 -0.002502 0.010003 -0.001102 0.000000 0.000288 0.000000
# 3 -0.002628 -0.001102 0.018018 0.000000 0.002724 0.000000
# 4 0.000000 0.000000 0.000000 0.036107 0.000000 0.001783
# 5 0.005165 0.000288 0.002724 0.000000 0.028814 0.000000
# 6 0.000000 0.000000 0.000000 0.001783 0.000000 0.037296
#
#
# Mechanical properties :
#
#
# Convention : Reuss Voigt Hill
#
# Bulk Modulus (GPa) = 40.53284 53.82694 47.17989
# Shear Modulus (GPa) = 31.24186 34.92885 33.08536
#
# Velocity S-wave (km/s) = 3.68287 3.89413 3.78997
# Velocity P-wave (km/s) = 5.97343 6.60210 6.29562
#
# Compressibility (1/GPa) = 0.02467136
#
# Stress axis : x y z
#
# Youngs Moduli (GPa) = 109.69171 99.97288 55.50145
#
# Poissons Ratio (x) = 0.25017 0.14587
# Poissons Ratio (y) = 0.27449 0.06117
# Poissons Ratio (z) = 0.28829 0.11018
#
# Static dielectric constant tensor:
#      x y z
#    x 1.909630 0.000000 -0.011880 
#    y 0.000000 1.851870 0.000000 
#    z -0.011880 0.000000 2.038580 
# 
# From -- ./inp_files/8249.got.cif
#   From: 2010.05.17/outbox.cif.g08.bks.cpg/sg14_5_cif.got.tgz:8249.got - 2010.06.03 17:49:19.
