data_PCOD9245853
_publ_section_title
;
Structure prediction by ZEFSAII (Michael W. Deem and Ramdas Pophale) SiO2 
 PCOD9245853
Probable space group: P 21/C
;
_chemical_formula_sum "Si O2"
_cell_formula_units_Z 28
_cell_length_a 14.521454
_cell_length_b 13.888716
_cell_length_c 7.346277
_cell_angle_alpha 90.000000
_cell_angle_beta 55.081292
_cell_angle_gamma 90.000000
_cell_volume 1214.884035
_symmetry_space_group_name_H-M "P 21/C"
_symmetry_group_IT_number 14
_symmetry_cell_setting 'monoclinic'
loop_
_space_group_symop_operation_xyz
x,y,z
-x,1/2+y,1/2-z
-x,-y,-z
x,1/2-y,1/2+z
loop_
_atom_site_type_symbol
_atom_site_label
_atom_site_fract_x
_atom_site_fract_y
_atom_site_fract_z
Si Si1 0.697012 0.330420 0.730462
Si Si2 0.127916 0.989899 0.066582
Si Si3 0.329756 0.387743 0.392164
Si Si4 0.121700 0.044877 0.646351
Si Si5 0.298067 0.883355 0.361007
Si Si6 0.462959 0.572188 0.357501
Si Si7 0.317991 0.331297 0.984626
O O1 0.795760 0.395415 0.537190
O O2 0.671363 0.365586 0.962933
O O3 0.733759 0.220372 0.684008
O O4 0.590488 0.350495 0.723597
O O5 0.207713 0.066422 0.078885
O O6 0.114957 0.027720 0.873204
O O7 0.005420 0.963378 0.278100
O O8 0.422987 0.468878 0.326215
O O9 0.327171 0.370906 0.178549
O O10 0.343874 0.281696 0.456780
O O11 0.194917 0.142284 0.545370
O O12 0.197032 0.959127 0.478874
O O13 0.399803 0.916319 0.119546
O O14 0.590860 0.605299 0.226287
#
# Coordination Sequence:
#
# PCOD9245853 Si02
#       7
#     4   4   4   4   4   4   4
#     4  10  21  39  64 100 129 173 225 278 339 396
#     4   8  18  42  65  87 135 167 218 275 331 393
#     4  10  24  44  66  99 134 176 224 279 339 401
#     4   9  20  39  64  94 124 178 216 270 333 398
#     4  11  22  38  68  96 132 172 227 274 339 407
#     4  11  25  44  66  95 139 179 223 278 328 409
#     4  11  25  42  67  96 137 177 226 275 340 403
#
# _framework density 23.047466
#
# number of rings (size 3 to 8) (size 9 to 14) (size 15 to 20)
#    0.000    2.000    1.429    1.286    4.000    2.857 
#    0.000    2.857    0.000    0.000    0.000    0.000 
#    0.000    0.000    0.000    0.000    0.000    0.000 
#
# Total GULP energy -156672.487535 kJ/mol
# GULP energy per Si atom -5595.445983 kJ/mol
# Density = 2.299501 g / cm^3
# Si number density = 23.047466 Si / 1000 Ang^3
#
#
#
# Elastic Constant Matrix: (Units=GPa)
#
#
# Indices 1 2 3 4 5 6 
#
# 1 62.1055 26.4259 48.6927 0.0000 -7.6598 0.0000
# 2 26.4259 146.1467 35.5082 0.0000 -9.9085 0.0000
# 3 48.6927 35.5082 128.2384 0.0000 -15.0703 0.0000
# 4 0.0000 0.0000 0.0000 9.2370 0.0000 7.0758
# 5 -7.6598 -9.9085 -15.0703 0.0000 45.2228 0.0000
# 6 0.0000 0.0000 0.0000 7.0758 0.0000 27.1511
#
#
#
# Elastic Compliance Matrix: (Units=1/GPa)
#
#
# Indices 1 2 3 4 5 6 
#
# 1 0.023617 -0.002210 -0.008266 0.000000 0.000761 0.000000
# 2 -0.002210 0.007584 -0.001155 0.000000 0.000903 0.000000
# 3 -0.008266 -0.001155 0.011513 0.000000 0.002184 0.000000
# 4 0.000000 0.000000 0.000000 0.135264 0.000000 -0.035251
# 5 0.000761 0.000903 0.002184 0.000000 0.023167 0.000000
# 6 0.000000 0.000000 0.000000 -0.035251 0.000000 0.046018
#
#
# Mechanical properties :
#
#
# Convention : Reuss Voigt Hill
#
# Bulk Modulus (GPa) = 51.40914 61.97157 56.69036
# Shear Modulus (GPa) = 18.05656 31.37977 24.71817
#
# Velocity S-wave (km/s) = 2.80206 3.69389 3.27844
# Velocity P-wave (km/s) = 5.72913 6.71864 6.24352
#
# Compressibility (1/GPa) = 0.01945179
#
# Stress axis : x y z
#
# Youngs Moduli (GPa) = 42.34275 131.85971 86.85927
#
# Poissons Ratio (x) = 0.29146 0.71797
# Poissons Ratio (y) = 0.09359 0.10028
# Poissons Ratio (z) = 0.35000 0.15224
#
# Static dielectric constant tensor:
#      x y z
#    x 1.914410 0.000000 0.012390 
#    y 0.000000 1.858040 0.000000 
#    z 0.012390 0.000000 1.869940 
# 
# From -- ./inp_files/33800.got.cif
#   From: 2010.05.17/outbox.cif.g08.bks.cpg/sg14_17_cif.got.tgz:33800.got - 2010.06.03 17:49:19.
