data_PCOD9245645
_publ_section_title
;
Structure prediction by ZEFSAII (Michael W. Deem and Ramdas Pophale) SiO2 
 PCOD9245645
Probable space group: P 21/C
;
_chemical_formula_sum "Si O2"
_cell_formula_units_Z 26
_cell_length_a 25.703594
_cell_length_b 5.124645
_cell_length_c 22.136843
_cell_angle_alpha 90.000000
_cell_angle_beta 21.636729
_cell_angle_gamma 90.000000
_cell_volume 1075.153841
_symmetry_space_group_name_H-M "P 21/C"
_symmetry_group_IT_number 14
_symmetry_cell_setting 'monoclinic'
loop_
_space_group_symop_operation_xyz
x,y,z
-x,1/2+y,1/2-z
-x,-y,-z
x,1/2-y,1/2+z
loop_
_atom_site_type_symbol
_atom_site_label
_atom_site_fract_x
_atom_site_fract_y
_atom_site_fract_z
Si Si1 0.849586 0.573953 0.465924
Si Si2 0.301280 0.358278 0.110226
Si Si3 0.603929 0.975215 0.320019
Si Si4 0.305290 0.542041 0.704092
Si Si5 0.054387 0.415063 0.040617
Si Si6 0.136954 0.248367 0.680420
Si Si7 0.000000 0.500000 0.500000
O O1 0.720190 0.456647 0.643189
O O2 0.872563 0.852639 0.474455
O O3 0.820347 0.612570 0.427313
O O4 0.998560 0.424294 0.313879
O O5 0.325459 0.070812 0.115514
O O6 0.260873 0.387836 0.083462
O O7 0.166030 0.453401 0.294857
O O8 0.448519 0.506371 0.960752
O O9 0.617293 0.203778 0.355386
O O10 0.648700 0.699454 0.301743
O O11 0.139071 0.591439 0.900735
O O12 0.913702 0.552260 0.212880
O O13 0.036475 0.152526 0.023369
#
# Coordination Sequence:
#
# PCOD9245645 Si02
#       7
#     4   4   4   4   4   4   2
#     4  11  23  43  67  95 139 184 245 281 356 408
#     4  11  25  41  70 108 140 178 240 293 362 421
#     4  11  24  47  71 104 143 191 229 294 360 432
#     4  10  23  43  72 102 145 184 229 286 369 428
#     4  10  21  38  66  97 134 178 226 293 348 420
#     4  12  23  42  67 100 133 186 238 293 341 422
#     4  10  22  40  62 104 132 168 222 300 344 422
#
# _framework density 24.182587999999999
#
# number of rings (size 3 to 8) (size 9 to 14) (size 15 to 20)
#    0.000    1.231    4.615    0.923    0.000    7.385 
#    0.000    6.154    0.000    0.000    0.000    0.000 
#    0.000    0.000    0.000    0.000    0.000    0.000 
#
# Total GULP energy -144983.611562 kJ/mol
# GULP energy per Si atom -5576.292752 kJ/mol
# Density = 2.412755 g / cm^3
# Si number density = 24.182588 Si / 1000 Ang^3
#
#
#
# Elastic Constant Matrix: (Units=GPa)
#
#
# Indices 1 2 3 4 5 6 
#
# 1 187.8685 36.2706 54.1964 0.0000 -4.1395 0.0000
# 2 36.2706 91.1294 6.9273 0.0000 -0.1862 0.0000
# 3 54.1964 6.9273 100.4851 0.0000 -13.1170 0.0000
# 4 0.0000 0.0000 0.0000 18.9959 0.0000 7.9653
# 5 -4.1395 -0.1862 -13.1170 0.0000 45.2111 0.0000
# 6 0.0000 0.0000 0.0000 7.9653 0.0000 18.9025
#
#
#
# Elastic Compliance Matrix: (Units=1/GPa)
#
#
# Indices 1 2 3 4 5 6 
#
# 1 0.006812 -0.002442 -0.003561 0.000000 -0.000419 0.000000
# 2 -0.002442 0.011908 0.000492 0.000000 -0.000032 0.000000
# 3 -0.003561 0.000492 0.012260 0.000000 0.003233 0.000000
# 4 0.000000 0.000000 0.000000 0.063941 0.000000 -0.026944
# 5 -0.000419 -0.000032 0.003233 0.000000 0.023018 0.000000
# 6 0.000000 0.000000 0.000000 -0.026944 0.000000 0.064257
#
#
# Mechanical properties :
#
#
# Convention : Reuss Voigt Hill
#
# Bulk Modulus (GPa) = 50.10146 63.80796 56.95471
# Shear Modulus (GPa) = 25.01635 35.42782 30.22208
#
# Velocity S-wave (km/s) = 3.21982 3.83170 3.53901
# Velocity P-wave (km/s) = 5.88098 6.78374 6.34843
#
# Compressibility (1/GPa) = 0.01995950
#
# Stress axis : x y z
#
# Youngs Moduli (GPa) = 146.79655 83.97916 81.56461
#
# Poissons Ratio (x) = 0.20504 0.29041
# Poissons Ratio (y) = 0.35841 -0.04011
# Poissons Ratio (z) = 0.52268 -0.04130
#
# Static dielectric constant tensor:
#      x y z
#    x 2.032490 0.000000 -0.097460 
#    y 0.000000 2.216930 0.000000 
#    z -0.097460 0.000000 2.092010 
# 
# From -- ./inp_files/75135.got.cif
#   From: 2010.05.17/outbox.cif.g08.bks.cpg/sg14_38_cif.got.tgz:75135.got - 2010.06.03 17:49:19.
