data_PCOD9245572
_publ_section_title
;
Structure prediction by ZEFSAII (Michael W. Deem and Ramdas Pophale) SiO2 
 PCOD9245572
Probable space group: P 21/C
;
_chemical_formula_sum "Si O2"
_cell_formula_units_Z 28
_cell_length_a 5.636767
_cell_length_b 15.399011
_cell_length_c 19.672544
_cell_angle_alpha 90.000000
_cell_angle_beta 44.941194
_cell_angle_gamma 90.000000
_cell_volume 1206.208100
_symmetry_space_group_name_H-M "P 21/C"
_symmetry_group_IT_number 14
_symmetry_cell_setting 'monoclinic'
loop_
_space_group_symop_operation_xyz
x,y,z
-x,1/2+y,1/2-z
-x,-y,-z
x,1/2-y,1/2+z
loop_
_atom_site_type_symbol
_atom_site_label
_atom_site_fract_x
_atom_site_fract_y
_atom_site_fract_z
Si Si1 0.607518 0.763882 0.294381
Si Si2 0.187096 0.807905 0.087158
Si Si3 0.714320 0.424778 0.200685
Si Si4 0.847964 0.040522 0.461219
Si Si5 0.500200 0.954621 0.102516
Si Si6 0.813178 0.370850 0.562453
Si Si7 0.368338 0.306928 0.064242
O O1 0.515816 0.865532 0.301029
O O2 0.305905 0.694293 0.354105
O O3 0.712733 0.754899 0.350986
O O4 0.908238 0.751844 0.181645
O O5 0.229016 0.901853 0.113703
O O6 0.115136 0.821244 0.022595
O O7 0.540237 0.755717 0.016511
O O8 0.560531 0.423770 0.307185
O O9 0.842133 0.520104 0.152778
O O10 0.057434 0.370544 0.122678
O O11 0.712158 0.136857 0.502773
O O12 0.500000 0.000000 0.500000
O O13 0.000000 0.000000 0.500000
O O14 0.522618 0.058217 0.104382
O O15 0.849636 0.926347 0.995733
#
# Coordination Sequence:
#
# PCOD9245572 Si02
#       7
#     4   4   4   4   4   4   4
#     4  11  21  39  62  90 121 165 211 266 332 402
#     4  11  22  40  65  88 127 164 218 271 336 397
#     4  11  21  38  63  87 129 166 211 268 342 403
#     4  10  21  38  63  96 129 170 213 272 336 404
#     4  11  22  41  63  89 125 170 216 268 339 398
#     4  10  24  40  62  90 123 166 215 273 325 411
#     4  10  22  39  61  90 125 166 211 273 329 403
#
# _framework density 23.213239999999999
#
# number of rings (size 3 to 8) (size 9 to 14) (size 15 to 20)
#    0.000    1.429    4.286    1.286    2.000    0.000 
#    0.000    0.000    0.000    0.000    0.000    0.000 
#    0.000    0.000    0.000    0.000    0.000    0.000 
#
# Total GULP energy -155926.784523 kJ/mol
# GULP energy per Si atom -5568.813733 kJ/mol
# Density = 2.316041 g / cm^3
# Si number density = 23.213240 Si / 1000 Ang^3
#
#
#
# Elastic Constant Matrix: (Units=GPa)
#
#
# Indices 1 2 3 4 5 6 
#
# 1 51.2885 8.7501 18.1773 0.0000 1.6172 0.0000
# 2 8.7501 95.3169 39.0167 0.0000 -2.4283 0.0000
# 3 18.1773 39.0167 155.2220 0.0000 1.3916 0.0000
# 4 0.0000 0.0000 0.0000 38.8613 0.0000 -3.2175
# 5 1.6172 -2.4283 1.3916 0.0000 30.7731 0.0000
# 6 0.0000 0.0000 0.0000 -3.2175 0.0000 27.9855
#
#
#
# Elastic Compliance Matrix: (Units=1/GPa)
#
#
# Indices 1 2 3 4 5 6 
#
# 1 0.020461 -0.001035 -0.002126 0.000000 -0.001061 0.000000
# 2 -0.001035 0.011781 -0.002850 0.000000 0.001113 0.000000
# 3 -0.002126 -0.002850 0.007412 0.000000 -0.000448 0.000000
# 4 0.000000 0.000000 0.000000 0.025980 0.000000 0.002987
# 5 -0.001061 0.001113 -0.000448 0.000000 0.032660 0.000000
# 6 0.000000 0.000000 0.000000 0.002987 0.000000 0.036076
#
#
# Mechanical properties :
#
#
# Convention : Reuss Voigt Hill
#
# Bulk Modulus (GPa) = 36.19082 48.19063 42.19072
# Shear Modulus (GPa) = 32.13293 35.24954 33.69124
#
# Velocity S-wave (km/s) = 3.72459 3.90103 3.81383
# Velocity P-wave (km/s) = 5.84133 6.41060 6.13258
#
# Compressibility (1/GPa) = 0.02763132
#
# Stress axis : x y z
#
# Youngs Moduli (GPa) = 48.87300 84.87988 134.91922
#
# Poissons Ratio (x) = 0.08784 0.28690
# Poissons Ratio (y) = 0.05058 0.38454
# Poissons Ratio (z) = 0.10393 0.24192
#
# Static dielectric constant tensor:
#      x y z
#    x 2.027220 0.000000 -0.084790 
#    y 0.000000 2.386280 0.000000 
#    z -0.084790 0.000000 1.907070 
# 
# From -- ./inp_files/37619.got.cif
#   From: 2010.05.17/outbox.cif.g08.bks.cpg/sg14_19_cif.got.tgz:37619.got - 2010.06.03 17:49:19.
