data_PCOD9245170
_publ_section_title
;
Structure prediction by ZEFSAII (Michael W. Deem and Ramdas Pophale) SiO2 
 PCOD9245170
Probable space group: P 21/C
;
_chemical_formula_sum "Si O2"
_cell_formula_units_Z 32
_cell_length_a 25.203389
_cell_length_b 8.690250
_cell_length_c 10.982710
_cell_angle_alpha 90.000000
_cell_angle_beta 148.747223
_cell_angle_gamma 90.000000
_cell_volume 1247.995433
_symmetry_space_group_name_H-M "P 21/C"
_symmetry_group_IT_number 14
_symmetry_cell_setting 'monoclinic'
loop_
_space_group_symop_operation_xyz
x,y,z
-x,1/2+y,1/2-z
-x,-y,-z
x,1/2-y,1/2+z
loop_
_atom_site_type_symbol
_atom_site_label
_atom_site_fract_x
_atom_site_fract_y
_atom_site_fract_z
Si Si1 0.645715 0.133725 0.323527
Si Si2 0.542530 0.372756 0.934993
Si Si3 0.223664 0.442155 0.082225
Si Si4 0.615257 0.869216 0.426261
Si Si5 0.990400 0.734112 0.572912
Si Si6 0.980441 0.100506 0.128321
Si Si7 0.771782 0.825163 0.076186
Si Si8 0.658863 0.068710 0.957044
O O1 0.748539 0.062135 0.469723
O O2 0.586353 0.984052 0.256278
O O3 0.667241 0.249617 0.475948
O O4 0.589955 0.253173 0.123951
O O5 0.621672 0.499765 0.040666
O O6 0.448318 0.487602 0.783270
O O7 0.475321 0.250753 0.721624
O O8 0.295638 0.504203 0.328735
O O9 0.104146 0.429102 0.875796
O O10 0.251961 0.272791 0.090087
O O11 0.710305 0.772291 0.560070
O O12 0.040005 0.693043 0.538232
O O13 0.046821 0.816398 0.797597
O O14 0.890737 0.829010 0.338876
O O15 0.944022 0.573730 0.535918
O O16 0.733253 0.997396 0.002170
#
# Coordination Sequence:
#
# PCOD9245170 Si02
#       8
#     4   4   4   4   4   4   4   4
#     4  11  22  37  55  85 122 158 213 262 316 371
#     4  11  22  36  56  83 118 160 213 263 315 373
#     4  10  21  42  60  88 126 164 201 264 319 382
#     4  10  21  37  56  81 116 167 200 263 312 373
#     4  10  21  45  67 103 132 172 212 267 324 397
#     4  10  22  43  72  97 137 168 215 265 329 392
#     4   9  21  40  64  85 124 163 207 253 325 377
#     4  11  22  38  62  87 119 165 214 258 315 387
#
# _framework density 25.641117999999999
#
# number of rings (size 3 to 8) (size 9 to 14) (size 15 to 20)
#    0.000    1.750    1.250    3.000    0.000    4.500 
#   11.250    0.000    0.000    0.000    0.000    0.000 
#    0.000    0.000    0.000    0.000    0.000    0.000 
#
# Total GULP energy -178506.349666 kJ/mol
# GULP energy per Si atom -5578.323427 kJ/mol
# Density = 2.558276 g / cm^3
# Si number density = 25.641118 Si / 1000 Ang^3
#
#
#
# Elastic Constant Matrix: (Units=GPa)
#
#
# Indices 1 2 3 4 5 6 
#
# 1 25.0533 -7.7880 19.8061 0.0000 -10.3359 0.0000
# 2 -7.7880 101.3247 -0.2184 0.0000 4.5908 0.0000
# 3 19.8061 -0.2184 58.0640 0.0000 -19.0543 0.0000
# 4 0.0000 0.0000 0.0000 35.8410 0.0000 -14.0703
# 5 -10.3359 4.5908 -19.0543 0.0000 36.0705 0.0000
# 6 0.0000 0.0000 0.0000 -14.0703 0.0000 45.3978
#
#
#
# Elastic Compliance Matrix: (Units=1/GPa)
#
#
# Indices 1 2 3 4 5 6 
#
# 1 0.057809 0.004097 -0.017467 0.000000 0.006817 0.000000
# 2 0.004097 0.010227 -0.001695 0.000000 -0.001023 0.000000
# 3 -0.017467 -0.001695 0.026132 0.000000 0.009015 0.000000
# 4 0.000000 0.000000 0.000000 0.031766 0.000000 0.009845
# 5 0.006817 -0.001023 0.009015 0.000000 0.034569 0.000000
# 6 0.000000 0.000000 0.000000 0.009845 0.000000 0.025079
#
#
# Mechanical properties :
#
#
# Convention : Reuss Voigt Hill
#
# Bulk Modulus (GPa) = 15.61541 23.11571 19.36556
# Shear Modulus (GPa) = 21.09184 34.97134 28.03159
#
# Velocity S-wave (km/s) = 2.87118 3.69708 3.30999
# Velocity P-wave (km/s) = 4.13458 5.22103 4.70924
#
# Compressibility (1/GPa) = 0.06403932
#
# Stress axis : x y z
#
# Youngs Moduli (GPa) = 17.29828 97.78183 38.26660
#
# Poissons Ratio (x) = -0.40060 0.66839
# Poissons Ratio (y) = -0.07087 0.06485
# Poissons Ratio (z) = 0.30215 0.16571
#
# Static dielectric constant tensor:
#      x y z
#    x 2.186800 0.000000 -0.104160 
#    y 0.000000 2.008620 0.000000 
#    z -0.104160 0.000000 2.066490 
# 
# From -- ./inp_files/36441.got.cif
#   From: 2010.05.17/outbox.cif.g08.bks.cpg/sg14_19_cif.got.tgz:36441.got - 2010.06.03 17:49:19.
