data_PCOD9245892
_publ_section_title
;
Structure prediction by ZEFSAII (Michael W. Deem and Ramdas Pophale) SiO2 
 PCOD9245892
Probable space group: P 21/C
;
_chemical_formula_sum "Si O2"
_cell_formula_units_Z 32
_cell_length_a 9.771861
_cell_length_b 7.020007
_cell_length_c 22.494296
_cell_angle_alpha 90.000000
_cell_angle_beta 100.352343
_cell_angle_gamma 90.000000
_cell_volume 1517.956403
_symmetry_space_group_name_H-M "P 21/C"
_symmetry_group_IT_number 14
_symmetry_cell_setting 'monoclinic'
loop_
_space_group_symop_operation_xyz
x,y,z
-x,1/2+y,1/2-z
-x,-y,-z
x,1/2-y,1/2+z
loop_
_atom_site_type_symbol
_atom_site_label
_atom_site_fract_x
_atom_site_fract_y
_atom_site_fract_z
Si Si1 0.994255 0.733298 0.403408
Si Si2 0.423277 0.660783 0.057182
Si Si3 0.398530 0.559116 0.657936
Si Si4 0.123159 0.585676 0.695398
Si Si5 0.941068 0.933696 0.680963
Si Si6 0.298422 0.245806 0.562901
Si Si7 0.673909 0.677972 0.638963
Si Si8 0.731724 0.425873 0.536086
O O1 0.115506 0.663263 0.456405
O O2 0.943344 0.555813 0.358669
O O3 0.856272 0.800522 0.426101
O O4 0.056779 0.899536 0.367214
O O5 0.373921 0.447238 0.051865
O O6 0.582614 0.685870 0.088717
O O7 0.350616 0.780830 0.105550
O O8 0.382072 0.775616 0.995104
O O9 0.289958 0.565544 0.702890
O O10 0.379560 0.360599 0.621347
O O11 0.560876 0.610785 0.679467
O O12 0.064645 0.525504 0.754565
O O13 0.074802 0.801000 0.681462
O O14 0.809560 0.791048 0.667807
O O15 0.282678 0.392278 0.507498
O O16 0.710659 0.495625 0.601681
#
# Coordination Sequence:
#
# PCOD9245892 Si02
#       8
#     4   4   4   4   4   4   4   4
#     4  11  24  40  64  97 128 168 210 270 322 369
#     4   9  21  39  63  92 128 173 207 248 316 374
#     4   8  21  42  62  90 131 162 208 258 319 373
#     4  11  22  45  68  91 124 167 211 272 320 380
#     4  12  24  43  68  94 125 163 222 264 326 376
#     4  10  21  39  64  94 130 173 210 257 311 379
#     4  10  23  43  60  96 131 169 207 263 313 380
#     4  11  22  39  63  96 132 171 213 258 312 384
#
# _framework density 21.080976
#
# number of rings (size 3 to 8) (size 9 to 14) (size 15 to 20)
#    0.750    1.000    2.500    1.500    1.750    2.000 
#    0.000    5.000    0.000    0.000    0.000    0.000 
#    0.000    0.000    0.000    0.000    0.000    0.000 
#
# Total GULP energy -178680.716558 kJ/mol
# GULP energy per Si atom -5583.772392 kJ/mol
# Density = 2.103300 g / cm^3
# Si number density = 21.080976 Si / 1000 Ang^3
#
#
#
# Elastic Constant Matrix: (Units=GPa)
#
#
# Indices 1 2 3 4 5 6 
#
# 1 67.0347 -4.5337 -1.7975 0.0000 -6.5609 0.0000
# 2 -4.5337 80.0344 11.0130 0.0000 -0.1604 0.0000
# 3 -1.7975 11.0130 15.3187 0.0000 -3.1688 0.0000
# 4 0.0000 0.0000 0.0000 12.5000 0.0000 5.3595
# 5 -6.5609 -0.1604 -3.1688 0.0000 13.2681 0.0000
# 6 0.0000 0.0000 0.0000 5.3595 0.0000 19.0733
#
#
#
# Elastic Compliance Matrix: (Units=1/GPa)
#
#
# Indices 1 2 3 4 5 6 
#
# 1 0.015885 0.000460 0.003323 0.000000 0.008654 0.000000
# 2 0.000460 0.013948 -0.010406 0.000000 -0.002089 0.000000
# 3 0.003323 -0.010406 0.077283 0.000000 0.019975 0.000000
# 4 0.000000 0.000000 0.000000 0.090959 0.000000 -0.025559
# 5 0.008654 -0.002089 0.019975 0.000000 0.084393 0.000000
# 6 0.000000 0.000000 0.000000 -0.025559 0.000000 0.059611
#
#
# Mechanical properties :
#
#
# Convention : Reuss Voigt Hill
#
# Bulk Modulus (GPa) = 10.65296 19.08348 14.86822
# Shear Modulus (GPa) = 12.93277 19.48202 16.20740
#
# Velocity S-wave (km/s) = 2.47954 3.04328 2.77576
# Velocity P-wave (km/s) = 3.64168 4.62827 4.16430
#
# Compressibility (1/GPa) = 0.09387060
#
# Stress axis : x y z
#
# Youngs Moduli (GPa) = 62.95302 71.69288 12.93952
#
# Poissons Ratio (x) = -0.03297 -0.04300
# Poissons Ratio (y) = -0.02895 0.13465
# Poissons Ratio (z) = -0.20922 0.74604
#
# Static dielectric constant tensor:
#      x y z
#    x 1.778430 0.000000 -0.014600 
#    y 0.000000 1.729160 0.000000 
#    z -0.014600 0.000000 1.735780 
# 
# From -- ./inp_files/72771.got.cif
#   From: 2010.05.17/outbox.cif.g08.bks.cpg/sg14_37_cif.got.tgz:72771.got - 2010.06.03 17:49:19.
