data_PCOD9245565
_publ_section_title
;
Structure prediction by ZEFSAII (Michael W. Deem and Ramdas Pophale) SiO2 
 PCOD9245565
Probable space group: P 21/C
;
_chemical_formula_sum "Si O2"
_cell_formula_units_Z 32
_cell_length_a 12.148388
_cell_length_b 17.789361
_cell_length_c 14.542057
_cell_angle_alpha 90.000000
_cell_angle_beta 151.166738
_cell_angle_gamma 90.000000
_cell_volume 1515.612481
_symmetry_space_group_name_H-M "P 21/C"
_symmetry_group_IT_number 14
_symmetry_cell_setting 'monoclinic'
loop_
_space_group_symop_operation_xyz
x,y,z
-x,1/2+y,1/2-z
-x,-y,-z
x,1/2-y,1/2+z
loop_
_atom_site_type_symbol
_atom_site_label
_atom_site_fract_x
_atom_site_fract_y
_atom_site_fract_z
Si Si1 0.557683 0.276461 0.395662
Si Si2 0.082042 0.187298 0.445226
Si Si3 0.089917 0.353444 0.400193
Si Si4 0.807499 0.561140 0.340320
Si Si5 0.669009 0.401205 0.976667
Si Si6 0.953778 0.832708 0.785452
Si Si7 0.691018 0.824230 0.119466
Si Si8 0.952499 0.418760 0.007383
O O1 0.592066 0.186706 0.421882
O O2 0.777480 0.315601 0.512648
O O3 0.525581 0.307429 0.476169
O O4 0.328922 0.298101 0.172787
O O5 0.996004 0.270212 0.354217
O O6 0.103732 0.147342 0.362304
O O7 0.935281 0.140908 0.411342
O O8 0.169050 0.386892 0.552832
O O9 0.298094 0.345278 0.479746
O O10 0.890059 0.401055 0.205070
O O11 0.536428 0.545686 0.140382
O O12 0.000000 0.500000 0.500000
O O13 0.873264 0.605106 0.296819
O O14 0.748937 0.420064 0.931957
O O15 0.831561 0.754326 0.723331
O O16 0.833992 0.888101 0.276721
O O17 0.000000 0.500000 0.000000
#
# Coordination Sequence:
#
# PCOD9245565 Si02
#       8
#     4   4   4   4   4   4   4   4
#     4  11  19  38  67  95 125 153 206 276 331 365
#     4  10  21  38  67  99 118 165 213 272 321 380
#     4  10  21  41  65  96 121 162 216 272 321 369
#     4  12  27  43  60  92 139 174 215 260 321 408
#     4  11  22  41  68  93 125 170 214 273 329 375
#     4  11  22  40  59  96 124 162 219 267 310 386
#     4   9  19  37  61  90 119 153 212 271 306 373
#     4  10  21  38  63  92 133 165 210 259 325 397
#
# _framework density 21.113576999999999
#
# number of rings (size 3 to 8) (size 9 to 14) (size 15 to 20)
#    0.000    1.500    6.250    0.750    0.000    6.500 
#    0.000    0.000    0.000    7.500    0.000    0.000 
#    0.000    0.000    0.000    0.000    0.000    0.000 
#
# Total GULP energy -178663.818841 kJ/mol
# GULP energy per Si atom -5583.244339 kJ/mol
# Density = 2.106552 g / cm^3
# Si number density = 21.113577 Si / 1000 Ang^3
#
#
#
# Elastic Constant Matrix: (Units=GPa)
#
#
# Indices 1 2 3 4 5 6 
#
# 1 110.5637 15.2093 12.0060 0.0000 -3.5393 0.0000
# 2 15.2093 18.5698 -15.8298 0.0000 -5.8410 0.0000
# 3 12.0060 -15.8298 62.9086 0.0000 -2.7261 0.0000
# 4 0.0000 0.0000 0.0000 46.9843 0.0000 -13.2808
# 5 -3.5393 -5.8410 -2.7261 0.0000 40.1059 0.0000
# 6 0.0000 0.0000 0.0000 -13.2808 0.0000 30.7547
#
#
#
# Elastic Compliance Matrix: (Units=1/GPa)
#
#
# Indices 1 2 3 4 5 6 
#
# 1 0.011796 -0.015474 -0.006216 0.000000 -0.001635 0.000000
# 2 -0.015474 0.094258 0.027288 0.000000 0.014217 0.000000
# 3 -0.006216 0.027288 0.024168 0.000000 0.005068 0.000000
# 4 0.000000 0.000000 0.000000 0.024243 0.000000 0.010469
# 5 -0.001635 0.014217 0.005068 0.000000 0.027205 0.000000
# 6 0.000000 0.000000 0.000000 0.010469 0.000000 0.037036
#
#
# Mechanical properties :
#
#
# Convention : Reuss Voigt Hill
#
# Bulk Modulus (GPa) = 7.07126 23.86813 15.46970
# Shear Modulus (GPa) = 19.63474 35.61275 27.62375
#
# Velocity S-wave (km/s) = 3.05283 4.11143 3.62102
# Velocity P-wave (km/s) = 3.97276 5.81959 4.98249
#
# Compressibility (1/GPa) = 0.14141751
#
# Stress axis : x y z
#
# Youngs Moduli (GPa) = 84.77548 10.60915 41.37624
#
# Poissons Ratio (x) = 0.16417 0.25719
# Poissons Ratio (y) = 1.31184 -1.12906
# Poissons Ratio (z) = 0.52696 -0.28950
#
# Static dielectric constant tensor:
#      x y z
#    x 1.767400 0.000000 0.011340 
#    y 0.000000 1.755140 0.000000 
#    z 0.011340 0.000000 1.835120 
# 
# From -- ./inp_files/45477.got.cif
#   From: 2010.05.17/outbox.cif.g08.bks.cpg/sg14_23_cif.got.tgz:45477.got - 2010.06.03 17:49:19.
