data_PCOD9245341
_publ_section_title
;
Structure prediction by ZEFSAII (Michael W. Deem and Ramdas Pophale) SiO2 
 PCOD9245341
Probable space group: P 21/C
;
_chemical_formula_sum "Si O2"
_cell_formula_units_Z 28
_cell_length_a 8.953490
_cell_length_b 8.980424
_cell_length_c 22.321175
_cell_angle_alpha 90.000000
_cell_angle_beta 51.054287
_cell_angle_gamma 90.000000
_cell_volume 1395.859593
_symmetry_space_group_name_H-M "P 21/C"
_symmetry_group_IT_number 14
_symmetry_cell_setting 'monoclinic'
loop_
_space_group_symop_operation_xyz
x,y,z
-x,1/2+y,1/2-z
-x,-y,-z
x,1/2-y,1/2+z
loop_
_atom_site_type_symbol
_atom_site_label
_atom_site_fract_x
_atom_site_fract_y
_atom_site_fract_z
Si Si1 0.232183 0.409101 0.589268
Si Si2 0.061091 0.708996 0.776730
Si Si3 0.128731 0.584923 0.014931
Si Si4 0.116325 0.902722 0.648383
Si Si5 0.802343 0.423844 0.528437
Si Si6 0.558966 0.420824 0.353082
Si Si7 0.439266 0.164453 0.464100
O O1 0.229050 0.515239 0.531886
O O2 0.322458 0.497435 0.622677
O O3 0.362256 0.267187 0.537577
O O4 0.026540 0.336067 0.657950
O O5 0.053969 0.780587 0.712375
O O6 0.276199 0.643483 0.732022
O O7 0.928273 0.564776 0.814860
O O8 0.026588 0.609055 0.105145
O O9 0.183013 0.746758 0.977439
O O10 0.304205 0.472899 0.983460
O O11 0.000000 0.500000 0.000000
O O12 0.342723 0.882391 0.582257
O O13 0.618556 0.470223 0.615308
O O14 0.000000 0.500000 0.500000
O O15 0.448547 0.276761 0.405977
#
# Coordination Sequence:
#
# PCOD9245341 Si02
#       7
#     4   4   4   4   4   4   4
#     4  11  20  39  63  93 127 166 211 273 327 377
#     4  11  22  36  64  93 132 162 209 261 332 379
#     4  12  24  39  65  98 127 164 221 272 318 381
#     4  11  23  38  64  95 129 164 215 267 328 380
#     4  11  24  41  67  90 127 170 219 265 325 381
#     4  10  21  40  62  95 128 163 211 271 324 384
#     4  10  21  37  64  95 120 163 223 272 308 375
#
# _framework density 20.059325000000001
#
# number of rings (size 3 to 8) (size 9 to 14) (size 15 to 20)
#    0.000    1.143    2.857    6.429    2.000    0.000 
#    0.000    0.000    9.429    1.714    0.000    0.000 
#    0.000    0.000    0.000    0.000    0.000    0.000 
#
# Total GULP energy -156249.864839 kJ/mol
# GULP energy per Si atom -5580.352316 kJ/mol
# Density = 2.001367 g / cm^3
# Si number density = 20.059325 Si / 1000 Ang^3
#
#
#
# Elastic Constant Matrix: (Units=GPa)
#
#
# Indices 1 2 3 4 5 6 
#
# 1 26.5173 11.3259 -2.9286 0.0000 5.0679 0.0000
# 2 11.3259 146.3247 31.0262 0.0000 -5.2746 0.0000
# 3 -2.9286 31.0262 94.2812 0.0000 -4.8856 0.0000
# 4 0.0000 0.0000 0.0000 55.5720 0.0000 -4.7903
# 5 5.0679 -5.2746 -4.8856 0.0000 9.4823 0.0000
# 6 0.0000 0.0000 0.0000 -4.7903 0.0000 28.3628
#
#
#
# Elastic Compliance Matrix: (Units=1/GPa)
#
#
# Indices 1 2 3 4 5 6 
#
# 1 0.044841 -0.004743 0.001618 0.000000 -0.025770 0.000000
# 2 -0.004743 0.007928 -0.002462 0.000000 0.005676 0.000000
# 3 0.001618 -0.002462 0.011663 0.000000 0.003774 0.000000
# 4 0.000000 0.000000 0.000000 0.018261 0.000000 0.003084
# 5 -0.025770 0.005676 0.003774 0.000000 0.124336 0.000000
# 6 0.000000 0.000000 0.000000 0.003084 0.000000 0.035778
#
#
# Mechanical properties :
#
#
# Convention : Reuss Voigt Hill
#
# Bulk Modulus (GPa) = 18.77652 38.44113 28.60882
# Shear Modulus (GPa) = 18.40049 33.86341 26.13195
#
# Velocity S-wave (km/s) = 3.03199 4.11318 3.61326
# Velocity P-wave (km/s) = 4.65168 6.46243 5.63032
#
# Compressibility (1/GPa) = 0.05325801
#
# Stress axis : x y z
#
# Youngs Moduli (GPa) = 22.30109 126.13678 85.74367
#
# Poissons Ratio (x) = 0.59825 -0.13876
# Poissons Ratio (y) = 0.10577 0.21111
# Poissons Ratio (z) = -0.03609 0.31056
#
# Static dielectric constant tensor:
#      x y z
#    x 1.665630 0.000000 0.011550 
#    y 0.000000 1.737800 0.000000 
#    z 0.011550 0.000000 1.759000 
# 
# From -- ./inp_files/76302.got.cif
#   From: 2010.05.17/outbox.cif.g08.bks.cpg/sg14_39_cif.got.tgz:76302.got - 2010.06.03 17:49:19.
