data_PCOD9245884
_publ_section_title
;
Structure prediction by ZEFSAII (Michael W. Deem and Ramdas Pophale) SiO2 
 PCOD9245884
Probable space group: P 21/C
;
_chemical_formula_sum "Si O2"
_cell_formula_units_Z 30
_cell_length_a 27.388599
_cell_length_b 7.899364
_cell_length_c 9.216564
_cell_angle_alpha 90.000000
_cell_angle_beta 143.247363
_cell_angle_gamma 90.000000
_cell_volume 1193.148811
_symmetry_space_group_name_H-M "P 21/C"
_symmetry_group_IT_number 14
_symmetry_cell_setting 'monoclinic'
loop_
_space_group_symop_operation_xyz
x,y,z
-x,1/2+y,1/2-z
-x,-y,-z
x,1/2-y,1/2+z
loop_
_atom_site_type_symbol
_atom_site_label
_atom_site_fract_x
_atom_site_fract_y
_atom_site_fract_z
Si Si1 0.255877 0.734614 0.495188
Si Si2 0.812304 0.712941 0.735295
Si Si3 0.536740 0.589913 0.373607
Si Si4 0.000000 0.500000 0.500000
Si Si5 0.997087 0.681399 0.196908
Si Si6 0.166619 0.560586 0.537645
Si Si7 0.556666 0.262997 0.092565
Si Si8 0.278034 0.414997 0.223982
O O1 0.215586 0.597918 0.506703
O O2 0.197980 0.798009 0.228154
O O3 0.267509 0.902666 0.624774
O O4 0.347857 0.700224 0.658287
O O5 0.773698 0.786756 0.498260
O O6 0.757163 0.588458 0.698559
O O7 0.816761 0.882993 0.845192
O O8 0.903055 0.644258 0.934432
O O9 0.490868 0.713165 0.375980
O O10 0.484458 0.594057 0.103234
O O11 0.545920 0.409289 0.472541
O O12 0.628620 0.644081 0.556166
O O13 0.005034 0.657566 0.390585
O O14 0.009228 0.630403 0.659317
O O15 0.070180 0.578719 0.297323
#
# Coordination Sequence:
#
# PCOD9245884 Si02
#       8
#     4   4   4   2   4   4   4   4
#     4  10  23  41  64  95 131 174 227 289 357 430
#     4  11  24  43  66  95 133 179 231 293 360 434
#     4  10  21  39  64  92 129 173 221 282 351 431
#     4  12  28  52  76 112 152 196 266 316 386 452
#     4  12  26  48  78 108 150 202 256 320 380 462
#     4  11  24  43  66  95 133 179 231 293 360 434
#     4  10  21  39  64  92 129 173 221 282 351 431
#     4  10  23  41  64  95 131 174 227 289 357 430
#
# _framework density 25.143552
#
# number of rings (size 3 to 8) (size 9 to 14) (size 15 to 20)
#    0.000    1.333    1.333    3.200    5.600    5.333 
#    4.800    0.000    0.000    0.000    0.000    0.000 
#    0.000    0.000    0.000    0.000    0.000    0.000 
#
# Total GULP energy -167578.966565 kJ/mol
# GULP energy per Si atom -5585.965552 kJ/mol
# Density = 2.508632 g / cm^3
# Si number density = 25.143552 Si / 1000 Ang^3
#
#
#
# Elastic Constant Matrix: (Units=GPa)
#
#
# Indices 1 2 3 4 5 6 
#
# 1 171.4761 36.1692 78.7822 0.0000 4.8799 0.0000
# 2 36.1692 86.0508 36.1059 0.0000 -9.0974 0.0000
# 3 78.7822 36.1059 98.8488 0.0000 12.3021 0.0000
# 4 0.0000 0.0000 0.0000 43.3732 0.0000 -33.0410
# 5 4.8799 -9.0974 12.3021 0.0000 40.7900 0.0000
# 6 0.0000 0.0000 0.0000 -33.0410 0.0000 85.7289
#
#
#
# Elastic Compliance Matrix: (Units=1/GPa)
#
#
# Indices 1 2 3 4 5 6 
#
# 1 0.009294 -0.000776 -0.007236 0.000000 0.000897 0.000000
# 2 -0.000776 0.014737 -0.005387 0.000000 0.005004 0.000000
# 3 -0.007236 -0.005387 0.018591 0.000000 -0.005943 0.000000
# 4 0.000000 0.000000 0.000000 0.032638 0.000000 0.012579
# 5 0.000897 0.005004 -0.005943 0.000000 0.027317 0.000000
# 6 0.000000 0.000000 0.000000 0.012579 0.000000 0.016513
#
#
# Mechanical properties :
#
#
# Convention : Reuss Voigt Hill
#
# Bulk Modulus (GPa) = 63.19537 73.16560 68.18049
# Shear Modulus (GPa) = 33.07709 47.66631 40.37170
#
# Velocity S-wave (km/s) = 3.63096 4.35876 4.01140
# Velocity P-wave (km/s) = 6.53964 7.38201 6.97356
#
# Compressibility (1/GPa) = 0.01582394
#
# Stress axis : x y z
#
# Youngs Moduli (GPa) = 107.59432 67.85825 53.79003
#
# Poissons Ratio (x) = 0.05263 0.38921
# Poissons Ratio (y) = 0.08345 0.28979
# Poissons Ratio (z) = 0.77853 0.36558
#
# Static dielectric constant tensor:
#      x y z
#    x 1.950980 0.000000 -0.055290 
#    y 0.000000 2.053860 0.000000 
#    z -0.055290 0.000000 1.950650 
# 
# From -- ./inp_files/19785.got.cif
#   From: 2010.05.17/outbox.cif.g08.bks.cpg/sg14_10_cif.got.tgz:19785.got - 2010.06.03 17:49:19.
