data_PCOD9245995
_publ_section_title
;
Structure prediction by ZEFSAII (Michael W. Deem and Ramdas Pophale) SiO2 
 PCOD9245995
Probable space group: P 21/C
;
_chemical_formula_sum "Si O2"
_cell_formula_units_Z 24
_cell_length_a 8.875891
_cell_length_b 12.923256
_cell_length_c 17.998263
_cell_angle_alpha 90.000000
_cell_angle_beta 147.297327
_cell_angle_gamma 90.000000
_cell_volume 1115.406199
_symmetry_space_group_name_H-M "P 21/C"
_symmetry_group_IT_number 14
_symmetry_cell_setting 'monoclinic'
loop_
_space_group_symop_operation_xyz
x,y,z
-x,1/2+y,1/2-z
-x,-y,-z
x,1/2-y,1/2+z
loop_
_atom_site_type_symbol
_atom_site_label
_atom_site_fract_x
_atom_site_fract_y
_atom_site_fract_z
Si Si1 0.676229 0.801309 0.211945
Si Si2 0.038685 0.701991 0.472258
Si Si3 0.277862 0.994354 0.664169
Si Si4 0.477382 0.712162 0.327755
Si Si5 0.817813 0.422476 0.337282
Si Si6 0.326823 0.399056 0.448424
O O1 0.895868 0.717671 0.333574
O O2 0.718260 0.907390 0.277834
O O3 0.726717 0.835011 0.148612
O O4 0.359116 0.760726 0.095038
O O5 0.780430 0.741189 0.417393
O O6 0.093980 0.596550 0.540086
O O7 0.550234 0.005764 0.725595
O O8 0.332320 0.887167 0.729272
O O9 0.000000 0.000000 0.500000
O O10 0.286526 0.810075 0.234084
O O11 0.527361 0.677934 0.432585
O O12 0.066627 0.446003 0.385883
O O13 0.500000 0.500000 0.500000
#
# Coordination Sequence:
#
# PCOD9245995 Si02
#       6
#     4   4   4   4   4   4
#     4  11  23  42  62  99 131 171 230 271 344 396
#     4  10  21  39  68  89 130 169 230 275 327 392
#     4  11  23  40  70  97 131 170 235 282 328 404
#     4  11  22  41  67  95 133 176 221 282 337 399
#     4  10  24  43  67  99 133 176 229 273 344 400
#     4  11  25  42  62  92 141 178 219 273 348 406
#
# _framework density 21.516825000000001
#
# number of rings (size 3 to 8) (size 9 to 14) (size 15 to 20)
#    0.000    1.333    5.000    1.000    7.000    2.000 
#    0.000    0.833    0.000    0.000    0.000    0.000 
#    0.000    0.000    0.000    0.000    0.000    0.000 
#
# Total GULP energy -133907.866846 kJ/mol
# GULP energy per Si atom -5579.494452 kJ/mol
# Density = 2.146785 g / cm^3
# Si number density = 21.516825 Si / 1000 Ang^3
#
#
#
# Elastic Constant Matrix: (Units=GPa)
#
#
# Indices 1 2 3 4 5 6 
#
# 1 105.9387 23.1331 70.0149 0.0000 -18.9873 0.0000
# 2 23.1331 81.3631 41.1927 0.0000 -12.1109 0.0000
# 3 70.0149 41.1927 164.3015 0.0000 -7.4533 0.0000
# 4 0.0000 0.0000 0.0000 13.2288 0.0000 0.9246
# 5 -18.9873 -12.1109 -7.4533 0.0000 46.5097 0.0000
# 6 0.0000 0.0000 0.0000 0.9246 0.0000 32.7056
#
#
#
# Elastic Compliance Matrix: (Units=1/GPa)
#
#
# Indices 1 2 3 4 5 6 
#
# 1 0.014159 -0.000427 -0.005711 0.000000 0.004754 0.000000
# 2 -0.000427 0.014555 -0.003328 0.000000 0.003083 0.000000
# 3 -0.005711 -0.003328 0.009277 0.000000 -0.001711 0.000000
# 4 0.000000 0.000000 0.000000 0.075742 0.000000 -0.002141
# 5 0.004754 0.003083 -0.001711 0.000000 0.023970 0.000000
# 6 0.000000 0.000000 0.000000 -0.002141 0.000000 0.030636
#
#
# Mechanical properties :
#
#
# Convention : Reuss Voigt Hill
#
# Bulk Modulus (GPa) = 52.46423 68.92051 60.69237
# Shear Modulus (GPa) = 25.82321 32.97301 29.39811
#
# Velocity S-wave (km/s) = 3.46806 3.91887 3.70034
# Velocity P-wave (km/s) = 6.36179 7.25102 6.82091
#
# Compressibility (1/GPa) = 0.01906060
#
# Stress axis : x y z
#
# Youngs Moduli (GPa) = 70.62600 68.70280 107.79686
#
# Poissons Ratio (x) = 0.02931 0.61564
# Poissons Ratio (y) = 0.03013 0.35870
# Poissons Ratio (z) = 0.40335 0.22862
#
# Static dielectric constant tensor:
#      x y z
#    x 1.765060 0.000000 -0.005340 
#    y 0.000000 1.851540 0.000000 
#    z -0.005340 0.000000 1.831360 
# 
# From -- ./inp_files/18043.got.cif
#   From: 2010.05.17/outbox.cif.g08.bks.cpg/sg14_10_cif.got.tgz:18043.got - 2010.06.03 17:49:19.
