data_PCOD9245844
_publ_section_title
;
Structure prediction by ZEFSAII (Michael W. Deem and Ramdas Pophale) SiO2 
 PCOD9245844
Probable space group: P 21/C
;
_chemical_formula_sum "Si O2"
_cell_formula_units_Z 26
_cell_length_a 17.685545
_cell_length_b 4.852255
_cell_length_c 11.709765
_cell_angle_alpha 90.000000
_cell_angle_beta 88.481640
_cell_angle_gamma 90.000000
_cell_volume 1004.518014
_symmetry_space_group_name_H-M "P 21/C"
_symmetry_group_IT_number 14
_symmetry_cell_setting 'monoclinic'
loop_
_space_group_symop_operation_xyz
x,y,z
-x,1/2+y,1/2-z
-x,-y,-z
x,1/2-y,1/2+z
loop_
_atom_site_type_symbol
_atom_site_label
_atom_site_fract_x
_atom_site_fract_y
_atom_site_fract_z
Si Si1 0.421853 0.336236 0.339659
Si Si2 0.888106 0.791236 0.658306
Si Si3 0.000000 0.000000 0.000000
Si Si4 0.735152 0.641261 0.058612
Si Si5 0.902200 0.285287 0.801841
Si Si6 0.746430 0.358985 0.418205
Si Si7 0.585511 0.160407 0.814162
O O1 0.350139 0.230645 0.411397
O O2 0.414508 0.650611 0.299587
O O3 0.506603 0.283902 0.382710
O O4 0.417947 0.156085 0.224102
O O5 0.922979 0.668112 0.541925
O O6 0.797424 0.781621 0.650024
O O7 0.913489 0.596926 0.761712
O O8 0.915104 0.098543 0.687630
O O9 0.046568 0.821141 0.097290
O O10 0.747734 0.320755 0.033817
O O11 0.754086 0.820386 0.946068
O O12 0.815643 0.237428 0.839471
O O13 0.664182 0.293453 0.371900
#
# Coordination Sequence:
#
# PCOD9245844 Si02
#       7
#     4   4   2   4   4   4   4
#     4  10  21  39  63  93 133 181 233 287 344 411
#     4  12  27  48  74 104 141 186 226 289 358 414
#     4  12  28  50  76 108 140 176 242 292 338 446
#     4  12  24  42  67 100 139 181 234 291 340 419
#     4  12  27  48  74 104 141 186 226 289 358 414
#     4  12  24  42  67 100 139 181 234 291 340 419
#     4  10  21  39  63  93 133 181 233 287 344 411
#
# _framework density 25.883058999999999
#
# number of rings (size 3 to 8) (size 9 to 14) (size 15 to 20)
#    0.000    0.615    1.538    6.462    0.000    2.462 
#    0.000    0.000    0.000    0.000    0.000    0.000 
#    0.000    0.000    0.000    0.000    0.000    0.000 
#
# Total GULP energy -145197.751534 kJ/mol
# GULP energy per Si atom -5584.528905 kJ/mol
# Density = 2.582415 g / cm^3
# Si number density = 25.883059 Si / 1000 Ang^3
#
#
#
# Elastic Constant Matrix: (Units=GPa)
#
#
# Indices 1 2 3 4 5 6 
#
# 1 178.9840 -3.8061 23.9960 0.0000 11.4617 0.0000
# 2 -3.8061 67.1139 -3.8855 0.0000 3.6618 0.0000
# 3 23.9960 -3.8855 42.7643 0.0000 3.5465 0.0000
# 4 0.0000 0.0000 0.0000 42.9700 0.0000 3.9128
# 5 11.4617 3.6618 3.5465 0.0000 38.4262 0.0000
# 6 0.0000 0.0000 0.0000 3.9128 0.0000 -3.2634
#
#
#
# Elastic Compliance Matrix: (Units=1/GPa)
#
#
# Indices 1 2 3 4 5 6 
#
# 1 0.006133 0.000242 -0.003291 0.000000 -0.001549 0.000000
# 2 0.000242 0.015082 0.001370 0.000000 -0.001636 0.000000
# 3 -0.003291 0.001370 0.025479 0.000000 -0.001501 0.000000
# 4 0.000000 0.000000 0.000000 0.020981 0.000000 0.025156
# 5 -0.001549 -0.001636 -0.001501 0.000000 0.026780 0.000000
# 6 0.000000 0.000000 0.000000 0.025156 0.000000 -0.276266
#
#
# Mechanical properties :
#
#
# Convention : Reuss Voigt Hill
#
# Bulk Modulus (GPa) = 23.07488 35.71900 29.39694
# Shear Modulus (GPa) = -30.48652 33.79707 1.65528
#
# Velocity S-wave (km/s) = -3.43571 3.61745 0.80057
# Velocity P-wave (km/s) = 2.60853 5.59268 3.49811
#
# Compressibility (1/GPa) = 0.04333716
#
# Stress axis : x y z
#
# Youngs Moduli (GPa) = 163.06347 66.30266 39.24731
#
# Poissons Ratio (x) = -0.01603 0.12915
# Poissons Ratio (y) = -0.03942 -0.05378
# Poissons Ratio (z) = 0.53660 -0.09086
#
# Static dielectric constant tensor:
#      x y z
#    x 2.166120 0.000000 -0.066530 
#    y 0.000000 1.964810 0.000000 
#    z -0.066530 0.000000 2.064030 
# 
# From -- ./inp_files/33380.got.cif
#   From: 2010.05.17/outbox.cif.g08.bks.cpg/sg14_17_cif.got.tgz:33380.got - 2010.06.03 17:49:19.
