data_PCOD9245410
_publ_section_title
;
Structure prediction by ZEFSAII (Michael W. Deem and Ramdas Pophale) SiO2 
 PCOD9245410
Probable space group: P 21/C
;
_chemical_formula_sum "Si O2"
_cell_formula_units_Z 32
_cell_length_a 6.208613
_cell_length_b 23.366313
_cell_length_c 11.720248
_cell_angle_alpha 90.000000
_cell_angle_beta 66.739728
_cell_angle_gamma 90.000000
_cell_volume 1562.086047
_symmetry_space_group_name_H-M "P 21/C"
_symmetry_group_IT_number 14
_symmetry_cell_setting 'monoclinic'
loop_
_space_group_symop_operation_xyz
x,y,z
-x,1/2+y,1/2-z
-x,-y,-z
x,1/2-y,1/2+z
loop_
_atom_site_type_symbol
_atom_site_label
_atom_site_fract_x
_atom_site_fract_y
_atom_site_fract_z
Si Si1 0.407502 0.606883 0.108463
Si Si2 0.848904 0.328808 0.468959
Si Si3 0.036556 0.464320 0.814605
Si Si4 0.828783 0.185579 0.708660
Si Si5 0.582919 0.880579 0.819061
Si Si6 0.097589 0.421337 0.060577
Si Si7 0.145667 0.212873 0.099722
Si Si8 0.583802 0.210790 0.548580
O O1 0.198828 0.564334 0.184934
O O2 0.521150 0.629906 0.200525
O O3 0.619874 0.577761 0.993743
O O4 0.329130 0.659521 0.047935
O O5 0.841065 0.336950 0.335074
O O6 0.660507 0.372439 0.562828
O O7 0.753655 0.264461 0.504509
O O8 0.081602 0.323061 0.498773
O O9 0.011917 0.532201 0.830676
O O10 0.270731 0.439635 0.707565
O O11 0.038273 0.441076 0.944802
O O12 0.594200 0.189974 0.678983
O O13 0.995243 0.141125 0.606200
O O14 0.926792 0.250412 0.690427
O O15 0.756454 0.832141 0.830136
O O16 0.344051 0.262143 0.050790
#
# Coordination Sequence:
#
# PCOD9245410 Si02
#       8
#     4   4   4   4   4   4   4   4
#     4  11  20  36  63  88 121 153 201 254 310 363
#     4  10  24  37  57  86 126 159 200 240 300 371
#     4  10  21  38  64  84 127 153 209 258 306 364
#     4  11  22  38  60  88 128 156 197 253 305 368
#     4  10  23  38  59  87 117 164 203 245 303 363
#     4  10  21  38  58  96 116 161 202 259 312 358
#     4  10  22  38  56  88 121 161 198 241 303 369
#     4  10  22  35  57  91 119 157 195 240 307 360
#
# _framework density 20.485427000000001
#
# number of rings (size 3 to 8) (size 9 to 14) (size 15 to 20)
#    0.000    1.750    2.500    1.125    8.750    1.000 
#    0.000    0.625    0.000    3.000    0.000    0.000 
#    0.000    0.000    0.000    0.000    0.000    0.000 
#
# Total GULP energy -178293.790019 kJ/mol
# GULP energy per Si atom -5571.680938 kJ/mol
# Density = 2.043880 g / cm^3
# Si number density = 20.485427 Si / 1000 Ang^3
#
#
#
# Elastic Constant Matrix: (Units=GPa)
#
#
# Indices 1 2 3 4 5 6 
#
# 1 88.5189 11.5010 23.3631 0.0000 15.7807 0.0000
# 2 11.5010 30.6706 -3.9541 0.0000 5.6990 0.0000
# 3 23.3631 -3.9541 57.7981 0.0000 20.4896 0.0000
# 4 0.0000 0.0000 0.0000 25.4572 0.0000 -7.0822
# 5 15.7807 5.6990 20.4896 0.0000 15.9046 0.0000
# 6 0.0000 0.0000 0.0000 -7.0822 0.0000 17.0934
#
#
#
# Elastic Compliance Matrix: (Units=1/GPa)
#
#
# Indices 1 2 3 4 5 6 
#
# 1 0.014163 -0.004000 -0.002807 0.000000 -0.009003 0.000000
# 2 -0.004000 0.041838 0.015436 0.000000 -0.030909 0.000000
# 3 -0.002807 0.015436 0.037669 0.000000 -0.051275 0.000000
# 4 0.000000 0.000000 0.000000 0.044399 0.000000 0.018396
# 5 -0.009003 -0.030909 -0.051275 0.000000 0.148940 0.000000
# 6 0.000000 0.000000 0.000000 0.018396 0.000000 0.066124
#
#
# Mechanical properties :
#
#
# Convention : Reuss Voigt Hill
#
# Bulk Modulus (GPa) = 9.01472 26.53416 17.77444
# Shear Modulus (GPa) = 13.41027 21.42957 17.41992
#
# Velocity S-wave (km/s) = 2.56134 3.23784 2.91925
# Velocity P-wave (km/s) = 3.62731 5.19220 4.47863
#
# Compressibility (1/GPa) = 0.11092965
#
# Stress axis : x y z
#
# Youngs Moduli (GPa) = 70.60890 23.90182 26.54689
#
# Poissons Ratio (x) = 0.09560 0.07451
# Poissons Ratio (y) = 0.28241 -0.40979
# Poissons Ratio (z) = 0.19818 -0.36896
#
# Static dielectric constant tensor:
#      x y z
#    x 1.861680 0.000000 -0.005120 
#    y 0.000000 1.700730 0.000000 
#    z -0.005120 0.000000 1.760470 
# 
# From -- ./inp_files/22122.got.cif
#   From: 2010.05.17/outbox.cif.g08.bks.cpg/sg14_12_cif.got.tgz:22122.got - 2010.06.03 17:49:19.
