data_PCOD9245805
_publ_section_title
;
Structure prediction by ZEFSAII (Michael W. Deem and Ramdas Pophale) SiO2 
 PCOD9245805
Probable space group: P 21/C
;
_chemical_formula_sum "Si O2"
_cell_formula_units_Z 30
_cell_length_a 8.302109
_cell_length_b 8.135766
_cell_length_c 29.910507
_cell_angle_alpha 90.000000
_cell_angle_beta 35.423000
_cell_angle_gamma 90.000000
_cell_volume 1170.968682
_symmetry_space_group_name_H-M "P 21/C"
_symmetry_group_IT_number 14
_symmetry_cell_setting 'monoclinic'
loop_
_space_group_symop_operation_xyz
x,y,z
-x,1/2+y,1/2-z
-x,-y,-z
x,1/2-y,1/2+z
loop_
_atom_site_type_symbol
_atom_site_label
_atom_site_fract_x
_atom_site_fract_y
_atom_site_fract_z
Si Si1 0.089638 0.845144 0.745059
Si Si2 0.623742 0.002653 0.801439
Si Si3 0.106908 0.307911 0.410239
Si Si4 0.649899 0.136546 0.403477
Si Si5 0.185218 0.489960 0.836750
Si Si6 0.000000 0.500000 0.500000
Si Si7 0.124524 0.980086 0.123699
Si Si8 0.865463 0.740908 0.446098
O O1 0.180525 0.662560 0.737179
O O2 0.296776 0.907167 0.659725
O O3 0.784085 0.860290 0.791078
O O4 0.071856 0.953448 0.793085
O O5 0.324772 0.066751 0.887329
O O6 0.607345 0.972857 0.752021
O O7 0.871406 0.332677 0.499439
O O8 0.037443 0.388919 0.379054
O O9 0.229503 0.135242 0.367748
O O10 0.692374 0.335512 0.396775
O O11 0.344075 0.115459 0.491266
O O12 0.891705 0.057298 0.378655
O O13 0.143982 0.672047 0.864936
O O14 0.913407 0.624402 0.476992
O O15 0.255505 0.135920 0.068483
#
# Coordination Sequence:
#
# PCOD9245805 Si02
#       8
#     4   4   4   4   4   2   4   4
#     4  11  21  39  62  95 125 162 219 260 309 384
#     4  11  23  41  64  93 130 166 208 270 321 369
#     4  10  24  44  63  91 131 168 214 256 330 372
#     4  10  21  39  62  93 131 166 209 270 318 366
#     4  10  23  40  66  96 126 163 218 267 307 391
#     4  10  24  40  62  90 128 170 212 254 308 396
#     4  10  21  39  64  93 125 169 218 260 307 400
#     4  11  21  41  64  93 130 169 211 259 326 371
#
# _framework density 25.619812
#
# number of rings (size 3 to 8) (size 9 to 14) (size 15 to 20)
#    0.000    1.600    2.667    1.600    1.867    0.533 
#    0.000    2.667    0.000    0.000    0.000    0.000 
#    0.000    0.000    0.000    0.000    0.000    0.000 
#
# Total GULP energy -167269.597882 kJ/mol
# GULP energy per Si atom -5575.653263 kJ/mol
# Density = 2.556150 g / cm^3
# Si number density = 25.619812 Si / 1000 Ang^3
#
#
#
# Elastic Constant Matrix: (Units=GPa)
#
#
# Indices 1 2 3 4 5 6 
#
# 1 91.5702 18.1770 31.6527 0.0000 28.3077 0.0000
# 2 18.1770 53.1550 31.0857 0.0000 15.4079 0.0000
# 3 31.6527 31.0857 102.1107 0.0000 38.8116 0.0000
# 4 0.0000 0.0000 0.0000 36.9294 0.0000 10.0814
# 5 28.3077 15.4079 38.8116 0.0000 55.1485 0.0000
# 6 0.0000 0.0000 0.0000 10.0814 0.0000 38.6724
#
#
#
# Elastic Compliance Matrix: (Units=1/GPa)
#
#
# Indices 1 2 3 4 5 6 
#
# 1 0.013506 -0.002209 -0.001520 0.000000 -0.005246 0.000000
# 2 -0.002209 0.023418 -0.005991 0.000000 -0.001192 0.000000
# 3 -0.001520 -0.005991 0.015229 0.000000 -0.008264 0.000000
# 4 0.000000 0.000000 0.000000 0.029153 0.000000 -0.007600
# 5 -0.005246 -0.001192 -0.008264 0.000000 0.026974 0.000000
# 6 0.000000 0.000000 0.000000 -0.007600 0.000000 0.027839
#
#
# Mechanical properties :
#
#
# Convention : Reuss Voigt Hill
#
# Bulk Modulus (GPa) = 30.56949 45.40742 37.98846
# Shear Modulus (GPa) = 30.03629 37.21142 33.62386
#
# Velocity S-wave (km/s) = 3.42773 3.81523 3.62666
# Velocity P-wave (km/s) = 5.25582 6.09672 5.69182
#
# Compressibility (1/GPa) = 0.03271235
#
# Stress axis : x y z
#
# Youngs Moduli (GPa) = 74.03997 42.70296 65.66233
#
# Poissons Ratio (x) = 0.09433 0.09984
# Poissons Ratio (y) = 0.16355 0.39339
# Poissons Ratio (z) = 0.11257 0.25584
#
# Static dielectric constant tensor:
#      x y z
#    x 2.020720 0.000000 -0.004290 
#    y 0.000000 2.120860 0.000000 
#    z -0.004290 0.000000 3.020760 
# 
# From -- ./inp_files/79475.got.cif
#   From: 2010.05.17/outbox.cif.g08.bks.cpg/sg14_40_cif.got.tgz:79475.got - 2010.06.03 17:49:19.
