data_PCOD9245426
_publ_section_title
;
Structure prediction by ZEFSAII (Michael W. Deem and Ramdas Pophale) SiO2 
 PCOD9245426
Probable space group: P 21/C
;
_chemical_formula_sum "Si O2"
_cell_formula_units_Z 28
_cell_length_a 9.339702
_cell_length_b 11.402038
_cell_length_c 14.735198
_cell_angle_alpha 90.000000
_cell_angle_beta 57.262050
_cell_angle_gamma 90.000000
_cell_volume 1319.916196
_symmetry_space_group_name_H-M "P 21/C"
_symmetry_group_IT_number 14
_symmetry_cell_setting 'monoclinic'
loop_
_space_group_symop_operation_xyz
x,y,z
-x,1/2+y,1/2-z
-x,-y,-z
x,1/2-y,1/2+z
loop_
_atom_site_type_symbol
_atom_site_label
_atom_site_fract_x
_atom_site_fract_y
_atom_site_fract_z
Si Si1 0.301139 0.901012 0.229371
Si Si2 0.811652 0.589970 0.374464
Si Si3 0.083740 0.738019 0.190677
Si Si4 0.894500 0.934599 0.164334
Si Si5 0.302104 0.512740 0.089479
Si Si6 0.675384 0.687476 0.597649
Si Si7 0.186316 0.056413 0.434953
O O1 0.146491 0.813185 0.256222
O O2 0.473731 0.826992 0.179721
O O3 0.291918 0.991385 0.146252
O O4 0.280196 0.975936 0.327975
O O5 0.703553 0.664666 0.481384
O O6 0.911568 0.666886 0.267284
O O7 0.973489 0.541473 0.376991
O O8 0.232744 0.646552 0.116797
O O9 0.027280 0.827968 0.132849
O O10 0.773299 0.912842 0.121329
O O11 0.772279 0.952115 0.294383
O O12 0.500000 0.500000 0.000000
O O13 0.226456 0.455221 0.026725
O O14 0.758948 0.809209 0.601967
O O15 0.000000 0.000000 0.500000
#
# Coordination Sequence:
#
# PCOD9245426 Si02
#       7
#     4   4   4   4   4   4   4
#     4  11  24  41  62  96 129 161 211 266 314 372
#     4  10  21  40  62  85 123 170 212 256 312 384
#     4  10  21  40  62  85 123 166 204 254 314 372
#     4  10  21  38  59  87 123 164 210 256 312 382
#     4  11  22  39  61  89 121 158 205 257 307 365
#     4  12  23  39  63  93 126 164 208 267 320 362
#     4  12  24  41  66  93 123 165 212 254 310 385
#
# _framework density 21.213467999999999
#
# number of rings (size 3 to 8) (size 9 to 14) (size 15 to 20)
#    0.000    1.143    0.000    8.571    0.000    1.143 
#    0.000   10.000    0.000    0.000    0.000    0.000 
#    0.000    0.000    0.000    0.000    0.000    0.000 
#
# Total GULP energy -156115.291258 kJ/mol
# GULP energy per Si atom -5575.546116 kJ/mol
# Density = 2.116518 g / cm^3
# Si number density = 21.213468 Si / 1000 Ang^3
#
#
#
# Elastic Constant Matrix: (Units=GPa)
#
#
# Indices 1 2 3 4 5 6 
#
# 1 53.8043 3.4765 33.3506 0.0000 -6.0907 0.0000
# 2 3.4765 69.9510 20.6294 0.0000 -12.2825 0.0000
# 3 33.3506 20.6294 97.6461 0.0000 -16.3837 0.0000
# 4 0.0000 0.0000 0.0000 17.5603 0.0000 3.4171
# 5 -6.0907 -12.2825 -16.3837 0.0000 32.2691 0.0000
# 6 0.0000 0.0000 0.0000 3.4171 0.0000 19.0610
#
#
#
# Elastic Compliance Matrix: (Units=1/GPa)
#
#
# Indices 1 2 3 4 5 6 
#
# 1 0.023705 0.001400 -0.008255 0.000000 0.000816 0.000000
# 2 0.001400 0.015967 -0.003047 0.000000 0.004795 0.000000
# 3 -0.008255 -0.003047 0.014482 0.000000 0.004635 0.000000
# 4 0.000000 0.000000 0.000000 0.059005 0.000000 -0.010578
# 5 0.000816 0.004795 0.004635 0.000000 0.035322 0.000000
# 6 0.000000 0.000000 0.000000 -0.010578 0.000000 0.054360
#
#
# Mechanical properties :
#
#
# Convention : Reuss Voigt Hill
#
# Bulk Modulus (GPa) = 29.11313 37.36827 33.24070
# Shear Modulus (GPa) = 21.35901 24.70772 23.03337
#
# Velocity S-wave (km/s) = 3.17655 3.41650 3.29871
# Velocity P-wave (km/s) = 5.21609 5.76341 5.49657
#
# Compressibility (1/GPa) = 0.03434876
#
# Stress axis : x y z
#
# Youngs Moduli (GPa) = 42.18571 62.63086 69.05160
#
# Poissons Ratio (x) = -0.08766 0.57003
# Poissons Ratio (y) = -0.05905 0.21039
# Poissons Ratio (z) = 0.34825 0.19082
#
# Static dielectric constant tensor:
#      x y z
#    x 1.724310 0.000000 0.008910 
#    y 0.000000 1.811160 0.000000 
#    z 0.008910 0.000000 1.771970 
# 
# From -- ./inp_files/40231.got.cif
#   From: 2010.05.17/outbox.cif.g08.bks.cpg/sg14_21_cif.got.tgz:40231.got - 2010.06.03 17:49:19.
