data_PCOD9245911
_publ_section_title
;
Structure prediction by ZEFSAII (Michael W. Deem and Ramdas Pophale) SiO2 
 PCOD9245911
Probable space group: P 21/C
;
_chemical_formula_sum "Si O2"
_cell_formula_units_Z 24
_cell_length_a 6.642005
_cell_length_b 15.995930
_cell_length_c 9.270605
_cell_angle_alpha 90.000000
_cell_angle_beta 100.248269
_cell_angle_gamma 90.000000
_cell_volume 969.241951
_symmetry_space_group_name_H-M "P 21/C"
_symmetry_group_IT_number 14
_symmetry_cell_setting 'monoclinic'
loop_
_space_group_symop_operation_xyz
x,y,z
-x,1/2+y,1/2-z
-x,-y,-z
x,1/2-y,1/2+z
loop_
_atom_site_type_symbol
_atom_site_label
_atom_site_fract_x
_atom_site_fract_y
_atom_site_fract_z
Si Si1 0.565547 0.615410 0.527502
Si Si2 0.959590 0.982029 0.163680
Si Si3 0.461825 0.662759 0.234844
Si Si4 0.774959 0.327543 0.291142
Si Si5 0.815162 0.771919 0.579171
Si Si6 0.932171 0.413302 0.925309
O O1 0.263885 0.437917 0.368483
O O2 0.495975 0.590482 0.358760
O O3 0.682404 0.699684 0.495451
O O4 0.371118 0.639935 0.597843
O O5 0.129269 0.916503 0.248215
O O6 0.961948 0.066354 0.257682
O O7 0.000000 0.000000 0.000000
O O8 0.361123 0.749436 0.285180
O O9 0.295273 0.625120 0.098998
O O10 0.667260 0.687171 0.178093
O O11 0.982366 0.276301 0.345552
O O12 0.906638 0.845757 0.496266
O O13 0.000000 0.500000 0.000000
#
# Coordination Sequence:
#
# PCOD9245911 Si02
#       6
#     4   4   4   4   4   4
#     4  10  21  39  65  90 117 161 217 265 308 367
#     4  11  23  39  62  92 126 164 208 259 314 374
#     4  10  21  40  64  88 119 162 210 257 307 370
#     4   9  21  38  59  88 119 159 206 255 309 369
#     4   9  21  40  59  85 120 162 207 254 308 370
#     4  11  25  40  59  91 131 166 200 252 319 378
#
# _framework density 24.761621999999999
#
# number of rings (size 3 to 8) (size 9 to 14) (size 15 to 20)
#    0.000    2.000    0.000    2.000    0.000   16.667 
#    0.000    1.667    0.000    0.000    0.000    0.000 
#    0.000    0.000    0.000    0.000    0.000    0.000 
#
# Total GULP energy -133737.937285 kJ/mol
# GULP energy per Si atom -5572.414054 kJ/mol
# Density = 2.470526 g / cm^3
# Si number density = 24.761622 Si / 1000 Ang^3
#
#
#
# Elastic Constant Matrix: (Units=GPa)
#
#
# Indices 1 2 3 4 5 6 
#
# 1 170.9686 42.8010 19.1000 0.0000 3.7014 0.0000
# 2 42.8010 93.5390 -10.4145 0.0000 1.3120 0.0000
# 3 19.1000 -10.4145 34.4901 0.0000 -0.4497 0.0000
# 4 0.0000 0.0000 0.0000 25.6826 0.0000 -10.9387
# 5 3.7014 1.3120 -0.4497 0.0000 21.7999 0.0000
# 6 0.0000 0.0000 0.0000 -10.9387 0.0000 41.8312
#
#
#
# Elastic Compliance Matrix: (Units=1/GPa)
#
#
# Indices 1 2 3 4 5 6 
#
# 1 0.007474 -0.004001 -0.005362 0.000000 -0.001139 0.000000
# 2 -0.004001 0.013212 0.006205 0.000000 0.000012 0.000000
# 3 -0.005362 0.006205 0.033853 0.000000 0.001235 0.000000
# 4 0.000000 0.000000 0.000000 0.043817 0.000000 0.011458
# 5 -0.001139 0.000012 0.001235 0.000000 0.046090 0.000000
# 6 0.000000 0.000000 0.000000 0.011458 0.000000 0.026902
#
#
# Mechanical properties :
#
#
# Convention : Reuss Voigt Hill
#
# Bulk Modulus (GPa) = 20.73654 44.66342 32.69998
# Shear Modulus (GPa) = 25.80794 34.36351 30.08572
#
# Velocity S-wave (km/s) = 3.23190 3.72932 3.48949
# Velocity P-wave (km/s) = 4.72436 6.05147 5.42862
#
# Compressibility (1/GPa) = 0.04822406
#
# Stress axis : x y z
#
# Youngs Moduli (GPa) = 133.79027 75.68719 29.53932
#
# Poissons Ratio (x) = 0.30283 0.15840
# Poissons Ratio (y) = 0.53531 -0.18330
# Poissons Ratio (z) = 0.71741 -0.46967
#
# Static dielectric constant tensor:
#      x y z
#    x 2.003180 0.000000 0.051750 
#    y 0.000000 1.998720 0.000000 
#    z 0.051750 0.000000 2.084070 
# 
# From -- ./inp_files/21231.got.cif
#   From: 2010.05.17/outbox.cif.g08.bks.cpg/sg14_11_cif.got.tgz:21231.got - 2010.06.03 17:49:19.
