data_PCOD9245407
_publ_section_title
;
Structure prediction by ZEFSAII (Michael W. Deem and Ramdas Pophale) SiO2 
 PCOD9245407
Probable space group: P 21/C
;
_chemical_formula_sum "Si O2"
_cell_formula_units_Z 16
_cell_length_a 10.677729
_cell_length_b 5.252213
_cell_length_c 13.807910
_cell_angle_alpha 90.000000
_cell_angle_beta 50.791297
_cell_angle_gamma 90.000000
_cell_volume 600.020317
_symmetry_space_group_name_H-M "P 21/C"
_symmetry_group_IT_number 14
_symmetry_cell_setting 'monoclinic'
loop_
_space_group_symop_operation_xyz
x,y,z
-x,1/2+y,1/2-z
-x,-y,-z
x,1/2-y,1/2+z
loop_
_atom_site_type_symbol
_atom_site_label
_atom_site_fract_x
_atom_site_fract_y
_atom_site_fract_z
Si Si1 0.452948 0.250939 0.895936
Si Si2 0.357045 0.248633 0.669975
Si Si3 0.886851 0.926756 0.464330
Si Si4 0.999902 0.425279 0.385312
O O1 0.559882 0.498854 0.827402
O O2 0.560498 0.001913 0.828221
O O3 0.398211 0.247488 0.035489
O O4 0.282465 0.296073 0.926374
O O5 0.167143 0.204956 0.775111
O O6 0.973396 0.710007 0.357227
O O7 0.000000 0.000000 0.500000
O O8 0.863851 0.209942 0.431028
O O9 0.000000 0.500000 0.500000
#
# Coordination Sequence:
#
# PCOD9245407 Si02
#       4
#     4   4   4   4
#     4  10  21  38  61  89 121 159 204 255 312 375
#     4  10  21  38  61  89 121 159 204 255 312 375
#     4  10  21  38  58  86 121 158 202 251 307 372
#     4  10  21  38  58  86 121 158 202 251 307 372
#
# _framework density 26.665762999999998
#
# number of rings (size 3 to 8) (size 9 to 14) (size 15 to 20)
#    0.000    2.000    0.000    3.000    0.000    2.000 
#    0.000   20.000    0.000    0.000    0.000    0.000 
#    0.000    0.000    0.000    0.000    0.000    0.000 
#
# Total GULP energy -89538.227345 kJ/mol
# GULP energy per Si atom -5596.139209 kJ/mol
# Density = 2.660507 g / cm^3
# Si number density = 26.665763 Si / 1000 Ang^3
#
#
#
# Elastic Constant Matrix: (Units=GPa)
#
#
# Indices 1 2 3 4 5 6 
#
# 1 127.0667 48.7532 30.1088 0.0000 -14.8326 0.0000
# 2 48.7532 312.2340 65.0080 0.0000 -36.7281 0.0000
# 3 30.1088 65.0080 127.4554 0.0000 -14.8238 0.0000
# 4 0.0000 0.0000 0.0000 13.7993 0.0000 -50.6669
# 5 -14.8326 -36.7281 -14.8238 0.0000 49.9151 0.0000
# 6 0.0000 0.0000 0.0000 -50.6669 0.0000 -2.1428
#
#
#
# Elastic Compliance Matrix: (Units=1/GPa)
#
#
# Indices 1 2 3 4 5 6 
#
# 1 0.008726 -0.000886 -0.001433 0.000000 0.001516 0.000000
# 2 -0.000886 0.003915 -0.001536 0.000000 0.002161 0.000000
# 3 -0.001433 -0.001536 0.009101 0.000000 0.001147 0.000000
# 4 0.000000 0.000000 0.000000 0.000825 0.000000 -0.019512
# 5 0.001516 0.002161 0.001147 0.000000 0.022415 0.000000
# 6 0.000000 0.000000 0.000000 -0.019512 0.000000 -0.005314
#
#
# Mechanical properties :
#
#
# Convention : Reuss Voigt Hill
#
# Bulk Modulus (GPa) = 71.26574 94.94401 83.10488
# Shear Modulus (GPa) = 96.04801 40.50674 68.27737
#
# Velocity S-wave (km/s) = 6.00811 3.90173 5.06562
# Velocity P-wave (km/s) = 8.65526 7.48201 8.08993
#
# Compressibility (1/GPa) = 0.01403199
#
# Stress axis : x y z
#
# Youngs Moduli (GPa) = 114.59596 255.41895 109.87332
#
# Poissons Ratio (x) = 0.22626 0.15748
# Poissons Ratio (y) = 0.10152 0.16879
# Poissons Ratio (z) = 0.16425 0.39239
#
# Static dielectric constant tensor:
#      x y z
#    x 2.197250 0.000000 0.112650 
#    y 0.000000 2.226970 0.000000 
#    z 0.112650 0.000000 2.113950 
# 
# From -- ./inp_files/50938.got.cif
#   From: 2010.05.17/outbox.cif.g08.bks.cpg/sg14_26_cif.got.tgz:50938.got - 2010.06.03 17:49:19.
