data_PCOD9245990
_publ_section_title
;
Structure prediction by ZEFSAII (Michael W. Deem and Ramdas Pophale) SiO2 
 PCOD9245990
Probable space group: P 21/C
;
_chemical_formula_sum "Si O2"
_cell_formula_units_Z 26
_cell_length_a 16.713957
_cell_length_b 13.830414
_cell_length_c 9.554939
_cell_angle_alpha 90.000000
_cell_angle_beta 29.715373
_cell_angle_gamma 90.000000
_cell_volume 1094.848526
_symmetry_space_group_name_H-M "P 21/C"
_symmetry_group_IT_number 14
_symmetry_cell_setting 'monoclinic'
loop_
_space_group_symop_operation_xyz
x,y,z
-x,1/2+y,1/2-z
-x,-y,-z
x,1/2-y,1/2+z
loop_
_atom_site_type_symbol
_atom_site_label
_atom_site_fract_x
_atom_site_fract_y
_atom_site_fract_z
Si Si1 0.801747 0.685453 0.347496
Si Si2 0.100729 0.967383 0.649584
Si Si3 0.124958 0.741633 0.226655
Si Si4 0.000000 0.500000 0.000000
Si Si5 0.739126 0.526866 0.824465
Si Si6 0.375889 0.230145 0.612644
Si Si7 0.305838 0.826506 0.724642
O O1 0.753107 0.734392 0.566310
O O2 0.654253 0.692674 0.462911
O O3 0.945773 0.744357 0.055269
O O4 0.877164 0.580958 0.256846
O O5 0.134638 0.853437 0.617779
O O6 0.107281 0.000532 0.481442
O O7 0.227611 0.019007 0.560544
O O8 0.920493 0.982162 0.985532
O O9 0.233563 0.727273 0.199113
O O10 0.175704 0.830470 0.050406
O O11 0.651596 0.624891 0.915561
O O12 0.650371 0.433118 0.895640
O O13 0.547692 0.229574 0.426415
#
# Coordination Sequence:
#
# PCOD9245990 Si02
#       7
#     4   4   4   2   4   4   4
#     4  12  25  41  70  95 135 169 233 274 334 395
#     4  10  21  39  67  97 129 169 230 278 329 393
#     4  11  22  43  67  98 125 180 221 280 329 405
#     4  12  22  38  62 104 126 164 218 290 322 384
#     4  10  21  41  64  91 133 177 220 270 335 409
#     4  12  25  44  63 102 132 179 217 282 341 410
#     4  11  24  41  69  94 140 172 224 272 349 401
#
# _framework density 23.747578000000001
#
# number of rings (size 3 to 8) (size 9 to 14) (size 15 to 20)
#    0.000    0.923    3.077    4.154    2.154    0.000 
#    0.000    0.000    0.000    3.692    0.000    0.000 
#    0.000    0.000    0.000    0.000    0.000    0.000 
#
# Total GULP energy -145081.855441 kJ/mol
# GULP energy per Si atom -5580.071363 kJ/mol
# Density = 2.369353 g / cm^3
# Si number density = 23.747578 Si / 1000 Ang^3
#
#
#
# Elastic Constant Matrix: (Units=GPa)
#
#
# Indices 1 2 3 4 5 6 
#
# 1 163.0724 23.2349 19.5870 0.0000 20.0176 0.0000
# 2 23.2349 49.6945 10.0104 0.0000 5.4937 0.0000
# 3 19.5870 10.0104 33.4012 0.0000 6.6002 0.0000
# 4 0.0000 0.0000 0.0000 15.6660 0.0000 -2.0150
# 5 20.0176 5.4937 6.6002 0.0000 33.7859 0.0000
# 6 0.0000 0.0000 0.0000 -2.0150 0.0000 37.8811
#
#
#
# Elastic Compliance Matrix: (Units=1/GPa)
#
#
# Indices 1 2 3 4 5 6 
#
# 1 0.007231 -0.002438 -0.002851 0.000000 -0.003331 0.000000
# 2 -0.002438 0.022414 -0.005048 0.000000 -0.001214 0.000000
# 3 -0.002851 -0.005048 0.033938 0.000000 -0.004120 0.000000
# 4 0.000000 0.000000 0.000000 0.064272 0.000000 0.003419
# 5 -0.003331 -0.001214 -0.004120 0.000000 0.032574 0.000000
# 6 0.000000 0.000000 0.000000 0.003419 0.000000 0.026580
#
#
# Mechanical properties :
#
#
# Convention : Reuss Voigt Hill
#
# Bulk Modulus (GPa) = 23.30567 39.09250 31.19908
# Shear Modulus (GPa) = 22.52385 30.35567 26.43976
#
# Velocity S-wave (km/s) = 3.08306 3.57916 3.34033
# Velocity P-wave (km/s) = 4.74436 5.79465 5.29560
#
# Compressibility (1/GPa) = 0.04290801
#
# Stress axis : x y z
#
# Youngs Moduli (GPa) = 138.29327 44.61499 29.46546
#
# Poissons Ratio (x) = 0.10878 0.08402
# Poissons Ratio (y) = 0.33720 0.14874
# Poissons Ratio (z) = 0.39434 0.22521
#
# Static dielectric constant tensor:
#      x y z
#    x 1.867550 0.000000 -0.022850 
#    y 0.000000 1.965260 0.000000 
#    z -0.022850 0.000000 1.966630 
# 
# From -- ./inp_files/16158.got.cif
#   From: 2010.05.17/outbox.cif.g08.bks.cpg/sg14_9_cif.got.tgz:16158.got - 2010.06.03 17:49:19.
