data_PCOD9245929
_publ_section_title
;
Structure prediction by ZEFSAII (Michael W. Deem and Ramdas Pophale) SiO2 
 PCOD9245929
Probable space group: P 21/C
;
_chemical_formula_sum "Si O2"
_cell_formula_units_Z 24
_cell_length_a 9.292805
_cell_length_b 5.012735
_cell_length_c 23.873812
_cell_angle_alpha 90.000000
_cell_angle_beta 85.969249
_cell_angle_gamma 90.000000
_cell_volume 1109.347905
_symmetry_space_group_name_H-M "P 21/C"
_symmetry_group_IT_number 14
_symmetry_cell_setting 'monoclinic'
loop_
_space_group_symop_operation_xyz
x,y,z
-x,1/2+y,1/2-z
-x,-y,-z
x,1/2-y,1/2+z
loop_
_atom_site_type_symbol
_atom_site_label
_atom_site_fract_x
_atom_site_fract_y
_atom_site_fract_z
Si Si1 0.852057 0.752992 0.300538
Si Si2 0.044633 0.242047 0.322129
Si Si3 0.496623 0.553309 0.433471
Si Si4 0.171440 0.452083 0.427330
Si Si5 0.333832 0.543115 0.107800
Si Si6 0.913577 0.680760 0.960572
O O1 0.979190 0.952588 0.314669
O O2 0.848041 0.777669 0.233472
O O3 0.911978 0.459760 0.318090
O O4 0.713613 0.890782 0.333678
O O5 0.125402 0.253207 0.379065
O O6 0.500000 0.500000 0.500000
O O7 0.335438 0.534218 0.413747
O O8 0.547025 0.853756 0.422686
O O9 0.604716 0.342178 0.399498
O O10 0.171119 0.366130 0.492920
O O11 0.037493 0.655258 0.426435
O O12 0.191647 0.495502 0.073813
O O13 0.000000 0.500000 0.000000
#
# Coordination Sequence:
#
# PCOD9245929 Si02
#       6
#     4   4   4   4   4   4
#     4  10  21  40  65  92 123 160 211 261 319 360
#     4  10  21  39  65  94 122 158 211 270 306 365
#     4  12  26  42  60  90 133 171 200 251 320 387
#     4  11  24  39  60  96 122 164 210 263 313 368
#     4  12  24  42  63  90 127 171 207 251 320 379
#     4  11  23  37  66  90 124 158 215 265 304 375
#
# _framework density 21.634329000000001
#
# number of rings (size 3 to 8) (size 9 to 14) (size 15 to 20)
#    0.000    1.000    3.333    3.500    4.667    0.000 
#    0.000    1.667    0.000    0.000    0.000    0.000 
#    0.000    0.000    0.000    0.000    0.000    0.000 
#
# Total GULP energy -133886.063813 kJ/mol
# GULP energy per Si atom -5578.585992 kJ/mol
# Density = 2.158509 g / cm^3
# Si number density = 21.634329 Si / 1000 Ang^3
#
#
#
# Elastic Constant Matrix: (Units=GPa)
#
#
# Indices 1 2 3 4 5 6 
#
# 1 91.6965 -6.0116 10.9278 0.0000 6.7248 0.0000
# 2 -6.0116 57.7475 0.7909 0.0000 6.5560 0.0000
# 3 10.9278 0.7909 82.5861 0.0000 -11.8292 0.0000
# 4 0.0000 0.0000 0.0000 29.1879 0.0000 -1.1925
# 5 6.7248 6.5560 -11.8292 0.0000 26.1425 0.0000
# 6 0.0000 0.0000 0.0000 -1.1925 0.0000 17.8873
#
#
#
# Elastic Compliance Matrix: (Units=1/GPa)
#
#
# Indices 1 2 3 4 5 6 
#
# 1 0.011603 0.001738 -0.002183 0.000000 -0.004409 0.000000
# 2 0.001738 0.018143 -0.001197 0.000000 -0.005539 0.000000
# 3 -0.002183 -0.001197 0.013401 0.000000 0.006926 0.000000
# 4 0.000000 0.000000 0.000000 0.034354 0.000000 0.002290
# 5 -0.004409 -0.005539 0.006926 0.000000 0.043909 0.000000
# 6 0.000000 0.000000 0.000000 0.002290 0.000000 0.056058
#
#
# Mechanical properties :
#
#
# Convention : Reuss Voigt Hill
#
# Bulk Modulus (GPa) = 25.08626 27.04936 26.06781
# Shear Modulus (GPa) = 25.76785 29.73175 27.74980
#
# Velocity S-wave (km/s) = 3.45492 3.71116 3.58533
# Velocity P-wave (km/s) = 5.24748 5.55821 5.40508
#
# Compressibility (1/GPa) = 0.03986247
#
# Stress axis : x y z
#
# Youngs Moduli (GPa) = 86.18440 55.11791 74.62154
#
# Poissons Ratio (x) = -0.09581 0.16293
# Poissons Ratio (y) = -0.14981 0.08933
# Poissons Ratio (z) = 0.18818 0.06598
#
# Static dielectric constant tensor:
#      x y z
#    x 1.577040 0.000000 0.151640 
#    y 0.000000 1.659520 0.000000 
#    z 0.151640 0.000000 1.648890 
# 
# From -- ./inp_files/71637.got.cif
#   From: 2010.05.17/outbox.cif.g08.bks.cpg/sg14_36_cif.got.tgz:71637.got - 2010.06.03 17:49:19.
