data_PCOD9245060
_publ_section_title
;
Structure prediction by ZEFSAII (Michael W. Deem and Ramdas Pophale) SiO2 
 PCOD9245060
Probable space group: P 21/C
;
_chemical_formula_sum "Si O2"
_cell_formula_units_Z 32
_cell_length_a 32.216115
_cell_length_b 5.189060
_cell_length_c 11.966047
_cell_angle_alpha 90.000000
_cell_angle_beta 134.926451
_cell_angle_gamma 90.000000
_cell_volume 1416.297024
_symmetry_space_group_name_H-M "P 21/C"
_symmetry_group_IT_number 14
_symmetry_cell_setting 'monoclinic'
loop_
_space_group_symop_operation_xyz
x,y,z
-x,1/2+y,1/2-z
-x,-y,-z
x,1/2-y,1/2+z
loop_
_atom_site_type_symbol
_atom_site_label
_atom_site_fract_x
_atom_site_fract_y
_atom_site_fract_z
Si Si1 0.403074 0.530811 0.993189
Si Si2 0.170874 0.714456 0.451191
Si Si3 0.445705 0.462654 0.478859
Si Si4 0.295415 0.947846 0.114171
Si Si5 0.010109 0.222884 0.614577
Si Si6 0.898847 0.470450 0.367763
Si Si7 0.338825 0.046379 0.601118
Si Si8 0.884297 0.783702 0.543097
O O1 0.434669 0.806917 0.045580
O O2 0.350163 0.541559 0.802873
O O3 0.448540 0.312095 0.043241
O O4 0.373228 0.440636 0.050748
O O5 0.239108 0.647250 0.575566
O O6 0.149019 0.808238 0.288384
O O7 0.141432 0.445866 0.428818
O O8 0.147538 0.948947 0.485198
O O9 0.500000 0.500000 0.500000
O O10 0.388387 0.456424 0.291036
O O11 0.306961 0.726918 0.045469
O O12 0.294986 0.221937 0.050184
O O13 0.054705 0.414339 0.632951
O O14 0.046295 0.240590 0.799817
O O15 0.943575 0.290152 0.520499
O O16 0.000000 0.000000 0.500000
O O17 0.873487 0.693985 0.396109
#
# Coordination Sequence:
#
# PCOD9245060 Si02
#       8
#     4   4   4   4   4   4   4   4
#     4  10  21  38  60  90 122 163 215 247 301 372
#     4  11  24  44  60  92 120 153 204 258 303 365
#     4  10  21  36  58  92 131 164 202 256 304 358
#     4  10  22  41  63  85 122 158 203 263 303 355
#     4  10  21  39  59  87 121 157 194 242 296 377
#     4  10  24  39  61  89 121 157 198 247 306 372
#     4  10  21  39  63  89 119 167 208 250 308 359
#     4  11  25  39  65  89 121 157 198 245 310 374
#
# _framework density 22.594128000000001
#
# number of rings (size 3 to 8) (size 9 to 14) (size 15 to 20)
#    0.000    1.750    1.250    1.875    3.500    2.000 
#    0.000    2.500    0.000    0.000    0.000    0.000 
#    0.000    0.000    0.000    0.000    0.000    0.000 
#
# Total GULP energy -178522.369262 kJ/mol
# GULP energy per Si atom -5578.824039 kJ/mol
# Density = 2.254270 g / cm^3
# Si number density = 22.594128 Si / 1000 Ang^3
#
#
#
# Elastic Constant Matrix: (Units=GPa)
#
#
# Indices 1 2 3 4 5 6 
#
# 1 73.3325 37.3603 17.2122 0.0000 1.3668 0.0000
# 2 37.3603 132.1630 24.4875 0.0000 11.0114 0.0000
# 3 17.2122 24.4875 26.0893 0.0000 5.8644 0.0000
# 4 0.0000 0.0000 0.0000 13.3108 0.0000 -4.5836
# 5 1.3668 11.0114 5.8644 0.0000 30.4028 0.0000
# 6 0.0000 0.0000 0.0000 -4.5836 0.0000 43.9332
#
#
#
# Elastic Compliance Matrix: (Units=1/GPa)
#
#
# Indices 1 2 3 4 5 6 
#
# 1 0.017417 -0.003492 -0.008699 0.000000 0.002160 0.000000
# 2 -0.003492 0.009948 -0.006542 0.000000 -0.002184 0.000000
# 3 -0.008699 -0.006542 0.051837 0.000000 -0.007238 0.000000
# 4 0.000000 0.000000 0.000000 0.077927 0.000000 0.008130
# 5 0.002160 -0.002184 -0.007238 0.000000 0.034982 0.000000
# 6 0.000000 0.000000 0.000000 0.008130 0.000000 0.023610
#
#
# Mechanical properties :
#
#
# Convention : Reuss Voigt Hill
#
# Bulk Modulus (GPa) = 23.96045 43.30054 33.63049
# Shear Modulus (GPa) = 18.71980 27.69769 23.20875
#
# Velocity S-wave (km/s) = 2.88153 3.50506 3.20848
# Velocity P-wave (km/s) = 4.65819 5.96546 5.35189
#
# Compressibility (1/GPa) = 0.04173544
#
# Stress axis : x y z
#
# Youngs Moduli (GPa) = 57.41555 100.52698 19.29140
#
# Poissons Ratio (x) = 0.35101 0.16781
# Poissons Ratio (y) = 0.20048 0.12621
# Poissons Ratio (z) = 0.49945 0.65768
#
# Static dielectric constant tensor:
#      x y z
#    x 1.836810 0.000000 -0.052250 
#    y 0.000000 1.917180 0.000000 
#    z -0.052250 0.000000 1.975150 
# 
# From -- ./inp_files/36328.got.cif
#   From: 2010.05.17/outbox.cif.g08.bks.cpg/sg14_19_cif.got.tgz:36328.got - 2010.06.03 17:49:19.
