data_PCOD9245423
_publ_section_title
;
Structure prediction by ZEFSAII (Michael W. Deem and Ramdas Pophale) SiO2 
 PCOD9245423
Probable space group: P 21/C
;
_chemical_formula_sum "Si O2"
_cell_formula_units_Z 28
_cell_length_a 10.843751
_cell_length_b 24.313955
_cell_length_c 5.260049
_cell_angle_alpha 90.000000
_cell_angle_beta 75.964229
_cell_angle_gamma 90.000000
_cell_volume 1345.430786
_symmetry_space_group_name_H-M "P 21/C"
_symmetry_group_IT_number 14
_symmetry_cell_setting 'monoclinic'
loop_
_space_group_symop_operation_xyz
x,y,z
-x,1/2+y,1/2-z
-x,-y,-z
x,1/2-y,1/2+z
loop_
_atom_site_type_symbol
_atom_site_label
_atom_site_fract_x
_atom_site_fract_y
_atom_site_fract_z
Si Si1 0.651097 0.065430 0.454771
Si Si2 0.858242 0.727004 0.433828
Si Si3 0.730343 0.873484 0.851348
Si Si4 0.348910 0.065434 0.605873
Si Si5 0.499999 0.712982 0.442380
Si Si6 0.858200 0.227011 0.707983
Si Si7 0.269656 0.626513 0.581698
O O1 0.500004 0.078949 0.511985
O O2 0.702193 0.085610 0.700488
O O3 0.663271 0.999998 0.418363
O O4 0.723280 0.095728 0.189165
O O5 0.797549 0.735635 0.741471
O O6 0.852871 0.664313 0.345720
O O7 0.000029 0.749989 0.402023
O O8 0.723275 0.904266 0.587544
O O9 0.619931 0.827548 0.906869
O O10 0.702179 0.914388 0.097311
O O11 0.499997 0.756056 0.673505
O O12 0.380078 0.672445 0.526796
O O13 0.797495 0.235634 0.461042
O O14 0.852861 0.164318 0.801429
#
# Coordination Sequence:
#
# PCOD9245423 Si02
#       7
#     4   4   4   4   4   4   4
#     4  11  22  38  57  84 120 161 205 243 287 347
#     4  10  21  38  59  86 115 151 201 241 291 354
#     4  12  21  37  57  85 119 161 196 238 301 343
#     4  11  22  38  57  84 120 161 205 243 287 347
#     4  12  22  32  49  80 121 154 184 230 282 352
#     4  10  21  38  59  86 115 151 201 241 291 354
#     4  12  21  37  57  85 119 161 196 238 301 343
#
# _framework density 20.811178000000002
#
# number of rings (size 3 to 8) (size 9 to 14) (size 15 to 20)
#    0.000    0.857    2.857    6.000    0.000    2.286 
#    0.000    0.000    0.000    0.000    0.000   80.000 
#    0.000    0.000    0.000    0.000    0.000    0.000 
#
# Total GULP energy -156514.631816 kJ/mol
# GULP energy per Si atom -5589.808279 kJ/mol
# Density = 2.076381 g / cm^3
# Si number density = 20.811178 Si / 1000 Ang^3
#
#
#
# Elastic Constant Matrix: (Units=GPa)
#
#
# Indices 1 2 3 4 5 6 
#
# 1 40.9818 12.2915 -2.0002 0.0000 -6.6196 0.0000
# 2 12.2915 62.6427 4.4514 0.0000 -2.6969 0.0000
# 3 -2.0002 4.4514 105.9407 0.0000 29.0144 0.0000
# 4 0.0000 0.0000 0.0000 48.0100 0.0000 6.4806
# 5 -6.6196 -2.6969 29.0144 0.0000 24.1483 0.0000
# 6 0.0000 0.0000 0.0000 6.4806 0.0000 29.2115
#
#
#
# Elastic Compliance Matrix: (Units=1/GPa)
#
#
# Indices 1 2 3 4 5 6 
#
# 1 0.027223 -0.004828 -0.001758 0.000000 0.009035 0.000000
# 2 -0.004828 0.017114 -0.001448 0.000000 0.002327 0.000000
# 3 -0.001758 -0.001448 0.014373 0.000000 -0.017912 0.000000
# 4 0.000000 0.000000 0.000000 0.021472 0.000000 -0.004764
# 5 0.009035 0.002327 -0.017912 0.000000 0.065669 0.000000
# 6 0.000000 0.000000 0.000000 -0.004764 0.000000 0.035290
#
#
# Mechanical properties :
#
#
# Convention : Reuss Voigt Hill
#
# Bulk Modulus (GPa) = 23.45032 26.56117 25.00575
# Shear Modulus (GPa) = 23.64957 33.26213 28.45585
#
# Velocity S-wave (km/s) = 3.37469 4.00219 3.70176
# Velocity P-wave (km/s) = 5.14561 5.84357 5.50566
#
# Compressibility (1/GPa) = 0.04264333
#
# Stress axis : x y z
#
# Youngs Moduli (GPa) = 36.73411 58.43214 69.57688
#
# Poissons Ratio (x) = 0.28209 0.12229
# Poissons Ratio (y) = 0.17734 0.10072
# Poissons Ratio (z) = 0.06457 0.08459
#
# Static dielectric constant tensor:
#      x y z
#    x 1.931410 0.000000 -0.043880 
#    y 0.000000 1.723420 0.000000 
#    z -0.043880 0.000000 1.804020 
# 
# From -- ./inp_files/2836.got.cif
#   From: 2010.05.17/outbox.cif.g08.bks.cpg/sg14_2_cif.got.tgz:2836.got - 2010.06.03 17:49:19.
