data_PCOD9245372
_publ_section_title
;
Structure prediction by ZEFSAII (Michael W. Deem and Ramdas Pophale) SiO2 
 PCOD9245372
Probable space group: P 21/C
;
_chemical_formula_sum "Si O2"
_cell_formula_units_Z 20
_cell_length_a 16.063606
_cell_length_b 5.608587
_cell_length_c 18.018814
_cell_angle_alpha 90.000000
_cell_angle_beta 151.479743
_cell_angle_gamma 90.000000
_cell_volume 775.118825
_symmetry_space_group_name_H-M "P 21/C"
_symmetry_group_IT_number 14
_symmetry_cell_setting 'monoclinic'
loop_
_space_group_symop_operation_xyz
x,y,z
-x,1/2+y,1/2-z
-x,-y,-z
x,1/2-y,1/2+z
loop_
_atom_site_type_symbol
_atom_site_label
_atom_site_fract_x
_atom_site_fract_y
_atom_site_fract_z
Si Si1 0.193936 0.497201 0.238847
Si Si2 0.263498 0.692965 0.916749
Si Si3 0.583137 0.928407 0.339654
Si Si4 0.055590 0.620293 0.385872
Si Si5 0.147303 0.249390 0.560729
O O1 0.320043 0.648795 0.390770
O O2 0.248411 0.322190 0.214674
O O3 0.073364 0.337117 0.198047
O O4 0.054970 0.675890 0.091559
O O5 0.203395 0.847368 0.940396
O O6 0.080540 0.576692 0.749283
O O7 0.387294 0.495089 0.050764
O O8 0.500556 0.168531 0.239381
O O9 0.764578 0.895449 0.437562
O O10 0.145064 0.519787 0.530640
#
# Coordination Sequence:
#
# PCOD9245372 Si02
#       5
#     4   4   4   4   4
#     4  10  21  37  68  99 132 155 211 299 348 381
#     4  11  21  37  63  98 126 168 224 271 337 392
#     4  12  27  45  67  89 135 192 233 262 309 410
#     4  11  18  35  68  97 133 162 210 292 339 398
#     4  10  22  40  61 101 130 167 218 272 350 389
#
# _framework density 25.802496999999999
#
# number of rings (size 3 to 8) (size 9 to 14) (size 15 to 20)
#    0.000    1.200    4.000    3.000    2.800    0.000 
#    0.000    2.000    0.000    0.000    0.000    0.000 
#    0.000    0.000    0.000    0.000    0.000    0.000 
#
# Total GULP energy -111692.713147 kJ/mol
# GULP energy per Si atom -5584.635657 kJ/mol
# Density = 2.574377 g / cm^3
# Si number density = 25.802497 Si / 1000 Ang^3
#
#
#
# Elastic Constant Matrix: (Units=GPa)
#
#
# Indices 1 2 3 4 5 6 
#
# 1 44.4751 20.9541 21.3339 0.0000 -27.9168 0.0000
# 2 20.9541 103.8240 48.3371 0.0000 -10.2819 0.0000
# 3 21.3339 48.3371 91.0485 0.0000 -22.2957 0.0000
# 4 0.0000 0.0000 0.0000 33.6849 0.0000 -3.8268
# 5 -27.9168 -10.2819 -22.2957 0.0000 36.0426 0.0000
# 6 0.0000 0.0000 0.0000 -3.8268 0.0000 49.3329
#
#
#
# Elastic Compliance Matrix: (Units=1/GPa)
#
#
# Indices 1 2 3 4 5 6 
#
# 1 0.047282 -0.006529 0.001060 0.000000 0.035415 0.000000
# 2 -0.006529 0.013708 -0.007105 0.000000 -0.005541 0.000000
# 3 0.001060 -0.007105 0.016748 0.000000 0.009154 0.000000
# 4 0.000000 0.000000 0.000000 0.029951 0.000000 0.002323
# 5 0.035415 -0.005541 0.009154 0.000000 0.059258 0.000000
# 6 0.000000 0.000000 0.000000 0.002323 0.000000 0.020451
#
#
# Mechanical properties :
#
#
# Convention : Reuss Voigt Hill
#
# Bulk Modulus (GPa) = 19.01460 46.73311 32.87386
# Shear Modulus (GPa) = 21.73186 33.72691 27.72939
#
# Velocity S-wave (km/s) = 2.90528 3.61933 3.28179
# Velocity P-wave (km/s) = 4.31735 5.96802 5.20849
#
# Compressibility (1/GPa) = 0.05259116
#
# Stress axis : x y z
#
# Youngs Moduli (GPa) = 21.14962 72.94816 59.70684
#
# Poissons Ratio (x) = 0.47626 -0.06327
# Poissons Ratio (y) = 0.13808 0.42421
# Poissons Ratio (z) = -0.02241 0.51829
#
# Static dielectric constant tensor:
#      x y z
#    x 2.058230 0.000000 -0.026260 
#    y 0.000000 2.131350 0.000000 
#    z -0.026260 0.000000 2.078210 
# 
# From -- ./inp_files/53980.got.cif
#   From: 2010.05.17/outbox.cif.g08.bks.cpg/sg14_27_cif.got.tgz:53980.got - 2010.06.03 17:49:19.
