data_PCOD9245442
_publ_section_title
;
Structure prediction by ZEFSAII (Michael W. Deem and Ramdas Pophale) SiO2 
 PCOD9245442
Probable space group: P 21/C
;
_chemical_formula_sum "Si O2"
_cell_formula_units_Z 32
_cell_length_a 5.097700
_cell_length_b 25.454361
_cell_length_c 13.547975
_cell_angle_alpha 90.000000
_cell_angle_beta 69.163651
_cell_angle_gamma 90.000000
_cell_volume 1642.996852
_symmetry_space_group_name_H-M "P 21/C"
_symmetry_group_IT_number 14
_symmetry_cell_setting 'monoclinic'
loop_
_space_group_symop_operation_xyz
x,y,z
-x,1/2+y,1/2-z
-x,-y,-z
x,1/2-y,1/2+z
loop_
_atom_site_type_symbol
_atom_site_label
_atom_site_fract_x
_atom_site_fract_y
_atom_site_fract_z
Si Si1 0.682091 0.013162 0.570440
Si Si2 0.941708 0.309931 0.180059
Si Si3 0.444209 0.378334 0.179164
Si Si4 0.010463 0.591719 0.371272
Si Si5 0.441351 0.422203 0.396962
Si Si6 0.237439 0.822891 0.079154
Si Si7 0.591412 0.534901 0.295114
Si Si8 0.864422 0.797363 0.942488
O O1 0.604872 0.073068 0.608323
O O2 0.500000 0.000000 0.500000
O O3 0.607941 0.980053 0.678226
O O4 0.000000 0.000000 0.500000
O O5 0.666866 0.331917 0.163427
O O6 0.855738 0.298657 0.304591
O O7 0.176060 0.355939 0.157456
O O8 0.050648 0.258399 0.111788
O O9 0.361981 0.397495 0.300915
O O10 0.813138 0.577916 0.491722
O O11 0.873260 0.561213 0.298038
O O12 0.974737 0.654028 0.361713
O O13 0.326232 0.573027 0.347216
O O14 0.682633 0.383921 0.408657
O O15 0.543801 0.480848 0.361527
O O16 0.531257 0.800501 0.000144
O O17 0.005382 0.810585 0.028992
#
# Coordination Sequence:
#
# PCOD9245442 Si02
#       8
#     4   4   4   4   4   4   4   4
#     4  11  23  43  63  84 120 157 191 242 292 335
#     4  11  21  40  62  85 114 148 202 251 276 333
#     4  10  22  38  64  91 107 149 205 242 281 336
#     4  11  21  36  55  87 122 150 180 228 299 361
#     4   9  20  36  60  86 117 145 185 239 287 344
#     4  10  21  38  60  86 113 154 197 239 297 345
#     4  11  23  36  58  87 114 151 193 227 282 355
#     4  11  23  39  58  84 122 158 189 240 301 345
#
# _framework density 19.476606
#
# number of rings (size 3 to 8) (size 9 to 14) (size 15 to 20)
#    0.000    1.500    0.000    6.750    0.000    8.000 
#    0.000    7.500    0.000    0.000    0.000    0.000 
#    0.000    0.000    0.000    0.000    0.000    0.000 
#
# Total GULP energy -178883.786718 kJ/mol
# GULP energy per Si atom -5590.118335 kJ/mol
# Density = 1.943228 g / cm^3
# Si number density = 19.476606 Si / 1000 Ang^3
#
#
#
# Elastic Constant Matrix: (Units=GPa)
#
#
# Indices 1 2 3 4 5 6 
#
# 1 42.4421 -12.1303 -5.5610 0.0000 -0.0462 0.0000
# 2 -12.1303 60.3361 30.6555 0.0000 -7.0094 0.0000
# 3 -5.5610 30.6555 67.1183 0.0000 1.6740 0.0000
# 4 0.0000 0.0000 0.0000 26.5061 0.0000 -1.1009
# 5 -0.0462 -7.0094 1.6740 0.0000 31.2594 0.0000
# 6 0.0000 0.0000 0.0000 -1.1009 0.0000 15.8603
#
#
#
# Elastic Compliance Matrix: (Units=1/GPa)
#
#
# Indices 1 2 3 4 5 6 
#
# 1 0.025050 0.005398 -0.000422 0.000000 0.001270 0.000000
# 2 0.005398 0.023686 -0.010518 0.000000 0.005883 0.000000
# 3 -0.000422 -0.010518 0.019753 0.000000 -0.003417 0.000000
# 4 0.000000 0.000000 0.000000 0.037836 0.000000 0.002626
# 5 0.001270 0.005883 -0.003417 0.000000 0.033494 0.000000
# 6 0.000000 0.000000 0.000000 0.002626 0.000000 0.063233
#
#
# Mechanical properties :
#
#
# Convention : Reuss Voigt Hill
#
# Bulk Modulus (GPa) = 17.41947 21.75833 19.58890
# Shear Modulus (GPa) = 21.43416 25.18731 23.31074
#
# Velocity S-wave (km/s) = 3.32099 3.60002 3.46332
# Velocity P-wave (km/s) = 4.86503 5.33629 5.10610
#
# Compressibility (1/GPa) = 0.05740702
#
# Stress axis : x y z
#
# Youngs Moduli (GPa) = 39.91948 42.21828 50.62445
#
# Poissons Ratio (x) = -0.22790 0.02135
# Poissons Ratio (y) = -0.21549 0.53247
# Poissons Ratio (z) = 0.01683 0.44405
#
# Static dielectric constant tensor:
#      x y z
#    x 1.667370 0.000000 0.004560 
#    y 0.000000 1.678770 0.000000 
#    z 0.004560 0.000000 1.677570 
# 
# From -- ./inp_files/22170.got.cif
#   From: 2010.05.17/outbox.cif.g08.bks.cpg/sg14_12_cif.got.tgz:22170.got - 2010.06.03 17:49:19.
