data_PCOD9245365
_publ_section_title
;
Structure prediction by ZEFSAII (Michael W. Deem and Ramdas Pophale) SiO2 
 PCOD9245365
Probable space group: P 21/C
;
_chemical_formula_sum "Si O2"
_cell_formula_units_Z 24
_cell_length_a 12.027786
_cell_length_b 15.132336
_cell_length_c 8.011444
_cell_angle_alpha 90.000000
_cell_angle_beta 130.793711
_cell_angle_gamma 90.000000
_cell_volume 1103.917595
_symmetry_space_group_name_H-M "P 21/C"
_symmetry_group_IT_number 14
_symmetry_cell_setting 'monoclinic'
loop_
_space_group_symop_operation_xyz
x,y,z
-x,1/2+y,1/2-z
-x,-y,-z
x,1/2-y,1/2+z
loop_
_atom_site_type_symbol
_atom_site_label
_atom_site_fract_x
_atom_site_fract_y
_atom_site_fract_z
Si Si1 0.247041 0.410643 0.556559
Si Si2 0.391087 0.568554 0.534940
Si Si3 0.095540 0.624786 0.778357
Si Si4 0.235401 0.710002 0.587178
Si Si5 0.339684 0.503127 0.993938
Si Si6 0.515719 0.340289 0.707536
O O1 0.293891 0.480950 0.461246
O O2 0.299818 0.457754 0.779835
O O3 0.349497 0.327895 0.603823
O O4 0.076852 0.390912 0.397544
O O5 0.275668 0.643056 0.479237
O O6 0.451903 0.594362 0.415225
O O7 0.537082 0.556392 0.794097
O O8 0.157868 0.656920 0.659274
O O9 0.182325 0.534703 0.913817
O O10 0.136607 0.706306 0.938704
O O11 0.396340 0.754819 0.764068
O O12 0.414829 0.601602 0.072191
#
# Coordination Sequence:
#
# PCOD9245365 Si02
#       6
#     4   4   4   4   4   4
#     4  11  22  40  65  94 126 162 211 259 306 377
#     4  11  21  40  67  94 123 165 215 258 305 366
#     4  11  24  44  61  93 130 164 205 257 329 367
#     4  11  23  42  65  86 127 174 202 258 313 374
#     4  10  21  37  67  94 119 164 208 253 304 373
#     4  10  22  41  63  96 126 162 215 253 307 374
#
# _framework density 21.740755
#
# number of rings (size 3 to 8) (size 9 to 14) (size 15 to 20)
#    0.000    1.333    3.333    4.500    2.333    0.000 
#    6.000    9.167    0.000    0.000    0.000    0.000 
#    0.000    0.000    0.000    0.000    0.000    0.000 
#
# Total GULP energy -133651.395514 kJ/mol
# GULP energy per Si atom -5568.808146 kJ/mol
# Density = 2.169127 g / cm^3
# Si number density = 21.740755 Si / 1000 Ang^3
#
#
#
# Elastic Constant Matrix: (Units=GPa)
#
#
# Indices 1 2 3 4 5 6 
#
# 1 152.7420 43.5443 73.4553 0.0000 39.1770 0.0000
# 2 43.5443 55.5588 23.9604 0.0000 3.9677 0.0000
# 3 73.4553 23.9604 81.0950 0.0000 25.8902 0.0000
# 4 0.0000 0.0000 0.0000 21.5489 0.0000 -1.4807
# 5 39.1770 3.9677 25.8902 0.0000 37.0209 0.0000
# 6 0.0000 0.0000 0.0000 -1.4807 0.0000 28.8210
#
#
#
# Elastic Compliance Matrix: (Units=1/GPa)
#
#
# Indices 1 2 3 4 5 6 
#
# 1 0.015208 -0.007557 -0.008579 0.000000 -0.009285 0.000000
# 2 -0.007557 0.024585 -0.002743 0.000000 0.007281 0.000000
# 3 -0.008579 -0.002743 0.023071 0.000000 -0.006762 0.000000
# 4 0.000000 0.000000 0.000000 0.046571 0.000000 0.002393
# 5 -0.009285 0.007281 -0.006762 0.000000 0.040786 0.000000
# 6 0.000000 0.000000 0.000000 0.002393 0.000000 0.034820
#
#
# Mechanical properties :
#
#
# Convention : Reuss Voigt Hill
#
# Bulk Modulus (GPa) = 39.82992 63.47952 51.65472
# Shear Modulus (GPa) = 21.62935 27.37387 24.50161
#
# Velocity S-wave (km/s) = 3.15759 3.55224 3.36071
# Velocity P-wave (km/s) = 5.62619 6.78869 6.23459
#
# Compressibility (1/GPa) = 0.02510676
#
# Stress axis : x y z
#
# Youngs Moduli (GPa) = 65.75334 40.67551 43.34424
#
# Poissons Ratio (x) = 0.30738 0.37183
# Poissons Ratio (y) = 0.49689 0.11891
# Poissons Ratio (z) = 0.56407 0.11158
#
# Static dielectric constant tensor:
#      x y z
#    x 1.800240 0.000000 -0.008170 
#    y 0.000000 1.917630 0.000000 
#    z -0.008170 0.000000 1.900900 
# 
# From -- ./inp_files/13799.got.cif
#   From: 2010.05.17/outbox.cif.g08.bks.cpg/sg14_7_cif.got.tgz:13799.got - 2010.06.03 17:49:19.
