data_PCOD9245897
_publ_section_title
;
Structure prediction by ZEFSAII (Michael W. Deem and Ramdas Pophale) SiO2 
 PCOD9245897
Probable space group: P 21/C
;
_chemical_formula_sum "Si O2"
_cell_formula_units_Z 26
_cell_length_a 7.471086
_cell_length_b 5.052346
_cell_length_c 26.133186
_cell_angle_alpha 90.000000
_cell_angle_beta 92.346570
_cell_angle_gamma 90.000000
_cell_volume 985.609425
_symmetry_space_group_name_H-M "P 21/C"
_symmetry_group_IT_number 14
_symmetry_cell_setting 'monoclinic'
loop_
_space_group_symop_operation_xyz
x,y,z
-x,1/2+y,1/2-z
-x,-y,-z
x,1/2-y,1/2+z
loop_
_atom_site_type_symbol
_atom_site_label
_atom_site_fract_x
_atom_site_fract_y
_atom_site_fract_z
Si Si1 0.500000 0.500000 0.000000
Si Si2 0.444743 0.261430 0.219235
Si Si3 0.103395 0.318287 0.443802
Si Si4 0.374451 0.150414 0.607676
Si Si5 0.712853 0.061826 0.971088
Si Si6 0.960219 0.588363 0.277077
Si Si7 0.955449 0.343678 0.120596
O O1 0.443384 0.530573 0.062204
O O2 0.396275 0.773222 0.989455
O O3 0.439863 0.529451 0.252933
O O4 0.486960 0.340774 0.161155
O O5 0.248554 0.129450 0.214614
O O6 0.242567 0.294192 0.492593
O O7 0.905223 0.296755 0.465797
O O8 0.092525 0.604368 0.417858
O O9 0.140600 0.102488 0.401464
O O10 0.352380 0.442946 0.582891
O O11 0.167595 0.082483 0.619052
O O12 0.070930 0.725034 0.323788
O O13 0.999225 0.280170 0.270417
#
# Coordination Sequence:
#
# PCOD9245897 Si02
#       7
#     2   4   4   4   4   4   4
#     4  12  22  42  62 100 136 184 222 280 344 430
#     4  11  26  49  75 102 141 190 242 297 360 429
#     4  10  21  39  64  95 127 173 222 265 337 420
#     4  10  24  42  68  94 136 186 228 277 359 424
#     4  10  23  38  64  93 135 172 223 274 333 422
#     4  11  23  44  71 102 135 178 239 301 356 412
#     4  10  21  41  67  93 131 180 219 279 355 417
#
# _framework density 26.379617
#
# number of rings (size 3 to 8) (size 9 to 14) (size 15 to 20)
#    0.000    1.538    1.538    2.308    4.308    4.308 
#    8.308    0.000    0.000    0.000    0.000    0.000 
#    0.000    0.000    0.000    0.000    0.000    0.000 
#
# Total GULP energy -145210.135674 kJ/mol
# GULP energy per Si atom -5585.005218 kJ/mol
# Density = 2.631958 g / cm^3
# Si number density = 26.379617 Si / 1000 Ang^3
#
#
#
# Elastic Constant Matrix: (Units=GPa)
#
#
# Indices 1 2 3 4 5 6 
#
# 1 54.1927 -24.5950 7.3321 0.0000 6.4329 0.0000
# 2 -24.5950 54.8356 -9.2809 0.0000 10.0426 0.0000
# 3 7.3321 -9.2809 122.4438 0.0000 21.2439 0.0000
# 4 0.0000 0.0000 0.0000 37.6954 0.0000 -6.5644
# 5 6.4329 10.0426 21.2439 0.0000 34.3155 0.0000
# 6 0.0000 0.0000 0.0000 -6.5644 0.0000 21.1867
#
#
#
# Elastic Compliance Matrix: (Units=1/GPa)
#
#
# Indices 1 2 3 4 5 6 
#
# 1 0.025459 0.013320 0.001109 0.000000 -0.009357 0.000000
# 2 0.013320 0.027090 0.003433 0.000000 -0.012551 0.000000
# 3 0.001109 0.003433 0.009603 0.000000 -0.007157 0.000000
# 4 0.000000 0.000000 0.000000 0.028041 0.000000 0.008688
# 5 -0.009357 -0.012551 -0.007157 0.000000 0.038999 0.000000
# 6 0.000000 0.000000 0.000000 0.008688 0.000000 0.049891
#
#
# Mechanical properties :
#
#
# Convention : Reuss Voigt Hill
#
# Bulk Modulus (GPa) = 10.21711 19.82050 15.01880
# Shear Modulus (GPa) = 28.41151 35.84058 32.12604
#
# Velocity S-wave (km/s) = 3.28537 3.68998 3.49354
# Velocity P-wave (km/s) = 4.27470 5.06799 4.68815
#
# Compressibility (1/GPa) = 0.09787508
#
# Stress axis : x y z
#
# Youngs Moduli (GPa) = 39.27949 36.91367 104.13779
#
# Poissons Ratio (x) = -0.49169 -0.11544
# Poissons Ratio (y) = -0.52320 -0.35753
# Poissons Ratio (z) = -0.04354 -0.12673
#
# Static dielectric constant tensor:
#      x y z
#    x 2.211990 0.000000 0.014320 
#    y 0.000000 2.069280 0.000000 
#    z 0.014320 0.000000 2.075580 
# 
# From -- ./inp_files/71646.got.cif
#   From: 2010.05.17/outbox.cif.g08.bks.cpg/sg14_36_cif.got.tgz:71646.got - 2010.06.03 17:49:19.
