data_PCOD9245726
_publ_section_title
;
Structure prediction by ZEFSAII (Michael W. Deem and Ramdas Pophale) SiO2 
 PCOD9245726
Probable space group: P 21/C
;
_chemical_formula_sum "Si O2"
_cell_formula_units_Z 28
_cell_length_a 6.803263
_cell_length_b 14.589947
_cell_length_c 17.526722
_cell_angle_alpha 90.000000
_cell_angle_beta 54.011247
_cell_angle_gamma 90.000000
_cell_volume 1407.638844
_symmetry_space_group_name_H-M "P 21/C"
_symmetry_group_IT_number 14
_symmetry_cell_setting 'monoclinic'
loop_
_space_group_symop_operation_xyz
x,y,z
-x,1/2+y,1/2-z
-x,-y,-z
x,1/2-y,1/2+z
loop_
_atom_site_type_symbol
_atom_site_label
_atom_site_fract_x
_atom_site_fract_y
_atom_site_fract_z
Si Si1 0.233518 0.488358 0.344811
Si Si2 0.589787 0.673755 0.794531
Si Si3 0.668300 0.184386 0.242141
Si Si4 0.755921 0.054678 0.535314
Si Si5 0.208669 0.252051 0.092833
Si Si6 0.442572 0.883729 0.570375
Si Si7 0.691641 0.559178 0.501690
O O1 0.257007 0.409183 0.276467
O O2 0.355824 0.583449 0.289933
O O3 0.340860 0.450272 0.399888
O O4 0.956088 0.517160 0.422874
O O5 0.537238 0.748914 0.742499
O O6 0.337372 0.627857 0.881812
O O7 0.706363 0.723455 0.840990
O O8 0.657532 0.171258 0.335128
O O9 0.924351 0.229519 0.160179
O O10 0.751870 0.103157 0.453201
O O11 0.535640 0.981900 0.578094
O O12 0.000000 0.000000 0.500000
O O13 0.322228 0.161390 0.028512
O O14 0.317418 0.335151 0.018627
O O15 0.500000 0.500000 0.500000
#
# Coordination Sequence:
#
# PCOD9245726 Si02
#       7
#     4   4   4   4   4   4   4
#     4  10  22  39  61  92 124 161 209 261 300 369
#     4  11  22  39  61  91 126 159 212 255 303 370
#     4  11  22  40  61  93 128 164 209 259 309 366
#     4  10  21  39  61  88 118 164 202 253 312 365
#     4  10  23  39  60  92 122 166 207 257 309 376
#     4  10  21  39  60  86 129 156 204 259 306 364
#     4  10  21  41  63  86 124 167 205 252 315 363
#
# _framework density 19.891466000000001
#
# number of rings (size 3 to 8) (size 9 to 14) (size 15 to 20)
#    0.000    1.714    1.429    2.571    0.000    3.429 
#    5.143    4.286    0.000    0.000    0.000    0.000 
#    0.000    0.000    0.000    0.000    0.000    0.000 
#
# Total GULP energy -156277.242451 kJ/mol
# GULP energy per Si atom -5581.330088 kJ/mol
# Density = 1.984619 g / cm^3
# Si number density = 19.891466 Si / 1000 Ang^3
#
#
#
# Elastic Constant Matrix: (Units=GPa)
#
#
# Indices 1 2 3 4 5 6 
#
# 1 40.1284 41.2606 21.9453 0.0000 23.4542 0.0000
# 2 41.2606 107.3773 36.2253 0.0000 21.9848 0.0000
# 3 21.9453 36.2253 84.0014 0.0000 30.6002 0.0000
# 4 0.0000 0.0000 0.0000 36.2627 0.0000 9.4729
# 5 23.4542 21.9848 30.6002 0.0000 25.5752 0.0000
# 6 0.0000 0.0000 0.0000 9.4729 0.0000 40.2394
#
#
#
# Elastic Compliance Matrix: (Units=1/GPa)
#
#
# Indices 1 2 3 4 5 6 
#
# 1 0.083105 -0.021526 0.015234 0.000000 -0.075936 0.000000
# 2 -0.021526 0.017149 -0.006369 0.000000 0.012619 0.000000
# 3 0.015234 -0.006369 0.024402 0.000000 -0.037692 0.000000
# 4 0.000000 0.000000 0.000000 0.029384 0.000000 -0.006917
# 5 -0.075936 0.012619 -0.037692 0.000000 0.142989 0.000000
# 6 0.000000 0.000000 0.000000 -0.006917 0.000000 0.026480
#
#
# Mechanical properties :
#
#
# Convention : Reuss Voigt Hill
#
# Bulk Modulus (GPa) = 10.06695 47.81883 28.94289
# Shear Modulus (GPa) = 13.09101 29.22054 21.15577
#
# Velocity S-wave (km/s) = 2.56817 3.83691 3.26477
# Velocity P-wave (km/s) = 3.72370 6.61220 5.36597
#
# Compressibility (1/GPa) = 0.09933491
#
# Stress axis : x y z
#
# Youngs Moduli (GPa) = 12.03298 58.31122 40.98057
#
# Poissons Ratio (x) = 1.25519 -0.62430
# Poissons Ratio (y) = 0.25902 0.26100
# Poissons Ratio (z) = -0.18331 0.37138
#
# Static dielectric constant tensor:
#      x y z
#    x 1.672960 0.000000 0.010690 
#    y 0.000000 1.720620 0.000000 
#    z 0.010690 0.000000 1.709970 
# 
# From -- ./inp_files/53396.got.cif
#   From: 2010.05.17/outbox.cif.g08.bks.cpg/sg14_27_cif.got.tgz:53396.got - 2010.06.03 17:49:19.
