data_PCOD9245280
_publ_section_title
;
Structure prediction by ZEFSAII (Michael W. Deem and Ramdas Pophale) SiO2 
 PCOD9245280
Probable space group: P 21/C
;
_chemical_formula_sum "Si O2"
_cell_formula_units_Z 28
_cell_length_a 9.174410
_cell_length_b 15.422420
_cell_length_c 17.471891
_cell_angle_alpha 90.000000
_cell_angle_beta 150.048740
_cell_angle_gamma 90.000000
_cell_volume 1234.241270
_symmetry_space_group_name_H-M "P 21/C"
_symmetry_group_IT_number 14
_symmetry_cell_setting 'monoclinic'
loop_
_space_group_symop_operation_xyz
x,y,z
-x,1/2+y,1/2-z
-x,-y,-z
x,1/2-y,1/2+z
loop_
_atom_site_type_symbol
_atom_site_label
_atom_site_fract_x
_atom_site_fract_y
_atom_site_fract_z
Si Si1 0.663961 0.636904 0.042674
Si Si2 0.330746 0.513643 0.620159
Si Si3 0.238839 0.203023 0.257645
Si Si4 0.244939 0.766065 0.803824
Si Si5 0.628487 0.332618 0.790334
Si Si6 0.197900 0.422376 0.056160
Si Si7 0.389654 0.646673 0.517641
O O1 0.703896 0.626945 0.152137
O O2 0.905541 0.713247 0.139679
O O3 0.343652 0.676895 0.886602
O O4 0.734006 0.572257 0.004504
O O5 0.499625 0.422654 0.698738
O O6 0.507439 0.574808 0.760549
O O7 0.363047 0.557417 0.551334
O O8 0.000000 0.500000 0.500000
O O9 0.437242 0.186873 0.275792
O O10 0.333292 0.296517 0.332494
O O11 0.898699 0.198607 0.085401
O O12 0.392660 0.766336 0.788715
O O13 0.356595 0.843610 0.910890
O O14 0.971983 0.343543 0.964994
O O15 0.000000 0.500000 0.000000
#
# Coordination Sequence:
#
# PCOD9245280 Si02
#       7
#     4   4   4   4   4   4   4
#     4   9  19  38  59  87 123 153 202 247 302 357
#     4  11  22  39  59  86 122 156 202 246 299 366
#     4  10  21  37  61  90 118 156 199 253 299 360
#     4   9  20  36  58  86 118 155 197 249 297 356
#     4  10  21  38  61  86 119 153 201 248 306 358
#     4   9  21  39  59  83 118 159 196 241 301 361
#     4  10  22  38  59  85 121 156 197 247 305 358
#
# _framework density 22.686004000000001
#
# number of rings (size 3 to 8) (size 9 to 14) (size 15 to 20)
#    0.000    2.286    1.429    0.000    4.000    2.857 
#    0.000    2.857    3.143    0.000    0.000    0.000 
#    0.000    0.000    0.000    0.000    0.000    0.000 
#
# Total GULP energy -156002.977775 kJ/mol
# GULP energy per Si atom -5571.534921 kJ/mol
# Density = 2.263437 g / cm^3
# Si number density = 22.686004 Si / 1000 Ang^3
#
#
#
# Elastic Constant Matrix: (Units=GPa)
#
#
# Indices 1 2 3 4 5 6 
#
# 1 153.9702 10.8087 5.8653 0.0000 -9.5663 0.0000
# 2 10.8087 27.7370 6.7115 0.0000 -0.6204 0.0000
# 3 5.8653 6.7115 90.5548 0.0000 19.9834 0.0000
# 4 0.0000 0.0000 0.0000 17.3952 0.0000 -2.5428
# 5 -9.5663 -0.6204 19.9834 0.0000 22.7440 0.0000
# 6 0.0000 0.0000 0.0000 -2.5428 0.0000 41.0428
#
#
#
# Elastic Compliance Matrix: (Units=1/GPa)
#
#
# Indices 1 2 3 4 5 6 
#
# 1 0.006941 -0.002347 -0.001124 0.000000 0.003843 0.000000
# 2 -0.002347 0.037832 -0.003302 0.000000 0.002946 0.000000
# 3 -0.001124 -0.003302 0.014247 0.000000 -0.013081 0.000000
# 4 0.000000 0.000000 0.000000 0.058013 0.000000 0.003594
# 5 0.003843 0.002946 -0.013081 0.000000 0.057157 0.000000
# 6 0.000000 0.000000 0.000000 0.003594 0.000000 0.024587
#
#
# Mechanical properties :
#
#
# Convention : Reuss Voigt Hill
#
# Bulk Modulus (GPa) = 21.99001 35.44810 28.71906
# Shear Modulus (GPa) = 21.97979 32.82816 27.40398
#
# Velocity S-wave (km/s) = 3.11604 3.80816 3.47935
# Velocity P-wave (km/s) = 4.76031 5.91571 5.36918
#
# Compressibility (1/GPa) = 0.04547519
#
# Stress axis : x y z
#
# Youngs Moduli (GPa) = 144.06982 26.43242 70.18952
#
# Poissons Ratio (x) = 0.06204 0.07887
# Poissons Ratio (y) = 0.33813 0.23177
# Poissons Ratio (z) = 0.16188 0.08728
#
# Static dielectric constant tensor:
#      x y z
#    x 1.903040 0.000000 -0.051560 
#    y 0.000000 1.887340 0.000000 
#    z -0.051560 0.000000 1.863770 
# 
# From -- ./inp_files/56147.got.cif
#   From: 2010.05.17/outbox.cif.g08.bks.cpg/sg14_29_cif.got.tgz:56147.got - 2010.06.03 17:49:19.
