data_PCOD9245598
_publ_section_title
;
Structure prediction by ZEFSAII (Michael W. Deem and Ramdas Pophale) SiO2 
 PCOD9245598
Probable space group: P 21/C
;
_chemical_formula_sum "Si O2"
_cell_formula_units_Z 20
_cell_length_a 5.020202
_cell_length_b 30.289543
_cell_length_c 5.292550
_cell_angle_alpha 90.000000
_cell_angle_beta 100.077981
_cell_angle_gamma 90.000000
_cell_volume 792.365764
_symmetry_space_group_name_H-M "P 21/C"
_symmetry_group_IT_number 14
_symmetry_cell_setting 'monoclinic'
loop_
_space_group_symop_operation_xyz
x,y,z
-x,1/2+y,1/2-z
-x,-y,-z
x,1/2-y,1/2+z
loop_
_atom_site_type_symbol
_atom_site_label
_atom_site_fract_x
_atom_site_fract_y
_atom_site_fract_z
Si Si1 0.943190 0.279052 0.002348
Si Si2 0.209578 0.419688 0.826297
Si Si3 0.282464 0.509349 0.683556
Si Si4 0.351094 0.902115 0.004041
Si Si5 0.522022 0.835636 0.380793
O O1 0.910859 0.246002 0.233070
O O2 0.239558 0.300231 0.089855
O O3 0.712049 0.316240 0.983528
O O4 0.277779 0.471303 0.899021
O O5 0.366667 0.412009 0.587369
O O6 0.893273 0.411425 0.729787
O O7 0.327780 0.380766 0.014169
O O8 0.500000 0.500000 0.500000
O O9 0.291109 0.562064 0.716733
O O10 0.000000 0.500000 0.500000
O O11 0.366268 0.852398 0.105502
#
# Coordination Sequence:
#
# PCOD9245598 Si02
#       5
#     4   4   4   4   4
#     4  12  30  52  76 103 140 179 230 296 370 430
#     4  10  21  38  64  96 140 177 226 276 332 407
#     4   8  16  33  56  91 134 183 215 268 330 389
#     4  10  21  38  64  96 140 177 226 276 332 407
#     4  12  26  43  74 102 130 182 228 289 350 420
#
# _framework density 25.240869
#
# number of rings (size 3 to 8) (size 9 to 14) (size 15 to 20)
#    0.000    1.600    0.000    3.600    8.400    0.800 
#    0.000    0.000    0.000   16.800    0.000    0.000 
#    0.000    0.000    0.000    0.000    0.000    0.000 
#
# Total GULP energy -111834.281197 kJ/mol
# GULP energy per Si atom -5591.714060 kJ/mol
# Density = 2.518342 g / cm^3
# Si number density = 25.240869 Si / 1000 Ang^3
#
#
#
# Elastic Constant Matrix: (Units=GPa)
#
#
# Indices 1 2 3 4 5 6 
#
# 1 136.5352 13.3949 11.9337 0.0000 8.3927 0.0000
# 2 13.3949 81.1857 33.7652 0.0000 7.0612 0.0000
# 3 11.9337 33.7652 63.4155 0.0000 -2.1421 0.0000
# 4 0.0000 0.0000 0.0000 44.6590 0.0000 6.5535
# 5 8.3927 7.0612 -2.1421 0.0000 24.6503 0.0000
# 6 0.0000 0.0000 0.0000 6.5535 0.0000 46.1569
#
#
#
# Elastic Compliance Matrix: (Units=1/GPa)
#
#
# Indices 1 2 3 4 5 6 
#
# 1 0.007642 -0.000519 -0.001248 0.000000 -0.002562 0.000000
# 2 -0.000519 0.016572 -0.008907 0.000000 -0.005345 0.000000
# 3 -0.001248 -0.008907 0.020908 0.000000 0.004793 0.000000
# 4 0.000000 0.000000 0.000000 0.022868 0.000000 -0.003247
# 5 -0.002562 -0.005345 0.004793 0.000000 0.043387 0.000000
# 6 0.000000 0.000000 0.000000 -0.003247 0.000000 0.022126
#
#
# Mechanical properties :
#
#
# Convention : Reuss Voigt Hill
#
# Bulk Modulus (GPa) = 42.06216 44.36933 43.21575
# Shear Modulus (GPa) = 30.71707 37.89607 34.30657
#
# Velocity S-wave (km/s) = 3.49228 3.87896 3.69069
# Velocity P-wave (km/s) = 5.74124 6.13827 5.94307
#
# Compressibility (1/GPa) = 0.02377434
#
# Stress axis : x y z
#
# Youngs Moduli (GPa) = 130.86289 60.34214 47.82829
#
# Poissons Ratio (x) = 0.03131 0.05970
# Poissons Ratio (y) = 0.06790 0.42599
# Poissons Ratio (z) = 0.16336 0.53745
#
# Static dielectric constant tensor:
#      x y z
#    x 1.908270 0.000000 0.056110 
#    y 0.000000 2.063820 0.000000 
#    z 0.056110 0.000000 2.034630 
# 
# From -- ./inp_files/561.got.cif
#   From: 2010.05.17/outbox.cif.g08.bks.cpg/sg14_1_cif.got.tgz:561.got - 2010.06.03 17:49:19.
