data_PCOD9245647
_publ_section_title
;
Structure prediction by ZEFSAII (Michael W. Deem and Ramdas Pophale) SiO2 
 PCOD9245647
Probable space group: P 21/C
;
_chemical_formula_sum "Si O2"
_cell_formula_units_Z 32
_cell_length_a 10.381615
_cell_length_b 20.895750
_cell_length_c 8.178867
_cell_angle_alpha 90.000000
_cell_angle_beta 60.013498
_cell_angle_gamma 90.000000
_cell_volume 1536.758822
_symmetry_space_group_name_H-M "P 21/C"
_symmetry_group_IT_number 14
_symmetry_cell_setting 'monoclinic'
loop_
_space_group_symop_operation_xyz
x,y,z
-x,1/2+y,1/2-z
-x,-y,-z
x,1/2-y,1/2+z
loop_
_atom_site_type_symbol
_atom_site_label
_atom_site_fract_x
_atom_site_fract_y
_atom_site_fract_z
Si Si1 0.299434 0.981965 0.956297
Si Si2 0.352891 0.996534 0.279862
Si Si3 0.880652 0.682327 0.617003
Si Si4 0.786633 0.352940 0.639894
Si Si5 0.283674 0.432170 0.149120
Si Si6 0.591690 0.127044 0.567732
Si Si7 0.706668 0.717118 0.422763
Si Si8 0.507939 0.225995 0.202044
O O1 0.220397 0.915201 0.969532
O O2 0.479440 0.975267 0.834971
O O3 0.257155 0.026622 0.830294
O O4 0.272674 0.006542 0.157345
O O5 0.372746 0.920570 0.305186
O O6 0.277314 0.027809 0.486703
O O7 0.830781 0.626062 0.769328
O O8 0.783662 0.675233 0.512315
O O9 0.828496 0.748530 0.732660
O O10 0.052571 0.678441 0.467120
O O11 0.730794 0.371048 0.856670
O O12 0.659733 0.305774 0.655584
O O13 0.452066 0.405656 0.063755
O O14 0.543215 0.199173 0.642836
O O15 0.577128 0.689611 0.390158
O O16 0.613715 0.771557 0.577953
#
# Coordination Sequence:
#
# PCOD9245647 Si02
#       8
#     4   4   4   4   4   4   4   4
#     4  10  22  37  65 102 128 170 229 278 328 393
#     4  10  21  38  66  98 132 165 228 283 323 386
#     4  11  26  42  64  93 139 176 212 272 350 392
#     4  12  24  40  64  99 136 170 216 284 339 391
#     4  11  19  44  67  90 131 183 219 271 326 402
#     4  11  20  40  63  95 127 177 217 278 331 388
#     4  10  22  44  60  90 123 175 221 261 318 412
#     4  11  22  38  67  92 123 170 231 266 319 399
#
# _framework density 20.823046000000001
#
# number of rings (size 3 to 8) (size 9 to 14) (size 15 to 20)
#    0.000    1.250    6.250    0.750    3.500    1.500 
#    2.250    0.625    0.000    0.000    0.000    0.000 
#    0.000    0.000    0.000    0.000    0.000    0.000 
#
# Total GULP energy -178693.526941 kJ/mol
# GULP energy per Si atom -5584.172717 kJ/mol
# Density = 2.077565 g / cm^3
# Si number density = 20.823046 Si / 1000 Ang^3
#
#
#
# Elastic Constant Matrix: (Units=GPa)
#
#
# Indices 1 2 3 4 5 6 
#
# 1 71.5398 12.4045 43.6870 0.0000 -6.2436 0.0000
# 2 12.4045 54.4950 16.7503 0.0000 1.3282 0.0000
# 3 43.6870 16.7503 101.2962 0.0000 4.4475 0.0000
# 4 0.0000 0.0000 0.0000 26.2703 0.0000 0.4828
# 5 -6.2436 1.3282 4.4475 0.0000 40.6594 0.0000
# 6 0.0000 0.0000 0.0000 0.4828 0.0000 13.4911
#
#
#
# Elastic Compliance Matrix: (Units=1/GPa)
#
#
# Indices 1 2 3 4 5 6 
#
# 1 0.019798 -0.002029 -0.008380 0.000000 0.004023 0.000000
# 2 -0.002029 0.019544 -0.002326 0.000000 -0.000696 0.000000
# 3 -0.008380 -0.002326 0.013991 0.000000 -0.002741 0.000000
# 4 0.000000 0.000000 0.000000 0.038091 0.000000 -0.001363
# 5 0.004023 -0.000696 -0.002741 0.000000 0.025535 0.000000
# 6 0.000000 0.000000 0.000000 -0.001363 0.000000 0.074172
#
#
# Mechanical properties :
#
#
# Convention : Reuss Voigt Hill
#
# Bulk Modulus (GPa) = 35.88902 41.44606 38.66754
# Shear Modulus (GPa) = 22.13477 26.38343 24.25910
#
# Velocity S-wave (km/s) = 3.26390 3.56340 3.41693
# Velocity P-wave (km/s) = 5.61041 6.07269 5.84612
#
# Compressibility (1/GPa) = 0.02786368
#
# Stress axis : x y z
#
# Youngs Moduli (GPa) = 50.50907 51.16632 71.47405
#
# Poissons Ratio (x) = 0.10381 0.59894
# Poissons Ratio (y) = 0.10248 0.16626
# Poissons Ratio (z) = 0.42326 0.11902
#
# Static dielectric constant tensor:
#      x y z
#    x 1.736420 0.000000 0.055560 
#    y 0.000000 1.774070 0.000000 
#    z 0.055560 0.000000 1.785240 
# 
# From -- ./inp_files/14315.got.cif
#   From: 2010.05.17/outbox.cif.g08.bks.cpg/sg14_8_cif.got.tgz:14315.got - 2010.06.03 17:49:19.
