data_PCOD9245179
_publ_section_title
;
Structure prediction by ZEFSAII (Michael W. Deem and Ramdas Pophale) SiO2 
 PCOD9245179
Probable space group: P 21/C
;
_chemical_formula_sum "Si O2"
_cell_formula_units_Z 24
_cell_length_a 10.931450
_cell_length_b 11.501006
_cell_length_c 12.120213
_cell_angle_alpha 90.000000
_cell_angle_beta 141.808566
_cell_angle_gamma 90.000000
_cell_volume 942.142746
_symmetry_space_group_name_H-M "P 21/C"
_symmetry_group_IT_number 14
_symmetry_cell_setting 'monoclinic'
loop_
_space_group_symop_operation_xyz
x,y,z
-x,1/2+y,1/2-z
-x,-y,-z
x,1/2-y,1/2+z
loop_
_atom_site_type_symbol
_atom_site_label
_atom_site_fract_x
_atom_site_fract_y
_atom_site_fract_z
Si Si1 0.520909 0.596246 0.415886
Si Si2 0.943482 0.819909 0.908346
Si Si3 0.455182 0.344886 0.974360
Si Si4 0.778129 0.275848 0.572088
Si Si5 0.078474 0.886986 0.616899
Si Si6 0.349416 0.942568 0.182921
O O1 0.500000 0.500000 0.500000
O O2 0.600187 0.715420 0.522080
O O3 0.297491 0.628927 0.221755
O O4 0.629557 0.550289 0.384493
O O5 0.736051 0.877610 0.732638
O O6 0.131460 0.623166 0.283912
O O7 0.937053 0.723097 0.997552
O O8 0.125497 0.907903 0.057105
O O9 0.662488 0.321495 0.057980
O O10 0.499881 0.427046 0.109720
O O11 0.963846 0.244977 0.628371
O O12 0.613074 0.335694 0.377577
O O13 0.000000 0.000000 0.500000
#
# Coordination Sequence:
#
# PCOD9245179 Si02
#       6
#     4   4   4   4   4   4
#     4  11  18  36  60  89 119 149 200 258 296 347
#     4  10  22  35  56  90 122 157 196 242 311 351
#     4  11  21  38  58  88 122 161 197 254 304 351
#     4   9  19  38  54  86 123 150 194 253 290 357
#     4  11  21  33  60  93 116 150 205 252 295 356
#     4  10  21  37  56  90 124 150 202 248 301 357
#
# _framework density 25.473845000000001
#
# number of rings (size 3 to 8) (size 9 to 14) (size 15 to 20)
#    1.000    0.667    6.667    1.000    2.333    0.000 
#    0.000    0.000    0.000    5.000    0.000    0.000 
#    0.000    0.000    0.000    0.000    0.000    0.000 
#
# Total GULP energy -133936.336779 kJ/mol
# GULP energy per Si atom -5580.680699 kJ/mol
# Density = 2.541587 g / cm^3
# Si number density = 25.473845 Si / 1000 Ang^3
#
#
#
# Elastic Constant Matrix: (Units=GPa)
#
#
# Indices 1 2 3 4 5 6 
#
# 1 42.4694 12.7585 28.2385 0.0000 -9.1413 0.0000
# 2 12.7585 91.8698 33.4944 0.0000 5.0240 0.0000
# 3 28.2385 33.4944 164.3248 0.0000 10.6348 0.0000
# 4 0.0000 0.0000 0.0000 50.9486 0.0000 5.9732
# 5 -9.1413 5.0240 10.6348 0.0000 33.6763 0.0000
# 6 0.0000 0.0000 0.0000 5.9732 0.0000 28.4558
#
#
#
# Elastic Compliance Matrix: (Units=1/GPa)
#
#
# Indices 1 2 3 4 5 6 
#
# 1 0.030099 -0.002823 -0.005261 0.000000 0.010253 0.000000
# 2 -0.002823 0.012058 -0.001844 0.000000 -0.001983 0.000000
# 3 -0.005261 -0.001844 0.007595 0.000000 -0.003551 0.000000
# 4 0.000000 0.000000 0.000000 0.020123 0.000000 -0.004224
# 5 0.010253 -0.001983 -0.003551 0.000000 0.033895 0.000000
# 6 0.000000 0.000000 0.000000 -0.004224 0.000000 0.036029
#
#
# Mechanical properties :
#
#
# Convention : Reuss Voigt Hill
#
# Bulk Modulus (GPa) = 33.44840 49.73853 41.59346
# Shear Modulus (GPa) = 29.47769 37.56098 33.51933
#
# Velocity S-wave (km/s) = 3.40542 3.84408 3.63138
# Velocity P-wave (km/s) = 5.34991 6.26660 5.82631
#
# Compressibility (1/GPa) = 0.02989680
#
# Stress axis : x y z
#
# Youngs Moduli (GPa) = 33.22362 82.93363 131.66052
#
# Poissons Ratio (x) = 0.23410 0.69261
# Poissons Ratio (y) = 0.09378 0.24283
# Poissons Ratio (z) = 0.17477 0.15296
#
# Static dielectric constant tensor:
#      x y z
#    x 2.056800 0.000000 -0.095120 
#    y 0.000000 2.147700 0.000000 
#    z -0.095120 0.000000 2.032640 
# 
# From -- ./inp_files/29885.got.cif
#   From: 2010.05.17/outbox.cif.g08.bks.cpg/sg14_15_cif.got.tgz:29885.got - 2010.06.03 17:49:19.
