data_PCOD9245484
_publ_section_title
;
Structure prediction by ZEFSAII (Michael W. Deem and Ramdas Pophale) SiO2 
 PCOD9245484
Probable space group: P 21/C
;
_chemical_formula_sum "Si O2"
_cell_formula_units_Z 28
_cell_length_a 5.083388
_cell_length_b 19.973670
_cell_length_c 15.117172
_cell_angle_alpha 90.000000
_cell_angle_beta 60.267165
_cell_angle_gamma 90.000000
_cell_volume 1332.831382
_symmetry_space_group_name_H-M "P 21/C"
_symmetry_group_IT_number 14
_symmetry_cell_setting 'monoclinic'
loop_
_space_group_symop_operation_xyz
x,y,z
-x,1/2+y,1/2-z
-x,-y,-z
x,1/2-y,1/2+z
loop_
_atom_site_type_symbol
_atom_site_label
_atom_site_fract_x
_atom_site_fract_y
_atom_site_fract_z
Si Si1 0.655978 0.477913 0.564538
Si Si2 0.903101 0.280472 0.765040
Si Si3 0.756322 0.645281 0.800929
Si Si4 0.529908 0.147850 0.190014
Si Si5 0.702353 0.441248 0.224788
Si Si6 0.273991 0.065740 0.394598
Si Si7 0.645106 0.138308 0.467845
O O1 0.500000 0.500000 0.500000
O O2 0.654158 0.399386 0.591778
O O3 0.471544 0.516761 0.671530
O O4 0.000000 0.500000 0.500000
O O5 0.729713 0.293259 0.701060
O O6 0.708018 0.306674 0.881143
O O7 0.025314 0.206197 0.760352
O O8 0.204401 0.325836 0.714326
O O9 0.519621 0.618408 0.768384
O O10 0.980927 0.585339 0.791021
O O11 0.553304 0.665849 0.919038
O O12 0.476405 0.099679 0.283469
O O13 0.762757 0.489821 0.130848
O O14 0.455688 0.078813 0.453336
O O15 0.963396 0.107676 0.446139
#
# Coordination Sequence:
#
# PCOD9245484 Si02
#       7
#     4   4   4   4   4   4   4
#     4  11  22  41  65  94 126 159 212 264 317 382
#     4  10  21  41  59  84 123 166 211 251 294 376
#     4  12  24  39  60  91 131 159 205 263 307 362
#     4   9  19  38  63  83 114 164 208 250 302 360
#     4  11  24  40  60  93 129 157 194 270 321 354
#     4   9  19  37  62  86 118 153 197 249 308 379
#     4  10  21  38  61  87 115 165 209 244 305 376
#
# _framework density 21.007908
#
# number of rings (size 3 to 8) (size 9 to 14) (size 15 to 20)
#    0.000    1.714    0.000    4.286    0.000    8.000 
#    7.714    0.000    0.000    0.000    0.000    0.000 
#    0.000    0.000    0.000    0.000    0.000    0.000 
#
# Total GULP energy -156459.048756 kJ/mol
# GULP energy per Si atom -5587.823170 kJ/mol
# Density = 2.096009 g / cm^3
# Si number density = 21.007908 Si / 1000 Ang^3
#
#
#
# Elastic Constant Matrix: (Units=GPa)
#
#
# Indices 1 2 3 4 5 6 
#
# 1 87.7158 -20.3038 15.2942 0.0000 1.5140 0.0000
# 2 -20.3038 44.7488 17.2227 0.0000 -2.1496 0.0000
# 3 15.2942 17.2227 79.9859 0.0000 -3.0681 0.0000
# 4 0.0000 0.0000 0.0000 25.4568 0.0000 -5.3143
# 5 1.5140 -2.1496 -3.0681 0.0000 25.3487 0.0000
# 6 0.0000 0.0000 0.0000 -5.3143 0.0000 32.1629
#
#
#
# Elastic Compliance Matrix: (Units=1/GPa)
#
#
# Indices 1 2 3 4 5 6 
#
# 1 0.014052 0.008054 -0.004448 0.000000 -0.000695 0.000000
# 2 0.008054 0.029035 -0.007752 0.000000 0.001043 0.000000
# 3 -0.004448 -0.007752 0.015077 0.000000 0.001433 0.000000
# 4 0.000000 0.000000 0.000000 0.040686 0.000000 0.006723
# 5 -0.000695 0.001043 0.001433 0.000000 0.039753 0.000000
# 6 0.000000 0.000000 0.000000 0.006723 0.000000 0.032203
#
#
# Mechanical properties :
#
#
# Convention : Reuss Voigt Hill
#
# Bulk Modulus (GPa) = 20.05074 26.31963 23.18518
# Shear Modulus (GPa) = 25.54657 29.94284 27.74470
#
# Velocity S-wave (km/s) = 3.49097 3.77943 3.63806
# Velocity P-wave (km/s) = 5.08077 5.62148 5.35795
#
# Compressibility (1/GPa) = 0.04987348
#
# Stress axis : x y z
#
# Youngs Moduli (GPa) = 71.16230 34.44101 66.32684
#
# Poissons Ratio (x) = -0.27740 0.29502
# Poissons Ratio (y) = -0.57318 0.51417
# Poissons Ratio (z) = 0.31652 0.26699
#
# Static dielectric constant tensor:
#      x y z
#    x 1.710530 0.000000 0.012120 
#    y 0.000000 1.793400 0.000000 
#    z 0.012120 0.000000 1.759560 
# 
# From -- ./inp_files/37631.got.cif
#   From: 2010.05.17/outbox.cif.g08.bks.cpg/sg14_19_cif.got.tgz:37631.got - 2010.06.03 17:49:19.
