data_PCOD9245655
_publ_section_title
;
Structure prediction by ZEFSAII (Michael W. Deem and Ramdas Pophale) SiO2 
 PCOD9245655
Probable space group: P 21/C
;
_chemical_formula_sum "Si O2"
_cell_formula_units_Z 32
_cell_length_a 28.747830
_cell_length_b 5.295644
_cell_length_c 17.202015
_cell_angle_alpha 90.000000
_cell_angle_beta 30.929079
_cell_angle_gamma 90.000000
_cell_volume 1346.004718
_symmetry_space_group_name_H-M "P 21/C"
_symmetry_group_IT_number 14
_symmetry_cell_setting 'monoclinic'
loop_
_space_group_symop_operation_xyz
x,y,z
-x,1/2+y,1/2-z
-x,-y,-z
x,1/2-y,1/2+z
loop_
_atom_site_type_symbol
_atom_site_label
_atom_site_fract_x
_atom_site_fract_y
_atom_site_fract_z
Si Si1 0.473496 0.910846 0.686365
Si Si2 0.350289 0.029551 0.646203
Si Si3 0.747646 0.478740 0.271520
Si Si4 0.606900 0.587910 0.144441
Si Si5 0.091503 0.689748 0.059038
Si Si6 0.780223 0.538452 0.534148
Si Si7 0.785344 0.292466 0.874690
Si Si8 0.082293 0.423773 0.232180
O O1 0.403611 0.135817 0.804412
O O2 0.540845 0.916731 0.664797
O O3 0.542723 0.961218 0.517990
O O4 0.429416 0.635144 0.747431
O O5 0.306403 0.262436 0.661000
O O6 0.312106 0.075417 0.787153
O O7 0.314110 0.756895 0.669260
O O8 0.775602 0.405058 0.318850
O O9 0.836686 0.482728 0.089406
O O10 0.706510 0.498822 0.978114
O O11 0.057878 0.584791 0.190220
O O12 0.004614 0.750005 0.131669
O O13 0.150577 0.932499 0.999503
O O14 0.771960 0.334297 0.478022
O O15 0.829377 0.771840 0.423434
O O16 0.883911 0.418784 0.742597
#
# Coordination Sequence:
#
# PCOD9245655 Si02
#       8
#     4   4   4   4   4   4   4   4
#     4  10  21  38  67  92 128 178 220 276 317 408
#     4  11  22  43  68 100 129 178 235 267 331 410
#     4  11  24  40  69 100 138 172 226 286 329 399
#     4  10  22  39  61  98 133 168 222 271 342 392
#     4  10  21  41  67  95 125 183 236 269 326 414
#     4  10  23  40  67  92 133 180 221 276 339 410
#     4  11  26  40  64 101 137 178 214 293 353 390
#     4  11  21  41  66  93 132 179 229 277 339 405
#
# _framework density 23.774063000000002
#
# number of rings (size 3 to 8) (size 9 to 14) (size 15 to 20)
#    0.000    1.500    3.750    0.750    7.000    0.500 
#    0.000    1.875    0.000    0.000    0.000    0.000 
#    0.000    0.000    0.000    0.000    0.000    0.000 
#
# Total GULP energy -179022.123775 kJ/mol
# GULP energy per Si atom -5594.441368 kJ/mol
# Density = 2.371995 g / cm^3
# Si number density = 23.774063 Si / 1000 Ang^3
#
#
#
# Elastic Constant Matrix: (Units=GPa)
#
#
# Indices 1 2 3 4 5 6 
#
# 1 85.7636 21.3906 0.9619 0.0000 3.5830 0.0000
# 2 21.3906 95.5440 1.1291 0.0000 0.8310 0.0000
# 3 0.9619 1.1291 49.6556 0.0000 12.4839 0.0000
# 4 0.0000 0.0000 0.0000 -0.1523 0.0000 78.6326
# 5 3.5830 0.8310 12.4839 0.0000 15.6601 0.0000
# 6 0.0000 0.0000 0.0000 78.6326 0.0000 -168.4423
#
#
#
# Elastic Compliance Matrix: (Units=1/GPa)
#
#
# Indices 1 2 3 4 5 6 
#
# 1 0.012479 -0.002773 0.000628 0.000000 -0.003209 0.000000
# 2 -0.002773 0.011088 -0.000263 0.000000 0.000255 0.000000
# 3 0.000628 -0.000263 0.025220 0.000000 -0.020234 0.000000
# 4 0.000000 0.000000 0.000000 0.027356 0.000000 0.012770
# 5 -0.003209 0.000255 -0.020234 0.000000 0.080708 0.000000
# 6 0.000000 0.000000 0.000000 0.012770 0.000000 0.000025
#
#
# Mechanical properties :
#
#
# Convention : Reuss Voigt Hill
#
# Bulk Modulus (GPa) = 22.74243 30.88072 26.81157
# Shear Modulus (GPa) = 28.35310 -16.75481 5.79914
#
# Velocity S-wave (km/s) = 3.45716 -2.65760 1.56351
# Velocity P-wave (km/s) = 5.05201 1.89746 3.81596
#
# Compressibility (1/GPa) = 0.04397067
#
# Stress axis : x y z
#
# Youngs Moduli (GPa) = 80.13680 90.18633 39.65158
#
# Poissons Ratio (x) = 0.25011 -0.02490
# Poissons Ratio (y) = 0.22224 0.01041
# Poissons Ratio (z) = -0.05033 0.02369
#
# Static dielectric constant tensor:
#      x y z
#    x 1.921220 0.000000 -0.008210 
#    y 0.000000 1.913550 0.000000 
#    z -0.008210 0.000000 1.901880 
# 
# From -- ./inp_files/59977.got.cif
#   From: 2010.05.17/outbox.cif.g08.bks.cpg/sg14_30_cif.got.tgz:59977.got - 2010.06.03 17:49:19.
