data_PCOD9245108
_publ_section_title
;
Structure prediction by ZEFSAII (Michael W. Deem and Ramdas Pophale) SiO2 
 PCOD9245108
Probable space group: P 21/C
;
_chemical_formula_sum "Si O2"
_cell_formula_units_Z 28
_cell_length_a 24.015152
_cell_length_b 5.484908
_cell_length_c 10.171417
_cell_angle_alpha 90.000000
_cell_angle_beta 122.283047
_cell_angle_gamma 90.000000
_cell_volume 1132.683606
_symmetry_space_group_name_H-M "P 21/C"
_symmetry_group_IT_number 14
_symmetry_cell_setting 'monoclinic'
loop_
_space_group_symop_operation_xyz
x,y,z
-x,1/2+y,1/2-z
-x,-y,-z
x,1/2-y,1/2+z
loop_
_atom_site_type_symbol
_atom_site_label
_atom_site_fract_x
_atom_site_fract_y
_atom_site_fract_z
Si Si1 0.304647 0.569502 0.624187
Si Si2 0.078518 0.427306 0.392938
Si Si3 0.046832 0.933725 0.438150
Si Si4 0.574785 0.933425 0.890249
Si Si5 0.190811 0.144733 0.826810
Si Si6 0.548182 0.434708 0.942248
Si Si7 0.243993 0.849651 0.322379
O O1 0.376680 0.490342 0.669252
O O2 0.251301 0.371557 0.507754
O O3 0.284148 0.800942 0.507779
O O4 0.290740 0.612537 0.757537
O O5 0.081969 0.672584 0.482571
O O6 0.125754 0.425701 0.326488
O O7 0.002221 0.416360 0.249593
O O8 0.092064 0.170423 0.479674
O O9 0.000000 0.000000 0.500000
O O10 0.578649 0.165394 0.991858
O O11 0.499524 0.910843 0.746121
O O12 0.592456 0.672977 0.974405
O O13 0.196949 0.415881 0.777957
O O14 0.207575 0.911163 0.757468
O O15 0.500000 0.500000 0.000000
#
# Coordination Sequence:
#
# PCOD9245108 Si02
#       7
#     4   4   4   4   4   4   4
#     4  10  26  42  67  94 132 168 220 260 331 378
#     4  10  21  39  57  89 121 155 210 251 307 380
#     4  10  21  36  61  86 121 161 201 253 315 364
#     4  10  23  38  61  90 119 161 204 255 311 375
#     4  10  24  39  64  92 126 169 216 262 324 377
#     4  10  22  40  60  89 121 158 205 252 314 368
#     4  10  25  42  64  93 129 169 215 265 321 384
#
# _framework density 24.720053
#
# number of rings (size 3 to 8) (size 9 to 14) (size 15 to 20)
#    0.857    1.143    0.000    1.714    6.000    2.286 
#    0.000    0.000    0.000    0.000    0.000    0.000 
#    0.000    0.000    0.000    0.000    0.000    0.000 
#
# Total GULP energy -156400.004411 kJ/mol
# GULP energy per Si atom -5585.714443 kJ/mol
# Density = 2.466379 g / cm^3
# Si number density = 24.720053 Si / 1000 Ang^3
#
#
#
# Elastic Constant Matrix: (Units=GPa)
#
#
# Indices 1 2 3 4 5 6 
#
# 1 108.4067 60.7811 15.2851 0.0000 -23.7777 0.0000
# 2 60.7811 223.7844 40.8161 0.0000 -7.0542 0.0000
# 3 15.2851 40.8161 55.2301 0.0000 4.5323 0.0000
# 4 0.0000 0.0000 0.0000 27.0333 0.0000 1.5698
# 5 -23.7777 -7.0542 4.5323 0.0000 47.0692 0.0000
# 6 0.0000 0.0000 0.0000 1.5698 0.0000 36.2150
#
#
#
# Elastic Compliance Matrix: (Units=1/GPa)
#
#
# Indices 1 2 3 4 5 6 
#
# 1 0.012395 -0.002845 -0.001821 0.000000 0.006010 0.000000
# 2 -0.002845 0.005880 -0.003541 0.000000 -0.000215 0.000000
# 3 -0.001821 -0.003541 0.021516 0.000000 -0.003522 0.000000
# 4 0.000000 0.000000 0.000000 0.037085 0.000000 -0.001607
# 5 0.006010 -0.000215 -0.003522 0.000000 0.024588 0.000000
# 6 0.000000 0.000000 0.000000 -0.001607 0.000000 0.027683
#
#
# Mechanical properties :
#
#
# Convention : Reuss Voigt Hill
#
# Bulk Modulus (GPa) = 42.77633 69.02065 55.89849
# Shear Modulus (GPa) = 32.60470 40.09942 36.35206
#
# Velocity S-wave (km/s) = 3.63569 4.03195 3.83893
# Velocity P-wave (km/s) = 5.91322 7.04677 6.50474
#
# Compressibility (1/GPa) = 0.02337742
#
# Stress axis : x y z
#
# Youngs Moduli (GPa) = 80.68017 170.06018 46.47762
#
# Poissons Ratio (x) = 0.48379 0.08464
# Poissons Ratio (y) = 0.22952 0.16456
# Poissons Ratio (z) = 0.14693 0.60213
#
# Static dielectric constant tensor:
#      x y z
#    x 1.895560 0.000000 0.047960 
#    y 0.000000 1.862220 0.000000 
#    z 0.047960 0.000000 2.042640 
# 
# From -- ./inp_files/35466.got.cif
#   From: 2010.05.17/outbox.cif.g08.bks.cpg/sg14_18_cif.got.tgz:35466.got - 2010.06.03 17:49:19.
