data_PCOD9245027
_publ_section_title
;
Structure prediction by ZEFSAII (Michael W. Deem and Ramdas Pophale) SiO2 
 PCOD9245027
Probable space group: P 21/C
;
_chemical_formula_sum "Si O2"
_cell_formula_units_Z 28
_cell_length_a 18.473700
_cell_length_b 7.790260
_cell_length_c 14.611161
_cell_angle_alpha 90.000000
_cell_angle_beta 41.590099
_cell_angle_gamma 90.000000
_cell_volume 1395.808496
_symmetry_space_group_name_H-M "P 21/C"
_symmetry_group_IT_number 14
_symmetry_cell_setting 'monoclinic'
loop_
_space_group_symop_operation_xyz
x,y,z
-x,1/2+y,1/2-z
-x,-y,-z
x,1/2-y,1/2+z
loop_
_atom_site_type_symbol
_atom_site_label
_atom_site_fract_x
_atom_site_fract_y
_atom_site_fract_z
Si Si1 0.312841 0.249644 0.215406
Si Si2 0.580178 0.864619 0.054277
Si Si3 0.125974 0.958881 0.375216
Si Si4 0.400850 0.385881 0.805128
Si Si5 0.739619 0.354331 0.413064
Si Si6 0.382207 0.897795 0.610420
Si Si7 0.266681 0.791233 0.384950
O O1 0.359574 0.258478 0.273880
O O2 0.298377 0.440778 0.191499
O O3 0.208338 0.124095 0.308682
O O4 0.412540 0.167908 0.060827
O O5 0.572545 0.695556 0.123037
O O6 0.500673 0.008456 0.168462
O O7 0.696784 0.951342 0.957698
O O8 0.157544 0.864200 0.251018
O O9 0.163506 0.832112 0.420406
O O10 0.000000 0.000000 0.500000
O O11 0.309262 0.530258 0.887253
O O12 0.652365 0.227680 0.441584
O O13 0.756329 0.311966 0.502374
O O14 0.355982 0.788362 0.728465
O O15 0.500000 0.000000 0.500000
#
# Coordination Sequence:
#
# PCOD9245027 Si02
#       7
#     4   4   4   4   4   4   4
#     4  10  21  36  57  82 110 149 193 234 287 348
#     4  11  21  34  53  81 116 153 188 226 280 347
#     4   9  21  43  62  78 114 155 196 253 305 342
#     4  11  21  34  53  81 116 153 188 226 280 347
#     4  10  21  37  57  86 118 150 194 244 290 348
#     4  11  21  37  60  88 125 160 189 231 289 356
#     4  10  21  37  57  86 118 150 194 244 290 348
#
# _framework density 20.060057
#
# number of rings (size 3 to 8) (size 9 to 14) (size 15 to 20)
#    0.000    1.714    0.000    5.571    0.000    2.286 
#    0.000   11.429    0.000    0.000    0.000    0.000 
#    0.000    0.000    0.000    0.000    0.000    0.000 
#
# Total GULP energy -155990.640961 kJ/mol
# GULP energy per Si atom -5571.094320 kJ/mol
# Density = 2.001440 g / cm^3
# Si number density = 20.060057 Si / 1000 Ang^3
#
#
#
# Elastic Constant Matrix: (Units=GPa)
#
#
# Indices 1 2 3 4 5 6 
#
# 1 93.0015 11.1182 59.5805 0.0000 12.4910 0.0000
# 2 11.1182 63.4474 9.7864 0.0000 3.2374 0.0000
# 3 59.5805 9.7864 77.8550 0.0000 -1.3616 0.0000
# 4 0.0000 0.0000 0.0000 30.2451 0.0000 10.5393
# 5 12.4910 3.2374 -1.3616 0.0000 33.2526 0.0000
# 6 0.0000 0.0000 0.0000 10.5393 0.0000 30.8314
#
#
#
# Elastic Compliance Matrix: (Units=1/GPa)
#
#
# Indices 1 2 3 4 5 6 
#
# 1 0.023916 -0.000866 -0.018362 0.000000 -0.009651 0.000000
# 2 -0.000866 0.016195 -0.001396 0.000000 -0.001308 0.000000
# 3 -0.018362 -0.001396 0.027214 0.000000 0.008148 0.000000
# 4 0.000000 0.000000 0.000000 0.037534 0.000000 -0.012831
# 5 -0.009651 -0.001308 0.008148 0.000000 0.034159 0.000000
# 6 0.000000 0.000000 0.000000 -0.012831 0.000000 0.036820
#
#
# Mechanical properties :
#
#
# Convention : Reuss Voigt Hill
#
# Bulk Modulus (GPa) = 38.34779 43.91936 41.13357
# Shear Modulus (GPa) = 22.14548 29.12039 25.63294
#
# Velocity S-wave (km/s) = 3.32619 3.81420 3.57852
# Velocity P-wave (km/s) = 5.82318 6.42954 6.13386
#
# Compressibility (1/GPa) = 0.02607713
#
# Stress axis : x y z
#
# Youngs Moduli (GPa) = 41.81325 61.74770 36.74519
#
# Poissons Ratio (x) = 0.05348 0.67472
# Poissons Ratio (y) = 0.03622 0.05129
# Poissons Ratio (z) = 0.76778 0.08618
#
# Static dielectric constant tensor:
#      x y z
#    x 1.734940 0.000000 0.026460 
#    y 0.000000 1.791880 0.000000 
#    z 0.026460 0.000000 1.741790 
# 
# From -- ./inp_files/48522.got.cif
#   From: 2010.05.17/outbox.cif.g08.bks.cpg/sg14_25_cif.got.tgz:48522.got - 2010.06.03 17:49:19.
