data_PCOD9245757
_publ_section_title
;
Structure prediction by ZEFSAII (Michael W. Deem and Ramdas Pophale) SiO2 
 PCOD9245757
Probable space group: P 21/C
;
_chemical_formula_sum "Si O2"
_cell_formula_units_Z 32
_cell_length_a 6.378599
_cell_length_b 23.132781
_cell_length_c 10.814806
_cell_angle_alpha 90.000000
_cell_angle_beta 99.009859
_cell_angle_gamma 90.000000
_cell_volume 1576.086193
_symmetry_space_group_name_H-M "P 21/C"
_symmetry_group_IT_number 14
_symmetry_cell_setting 'monoclinic'
loop_
_space_group_symop_operation_xyz
x,y,z
-x,1/2+y,1/2-z
-x,-y,-z
x,1/2-y,1/2+z
loop_
_atom_site_type_symbol
_atom_site_label
_atom_site_fract_x
_atom_site_fract_y
_atom_site_fract_z
Si Si1 0.580663 0.178233 0.544566
Si Si2 0.810620 0.937532 0.098294
Si Si3 0.770821 0.642516 0.157591
Si Si4 0.122947 0.655593 0.717458
Si Si5 0.066998 0.764381 0.576521
Si Si6 0.404442 0.875861 0.006119
Si Si7 0.682908 0.782103 0.889209
Si Si8 0.969322 0.437705 0.651441
O O1 0.427278 0.136994 0.452370
O O2 0.750398 0.146264 0.645392
O O3 0.710126 0.219637 0.463030
O O4 0.439520 0.221073 0.617096
O O5 0.560694 0.927574 0.061340
O O6 0.918370 0.884587 0.182056
O O7 0.882622 0.997939 0.163267
O O8 0.906441 0.936677 0.968128
O O9 0.700134 0.686496 0.260115
O O10 0.951969 0.676361 0.099774
O O11 0.872912 0.587018 0.231317
O O12 0.075687 0.723566 0.697449
O O13 0.274142 0.642753 0.614389
O O14 0.915212 0.729657 0.467750
O O15 0.554363 0.826073 0.965689
O O16 0.233834 0.896250 0.888640
#
# Coordination Sequence:
#
# PCOD9245757 Si02
#       8
#     4   4   4   4   4   4   4   4
#     4  11  25  37  57  87 126 165 194 231 292 362
#     4  10  21  39  61  89 118 151 194 259 296 343
#     4  11  24  38  58  89 122 158 194 243 291 358
#     4  11  22  37  60  86 121 156 200 238 294 359
#     4  11  22  37  58  89 119 159 193 244 298 349
#     4  11  20  36  63  89 114 153 187 251 305 340
#     4  11  21  36  58  90 120 148 195 241 296 353
#     4  10  22  38  61  90 118 149 203 245 302 348
#
# _framework density 20.303457999999999
#
# number of rings (size 3 to 8) (size 9 to 14) (size 15 to 20)
#    0.000    1.250    3.750    2.625    5.250    2.000 
#    0.000    0.625    0.000    1.500    0.000    0.000 
#    0.000    0.000    0.000    0.000    0.000    0.000 
#
# Total GULP energy -178868.016276 kJ/mol
# GULP energy per Si atom -5589.625509 kJ/mol
# Density = 2.025725 g / cm^3
# Si number density = 20.303458 Si / 1000 Ang^3
#
#
#
# Elastic Constant Matrix: (Units=GPa)
#
#
# Indices 1 2 3 4 5 6 
#
# 1 48.6112 1.1747 0.4341 0.0000 11.0733 0.0000
# 2 1.1747 40.6654 1.8668 0.0000 6.4959 0.0000
# 3 0.4341 1.8668 66.1200 0.0000 24.3179 0.0000
# 4 0.0000 0.0000 0.0000 18.9154 0.0000 1.8951
# 5 11.0733 6.4959 24.3179 0.0000 30.3546 0.0000
# 6 0.0000 0.0000 0.0000 1.8951 0.0000 13.4661
#
#
#
# Elastic Compliance Matrix: (Units=1/GPa)
#
#
# Indices 1 2 3 4 5 6 
#
# 1 0.023276 0.001073 0.004287 0.000000 -0.012155 0.000000
# 2 0.001073 0.025667 0.002031 0.000000 -0.007511 0.000000
# 3 0.004287 0.002031 0.022363 0.000000 -0.019914 0.000000
# 4 0.000000 0.000000 0.000000 0.053623 0.000000 -0.007546
# 5 -0.012155 -0.007511 -0.019914 0.000000 0.054939 0.000000
# 6 0.000000 0.000000 0.000000 -0.007546 0.000000 0.075323
#
#
# Mechanical properties :
#
#
# Convention : Reuss Voigt Hill
#
# Bulk Modulus (GPa) = 11.61626 18.03865 14.82745
# Shear Modulus (GPa) = 18.58018 22.67528 20.62773
#
# Velocity S-wave (km/s) = 3.02838 3.34551 3.19089
# Velocity P-wave (km/s) = 4.23815 4.88130 4.57105
#
# Compressibility (1/GPa) = 0.08608624
#
# Stress axis : x y z
#
# Youngs Moduli (GPa) = 42.96260 38.96129 44.71769
#
# Poissons Ratio (x) = -0.04179 -0.19172
# Poissons Ratio (y) = -0.04608 -0.09080
# Poissons Ratio (z) = -0.18420 -0.07912
#
# Static dielectric constant tensor:
#      x y z
#    x 1.731190 0.000000 0.013700 
#    y 0.000000 1.733300 0.000000 
#    z 0.013700 0.000000 1.717620 
# 
# From -- ./inp_files/22080.got.cif
#   From: 2010.05.17/outbox.cif.g08.bks.cpg/sg14_12_cif.got.tgz:22080.got - 2010.06.03 17:49:19.
