data_PCOD9245589
_publ_section_title
;
Structure prediction by ZEFSAII (Michael W. Deem and Ramdas Pophale) SiO2 
 PCOD9245589
Probable space group: P 21/C
;
_chemical_formula_sum "Si O2"
_cell_formula_units_Z 32
_cell_length_a 14.290950
_cell_length_b 11.941833
_cell_length_c 17.760474
_cell_angle_alpha 90.000000
_cell_angle_beta 31.059486
_cell_angle_gamma 90.000000
_cell_volume 1563.779506
_symmetry_space_group_name_H-M "P 21/C"
_symmetry_group_IT_number 14
_symmetry_cell_setting 'monoclinic'
loop_
_space_group_symop_operation_xyz
x,y,z
-x,1/2+y,1/2-z
-x,-y,-z
x,1/2-y,1/2+z
loop_
_atom_site_type_symbol
_atom_site_label
_atom_site_fract_x
_atom_site_fract_y
_atom_site_fract_z
Si Si1 0.262712 0.922968 0.717041
Si Si2 0.138309 0.698716 0.036150
Si Si3 0.582747 0.668159 0.912484
Si Si4 0.634525 0.380104 0.687941
Si Si5 0.181175 0.221971 0.364762
Si Si6 0.863311 0.730796 0.849633
Si Si7 0.785807 0.562653 0.025604
Si Si8 0.155478 0.093510 0.013743
O O1 0.376359 0.846679 0.580852
O O2 0.278079 0.871928 0.789478
O O3 0.055931 0.938631 0.836369
O O4 0.355503 0.044902 0.657345
O O5 0.987656 0.724252 0.075703
O O6 0.040714 0.738363 0.179670
O O7 0.315356 0.769663 0.892960
O O8 0.181806 0.567887 0.006541
O O9 0.640765 0.756827 0.809124
O O10 0.705852 0.694593 0.900619
O O11 0.423195 0.403559 0.843390
O O12 0.725562 0.485047 0.583196
O O13 0.173898 0.109297 0.418818
O O14 0.174129 0.322237 0.430182
O O15 0.799043 0.836981 0.942979
O O16 0.896927 0.632458 0.886713
#
# Coordination Sequence:
#
# PCOD9245589 Si02
#       8
#     4   4   4   4   4   4   4   4
#     4  11  21  36  64  95 128 159 220 264 324 371
#     4  11  25  42  69  91 132 176 219 266 328 391
#     4  10  21  38  64  92 127 165 209 272 314 382
#     4  12  24  40  66 100 130 169 219 274 330 376
#     4  10  21  43  65  91 128 175 215 260 330 386
#     4  10  24  41  63  93 130 167 217 268 324 374
#     4  11  26  42  65  97 135 170 220 266 326 394
#     4  11  22  39  64  90 129 168 216 269 314 392
#
# _framework density 20.463244
#
# number of rings (size 3 to 8) (size 9 to 14) (size 15 to 20)
#    0.000    1.250    3.750    2.250    7.000    1.000 
#    0.000    0.000    0.000    2.250    0.000    0.000 
#    0.000    0.000    0.000    0.000    0.000    0.000 
#
# Total GULP energy -178962.035741 kJ/mol
# GULP energy per Si atom -5592.563617 kJ/mol
# Density = 2.041667 g / cm^3
# Si number density = 20.463244 Si / 1000 Ang^3
#
#
#
# Elastic Constant Matrix: (Units=GPa)
#
#
# Indices 1 2 3 4 5 6 
#
# 1 53.5328 9.2638 27.7484 0.0000 19.7244 0.0000
# 2 9.2638 114.1219 55.5974 0.0000 27.5970 0.0000
# 3 27.7484 55.5974 106.5896 0.0000 28.1424 0.0000
# 4 0.0000 0.0000 0.0000 24.0048 0.0000 0.3882
# 5 19.7244 27.5970 28.1424 0.0000 30.0502 0.0000
# 6 0.0000 0.0000 0.0000 0.3882 0.0000 20.5938
#
#
#
# Elastic Compliance Matrix: (Units=1/GPa)
#
#
# Indices 1 2 3 4 5 6 
#
# 1 0.026616 0.004208 -0.004638 0.000000 -0.016991 0.000000
# 2 0.004208 0.013528 -0.005503 0.000000 -0.010032 0.000000
# 3 -0.004638 -0.005503 0.015040 0.000000 -0.005988 0.000000
# 4 0.000000 0.000000 0.000000 0.041671 0.000000 -0.000786
# 5 -0.016991 -0.010032 -0.005988 0.000000 0.059251 0.000000
# 6 0.000000 0.000000 0.000000 -0.000786 0.000000 0.048573
#
#
# Mechanical properties :
#
#
# Convention : Reuss Voigt Hill
#
# Bulk Modulus (GPa) = 23.08463 51.05150 37.06806
# Shear Modulus (GPa) = 21.64646 27.03875 24.34260
#
# Velocity S-wave (km/s) = 3.25595 3.63896 3.45277
# Velocity P-wave (km/s) = 5.04385 6.53131 5.83517
#
# Compressibility (1/GPa) = 0.04331887
#
# Stress axis : x y z
#
# Youngs Moduli (GPa) = 37.57075 73.92237 66.48811
#
# Poissons Ratio (x) = -0.31104 0.30834
# Poissons Ratio (y) = -0.15808 0.36587
# Poissons Ratio (z) = 0.17424 0.40678
#
# Static dielectric constant tensor:
#      x y z
#    x 1.739410 0.000000 0.011180 
#    y 0.000000 1.710220 0.000000 
#    z 0.011180 0.000000 1.735280 
# 
# From -- ./inp_files/59393.got.cif
#   From: 2010.05.17/outbox.cif.g08.bks.cpg/sg14_30_cif.got.tgz:59393.got - 2010.06.03 17:49:19.
