data_PCOD9245902
_publ_section_title
;
Structure prediction by ZEFSAII (Michael W. Deem and Ramdas Pophale) SiO2 
 PCOD9245902
Probable space group: P 21/C
;
_chemical_formula_sum "Si O2"
_cell_formula_units_Z 32
_cell_length_a 22.593761
_cell_length_b 11.129071
_cell_length_c 10.437115
_cell_angle_alpha 90.000000
_cell_angle_beta 150.413558
_cell_angle_gamma 90.000000
_cell_volume 1295.754712
_symmetry_space_group_name_H-M "P 21/C"
_symmetry_group_IT_number 14
_symmetry_cell_setting 'monoclinic'
loop_
_space_group_symop_operation_xyz
x,y,z
-x,1/2+y,1/2-z
-x,-y,-z
x,1/2-y,1/2+z
loop_
_atom_site_type_symbol
_atom_site_label
_atom_site_fract_x
_atom_site_fract_y
_atom_site_fract_z
Si Si1 0.590770 0.602679 0.011135
Si Si2 0.302772 0.589145 0.124982
Si Si3 0.342296 0.008983 0.080023
Si Si4 0.105219 0.966615 0.038239
Si Si5 0.955359 0.688924 0.422568
Si Si6 0.297922 0.229492 0.472448
Si Si7 0.564062 0.633748 0.539339
Si Si8 0.181057 0.835887 0.923853
O O1 0.625329 0.553426 0.214309
O O2 0.704933 0.617535 0.132791
O O3 0.565571 0.745335 0.959553
O O4 0.466148 0.535937 0.749320
O O5 0.425968 0.596525 0.276733
O O6 0.341078 0.476472 0.285496
O O7 0.194734 0.560292 0.826182
O O8 0.263830 0.717811 0.111483
O O9 0.297280 0.131393 0.932161
O O10 0.248262 0.904318 0.933545
O O11 0.996020 0.876142 0.869688
O O12 0.159351 0.921010 0.005949
O O13 0.047551 0.096507 0.961305
O O14 0.818148 0.726918 0.154747
O O15 0.051248 0.791056 0.633850
O O16 0.410624 0.191464 0.771702
#
# Coordination Sequence:
#
# PCOD9245902 Si02
#       8
#     4   4   4   4   4   4   4   4
#     4  10  22  43  64  95 137 181 218 270 346 392
#     4  10  21  40  64 102 130 169 225 269 333 404
#     4  10  23  42  65 101 137 170 225 281 329 409
#     4  10  22  43  71  88 136 182 217 284 337 393
#     4  10  23  44  63 100 127 179 234 263 329 410
#     4  11  23  42  69  94 141 181 215 274 339 398
#     4  10  21  39  64  99 136 169 224 274 312 425
#     4  11  23  43  70  96 134 174 222 282 336 396
#
# _framework density 24.696031000000001
#
# number of rings (size 3 to 8) (size 9 to 14) (size 15 to 20)
#    0.000    1.750    2.500    0.750    0.000    6.500 
#    4.500    0.000    0.000    0.000    0.000    0.000 
#    0.000    0.000    0.000    0.000    0.000    0.000 
#
# Total GULP energy -178423.532972 kJ/mol
# GULP energy per Si atom -5575.735405 kJ/mol
# Density = 2.463982 g / cm^3
# Si number density = 24.696031 Si / 1000 Ang^3
#
#
#
# Elastic Constant Matrix: (Units=GPa)
#
#
# Indices 1 2 3 4 5 6 
#
# 1 90.6766 25.2417 9.0282 0.0000 22.6117 0.0000
# 2 25.2417 113.8605 3.2328 0.0000 17.6351 0.0000
# 3 9.0282 3.2328 39.4562 0.0000 23.9109 0.0000
# 4 0.0000 0.0000 0.0000 33.8453 0.0000 11.9978
# 5 22.6117 17.6351 23.9109 0.0000 35.5702 0.0000
# 6 0.0000 0.0000 0.0000 11.9978 0.0000 44.6465
#
#
#
# Elastic Compliance Matrix: (Units=1/GPa)
#
#
# Indices 1 2 3 4 5 6 
#
# 1 0.013639 -0.001573 0.003020 0.000000 -0.009921 0.000000
# 2 -0.001573 0.009991 0.003269 0.000000 -0.006151 0.000000
# 3 0.003020 0.003269 0.044769 0.000000 -0.033635 0.000000
# 4 0.000000 0.000000 0.000000 0.032657 0.000000 -0.008776
# 5 -0.009921 -0.006151 -0.033635 0.000000 0.060079 0.000000
# 6 0.000000 0.000000 0.000000 -0.008776 0.000000 0.024756
#
#
# Mechanical properties :
#
#
# Convention : Reuss Voigt Hill
#
# Bulk Modulus (GPa) = 12.84836 35.44432 24.14634
# Shear Modulus (GPa) = 24.70312 36.57845 30.64078
#
# Velocity S-wave (km/s) = 3.16616 3.85274 3.52620
# Velocity P-wave (km/s) = 4.31045 5.84593 5.13590
#
# Compressibility (1/GPa) = 0.07783092
#
# Stress axis : x y z
#
# Youngs Moduli (GPa) = 73.31794 100.08765 22.33708
#
# Poissons Ratio (x) = 0.15743 -0.06746
# Poissons Ratio (y) = 0.11532 -0.07302
# Poissons Ratio (z) = -0.22142 -0.32717
#
# Static dielectric constant tensor:
#      x y z
#    x 2.527640 0.000000 0.097690 
#    y 0.000000 2.107900 0.000000 
#    z 0.097690 0.000000 1.925020 
# 
# From -- ./inp_files/35933.got.cif
#   From: 2010.05.17/outbox.cif.g08.bks.cpg/sg14_18_cif.got.tgz:35933.got - 2010.06.03 17:49:19.
