data_PCOD9245272
_publ_section_title
;
Structure prediction by ZEFSAII (Michael W. Deem and Ramdas Pophale) SiO2 
 PCOD9245272
Probable space group: P 21/C
;
_chemical_formula_sum "Si O2"
_cell_formula_units_Z 24
_cell_length_a 9.990964
_cell_length_b 5.065827
_cell_length_c 21.816229
_cell_angle_alpha 90.000000
_cell_angle_beta 76.211731
_cell_angle_gamma 90.000000
_cell_volume 1072.354917
_symmetry_space_group_name_H-M "P 21/C"
_symmetry_group_IT_number 14
_symmetry_cell_setting 'monoclinic'
loop_
_space_group_symop_operation_xyz
x,y,z
-x,1/2+y,1/2-z
-x,-y,-z
x,1/2-y,1/2+z
loop_
_atom_site_type_symbol
_atom_site_label
_atom_site_fract_x
_atom_site_fract_y
_atom_site_fract_z
Si Si1 0.096946 0.743209 0.985575
Si Si2 0.325367 0.843725 0.361952
Si Si3 0.441264 0.349413 0.409588
Si Si4 0.869706 0.866358 0.704765
Si Si5 0.052680 0.143829 0.165108
Si Si6 0.284261 0.980901 0.049044
O O1 0.206218 0.731649 0.028745
O O2 0.186841 0.720581 0.914973
O O3 0.000000 0.500000 0.000000
O O4 0.000000 0.000000 0.000000
O O5 0.402970 0.562666 0.360532
O O6 0.268701 0.006732 0.309315
O O7 0.418830 0.056389 0.387439
O O8 0.591310 0.409274 0.420054
O O9 0.342395 0.383692 0.480488
O O10 0.868928 0.883152 0.778345
O O11 0.988253 0.068287 0.671905
O O12 0.928991 0.577752 0.678556
O O13 0.163447 0.118889 0.099712
#
# Coordination Sequence:
#
# PCOD9245272 Si02
#       6
#     4   4   4   4   4   4
#     4  11  21  32  54  82 106 138 177 227 280 322
#     4  11  21  38  55  81 116 147 186 233 277 329
#     4  10  24  37  58  81 113 156 186 227 277 330
#     4  10  21  38  59  86 113 144 187 234 283 334
#     4  10  21  37  61  84 112 149 183 233 287 329
#     4  10  22  40  57  83 116 148 191 227 276 343
#
# _framework density 22.380648999999998
#
# number of rings (size 3 to 8) (size 9 to 14) (size 15 to 20)
#    0.000    1.667    0.000    5.000    0.000   11.333 
#    0.000    1.667    0.000    0.000    0.000    0.000 
#    0.000    0.000    0.000    0.000    0.000    0.000 
#
# Total GULP energy -134008.179066 kJ/mol
# GULP energy per Si atom -5583.674128 kJ/mol
# Density = 2.232971 g / cm^3
# Si number density = 22.380649 Si / 1000 Ang^3
#
#
#
# Elastic Constant Matrix: (Units=GPa)
#
#
# Indices 1 2 3 4 5 6 
#
# 1 42.9976 -4.0043 8.5640 0.0000 19.3633 0.0000
# 2 -4.0043 112.7030 -7.6817 0.0000 -1.1530 0.0000
# 3 8.5640 -7.6817 47.1867 0.0000 16.3089 0.0000
# 4 0.0000 0.0000 0.0000 18.7209 0.0000 9.3486
# 5 19.3633 -1.1530 16.3089 0.0000 29.2837 0.0000
# 6 0.0000 0.0000 0.0000 9.3486 0.0000 23.2768
#
#
#
# Elastic Compliance Matrix: (Units=1/GPa)
#
#
# Indices 1 2 3 4 5 6 
#
# 1 0.033395 0.001095 0.002148 0.000000 -0.023235 0.000000
# 2 0.001095 0.009016 0.001729 0.000000 -0.001332 0.000000
# 3 0.002148 0.001729 0.026689 0.000000 -0.016216 0.000000
# 4 0.000000 0.000000 0.000000 0.066817 0.000000 -0.026836
# 5 -0.023235 -0.001332 -0.016216 0.000000 0.058491 0.000000
# 6 0.000000 0.000000 0.000000 -0.026836 0.000000 0.053739
#
#
# Mechanical properties :
#
#
# Convention : Reuss Voigt Hill
#
# Bulk Modulus (GPa) = 12.65107 21.84926 17.25017
# Shear Modulus (GPa) = 18.90006 27.99024 23.44515
#
# Velocity S-wave (km/s) = 2.90915 3.54028 3.24012
# Velocity P-wave (km/s) = 4.11694 5.14735 4.66071
#
# Compressibility (1/GPa) = 0.07904467
#
# Stress axis : x y z
#
# Youngs Moduli (GPa) = 29.94481 110.91342 37.46903
#
# Poissons Ratio (x) = -0.12147 -0.08048
# Poissons Ratio (y) = -0.03280 -0.06480
# Poissons Ratio (z) = -0.06432 -0.19182
#
# Static dielectric constant tensor:
#      x y z
#    x 1.828400 0.000000 0.060300 
#    y 0.000000 1.811550 0.000000 
#    z 0.060300 0.000000 1.938050 
# 
# From -- ./inp_files/71632.got.cif
#   From: 2010.05.17/outbox.cif.g08.bks.cpg/sg14_36_cif.got.tgz:71632.got - 2010.06.03 17:49:19.
