data_PCOD9245214
_publ_section_title
;
Structure prediction by ZEFSAII (Michael W. Deem and Ramdas Pophale) SiO2 
 PCOD9245214
Probable space group: P 21/C
;
_chemical_formula_sum "Si O2"
_cell_formula_units_Z 32
_cell_length_a 11.005721
_cell_length_b 10.062792
_cell_length_c 25.946101
_cell_angle_alpha 90.000000
_cell_angle_beta 146.364880
_cell_angle_gamma 90.000000
_cell_volume 1591.629670
_symmetry_space_group_name_H-M "P 21/C"
_symmetry_group_IT_number 14
_symmetry_cell_setting 'monoclinic'
loop_
_space_group_symop_operation_xyz
x,y,z
-x,1/2+y,1/2-z
-x,-y,-z
x,1/2-y,1/2+z
loop_
_atom_site_type_symbol
_atom_site_label
_atom_site_fract_x
_atom_site_fract_y
_atom_site_fract_z
Si Si1 0.647101 0.325618 0.255769
Si Si2 0.265528 0.954183 0.940530
Si Si3 0.993683 0.334160 0.289069
Si Si4 0.249298 0.837412 0.399604
Si Si5 0.963294 0.530066 0.426236
Si Si6 0.139223 0.328276 0.088053
Si Si7 0.740110 0.631372 0.054297
Si Si8 0.902929 0.116929 0.400487
O O1 0.779325 0.313413 0.249022
O O2 0.389339 0.341031 0.156408
O O3 0.692502 0.192608 0.304846
O O4 0.770442 0.440524 0.332673
O O5 0.248146 0.795711 0.932373
O O6 0.181188 0.995637 0.967933
O O7 0.093717 0.025099 0.841586
O O8 0.500000 0.000000 0.000000
O O9 0.934193 0.330810 0.208746
O O10 0.167517 0.220788 0.366378
O O11 0.487241 0.838722 0.456401
O O12 0.236575 0.975982 0.424975
O O13 0.000000 0.500000 0.500000
O O14 0.898777 0.685357 0.400380
O O15 0.113425 0.459653 0.113227
O O16 0.961723 0.347738 0.979753
O O17 0.892238 0.668487 0.060352
#
# Coordination Sequence:
#
# PCOD9245214 Si02
#       8
#     4   4   4   4   4   4   4   4
#     4  10  21  38  61  89 121 160 205 251 307 370
#     4  11  23  41  63  91 127 163 207 256 305 364
#     4  10  21  38  61  89 121 160 205 251 307 370
#     4  11  21  37  62  86 121 159 203 250 306 359
#     4  11  23  41  63  91 127 163 207 256 305 364
#     4  11  21  37  62  86 121 159 203 250 306 359
#     4  10  21  37  58  86 119 157 200 250 303 360
#     4  10  21  37  58  86 119 157 200 250 303 360
#
# _framework density 20.105180000000001
#
# number of rings (size 3 to 8) (size 9 to 14) (size 15 to 20)
#    0.000    1.500    2.500    3.000    0.000    1.000 
#    0.000    2.500    0.000    0.000    0.000    0.000 
#    0.000    0.000    0.000    0.000    0.000    0.000 
#
# Total GULP energy -178568.958846 kJ/mol
# GULP energy per Si atom -5580.279964 kJ/mol
# Density = 2.005942 g / cm^3
# Si number density = 20.105180 Si / 1000 Ang^3
#
#
#
# Elastic Constant Matrix: (Units=GPa)
#
#
# Indices 1 2 3 4 5 6 
#
# 1 53.5592 -1.3407 7.2563 0.0000 4.9994 0.0000
# 2 -1.3407 121.2448 2.5976 0.0000 -5.5710 0.0000
# 3 7.2563 2.5976 46.1777 0.0000 2.9734 0.0000
# 4 0.0000 0.0000 0.0000 17.3808 0.0000 13.2198
# 5 4.9994 -5.5710 2.9734 0.0000 26.9972 0.0000
# 6 0.0000 0.0000 0.0000 13.2198 0.0000 12.5696
#
#
#
# Elastic Compliance Matrix: (Units=1/GPa)
#
#
# Indices 1 2 3 4 5 6 
#
# 1 0.019362 0.000126 -0.002841 0.000000 -0.003247 0.000000
# 2 0.000126 0.008343 -0.000603 0.000000 0.001765 0.000000
# 3 -0.002841 -0.000603 0.022268 0.000000 -0.002051 0.000000
# 4 0.000000 0.000000 0.000000 0.287590 0.000000 -0.302467
# 5 -0.003247 0.001765 -0.002051 0.000000 0.038232 0.000000
# 6 0.000000 0.000000 0.000000 -0.302467 0.000000 0.397670
#
#
# Mechanical properties :
#
#
# Convention : Reuss Voigt Hill
#
# Bulk Modulus (GPa) = 23.07443 26.44534 24.75989
# Shear Modulus (GPa) = 6.29290 25.55406 15.92348
#
# Velocity S-wave (km/s) = 1.77110 3.56900 2.81732
# Velocity P-wave (km/s) = 3.96032 5.49234 4.78800
#
# Compressibility (1/GPa) = 0.04333801
#
# Stress axis : x y z
#
# Youngs Moduli (GPa) = 51.64758 119.85855 44.90793
#
# Poissons Ratio (x) = -0.01507 0.12756
# Poissons Ratio (y) = -0.00650 0.02707
# Poissons Ratio (z) = 0.14671 0.07224
#
# Static dielectric constant tensor:
#      x y z
#    x 1.735950 0.000000 0.003970 
#    y 0.000000 1.732000 0.000000 
#    z 0.003970 0.000000 1.688020 
# 
# From -- ./inp_files/41259.got.cif
#   From: 2010.05.17/outbox.cif.g08.bks.cpg/sg14_21_cif.got.tgz:41259.got - 2010.06.03 17:49:19.
