data_PCOD9245360
_publ_section_title
;
Structure prediction by ZEFSAII (Michael W. Deem and Ramdas Pophale) SiO2 
 PCOD9245360
Probable space group: P 21/C
;
_chemical_formula_sum "Si O2"
_cell_formula_units_Z 24
_cell_length_a 9.033294
_cell_length_b 7.160871
_cell_length_c 17.218317
_cell_angle_alpha 90.000000
_cell_angle_beta 50.359595
_cell_angle_gamma 90.000000
_cell_volume 857.687846
_symmetry_space_group_name_H-M "P 21/C"
_symmetry_group_IT_number 14
_symmetry_cell_setting 'monoclinic'
loop_
_space_group_symop_operation_xyz
x,y,z
-x,1/2+y,1/2-z
-x,-y,-z
x,1/2-y,1/2+z
loop_
_atom_site_type_symbol
_atom_site_label
_atom_site_fract_x
_atom_site_fract_y
_atom_site_fract_z
Si Si1 0.397075 0.942982 0.883173
Si Si2 0.616350 0.131917 0.516929
Si Si3 0.521805 0.144607 0.316395
Si Si4 0.941210 0.262980 0.193822
Si Si5 0.059232 0.321131 0.819782
Si Si6 0.987844 0.730477 0.001286
O O1 0.471103 0.832973 0.933982
O O2 0.488638 0.874995 0.772140
O O3 0.435549 0.161256 0.875730
O O4 0.180055 0.857976 0.948657
O O5 0.170199 0.846494 0.587380
O O6 0.500000 0.000000 0.500000
O O7 0.596327 0.020580 0.604625
O O8 0.749416 0.136978 0.261344
O O9 0.122636 0.272133 0.379986
O O10 0.858325 0.471659 0.213518
O O11 0.063668 0.261110 0.231809
O O12 0.055962 0.228157 0.075075
O O13 0.000000 0.500000 0.000000
#
# Coordination Sequence:
#
# PCOD9245360 Si02
#       6
#     4   4   4   4   4   4
#     4  10  21  37  66  96 126 171 217 266 330 386
#     4  11  22  40  64  94 135 168 214 275 333 385
#     4  11  21  40  67  97 129 170 221 271 323 400
#     4  10  21  40  64  88 127 173 213 261 333 385
#     4  10  21  41  62  89 129 170 211 269 325 390
#     4   8  18  39  64  84 126 169 204 260 324 378
#
# _framework density 27.982209000000001
#
# number of rings (size 3 to 8) (size 9 to 14) (size 15 to 20)
#    0.000    2.000    3.333    0.000    0.000    2.000 
#    6.000    0.833    0.000    0.000    0.000    0.000 
#    0.000    0.000    0.000    0.000    0.000    0.000 
#
# Total GULP energy -134268.169575 kJ/mol
# GULP energy per Si atom -5594.507066 kJ/mol
# Density = 2.791852 g / cm^3
# Si number density = 27.982209 Si / 1000 Ang^3
#
#
#
# Elastic Constant Matrix: (Units=GPa)
#
#
# Indices 1 2 3 4 5 6 
#
# 1 96.6763 4.4687 65.4013 0.0000 27.4020 0.0000
# 2 4.4687 129.9418 26.7366 0.0000 12.1512 0.0000
# 3 65.4013 26.7366 157.1945 0.0000 30.5568 0.0000
# 4 0.0000 0.0000 0.0000 55.4461 0.0000 11.4964
# 5 27.4020 12.1512 30.5568 0.0000 64.7314 0.0000
# 6 0.0000 0.0000 0.0000 11.4964 0.0000 43.5670
#
#
#
# Elastic Compliance Matrix: (Units=1/GPa)
#
#
# Indices 1 2 3 4 5 6 
#
# 1 0.015330 0.001033 -0.005786 0.000000 -0.003952 0.000000
# 2 0.001033 0.008097 -0.001571 0.000000 -0.001216 0.000000
# 3 -0.005786 -0.001571 0.009361 0.000000 -0.001675 0.000000
# 4 0.000000 0.000000 0.000000 0.019079 0.000000 -0.005035
# 5 -0.003952 -0.001216 -0.001675 0.000000 0.018141 0.000000
# 6 0.000000 0.000000 0.000000 -0.005035 0.000000 0.024282
#
#
# Mechanical properties :
#
#
# Convention : Reuss Voigt Hill
#
# Bulk Modulus (GPa) = 49.64731 64.11396 56.88064
# Shear Modulus (GPa) = 43.99430 51.89596 47.94513
#
# Velocity S-wave (km/s) = 3.96943 4.31118 4.14383
# Velocity P-wave (km/s) = 6.22812 6.90970 6.57774
#
# Compressibility (1/GPa) = 0.02014208
#
# Stress axis : x y z
#
# Youngs Moduli (GPa) = 65.23058 123.50122 106.82145
#
# Poissons Ratio (x) = -0.12755 0.61802
# Poissons Ratio (y) = -0.06737 0.16777
# Poissons Ratio (z) = 0.37740 0.19397
#
# Static dielectric constant tensor:
#      x y z
#    x 2.373720 0.000000 -0.024370 
#    y 0.000000 2.218860 0.000000 
#    z -0.024370 0.000000 2.143480 
# 
# From -- ./inp_files/64483.got.cif
#   From: 2010.05.17/outbox.cif.g08.bks.cpg/sg14_33_cif.got.tgz:64483.got - 2010.06.03 17:49:19.
