data_PCOD9245816
_publ_section_title
;
Structure prediction by ZEFSAII (Michael W. Deem and Ramdas Pophale) SiO2 
 PCOD9245816
Probable space group: P 21/C
;
_chemical_formula_sum "Si O2"
_cell_formula_units_Z 28
_cell_length_a 8.744039
_cell_length_b 11.818539
_cell_length_c 14.648618
_cell_angle_alpha 90.000000
_cell_angle_beta 61.417779
_cell_angle_gamma 90.000000
_cell_volume 1329.327763
_symmetry_space_group_name_H-M "P 21/C"
_symmetry_group_IT_number 14
_symmetry_cell_setting 'monoclinic'
loop_
_space_group_symop_operation_xyz
x,y,z
-x,1/2+y,1/2-z
-x,-y,-z
x,1/2-y,1/2+z
loop_
_atom_site_type_symbol
_atom_site_label
_atom_site_fract_x
_atom_site_fract_y
_atom_site_fract_z
Si Si1 0.204089 0.423286 0.741263
Si Si2 0.144852 0.685589 0.098398
Si Si3 0.540108 0.373857 0.866711
Si Si4 0.412266 0.280992 0.262346
Si Si5 0.281560 0.567857 0.896701
Si Si6 0.832590 0.045484 0.931836
Si Si7 0.223766 0.508461 0.350653
O O1 0.337669 0.323011 0.726172
O O2 0.214506 0.510487 0.823062
O O3 0.244355 0.487647 0.636222
O O4 0.012788 0.365994 0.797815
O O5 0.331785 0.651073 0.087090
O O6 0.137617 0.820886 0.093159
O O7 0.138206 0.624832 0.001688
O O8 0.447885 0.262577 0.854439
O O9 0.393944 0.470899 0.917191
O O10 0.664648 0.412948 0.747555
O O11 0.584129 0.334154 0.169861
O O12 0.275125 0.381806 0.307857
O O13 0.017986 0.982731 0.894633
O O14 0.733155 0.030733 0.055886
#
# Coordination Sequence:
#
# PCOD9245816 Si02
#       7
#     4   4   4   4   4   4   4
#     4  11  23  42  64  96 124 165 214 259 304 376
#     4  12  22  40  63  94 123 165 211 255 310 368
#     4  10  21  39  63  86 127 164 204 254 313 369
#     4  10  21  42  62  90 126 168 198 258 318 370
#     4  10  23  40  62  90 129 165 204 257 314 371
#     4  11  23  38  64  92 121 159 208 260 306 361
#     4  10  21  41  60  90 125 158 204 258 307 367
#
# _framework density 21.063279000000001
#
# number of rings (size 3 to 8) (size 9 to 14) (size 15 to 20)
#    0.000    1.429    2.857    2.571    0.000    1.143 
#    0.000    9.286    0.000    0.000    0.000    0.000 
#    0.000    0.000    0.000    0.000    0.000    0.000 
#
# Total GULP energy -156471.373543 kJ/mol
# GULP energy per Si atom -5588.263341 kJ/mol
# Density = 2.101534 g / cm^3
# Si number density = 21.063279 Si / 1000 Ang^3
#
#
#
# Elastic Constant Matrix: (Units=GPa)
#
#
# Indices 1 2 3 4 5 6 
#
# 1 52.6003 1.8438 -6.4157 0.0000 20.1116 0.0000
# 2 1.8438 67.1904 22.2979 0.0000 16.6135 0.0000
# 3 -6.4157 22.2979 68.6464 0.0000 18.0800 0.0000
# 4 0.0000 0.0000 0.0000 20.5125 0.0000 7.1223
# 5 20.1116 16.6135 18.0800 0.0000 33.1308 0.0000
# 6 0.0000 0.0000 0.0000 7.1223 0.0000 2.0570
#
#
#
# Elastic Compliance Matrix: (Units=1/GPa)
#
#
# Indices 1 2 3 4 5 6 
#
# 1 0.028644 0.002218 0.007976 0.000000 -0.022852 0.000000
# 2 0.002218 0.018067 -0.003411 0.000000 -0.008545 0.000000
# 3 0.007976 -0.003411 0.020140 0.000000 -0.014122 0.000000
# 4 0.000000 0.000000 0.000000 -0.241060 0.000000 0.834672
# 5 -0.022852 -0.008545 -0.014122 0.000000 0.056047 0.000000
# 6 0.000000 0.000000 0.000000 0.834672 0.000000 -2.403902
#
#
# Mechanical properties :
#
#
# Convention : Reuss Voigt Hill
#
# Bulk Modulus (GPa) = 12.43539 24.87657 18.65598
# Shear Modulus (GPa) = -1.99297 22.52080 10.26392
#
# Velocity S-wave (km/s) = -0.97377 3.27341 2.20986
# Velocity P-wave (km/s) = 2.15693 5.11106 3.92271
#
# Compressibility (1/GPa) = 0.08041566
#
# Stress axis : x y z
#
# Youngs Moduli (GPa) = 34.91146 55.34995 49.65215
#
# Poissons Ratio (x) = -0.12275 -0.39600
# Poissons Ratio (y) = -0.07742 0.16935
# Poissons Ratio (z) = -0.27844 0.18879
#
# Static dielectric constant tensor:
#      x y z
#    x 1.799200 0.000000 -0.018900 
#    y 0.000000 1.732080 0.000000 
#    z -0.018900 0.000000 1.752740 
# 
# From -- ./inp_files/40127.got.cif
#   From: 2010.05.17/outbox.cif.g08.bks.cpg/sg14_21_cif.got.tgz:40127.got - 2010.06.03 17:49:19.
