data_PCOD9245998
_publ_section_title
;
Structure prediction by ZEFSAII (Michael W. Deem and Ramdas Pophale) SiO2 
 PCOD9245998
Probable space group: P 21/C
;
_chemical_formula_sum "Si O2"
_cell_formula_units_Z 28
_cell_length_a 8.406356
_cell_length_b 8.933987
_cell_length_c 24.977490
_cell_angle_alpha 90.000000
_cell_angle_beta 135.280366
_cell_angle_gamma 90.000000
_cell_volume 1319.931276
_symmetry_space_group_name_H-M "P 21/C"
_symmetry_group_IT_number 14
_symmetry_cell_setting 'monoclinic'
loop_
_space_group_symop_operation_xyz
x,y,z
-x,1/2+y,1/2-z
-x,-y,-z
x,1/2-y,1/2+z
loop_
_atom_site_type_symbol
_atom_site_label
_atom_site_fract_x
_atom_site_fract_y
_atom_site_fract_z
Si Si1 0.688419 0.348742 0.262280
Si Si2 0.036879 0.108281 0.367297
Si Si3 0.522396 0.758505 0.003031
Si Si4 0.970750 0.928979 0.760936
Si Si5 0.332563 0.408993 0.655614
Si Si6 0.492251 0.012457 0.910869
Si Si7 0.001339 0.781634 0.364004
O O1 0.812654 0.437399 0.244365
O O2 0.602321 0.473569 0.282672
O O3 0.503744 0.231709 0.197599
O O4 0.875587 0.249567 0.337934
O O5 0.278809 0.138804 0.451508
O O6 0.064977 0.100121 0.309696
O O7 0.927359 0.950682 0.357246
O O8 0.511919 0.829761 0.059898
O O9 0.576652 0.892573 0.974912
O O10 0.271574 0.708524 0.928419
O O11 0.924466 0.785895 0.788354
O O12 0.232649 0.972829 0.833623
O O13 0.356570 0.492527 0.605315
O O14 0.092921 0.337152 0.615561
#
# Coordination Sequence:
#
# PCOD9245998 Si02
#       7
#     4   4   4   4   4   4   4
#     4  11  23  40  64  99 125 165 209 266 320 378
#     4  12  21  39  69  94 128 163 220 271 308 366
#     4  10  23  41  65  94 123 171 222 260 309 375
#     4  10  21  39  68  94 118 168 220 264 309 369
#     4  11  24  41  65  93 137 165 205 262 329 380
#     4  10  21  41  67  89 126 168 218 258 312 382
#     4  10  24  41  60  96 133 164 209 263 323 385
#
# _framework density 21.213227
#
# number of rings (size 3 to 8) (size 9 to 14) (size 15 to 20)
#    0.000    1.429    2.857    2.143    4.000    1.714 
#    0.000    0.714    0.000    0.000    0.000    0.000 
#    0.000    0.000    0.000    0.000    0.000    0.000 
#
# Total GULP energy -156501.850197 kJ/mol
# GULP energy per Si atom -5589.351793 kJ/mol
# Density = 2.116494 g / cm^3
# Si number density = 21.213227 Si / 1000 Ang^3
#
#
#
# Elastic Constant Matrix: (Units=GPa)
#
#
# Indices 1 2 3 4 5 6 
#
# 1 47.0884 -2.8326 -10.1318 0.0000 -15.3683 0.0000
# 2 -2.8326 77.9257 -11.3046 0.0000 2.5265 0.0000
# 3 -10.1318 -11.3046 30.5913 0.0000 3.0924 0.0000
# 4 0.0000 0.0000 0.0000 22.0156 0.0000 8.3626
# 5 -15.3683 2.5265 3.0924 0.0000 30.2369 0.0000
# 6 0.0000 0.0000 0.0000 8.3626 0.0000 29.9370
#
#
#
# Elastic Compliance Matrix: (Units=1/GPa)
#
#
# Indices 1 2 3 4 5 6 
#
# 1 0.027367 0.001799 0.008425 0.000000 0.012898 0.000000
# 2 0.001799 0.013761 0.005764 0.000000 -0.000825 0.000000
# 3 0.008425 0.005764 0.037614 0.000000 -0.000046 0.000000
# 4 0.000000 0.000000 0.000000 0.050814 0.000000 -0.014194
# 5 0.012898 -0.000825 -0.000046 0.000000 0.039701 0.000000
# 6 0.000000 0.000000 0.000000 -0.014194 0.000000 0.037369
#
#
# Mechanical properties :
#
#
# Convention : Reuss Voigt Hill
#
# Bulk Modulus (GPa) = 9.03193 11.89639 10.46416
# Shear Modulus (GPa) = 23.63441 28.42955 26.03198
#
# Velocity S-wave (km/s) = 3.34149 3.66482 3.50688
# Velocity P-wave (km/s) = 4.37657 4.85057 4.61965
#
# Compressibility (1/GPa) = 0.11071829
#
# Stress axis : x y z
#
# Youngs Moduli (GPa) = 36.54034 72.66857 26.58577
#
# Poissons Ratio (x) = -0.13072 -0.22398
# Poissons Ratio (y) = -0.06573 -0.15325
# Poissons Ratio (z) = -0.30785 -0.41889
#
# Static dielectric constant tensor:
#      x y z
#    x 1.764950 0.000000 0.027940 
#    y 0.000000 1.787220 0.000000 
#    z 0.027940 0.000000 1.751090 
# 
# From -- ./inp_files/64953.got.cif
#   From: 2010.05.17/outbox.cif.g08.bks.cpg/sg14_33_cif.got.tgz:64953.got - 2010.06.03 17:49:19.
