data_PCOD9245695
_publ_section_title
;
Structure prediction by ZEFSAII (Michael W. Deem and Ramdas Pophale) SiO2 
 PCOD9245695
Probable space group: P 21/C
;
_chemical_formula_sum "Si O2"
_cell_formula_units_Z 28
_cell_length_a 8.216173
_cell_length_b 15.534345
_cell_length_c 17.274324
_cell_angle_alpha 90.000000
_cell_angle_beta 26.538146
_cell_angle_gamma 90.000000
_cell_volume 985.077649
_symmetry_space_group_name_H-M "P 21/C"
_symmetry_group_IT_number 14
_symmetry_cell_setting 'monoclinic'
loop_
_space_group_symop_operation_xyz
x,y,z
-x,1/2+y,1/2-z
-x,-y,-z
x,1/2-y,1/2+z
loop_
_atom_site_type_symbol
_atom_site_label
_atom_site_fract_x
_atom_site_fract_y
_atom_site_fract_z
Si Si1 0.333594 0.434213 0.377628
Si Si2 0.301557 0.662571 0.493536
Si Si3 0.879482 0.753410 0.543741
Si Si4 0.140446 0.079731 0.360716
Si Si5 0.901967 0.505551 0.364743
Si Si6 0.131002 0.244698 0.134428
Si Si7 0.381021 0.612762 0.052053
O O1 0.353116 0.334933 0.343436
O O2 0.702823 0.483314 0.192731
O O3 0.208149 0.428066 0.520729
O O4 0.000000 0.500000 0.500000
O O5 0.587067 0.608939 0.322859
O O6 0.014863 0.589287 0.637379
O O7 0.521030 0.699208 0.471966
O O8 0.168108 0.734370 0.490231
O O9 0.769198 0.851246 0.610606
O O10 0.952728 0.747378 0.421225
O O11 0.769626 0.093940 0.470447
O O12 0.500000 0.500000 0.500000
O O13 0.221955 0.534263 0.171323
O O14 0.214889 0.346058 0.117737
O O15 0.825964 0.188771 0.308769
#
# Coordination Sequence:
#
# PCOD9245695 Si02
#       7
#     4   4   4   4   4   4   4
#     4  11  20  35  58  91 120 157 214 265 307 364
#     4  10  21  39  56  92 119 161 202 265 306 369
#     4  12  22  35  61  92 125 162 198 268 317 375
#     4  10  22  36  59  90 128 160 207 261 323 363
#     4  11  17  34  62  87 116 152 217 266 302 357
#     4  11  24  36  60  90 127 158 211 248 322 369
#     4  11  22  40  60  95 123 165 205 269 308 383
#
# _framework density 28.424154000000001
#
# number of rings (size 3 to 8) (size 9 to 14) (size 15 to 20)
#    0.000    1.143   10.000    0.000    4.000    0.000 
#    0.000    0.000    0.000    1.714    7.429    0.000 
#    0.000    0.000    0.000    0.000    0.000    0.000 
#
# Total GULP energy -156036.721474 kJ/mol
# GULP energy per Si atom -5572.740053 kJ/mol
# Density = 2.835946 g / cm^3
# Si number density = 28.424154 Si / 1000 Ang^3
#
#
#
# Elastic Constant Matrix: (Units=GPa)
#
#
# Indices 1 2 3 4 5 6 
#
# 1 150.6746 65.3239 24.5806 0.0000 1.1122 0.0000
# 2 65.3239 132.7990 30.3362 0.0000 8.2115 0.0000
# 3 24.5806 30.3362 72.0594 0.0000 -3.6210 0.0000
# 4 0.0000 0.0000 0.0000 45.7258 0.0000 4.0146
# 5 1.1122 8.2115 -3.6210 0.0000 16.4808 0.0000
# 6 0.0000 0.0000 0.0000 4.0146 0.0000 53.3768
#
#
#
# Elastic Compliance Matrix: (Units=1/GPa)
#
#
# Indices 1 2 3 4 5 6 
#
# 1 0.008560 -0.004015 -0.001171 0.000000 0.001166 0.000000
# 2 -0.004015 0.010639 -0.003400 0.000000 -0.005777 0.000000
# 3 -0.001171 -0.003400 0.015974 0.000000 0.005282 0.000000
# 4 0.000000 0.000000 0.000000 0.022015 0.000000 -0.001656
# 5 0.001166 -0.005777 0.005282 0.000000 0.064637 0.000000
# 6 0.000000 0.000000 0.000000 -0.001656 0.000000 0.018859
#
#
# Mechanical properties :
#
#
# Convention : Reuss Voigt Hill
#
# Bulk Modulus (GPa) = 55.55254 66.22380 60.88817
# Shear Modulus (GPa) = 30.51465 38.80284 34.65874
#
# Velocity S-wave (km/s) = 3.28006 3.69878 3.49569
# Velocity P-wave (km/s) = 5.82508 6.44906 6.14499
#
# Compressibility (1/GPa) = 0.01800098
#
# Stress axis : x y z
#
# Youngs Moduli (GPa) = 116.82198 93.99317 62.60368
#
# Poissons Ratio (x) = 0.37741 0.07331
# Poissons Ratio (y) = 0.46907 0.21282
# Poissons Ratio (z) = 0.13680 0.31953
#
# Static dielectric constant tensor:
#      x y z
#    x 2.401480 0.000000 0.124740 
#    y 0.000000 2.058810 0.000000 
#    z 0.124740 0.000000 2.637460 
# 
# From -- ./inp_files/65724.got.cif
#   From: 2010.05.17/outbox.cif.g08.bks.cpg/sg14_33_cif.got.tgz:65724.got - 2010.06.03 17:49:19.
