data_PCOD9245855
_publ_section_title
;
Structure prediction by ZEFSAII (Michael W. Deem and Ramdas Pophale) SiO2 
 PCOD9245855
Probable space group: P 21/C
;
_chemical_formula_sum "Si O2"
_cell_formula_units_Z 26
_cell_length_a 9.199259
_cell_length_b 7.430726
_cell_length_c 19.800991
_cell_angle_alpha 90.000000
_cell_angle_beta 45.442113
_cell_angle_gamma 90.000000
_cell_volume 964.453857
_symmetry_space_group_name_H-M "P 21/C"
_symmetry_group_IT_number 14
_symmetry_cell_setting 'monoclinic'
loop_
_space_group_symop_operation_xyz
x,y,z
-x,1/2+y,1/2-z
-x,-y,-z
x,1/2-y,1/2+z
loop_
_atom_site_type_symbol
_atom_site_label
_atom_site_fract_x
_atom_site_fract_y
_atom_site_fract_z
Si Si1 0.893413 0.276954 0.177874
Si Si2 0.135062 0.675587 0.458556
Si Si3 0.564333 0.203037 0.957308
Si Si4 0.464353 0.139070 0.351541
Si Si5 0.000000 0.000000 0.500000
Si Si6 0.448362 0.257362 0.137333
Si Si7 0.914831 0.503187 0.286845
O O1 0.938495 0.296359 0.083422
O O2 0.645319 0.264235 0.260776
O O3 0.005348 0.421426 0.188728
O O4 0.975415 0.093554 0.185540
O O5 0.373412 0.635901 0.386623
O O6 0.000000 0.500000 0.500000
O O7 0.107212 0.845268 0.515439
O O8 0.444440 0.276831 0.932768
O O9 0.793121 0.170402 0.856384
O O10 0.516696 0.310150 0.039562
O O11 0.500000 0.000000 0.000000
O O12 0.568091 0.941320 0.317350
O O13 0.236288 0.099422 0.402719
O O14 0.246524 0.143879 0.191852
#
# Coordination Sequence:
#
# PCOD9245855 Si02
#       7
#     4   4   4   4   2   4   4
#     4  11  24  44  69 102 143 187 238 306 358 445
#     4  11  26  46  72 101 146 190 239 294 370 444
#     4   9  19  35  67  93 132 181 230 296 346 425
#     4  10  22  42  65  99 142 181 243 291 363 425
#     4  10  26  46  66 108 140 188 236 294 360 436
#     4  10  21  39  64 103 132 186 235 289 364 431
#     4  10  22  40  65 100 135 182 239 291 365 418
#
# _framework density 26.958261
#
# number of rings (size 3 to 8) (size 9 to 14) (size 15 to 20)
#    0.000    1.846    0.000    2.308   10.769    2.462 
#   16.615    0.000    0.000    0.000    0.000    0.000 
#    0.000    0.000    0.000    0.000    0.000    0.000 
#
# Total GULP energy -144741.056113 kJ/mol
# GULP energy per Si atom -5566.963697 kJ/mol
# Density = 2.689690 g / cm^3
# Si number density = 26.958261 Si / 1000 Ang^3
#
#
#
# Elastic Constant Matrix: (Units=GPa)
#
#
# Indices 1 2 3 4 5 6 
#
# 1 123.3014 23.0192 25.7247 0.0000 -19.8536 0.0000
# 2 23.0192 95.1812 4.5189 0.0000 -13.8349 0.0000
# 3 25.7247 4.5189 53.2064 0.0000 -2.3626 0.0000
# 4 0.0000 0.0000 0.0000 31.3736 0.0000 -13.0712
# 5 -19.8536 -13.8349 -2.3626 0.0000 51.2300 0.0000
# 6 0.0000 0.0000 0.0000 -13.0712 0.0000 59.6351
#
#
#
# Elastic Compliance Matrix: (Units=1/GPa)
#
#
# Indices 1 2 3 4 5 6 
#
# 1 0.009875 -0.001716 -0.004489 0.000000 0.003157 0.000000
# 2 -0.001716 0.011268 -0.000022 0.000000 0.002377 0.000000
# 3 -0.004489 -0.000022 0.020932 0.000000 -0.000780 0.000000
# 4 0.000000 0.000000 0.000000 0.035077 0.000000 0.007688
# 5 0.003157 0.002377 -0.000780 0.000000 0.021349 0.000000
# 6 0.000000 0.000000 0.000000 0.007688 0.000000 0.018454
#
#
# Mechanical properties :
#
#
# Convention : Reuss Voigt Hill
#
# Bulk Modulus (GPa) = 33.75865 42.02385 37.89125
# Shear Modulus (GPa) = 35.89814 43.00947 39.45380
#
# Velocity S-wave (km/s) = 3.65309 3.99859 3.82974
# Velocity P-wave (km/s) = 5.50847 6.07788 5.80017
#
# Compressibility (1/GPa) = 0.02962204
#
# Stress axis : x y z
#
# Youngs Moduli (GPa) = 101.26168 88.74781 47.77334
#
# Poissons Ratio (x) = 0.15233 0.21444
# Poissons Ratio (y) = 0.17381 0.00103
# Poissons Ratio (z) = 0.45453 0.00192
#
# Static dielectric constant tensor:
#      x y z
#    x 2.239300 0.000000 0.282960 
#    y 0.000000 3.400740 0.000000 
#    z 0.282960 0.000000 2.935010 
# 
# From -- ./inp_files/64760.got.cif
#   From: 2010.05.17/outbox.cif.g08.bks.cpg/sg14_33_cif.got.tgz:64760.got - 2010.06.03 17:49:19.
