data_PCOD9245536
_publ_section_title
;
Structure prediction by ZEFSAII (Michael W. Deem and Ramdas Pophale) SiO2 
 PCOD9245536
Probable space group: P 21/C
;
_chemical_formula_sum "Si O2"
_cell_formula_units_Z 32
_cell_length_a 10.668941
_cell_length_b 8.752145
_cell_length_c 25.944232
_cell_angle_alpha 90.000000
_cell_angle_beta 139.511595
_cell_angle_gamma 90.000000
_cell_volume 1572.961625
_symmetry_space_group_name_H-M "P 21/C"
_symmetry_group_IT_number 14
_symmetry_cell_setting 'monoclinic'
loop_
_space_group_symop_operation_xyz
x,y,z
-x,1/2+y,1/2-z
-x,-y,-z
x,1/2-y,1/2+z
loop_
_atom_site_type_symbol
_atom_site_label
_atom_site_fract_x
_atom_site_fract_y
_atom_site_fract_z
Si Si1 0.808583 0.831019 0.802751
Si Si2 0.607217 0.314282 0.353593
Si Si3 0.631681 0.604693 0.505063
Si Si4 0.125031 0.317928 0.853691
Si Si5 0.788346 0.180357 0.799313
Si Si6 0.965053 0.898464 0.269536
Si Si7 0.591092 0.389734 0.664364
Si Si8 0.918538 0.401182 0.523294
O O1 0.585340 0.784786 0.719979
O O2 0.932487 0.717213 0.806308
O O3 0.902627 0.825341 0.889597
O O4 0.832222 0.008565 0.795651
O O5 0.725682 0.321777 0.338332
O O6 0.531478 0.482473 0.344481
O O7 0.758196 0.286245 0.447963
O O8 0.500000 0.500000 0.500000
O O9 0.697341 0.739829 0.563034
O O10 0.506734 0.662222 0.418390
O O11 0.803353 0.507553 0.529660
O O12 0.960751 0.301011 0.845909
O O13 0.141072 0.486963 0.835846
O O14 0.047776 0.204717 0.784844
O O15 0.623986 0.249510 0.712060
O O16 0.786129 0.017684 0.211170
O O17 0.000000 0.500000 0.500000
#
# Coordination Sequence:
#
# PCOD9245536 Si02
#       8
#     4   4   4   4   4   4   4   4
#     4  11  22  40  65  92 130 172 219 271 332 395
#     4  10  21  38  62  92 126 172 213 270 323 391
#     4  11  21  38  65  94 127 176 217 276 328 392
#     4  11  21  38  62  88 126 166 217 263 333 393
#     4  11  20  36  61  89 122 163 213 263 323 391
#     4  10  22  38  61  88 121 166 212 264 320 396
#     4   9  21  37  60  87 124 162 213 260 323 385
#     4  11  22  41  66  96 129 178 227 269 329 409
#
# _framework density 20.343789000000001
#
# number of rings (size 3 to 8) (size 9 to 14) (size 15 to 20)
#    0.000    1.500    3.750    1.500    1.750    0.000 
#    2.250    0.000    0.000    8.250    0.000    0.000 
#    0.000    0.000    0.000    0.000    0.000    0.000 
#
# Total GULP energy -178320.516611 kJ/mol
# GULP energy per Si atom -5572.516144 kJ/mol
# Density = 2.029749 g / cm^3
# Si number density = 20.343789 Si / 1000 Ang^3
#
#
#
# Elastic Constant Matrix: (Units=GPa)
#
#
# Indices 1 2 3 4 5 6 
#
# 1 60.8563 0.1032 2.5318 0.0000 -13.8668 0.0000
# 2 0.1032 51.5886 18.0022 0.0000 -12.9071 0.0000
# 3 2.5318 18.0022 123.4028 0.0000 -19.9991 0.0000
# 4 0.0000 0.0000 0.0000 35.5412 0.0000 1.0034
# 5 -13.8668 -12.9071 -19.9991 0.0000 27.5301 0.0000
# 6 0.0000 0.0000 0.0000 1.0034 0.0000 14.6590
#
#
#
# Elastic Compliance Matrix: (Units=1/GPa)
#
#
# Indices 1 2 3 4 5 6 
#
# 1 0.019012 0.002459 0.001122 0.000000 0.011544 0.000000
# 2 0.002459 0.022613 -0.001621 0.000000 0.010662 0.000000
# 3 0.001122 -0.001621 0.009391 0.000000 0.006627 0.000000
# 4 0.000000 0.000000 0.000000 0.028191 0.000000 -0.001930
# 5 0.011544 0.010662 0.006627 0.000000 0.051952 0.000000
# 6 0.000000 0.000000 0.000000 -0.001930 0.000000 0.068349
#
#
# Mechanical properties :
#
#
# Convention : Reuss Voigt Hill
#
# Bulk Modulus (GPa) = 18.20352 30.79136 24.49744
# Shear Modulus (GPa) = 23.37544 29.89345 26.63444
#
# Velocity S-wave (km/s) = 3.39340 3.83745 3.62224
# Velocity P-wave (km/s) = 4.93162 5.89941 5.43709
#
# Compressibility (1/GPa) = 0.05493443
#
# Stress axis : x y z
#
# Youngs Moduli (GPa) = 52.59907 44.22322 106.48428
#
# Poissons Ratio (x) = -0.10873 -0.11949
# Poissons Ratio (y) = -0.12932 0.17264
# Poissons Ratio (z) = -0.05902 0.07170
#
# Static dielectric constant tensor:
#      x y z
#    x 1.818580 0.000000 0.056270 
#    y 0.000000 1.714390 0.000000 
#    z 0.056270 0.000000 1.814160 
# 
# From -- ./inp_files/77020.got.cif
#   From: 2010.05.17/outbox.cif.g08.bks.cpg/sg14_39_cif.got.tgz:77020.got - 2010.06.03 17:49:19.
