data_PCOD9245213
_publ_section_title
;
Structure prediction by ZEFSAII (Michael W. Deem and Ramdas Pophale) SiO2 
 PCOD9245213
Probable space group: P 21/C
;
_chemical_formula_sum "Si O2"
_cell_formula_units_Z 32
_cell_length_a 9.210063
_cell_length_b 20.586020
_cell_length_c 12.988247
_cell_angle_alpha 90.000000
_cell_angle_beta 134.767124
_cell_angle_gamma 90.000000
_cell_volume 1748.350681
_symmetry_space_group_name_H-M "P 21/C"
_symmetry_group_IT_number 14
_symmetry_cell_setting 'monoclinic'
loop_
_space_group_symop_operation_xyz
x,y,z
-x,1/2+y,1/2-z
-x,-y,-z
x,1/2-y,1/2+z
loop_
_atom_site_type_symbol
_atom_site_label
_atom_site_fract_x
_atom_site_fract_y
_atom_site_fract_z
Si Si1 0.472738 0.942852 0.125115
Si Si2 0.615297 0.936978 0.429919
Si Si3 0.945466 0.675506 0.097656
Si Si4 0.780825 0.556394 0.589831
Si Si5 0.933008 0.308836 0.077104
Si Si6 0.764844 0.067199 0.610238
Si Si7 0.274333 0.297956 0.419529
Si Si8 0.287559 0.812121 0.940985
O O1 0.555678 0.937586 0.280913
O O2 0.660550 0.951555 0.138633
O O3 0.356553 0.877156 0.033903
O O4 0.320445 0.003514 0.034612
O O5 0.790026 0.883736 0.534839
O O6 0.415441 0.921433 0.398150
O O7 0.696825 0.007295 0.505321
O O8 0.827339 0.742463 0.063252
O O9 0.128722 0.671011 0.271172
O O10 0.024132 0.677401 0.020207
O O11 0.738790 0.630749 0.536063
O O12 0.021895 0.548974 0.727494
O O13 0.810445 0.368397 0.067201
O O14 0.813305 0.241726 0.036240
O O15 0.142253 0.303513 0.248124
O O16 0.507282 0.283566 0.507778
#
# Coordination Sequence:
#
# PCOD9245213 Si02
#       8
#     4   4   4   4   4   4   4   4
#     4  10  21  37  60  86 115 149 188 232 280 335
#     4  11  23  38  57  83 114 150 188 233 283 334
#     4  11  22  37  60  85 112 149 188 228 279 334
#     4   9  19  38  59  84 114 146 187 234 279 332
#     4  10  22  38  59  83 110 149 188 229 279 332
#     4  10  22  39  57  81 114 147 188 236 281 332
#     4   9  20  38  56  82 116 145 183 230 276 330
#     4  10  21  37  58  86 117 147 184 231 279 333
#
# _framework density 18.302965
#
# number of rings (size 3 to 8) (size 9 to 14) (size 15 to 20)
#    0.000    2.000    0.000    3.750    0.000   10.500 
#    0.000    5.000    0.000    0.000    0.000    0.000 
#    0.000    0.000    0.000    0.000    0.000    0.000 
#
# Total GULP energy -178751.126314 kJ/mol
# GULP energy per Si atom -5585.972697 kJ/mol
# Density = 1.826131 g / cm^3
# Si number density = 18.302965 Si / 1000 Ang^3
#
#
#
# Elastic Constant Matrix: (Units=GPa)
#
#
# Indices 1 2 3 4 5 6 
#
# 1 92.5529 36.6068 60.1391 0.0000 16.8849 0.0000
# 2 36.6068 48.4213 35.8649 0.0000 4.3386 0.0000
# 3 60.1391 35.8649 67.0139 0.0000 11.2250 0.0000
# 4 0.0000 0.0000 0.0000 1.9306 0.0000 16.4170
# 5 16.8849 4.3386 11.2250 0.0000 29.2778 0.0000
# 6 0.0000 0.0000 0.0000 16.4170 0.0000 17.3310
#
#
#
# Elastic Compliance Matrix: (Units=1/GPa)
#
#
# Indices 1 2 3 4 5 6 
#
# 1 0.027711 -0.004601 -0.021205 0.000000 -0.007170 0.000000
# 2 -0.004601 0.035098 -0.015205 0.000000 0.003282 0.000000
# 3 -0.021205 -0.015205 0.042385 0.000000 -0.001768 0.000000
# 4 0.000000 0.000000 0.000000 -0.073419 0.000000 0.069547
# 5 -0.007170 0.003282 -0.001768 0.000000 0.038482 0.000000
# 6 0.000000 0.000000 0.000000 0.069547 0.000000 -0.008179
#
#
# Mechanical properties :
#
#
# Convention : Reuss Voigt Hill
#
# Bulk Modulus (GPa) = 43.15320 52.57885 47.86603
# Shear Modulus (GPa) = 32.93276 14.73305 23.83290
#
# Velocity S-wave (km/s) = 4.24643 2.84025 3.61242
# Velocity P-wave (km/s) = 6.90444 6.28851 6.60366
#
# Compressibility (1/GPa) = 0.02317325
#
# Stress axis : x y z
#
# Youngs Moduli (GPa) = 36.08699 28.49126 23.59322
#
# Poissons Ratio (x) = 0.13109 0.50028
# Poissons Ratio (y) = 0.16604 0.35873
# Poissons Ratio (z) = 0.76521 0.43320
#
# Static dielectric constant tensor:
#      x y z
#    x 1.609940 0.000000 0.014630 
#    y 0.000000 1.624100 0.000000 
#    z 0.014630 0.000000 1.599270 
# 
# From -- ./inp_files/26810.got.cif
#   From: 2010.05.17/outbox.cif.g08.bks.cpg/sg14_14_cif.got.tgz:26810.got - 2010.06.03 17:49:19.
