data_PCOD9245169
_publ_section_title
;
Structure prediction by ZEFSAII (Michael W. Deem and Ramdas Pophale) SiO2 
 PCOD9245169
Probable space group: P 21/C
;
_chemical_formula_sum "Si O2"
_cell_formula_units_Z 32
_cell_length_a 22.790794
_cell_length_b 8.736162
_cell_length_c 22.066525
_cell_angle_alpha 90.000000
_cell_angle_beta 20.139262
_cell_angle_gamma 90.000000
_cell_volume 1512.707816
_symmetry_space_group_name_H-M "P 21/C"
_symmetry_group_IT_number 14
_symmetry_cell_setting 'monoclinic'
loop_
_space_group_symop_operation_xyz
x,y,z
-x,1/2+y,1/2-z
-x,-y,-z
x,1/2-y,1/2+z
loop_
_atom_site_type_symbol
_atom_site_label
_atom_site_fract_x
_atom_site_fract_y
_atom_site_fract_z
Si Si1 0.076910 0.214021 0.375863
Si Si2 0.634003 0.903488 0.981164
Si Si3 0.529823 0.095407 0.381413
Si Si4 0.194454 0.796468 0.205895
Si Si5 0.575726 0.935861 0.730715
Si Si6 0.155161 0.446327 0.924041
Si Si7 0.393564 0.621777 0.910907
Si Si8 0.782839 0.017970 0.230574
O O1 0.192851 0.185129 0.203950
O O2 0.170480 0.138710 0.344213
O O3 0.073489 0.392467 0.394074
O O4 0.905947 0.118324 0.531703
O O5 0.668022 0.067933 0.915901
O O6 0.490116 0.778619 0.104909
O O7 0.590617 0.962249 0.090335
O O8 0.706513 0.037318 0.237903
O O9 0.491234 0.003251 0.357493
O O10 0.378858 0.048974 0.574033
O O11 0.188177 0.680769 0.267312
O O12 0.008934 0.871797 0.383327
O O13 0.251653 0.700442 0.091618
O O14 0.687472 0.932135 0.683619
O O15 0.513928 0.764957 0.776354
O O16 0.667456 0.027201 0.588168
#
# Coordination Sequence:
#
# PCOD9245169 Si02
#       8
#     4   4   4   4   4   4   4   4
#     4   9  19  36  56  83 116 147 182 232 290 348
#     4   9  19  34  56  81 111 147 186 232 284 334
#     4   9  17  31  55  84 108 142 185 226 278 333
#     4   9  20  37  54  80 116 151 185 232 285 339
#     4  11  22  38  59  81 108 144 191 239 282 339
#     4  10  21  37  56  81 114 150 188 230 287 351
#     4  10  21  39  58  80 110 143 189 240 284 332
#     4   9  17  31  54  82 113 143 180 228 280 337
#
# _framework density 21.154118
#
# number of rings (size 3 to 8) (size 9 to 14) (size 15 to 20)
#    0.000    2.500    0.000    1.500    0.000    7.500 
#    0.000   11.250    0.000    0.000    0.000    0.000 
#    0.000    0.000    0.000    0.000    0.000    0.000 
#
# Total GULP energy -178350.543118 kJ/mol
# GULP energy per Si atom -5573.454472 kJ/mol
# Density = 2.110597 g / cm^3
# Si number density = 21.154118 Si / 1000 Ang^3
#
#
#
# Elastic Constant Matrix: (Units=GPa)
#
#
# Indices 1 2 3 4 5 6 
#
# 1 48.8965 14.7754 11.5460 0.0000 8.9277 0.0000
# 2 14.7754 124.4718 28.2959 0.0000 5.8352 0.0000
# 3 11.5460 28.2959 58.1635 0.0000 7.1536 0.0000
# 4 0.0000 0.0000 0.0000 30.6619 0.0000 12.4133
# 5 8.9277 5.8352 7.1536 0.0000 21.9070 0.0000
# 6 0.0000 0.0000 0.0000 12.4133 0.0000 26.8147
#
#
#
# Elastic Compliance Matrix: (Units=1/GPa)
#
#
# Indices 1 2 3 4 5 6 
#
# 1 0.023096 -0.001739 -0.002748 0.000000 -0.008051 0.000000
# 2 -0.001739 0.009185 -0.004073 0.000000 -0.000408 0.000000
# 3 -0.002748 -0.004073 0.020263 0.000000 -0.004412 0.000000
# 4 0.000000 0.000000 0.000000 0.040136 0.000000 -0.018580
# 5 -0.008051 -0.000408 -0.004412 0.000000 0.050478 0.000000
# 6 0.000000 0.000000 0.000000 -0.018580 0.000000 0.045894
#
#
# Mechanical properties :
#
#
# Convention : Reuss Voigt Hill
#
# Bulk Modulus (GPa) = 28.23077 37.86293 33.04685
# Shear Modulus (GPa) = 22.93773 27.67102 25.30438
#
# Velocity S-wave (km/s) = 3.29647 3.62065 3.46235
# Velocity P-wave (km/s) = 5.27856 5.95115 5.62492
#
# Compressibility (1/GPa) = 0.03542235
#
# Stress axis : x y z
#
# Youngs Moduli (GPa) = 43.29752 108.86728 49.35185
#
# Poissons Ratio (x) = 0.18936 0.13563
# Poissons Ratio (y) = 0.07531 0.20102
# Poissons Ratio (z) = 0.11899 0.44344
#
# Static dielectric constant tensor:
#      x y z
#    x 1.726210 0.000000 0.012580 
#    y 0.000000 1.813440 0.000000 
#    z 0.012580 0.000000 1.844840 
# 
# From -- ./inp_files/74902.got.cif
#   From: 2010.05.17/outbox.cif.g08.bks.cpg/sg14_38_cif.got.tgz:74902.got - 2010.06.03 17:49:19.
