data_PCOD9245206
_publ_section_title
;
Structure prediction by ZEFSAII (Michael W. Deem and Ramdas Pophale) SiO2 
 PCOD9245206
Probable space group: P 21/C
;
_chemical_formula_sum "Si O2"
_cell_formula_units_Z 16
_cell_length_a 13.882730
_cell_length_b 5.150189
_cell_length_c 26.880184
_cell_angle_alpha 90.000000
_cell_angle_beta 160.497200
_cell_angle_gamma 90.000000
_cell_volume 641.631190
_symmetry_space_group_name_H-M "P 21/C"
_symmetry_group_IT_number 14
_symmetry_cell_setting 'monoclinic'
loop_
_space_group_symop_operation_xyz
x,y,z
-x,1/2+y,1/2-z
-x,-y,-z
x,1/2-y,1/2+z
loop_
_atom_site_type_symbol
_atom_site_label
_atom_site_fract_x
_atom_site_fract_y
_atom_site_fract_z
Si Si1 0.227633 0.535404 0.267977
Si Si2 0.007814 0.888579 0.447624
Si Si3 0.572468 0.983481 0.752229
Si Si4 0.445522 0.966863 0.532191
O O1 0.367306 0.805897 0.351191
O O2 0.196483 0.515833 0.192839
O O3 0.427975 0.308393 0.387719
O O4 0.898195 0.497286 0.126176
O O5 0.339142 0.940621 0.595303
O O6 0.898549 0.590215 0.396222
O O7 0.000000 0.000000 0.500000
O O8 0.489025 0.745877 0.748894
O O9 0.500000 0.000000 0.500000
#
# Coordination Sequence:
#
# PCOD9245206 Si02
#       4
#     4   4   4   4
#     4  12  26  44  73 105 136 181 229 276 346 412
#     4  10  23  40  62  93 134 173 214 266 320 396
#     4  10  21  37  58  84 123 176 218 259 316 376
#     4  12  26  49  73 102 136 176 229 293 346 402
#
# _framework density 24.936443000000001
#
# number of rings (size 3 to 8) (size 9 to 14) (size 15 to 20)
#    0.000    1.000    0.000    6.000    0.000   16.000 
#    0.000    0.000    0.000    0.000    0.000    0.000 
#    0.000    0.000    0.000    0.000    0.000    0.000 
#
# Total GULP energy -89529.173476 kJ/mol
# GULP energy per Si atom -5595.573342 kJ/mol
# Density = 2.487969 g / cm^3
# Si number density = 24.936443 Si / 1000 Ang^3
#
#
#
# Elastic Constant Matrix: (Units=GPa)
#
#
# Indices 1 2 3 4 5 6 
#
# 1 122.6671 21.5771 25.8078 0.0000 -16.2502 0.0000
# 2 21.5771 104.0561 28.2616 0.0000 1.5313 0.0000
# 3 25.8078 28.2616 131.1512 0.0000 10.8711 0.0000
# 4 0.0000 0.0000 0.0000 65.8847 0.0000 0.8287
# 5 -16.2502 1.5313 10.8711 0.0000 58.4789 0.0000
# 6 0.0000 0.0000 0.0000 0.8287 0.0000 27.6105
#
#
#
# Elastic Compliance Matrix: (Units=1/GPa)
#
#
# Indices 1 2 3 4 5 6 
#
# 1 0.009159 -0.001473 -0.001726 0.000000 0.002905 0.000000
# 2 -0.001473 0.010446 -0.001934 0.000000 -0.000323 0.000000
# 3 -0.001726 -0.001934 0.008548 0.000000 -0.002018 0.000000
# 4 0.000000 0.000000 0.000000 0.015184 0.000000 -0.000456
# 5 0.002905 -0.000323 -0.002018 0.000000 0.018291 0.000000
# 6 0.000000 0.000000 0.000000 -0.000456 0.000000 0.036232
#
#
# Mechanical properties :
#
#
# Convention : Reuss Voigt Hill
#
# Bulk Modulus (GPa) = 55.90631 56.57416 56.24024
# Shear Modulus (GPa) = 43.82567 49.21001 46.51784
#
# Velocity S-wave (km/s) = 4.19680 4.44714 4.32378
# Velocity P-wave (km/s) = 6.77881 7.00756 6.89414
#
# Compressibility (1/GPa) = 0.01788707
#
# Stress axis : x y z
#
# Youngs Moduli (GPa) = 109.18081 95.73228 116.98059
#
# Poissons Ratio (x) = 0.14104 0.20186
# Poissons Ratio (y) = 0.16086 0.22627
# Poissons Ratio (z) = 0.18840 0.18517
#
# Static dielectric constant tensor:
#      x y z
#    x 2.087710 0.000000 0.118180 
#    y 0.000000 2.010550 0.000000 
#    z 0.118180 0.000000 2.113840 
# 
# From -- ./inp_files/77378.got.cif
#   From: 2010.05.17/outbox.cif.g08.bks.cpg/sg14_39_cif.got.tgz:77378.got - 2010.06.03 17:49:19.
