data_PCOD9245879
_publ_section_title
;
Structure prediction by ZEFSAII (Michael W. Deem and Ramdas Pophale) SiO2 
 PCOD9245879
Probable space group: P 21/C
;
_chemical_formula_sum "Si O2"
_cell_formula_units_Z 32
_cell_length_a 10.924582
_cell_length_b 10.798472
_cell_length_c 21.647080
_cell_angle_alpha 90.000000
_cell_angle_beta 35.972112
_cell_angle_gamma 90.000000
_cell_volume 1500.009619
_symmetry_space_group_name_H-M "P 21/C"
_symmetry_group_IT_number 14
_symmetry_cell_setting 'monoclinic'
loop_
_space_group_symop_operation_xyz
x,y,z
-x,1/2+y,1/2-z
-x,-y,-z
x,1/2-y,1/2+z
loop_
_atom_site_type_symbol
_atom_site_label
_atom_site_fract_x
_atom_site_fract_y
_atom_site_fract_z
Si Si1 0.864630 0.675812 0.130664
Si Si2 0.021051 0.557236 0.761329
Si Si3 0.851744 0.211717 0.367819
Si Si4 0.346061 0.567720 0.733766
Si Si5 0.607878 0.593178 0.784430
Si Si6 0.758478 0.028712 0.109227
Si Si7 0.206610 0.804952 0.402900
Si Si8 0.593778 0.625058 0.935906
O O1 0.739403 0.552807 0.195620
O O2 0.716163 0.790333 0.206192
O O3 0.051990 0.685487 0.104095
O O4 0.971085 0.675375 0.020489
O O5 0.941460 0.410942 0.792178
O O6 0.822949 0.630956 0.872316
O O7 0.073319 0.651999 0.684055
O O8 0.231413 0.560415 0.715535
O O9 0.599496 0.215946 0.473656
O O10 0.595006 0.556475 0.638215
O O11 0.255373 0.680245 0.810875
O O12 0.703664 0.483389 0.704527
O O13 0.362346 0.599988 0.872343
O O14 0.636864 0.605789 0.845381
O O15 0.729245 0.169359 0.100874
O O16 0.000000 0.000000 0.000000
O O17 0.500000 0.500000 0.000000
#
# Coordination Sequence:
#
# PCOD9245879 Si02
#       8
#     4   4   4   4   4   4   4   4
#     4  11  19  38  65  88 124 163 215 258 306 377
#     4  10  22  42  64  93 133 168 213 271 316 384
#     4  10  21  39  67  94 126 172 221 264 318 380
#     4  10  24  41  61  95 130 166 208 259 321 381
#     4  11  21  37  65  90 120 164 208 260 307 376
#     4  11  23  40  63  95 128 161 207 264 321 377
#     4  11  22  39  61  92 125 163 210 260 315 375
#     4  10  21  39  64  92 121 165 223 255 313 388
#
# _framework density 21.333197999999999
#
# number of rings (size 3 to 8) (size 9 to 14) (size 15 to 20)
#    0.000    1.500    5.000    0.375    0.000    2.000 
#    2.250    0.625    0.000    0.000    0.000    0.000 
#    0.000    0.000    0.000    0.000    0.000    0.000 
#
# Total GULP energy -178134.810892 kJ/mol
# GULP energy per Si atom -5566.712840 kJ/mol
# Density = 2.128464 g / cm^3
# Si number density = 21.333198 Si / 1000 Ang^3
#
#
#
# Elastic Constant Matrix: (Units=GPa)
#
#
# Indices 1 2 3 4 5 6 
#
# 1 48.8479 21.7810 27.5609 0.0000 -13.4940 0.0000
# 2 21.7810 48.5871 14.0790 0.0000 5.4353 0.0000
# 3 27.5609 14.0790 114.5336 0.0000 -13.7602 0.0000
# 4 0.0000 0.0000 0.0000 32.6205 0.0000 6.0821
# 5 -13.4940 5.4353 -13.7602 0.0000 28.5933 0.0000
# 6 0.0000 0.0000 0.0000 6.0821 0.0000 19.4044
#
#
#
# Elastic Compliance Matrix: (Units=1/GPa)
#
#
# Indices 1 2 3 4 5 6 
#
# 1 0.035113 -0.016464 -0.004308 0.000000 0.017628 0.000000
# 2 -0.016464 0.029957 -0.001420 0.000000 -0.014148 0.000000
# 3 -0.004308 -0.001420 0.010328 0.000000 0.003207 0.000000
# 4 0.000000 0.000000 0.000000 0.032558 0.000000 -0.010205
# 5 0.017628 -0.014148 0.003207 0.000000 0.047525 0.000000
# 6 0.000000 0.000000 0.000000 -0.010205 0.000000 0.054733
#
#
# Mechanical properties :
#
#
# Convention : Reuss Voigt Hill
#
# Bulk Modulus (GPa) = 32.24522 37.64560 34.94541
# Shear Modulus (GPa) = 18.87246 26.02683 22.44965
#
# Velocity S-wave (km/s) = 2.97754 3.49666 3.24749
# Velocity P-wave (km/s) = 5.19315 5.82984 5.52068
#
# Compressibility (1/GPa) = 0.03101234
#
# Stress axis : x y z
#
# Youngs Moduli (GPa) = 28.47934 33.38155 96.82836
#
# Poissons Ratio (x) = 0.54961 0.41712
# Poissons Ratio (y) = 0.46890 0.13752
# Poissons Ratio (z) = 0.12268 0.04741
#
# Static dielectric constant tensor:
#      x y z
#    x 1.791670 0.000000 0.039120 
#    y 0.000000 1.773550 0.000000 
#    z 0.039120 0.000000 1.725730 
# 
# From -- ./inp_files/73304.got.cif
#   From: 2010.05.17/outbox.cif.g08.bks.cpg/sg14_37_cif.got.tgz:73304.got - 2010.06.03 17:49:19.
