data_PCOD9245455
_publ_section_title
;
Structure prediction by ZEFSAII (Michael W. Deem and Ramdas Pophale) SiO2 
 PCOD9245455
Probable space group: P 21/C
;
_chemical_formula_sum "Si O2"
_cell_formula_units_Z 24
_cell_length_a 8.175778
_cell_length_b 9.892905
_cell_length_c 14.816205
_cell_angle_alpha 90.000000
_cell_angle_beta 56.336928
_cell_angle_gamma 90.000000
_cell_volume 997.414853
_symmetry_space_group_name_H-M "P 21/C"
_symmetry_group_IT_number 14
_symmetry_cell_setting 'monoclinic'
loop_
_space_group_symop_operation_xyz
x,y,z
-x,1/2+y,1/2-z
-x,-y,-z
x,1/2-y,1/2+z
loop_
_atom_site_type_symbol
_atom_site_label
_atom_site_fract_x
_atom_site_fract_y
_atom_site_fract_z
Si Si1 0.740605 0.690624 0.208779
Si Si2 0.538544 0.776256 0.098446
Si Si3 0.538339 0.199282 0.578193
Si Si4 0.903966 0.457632 0.935336
Si Si5 0.833338 0.429065 0.282633
Si Si6 0.194438 0.539604 0.496312
O O1 0.639443 0.685231 0.142878
O O2 0.632249 0.809085 0.295617
O O3 0.976447 0.681594 0.126883
O O4 0.678991 0.427018 0.018770
O O5 0.307234 0.800879 0.188685
O O6 0.655343 0.916999 0.065948
O O7 0.551007 0.732411 0.991445
O O8 0.285912 0.444378 0.724036
O O9 0.687326 0.321672 0.562026
O O10 0.969502 0.562607 0.837606
O O11 0.000000 0.500000 0.000000
O O12 0.854907 0.455541 0.381662
O O13 0.000000 0.500000 0.500000
#
# Coordination Sequence:
#
# PCOD9245455 Si02
#       6
#     4   4   4   4   4   4
#     4  10  21  38  60  88 122 163 208 250 319 379
#     4  11  19  39  62  87 121 167 208 263 310 380
#     4  11  21  38  63  86 121 169 206 258 316 371
#     4  10  21  40  60  91 128 162 204 260 325 377
#     4   9  20  40  57  86 129 155 208 263 305 373
#     4  11  20  36  62  89 117 161 214 261 304 371
#
# _framework density 24.062207000000001
#
# number of rings (size 3 to 8) (size 9 to 14) (size 15 to 20)
#    1.000    0.667    3.333    3.000    0.000    1.333 
#    0.000    9.167    0.000    0.000    0.000    0.000 
#    0.000    0.000    0.000    0.000    0.000    0.000 
#
# Total GULP energy -134038.500335 kJ/mol
# GULP energy per Si atom -5584.937514 kJ/mol
# Density = 2.400744 g / cm^3
# Si number density = 24.062207 Si / 1000 Ang^3
#
#
#
# Elastic Constant Matrix: (Units=GPa)
#
#
# Indices 1 2 3 4 5 6 
#
# 1 89.5816 34.4739 11.1153 0.0000 12.1490 0.0000
# 2 34.4739 45.6529 26.8973 0.0000 -4.9159 0.0000
# 3 11.1153 26.8973 89.7613 0.0000 -10.2377 0.0000
# 4 0.0000 0.0000 0.0000 21.3793 0.0000 -7.3791
# 5 12.1490 -4.9159 -10.2377 0.0000 43.5373 0.0000
# 6 0.0000 0.0000 0.0000 -7.3791 0.0000 47.5637
#
#
#
# Elastic Compliance Matrix: (Units=1/GPa)
#
#
# Indices 1 2 3 4 5 6 
#
# 1 0.017507 -0.014807 0.001563 0.000000 -0.006190 0.000000
# 2 -0.014807 0.039182 -0.009178 0.000000 0.006398 0.000000
# 3 0.001563 -0.009178 0.013902 0.000000 0.001797 0.000000
# 4 0.000000 0.000000 0.000000 0.049421 0.000000 0.007667
# 5 -0.006190 0.006398 0.001797 0.000000 0.025841 0.000000
# 6 0.000000 0.000000 0.000000 0.007667 0.000000 0.022214
#
#
# Mechanical properties :
#
#
# Convention : Reuss Voigt Hill
#
# Bulk Modulus (GPa) = 38.83910 41.10766 39.97338
# Shear Modulus (GPa) = 22.57410 32.66334 27.61872
#
# Velocity S-wave (km/s) = 3.06626 3.68836 3.39160
# Velocity P-wave (km/s) = 5.35836 5.93799 5.65561
#
# Compressibility (1/GPa) = 0.02574725
#
# Stress axis : x y z
#
# Youngs Moduli (GPa) = 57.12049 25.52185 71.93147
#
# Poissons Ratio (x) = 0.37791 -0.11245
# Poissons Ratio (y) = 0.84581 0.66017
# Poissons Ratio (z) = -0.08929 0.23423
#
# Static dielectric constant tensor:
#      x y z
#    x 1.934570 0.000000 -0.073810 
#    y 0.000000 1.981610 0.000000 
#    z -0.073810 0.000000 1.943380 
# 
# From -- ./inp_files/40607.got.cif
#   From: 2010.05.17/outbox.cif.g08.bks.cpg/sg14_21_cif.got.tgz:40607.got - 2010.06.03 17:49:19.
