data_PCOD9245470
_publ_section_title
;
Structure prediction by ZEFSAII (Michael W. Deem and Ramdas Pophale) SiO2 
 PCOD9245470
Probable space group: P 21/C
;
_chemical_formula_sum "Si O2"
_cell_formula_units_Z 28
_cell_length_a 8.342941
_cell_length_b 7.390270
_cell_length_c 26.936527
_cell_angle_alpha 90.000000
_cell_angle_beta 138.478897
_cell_angle_gamma 90.000000
_cell_volume 1100.946924
_symmetry_space_group_name_H-M "P 21/C"
_symmetry_group_IT_number 14
_symmetry_cell_setting 'monoclinic'
loop_
_space_group_symop_operation_xyz
x,y,z
-x,1/2+y,1/2-z
-x,-y,-z
x,1/2-y,1/2+z
loop_
_atom_site_type_symbol
_atom_site_label
_atom_site_fract_x
_atom_site_fract_y
_atom_site_fract_z
Si Si1 0.522326 0.743094 0.455412
Si Si2 0.778906 0.844070 0.297020
Si Si3 0.825116 0.410826 0.042044
Si Si4 0.713864 0.303704 0.200897
Si Si5 0.779928 0.718922 0.190949
Si Si6 0.673558 0.547597 0.339528
Si Si7 0.717304 0.104146 0.956095
O O1 0.366203 0.802182 0.467044
O O2 0.337653 0.730588 0.366672
O O3 0.676774 0.559957 0.485481
O O4 0.699912 0.913883 0.490371
O O5 0.840841 0.837372 0.253627
O O6 0.824127 0.646583 0.331867
O O7 0.949113 0.964324 0.371255
O O8 0.501605 0.905973 0.228475
O O9 0.888192 0.264954 0.014628
O O10 0.715023 0.519404 0.195140
O O11 0.497590 0.211234 0.180614
O O12 0.971345 0.235892 0.281165
O O13 0.547489 0.802026 0.110949
O O14 0.778559 0.461526 0.414341
#
# Coordination Sequence:
#
# PCOD9245470 Si02
#       7
#     4   4   4   4   4   4   4
#     4  10  21  38  60  99 129 160 210 273 315 386
#     4  11  23  43  61  96 120 177 207 273 309 390
#     4  11  22  39  64  91 136 164 212 260 336 369
#     4  11  20  38  63  95 121 171 206 274 309 386
#     4  11  21  37  67  91 128 161 225 254 329 367
#     4  10  24  42  65  87 133 161 227 255 325 369
#     4  10  22  41  62  93 128 171 206 271 312 389
#
# _framework density 25.432652000000001
#
# number of rings (size 3 to 8) (size 9 to 14) (size 15 to 20)
#    0.000    1.429    2.857    3.857    0.000    0.571 
#    5.143    2.857    0.000    0.000    0.000    0.000 
#    0.000    0.000    0.000    0.000    0.000    0.000 
#
# Total GULP energy -156592.468330 kJ/mol
# GULP energy per Si atom -5592.588155 kJ/mol
# Density = 2.537477 g / cm^3
# Si number density = 25.432652 Si / 1000 Ang^3
#
#
#
# Elastic Constant Matrix: (Units=GPa)
#
#
# Indices 1 2 3 4 5 6 
#
# 1 37.0070 4.5580 11.7348 0.0000 -10.3874 0.0000
# 2 4.5580 117.1880 14.6743 0.0000 -18.0308 0.0000
# 3 11.7348 14.6743 97.0346 0.0000 -11.9443 0.0000
# 4 0.0000 0.0000 0.0000 38.5721 0.0000 -4.4396
# 5 -10.3874 -18.0308 -11.9443 0.0000 25.8626 0.0000
# 6 0.0000 0.0000 0.0000 -4.4396 0.0000 39.2191
#
#
#
# Elastic Compliance Matrix: (Units=1/GPa)
#
#
# Indices 1 2 3 4 5 6 
#
# 1 0.031043 0.000943 -0.002419 0.000000 0.012009 0.000000
# 2 0.000943 0.009628 -0.000739 0.000000 0.006750 0.000000
# 3 -0.002419 -0.000739 0.011161 0.000000 0.003668 0.000000
# 4 0.000000 0.000000 0.000000 0.026268 0.000000 0.002974
# 5 0.012009 0.006750 0.003668 0.000000 0.049889 0.000000
# 6 0.000000 0.000000 0.000000 0.002974 0.000000 0.025834
#
#
# Mechanical properties :
#
#
# Convention : Reuss Voigt Hill
#
# Bulk Modulus (GPa) = 21.09571 34.79598 27.94585
# Shear Modulus (GPa) = 28.72675 35.41491 32.07083
#
# Velocity S-wave (km/s) = 3.36448 3.73567 3.55492
# Velocity P-wave (km/s) = 4.83795 5.68492 5.27845
#
# Compressibility (1/GPa) = 0.04740300
#
# Stress axis : x y z
#
# Youngs Moduli (GPa) = 32.21296 103.86719 89.59450
#
# Poissons Ratio (x) = -0.09796 0.21670
# Poissons Ratio (y) = -0.03038 0.06623
# Poissons Ratio (z) = 0.07791 0.07678
#
# Static dielectric constant tensor:
#      x y z
#    x 2.126990 0.000000 0.062690 
#    y 0.000000 1.993720 0.000000 
#    z 0.062690 0.000000 2.012180 
# 
# From -- ./inp_files/76508.got.cif
#   From: 2010.05.17/outbox.cif.g08.bks.cpg/sg14_39_cif.got.tgz:76508.got - 2010.06.03 17:49:19.
