data_PCOD9245520
_publ_section_title
;
Structure prediction by ZEFSAII (Michael W. Deem and Ramdas Pophale) SiO2 
 PCOD9245520
Probable space group: P 21/C
;
_chemical_formula_sum "Si O2"
_cell_formula_units_Z 32
_cell_length_a 16.146275
_cell_length_b 19.426298
_cell_length_c 12.903149
_cell_angle_alpha 90.000000
_cell_angle_beta 158.114047
_cell_angle_gamma 90.000000
_cell_volume 1508.647416
_symmetry_space_group_name_H-M "P 21/C"
_symmetry_group_IT_number 14
_symmetry_cell_setting 'monoclinic'
loop_
_space_group_symop_operation_xyz
x,y,z
-x,1/2+y,1/2-z
-x,-y,-z
x,1/2-y,1/2+z
loop_
_atom_site_type_symbol
_atom_site_label
_atom_site_fract_x
_atom_site_fract_y
_atom_site_fract_z
Si Si1 0.894939 0.816516 0.967765
Si Si2 0.696021 0.809118 0.310406
Si Si3 0.887569 0.427806 0.405041
Si Si4 0.162977 0.508283 0.330037
Si Si5 0.834859 0.140479 0.061230
Si Si6 0.430245 0.394901 0.752645
Si Si7 0.716014 0.956432 0.251106
Si Si8 0.620723 0.265282 0.893996
O O1 0.761347 0.746279 0.798576
O O2 0.750560 0.858776 0.883182
O O3 0.942147 0.867179 0.928921
O O4 0.135270 0.791598 0.288063
O O5 0.645484 0.880337 0.197985
O O6 0.508576 0.775549 0.164687
O O7 0.919823 0.827281 0.636179
O O8 0.835352 0.410847 0.464071
O O9 0.000000 0.500000 0.500000
O O10 0.657381 0.414822 0.075792
O O11 0.224073 0.589530 0.410188
O O12 0.317064 0.463995 0.582240
O O13 0.185007 0.467476 0.247807
O O14 0.898845 0.513713 0.043472
O O15 0.669393 0.205996 0.865317
O O16 0.487626 0.337432 0.731127
O O17 0.500000 0.000000 0.000000
#
# Coordination Sequence:
#
# PCOD9245520 Si02
#       8
#     4   4   4   4   4   4   4   4
#     4   9  20  40  59  84 125 159 207 258 313 375
#     4   9  19  39  62  85 120 162 204 264 313 374
#     4  11  24  39  62  94 127 169 214 256 317 384
#     4  10  22  39  60  90 122 160 209 259 315 374
#     4  10  21  38  62  89 123 166 210 257 312 384
#     4  10  22  42  63  89 129 166 205 269 315 373
#     4  10  21  38  62  90 118 158 211 259 318 369
#     4   9  19  39  63  86 120 161 210 256 317 373
#
# _framework density 21.211054000000001
#
# number of rings (size 3 to 8) (size 9 to 14) (size 15 to 20)
#    0.000    2.250    0.000    1.500    0.000    9.000 
#   13.500    0.000    0.000    0.000    0.000    0.000 
#    0.000    0.000    0.000    0.000    0.000    0.000 
#
# Total GULP energy -178190.705551 kJ/mol
# GULP energy per Si atom -5568.459548 kJ/mol
# Density = 2.116278 g / cm^3
# Si number density = 21.211054 Si / 1000 Ang^3
#
#
#
# Elastic Constant Matrix: (Units=GPa)
#
#
# Indices 1 2 3 4 5 6 
#
# 1 46.3658 33.8268 19.3803 0.0000 8.4070 0.0000
# 2 33.8268 136.3268 62.6465 0.0000 14.4737 0.0000
# 3 19.3803 62.6465 81.9345 0.0000 11.4690 0.0000
# 4 0.0000 0.0000 0.0000 42.5100 0.0000 10.3631
# 5 8.4070 14.4737 11.4690 0.0000 26.7667 0.0000
# 6 0.0000 0.0000 0.0000 10.3631 0.0000 38.5002
#
#
#
# Elastic Compliance Matrix: (Units=1/GPa)
#
#
# Indices 1 2 3 4 5 6 
#
# 1 0.027107 -0.005512 -0.001514 0.000000 -0.004885 0.000000
# 2 -0.005512 0.012597 -0.008103 0.000000 -0.001609 0.000000
# 3 -0.001514 -0.008103 0.019232 0.000000 -0.003384 0.000000
# 4 0.000000 0.000000 0.000000 0.025176 0.000000 -0.006777
# 5 -0.004885 -0.001609 -0.003384 0.000000 0.041214 0.000000
# 6 0.000000 0.000000 0.000000 -0.006777 0.000000 0.027798
#
#
# Mechanical properties :
#
#
# Convention : Reuss Voigt Hill
#
# Bulk Modulus (GPa) = 34.86791 55.14824 45.00808
# Shear Modulus (GPa) = 25.91467 31.47363 28.69415
#
# Velocity S-wave (km/s) = 3.49915 3.85623 3.68202
# Velocity P-wave (km/s) = 5.72710 6.77374 6.27229
#
# Compressibility (1/GPa) = 0.02867966
#
# Stress axis : x y z
#
# Youngs Moduli (GPa) = 36.89039 79.38207 51.99693
#
# Poissons Ratio (x) = 0.43755 0.07870
# Poissons Ratio (y) = 0.20334 0.42132
# Poissons Ratio (z) = 0.05584 0.64322
#
# Static dielectric constant tensor:
#      x y z
#    x 1.797220 0.000000 -0.033310 
#    y 0.000000 1.767180 0.000000 
#    z -0.033310 0.000000 1.782240 
# 
# From -- ./inp_files/49292.got.cif
#   From: 2010.05.17/outbox.cif.g08.bks.cpg/sg14_25_cif.got.tgz:49292.got - 2010.06.03 17:49:19.
