data_PCOD9245271
_publ_section_title
;
Structure prediction by ZEFSAII (Michael W. Deem and Ramdas Pophale) SiO2 
 PCOD9245271
Probable space group: P 21/C
;
_chemical_formula_sum "Si O2"
_cell_formula_units_Z 20
_cell_length_a 7.462971
_cell_length_b 21.549651
_cell_length_c 5.526124
_cell_angle_alpha 90.000000
_cell_angle_beta 115.422476
_cell_angle_gamma 90.000000
_cell_volume 802.676712
_symmetry_space_group_name_H-M "P 21/C"
_symmetry_group_IT_number 14
_symmetry_cell_setting 'monoclinic'
loop_
_space_group_symop_operation_xyz
x,y,z
-x,1/2+y,1/2-z
-x,-y,-z
x,1/2-y,1/2+z
loop_
_atom_site_type_symbol
_atom_site_label
_atom_site_fract_x
_atom_site_fract_y
_atom_site_fract_z
Si Si1 0.509479 0.716044 0.347721
Si Si2 0.009474 0.216044 0.847716
Si Si3 0.974322 0.577847 0.728047
Si Si4 0.525675 0.922153 0.771948
Si Si5 0.749999 0.525400 0.999998
O O1 0.454174 0.750186 0.564496
O O2 0.750003 0.713897 0.500002
O O3 0.443801 0.644549 0.296010
O O4 0.954168 0.249813 0.564489
O O5 0.943798 0.144548 0.796011
O O6 0.750000 0.572622 0.499994
O O7 0.918735 0.568121 0.979401
O O8 0.129174 0.523505 0.764029
O O9 0.581257 0.931881 0.520589
O O10 0.370823 0.976494 0.735973
#
# Coordination Sequence:
#
# PCOD9245271 Si02
#       5
#     4   4   4   4   4
#     4   9  19  34  59  87 115 156 199 246 300 355
#     4   9  19  34  59  87 115 156 199 246 300 355
#     4  10  21  37  61  82 121 150 201 244 298 354
#     4  10  21  37  61  82 121 150 201 244 298 354
#     4  10  22  38  56  90 112 160 196 242 300 356
#
# _framework density 24.916633000000001
#
# number of rings (size 3 to 8) (size 9 to 14) (size 15 to 20)
#    0.000    2.400    0.000    1.200   14.000    0.000 
#    0.000    2.000    0.000    0.000    0.000    0.000 
#    0.000    0.000    0.000    0.000    0.000    0.000 
#
# Total GULP energy -111611.896278 kJ/mol
# GULP energy per Si atom -5580.594814 kJ/mol
# Density = 2.485992 g / cm^3
# Si number density = 24.916633 Si / 1000 Ang^3
#
#
#
# Elastic Constant Matrix: (Units=GPa)
#
#
# Indices 1 2 3 4 5 6 
#
# 1 69.6410 2.8284 13.5173 0.0000 12.6537 0.0000
# 2 2.8284 134.7748 79.4684 0.0000 -19.6533 0.0000
# 3 13.5173 79.4684 121.2364 0.0000 -14.9357 0.0000
# 4 0.0000 0.0000 0.0000 26.3129 0.0000 9.1483
# 5 12.6537 -19.6533 -14.9357 0.0000 28.2414 0.0000
# 6 0.0000 0.0000 0.0000 9.1483 0.0000 12.5321
#
#
#
# Elastic Compliance Matrix: (Units=1/GPa)
#
#
# Indices 1 2 3 4 5 6 
#
# 1 0.016567 0.000143 -0.003041 0.000000 -0.008932 0.000000
# 2 0.000143 0.012659 -0.007741 0.000000 0.004652 0.000000
# 3 -0.003041 -0.007741 0.014083 0.000000 0.003424 0.000000
# 4 0.000000 0.000000 0.000000 0.050930 0.000000 -0.037179
# 5 -0.008932 0.004652 0.003424 0.000000 0.044459 0.000000
# 6 0.000000 0.000000 0.000000 -0.037179 0.000000 0.106935
#
#
# Mechanical properties :
#
#
# Convention : Reuss Voigt Hill
#
# Bulk Modulus (GPa) = 45.38991 57.47560 51.43276
# Shear Modulus (GPa) = 18.23116 28.73981 23.48548
#
# Velocity S-wave (km/s) = 2.70790 3.39992 3.07345
# Velocity P-wave (km/s) = 5.29464 6.20724 5.76901
#
# Compressibility (1/GPa) = 0.02203133
#
# Stress axis : x y z
#
# Youngs Moduli (GPa) = 60.36200 78.99220 71.00607
#
# Poissons Ratio (x) = -0.01131 0.21595
# Poissons Ratio (y) = -0.00864 0.54966
# Poissons Ratio (z) = 0.18358 0.61148
#
# Static dielectric constant tensor:
#      x y z
#    x 2.034960 0.000000 -0.112470 
#    y 0.000000 1.888990 0.000000 
#    z -0.112470 0.000000 2.281890 
# 
# From -- ./inp_files/1284.got.cif
#   From: 2010.05.17/outbox.cif.g08.bks.cpg/sg14_1_cif.got.tgz:1284.got - 2010.06.03 17:49:19.
