data_PCOD9245021
_publ_section_title
;
Structure prediction by ZEFSAII (Michael W. Deem and Ramdas Pophale) SiO2 
 PCOD9245021
Probable space group: P 21/C
;
_chemical_formula_sum "Si O2"
_cell_formula_units_Z 32
_cell_length_a 27.098359
_cell_length_b 11.771832
_cell_length_c 27.220494
_cell_angle_alpha 90.000000
_cell_angle_beta 169.592702
_cell_angle_gamma 90.000000
_cell_volume 1568.583397
_symmetry_space_group_name_H-M "P 21/C"
_symmetry_group_IT_number 14
_symmetry_cell_setting 'monoclinic'
loop_
_space_group_symop_operation_xyz
x,y,z
-x,1/2+y,1/2-z
-x,-y,-z
x,1/2-y,1/2+z
loop_
_atom_site_type_symbol
_atom_site_label
_atom_site_fract_x
_atom_site_fract_y
_atom_site_fract_z
Si Si1 0.063145 0.344381 0.384588
Si Si2 0.702716 0.854790 0.227653
Si Si3 0.476354 0.509124 0.311991
Si Si4 0.474446 0.761170 0.102593
Si Si5 0.408860 0.539933 0.682150
Si Si6 0.042358 0.135314 0.674486
Si Si7 0.075145 0.300916 0.797862
Si Si8 0.244851 0.628360 0.208689
O O1 0.236356 0.275980 0.593315
O O2 0.219103 0.464910 0.532249
O O3 0.106676 0.284488 0.374401
O O4 0.752939 0.327782 0.100159
O O5 0.537869 0.787242 0.107809
O O6 0.021847 0.833176 0.531193
O O7 0.715607 0.990416 0.253024
O O8 0.536880 0.832811 0.014831
O O9 0.575511 0.384248 0.422552
O O10 0.525651 0.531794 0.302740
O O11 0.648893 0.590538 0.517072
O O12 0.155019 0.530678 0.003260
O O13 0.207267 0.638015 0.467916
O O14 0.683000 0.604763 0.967928
O O15 0.033968 0.234158 0.706644
O O16 0.902501 0.166263 0.485877
#
# Coordination Sequence:
#
# PCOD9245021 Si02
#       8
#     4   4   4   4   4   4   4   4
#     4  12  24  39  60  87 119 162 207 247 299 365
#     4  10  21  36  57  86 124 157 195 248 305 374
#     4  12  22  35  59  87 126 158 204 241 294 366
#     4  12  23  38  59  90 120 167 200 241 307 371
#     4  12  25  41  57  86 126 161 207 256 290 355
#     4  12  24  37  60  90 121 168 199 241 306 373
#     4  12  24  40  59  87 119 164 206 247 302 366
#     4  10  21  36  56  88 123 158 194 248 307 371
#
# _framework density 20.400573000000001
#
# number of rings (size 3 to 8) (size 9 to 14) (size 15 to 20)
#    0.000    0.500    5.000    4.500    5.250    0.000 
#    0.000    0.000    0.000    0.000    0.000   17.500 
#    0.000    0.000    0.000    0.000    0.000    0.000 
#
# Total GULP energy -178354.658094 kJ/mol
# GULP energy per Si atom -5573.583065 kJ/mol
# Density = 2.035414 g / cm^3
# Si number density = 20.400573 Si / 1000 Ang^3
#
#
#
# Elastic Constant Matrix: (Units=GPa)
#
#
# Indices 1 2 3 4 5 6 
#
# 1 124.8264 23.7962 15.0475 0.0000 -8.0352 0.0000
# 2 23.7962 -27.8651 -5.8939 0.0000 -41.5732 0.0000
# 3 15.0475 -5.8939 119.8481 0.0000 -22.7040 0.0000
# 4 0.0000 0.0000 0.0000 35.9443 0.0000 6.2003
# 5 -8.0352 -41.5732 -22.7040 0.0000 20.3129 0.0000
# 6 0.0000 0.0000 0.0000 6.2003 0.0000 25.1952
#
#
#
# Elastic Compliance Matrix: (Units=1/GPa)
#
#
# Indices 1 2 3 4 5 6 
#
# 1 0.008192 0.000618 -0.000183 0.000000 0.004301 0.000000
# 2 0.000618 -0.006997 -0.003918 0.000000 -0.018455 0.000000
# 3 -0.000183 -0.003918 0.008426 0.000000 0.001326 0.000000
# 4 0.000000 0.000000 0.000000 0.029054 0.000000 -0.007150
# 5 0.004301 -0.018455 0.001326 0.000000 0.014643 0.000000
# 6 0.000000 0.000000 0.000000 -0.007150 0.000000 0.041450
#
#
# Mechanical properties :
#
#
# Convention : Reuss Voigt Hill
#
# Bulk Modulus (GPa) = 376.68844 31.41212 204.05028
# Shear Modulus (GPa) = 48.72400 28.54778 38.63589
#
# Velocity S-wave (km/s) = 4.89239 3.74486 4.35657
# Velocity P-wave (km/s) = 14.72959 5.84207 11.20470
#
# Compressibility (1/GPa) = 0.00265471
#
# Stress axis : x y z
#
# Youngs Moduli (GPa) = 122.06682 -142.91756 118.68676
#
# Poissons Ratio (x) = 0.08835 0.02177
# Poissons Ratio (y) = -0.07546 0.46499
# Poissons Ratio (z) = 0.02239 -0.55992
#
# Static dielectric constant tensor:
#      x y z
#    x 1.715530 0.000000 -0.003070 
#    y 0.000000 1.744790 0.000000 
#    z -0.003070 0.000000 1.702560 
# 
# From -- ./inp_files/78343.got.cif
#   From: 2010.05.17/outbox.cif.g08.bks.cpg/sg14_40_cif.got.tgz:78343.got - 2010.06.03 17:49:19.
