data_PCOD9245738
_publ_section_title
;
Structure prediction by ZEFSAII (Michael W. Deem and Ramdas Pophale) SiO2 
 PCOD9245738
Probable space group: P 21/C
;
_chemical_formula_sum "Si O2"
_cell_formula_units_Z 32
_cell_length_a 12.123730
_cell_length_b 17.170737
_cell_length_c 15.816955
_cell_angle_alpha 90.000000
_cell_angle_beta 29.551135
_cell_angle_gamma 90.000000
_cell_volume 1623.944778
_symmetry_space_group_name_H-M "P 21/C"
_symmetry_group_IT_number 14
_symmetry_cell_setting 'monoclinic'
loop_
_space_group_symop_operation_xyz
x,y,z
-x,1/2+y,1/2-z
-x,-y,-z
x,1/2-y,1/2+z
loop_
_atom_site_type_symbol
_atom_site_label
_atom_site_fract_x
_atom_site_fract_y
_atom_site_fract_z
Si Si1 0.442575 0.816869 0.412997
Si Si2 0.342891 0.995185 0.022627
Si Si3 0.353175 0.098808 0.401790
Si Si4 0.573128 0.431002 0.207268
Si Si5 0.073538 0.136153 0.254005
Si Si6 0.729499 0.154329 0.030110
Si Si7 0.976732 0.905897 0.526469
Si Si8 0.770262 0.805167 0.349160
O O1 0.556485 0.872068 0.266584
O O2 0.409180 0.730331 0.401879
O O3 0.575323 0.815631 0.411015
O O4 0.188181 0.849067 0.587695
O O5 0.139952 0.054264 0.169807
O O6 0.284868 0.907707 0.036762
O O7 0.459258 0.027732 0.861406
O O8 0.500000 0.000000 0.000000
O O9 0.286905 0.139752 0.533158
O O10 0.164528 0.122595 0.458235
O O11 0.346428 0.004122 0.404391
O O12 0.598080 0.121996 0.200482
O O13 0.769357 0.382025 0.123303
O O14 0.203302 0.214455 0.140359
O O15 0.134346 0.121442 0.312340
O O16 0.992872 0.175468 0.855746
O O17 0.000000 0.000000 0.500000
#
# Coordination Sequence:
#
# PCOD9245738 Si02
#       8
#     4   4   4   4   4   4   4   4
#     4  10  22  44  59  87 130 164 205 256 313 383
#     4  11  21  37  65  97 124 155 212 276 309 360
#     4  10  21  39  60  93 122 160 214 250 314 374
#     4   9  21  36  61  91 120 168 203 250 324 364
#     4  10  22  40  61  94 124 158 216 259 318 375
#     4  10  24  42  61  92 125 160 213 262 311 375
#     4   9  17  35  62  88 120 154 197 267 309 359
#     4  11  24  41  64  88 128 175 202 258 318 374
#
# _framework density 19.705105
#
# number of rings (size 3 to 8) (size 9 to 14) (size 15 to 20)
#    0.000    2.000    0.000    3.750    8.750    0.500 
#    2.250    1.250    0.000    0.000    0.000    0.000 
#    0.000    0.000    0.000    0.000    0.000    0.000 
#
# Total GULP energy -178255.340999 kJ/mol
# GULP energy per Si atom -5570.479406 kJ/mol
# Density = 1.966026 g / cm^3
# Si number density = 19.705105 Si / 1000 Ang^3
#
#
#
# Elastic Constant Matrix: (Units=GPa)
#
#
# Indices 1 2 3 4 5 6 
#
# 1 99.4978 33.3321 32.0934 0.0000 -0.1721 0.0000
# 2 33.3321 104.1526 29.1102 0.0000 7.2230 0.0000
# 3 32.0934 29.1102 56.2013 0.0000 1.9781 0.0000
# 4 0.0000 0.0000 0.0000 -8.9953 0.0000 -3.6348
# 5 -0.1721 7.2230 1.9781 0.0000 21.0684 0.0000
# 6 0.0000 0.0000 0.0000 -3.6348 0.0000 21.6788
#
#
#
# Elastic Compliance Matrix: (Units=1/GPa)
#
#
# Indices 1 2 3 4 5 6 
#
# 1 0.012863 -0.002520 -0.006094 0.000000 0.001541 0.000000
# 2 -0.002520 0.011956 -0.004624 0.000000 -0.003685 0.000000
# 3 -0.006094 -0.004624 0.023693 0.000000 -0.000689 0.000000
# 4 0.000000 0.000000 0.000000 -0.104115 0.000000 -0.017457
# 5 0.001541 -0.003685 -0.000689 0.000000 0.048805 0.000000
# 6 0.000000 0.000000 0.000000 -0.017457 0.000000 0.043201
#
#
# Mechanical properties :
#
#
# Convention : Reuss Voigt Hill
#
# Bulk Modulus (GPa) = 45.38265 49.88034 47.63149
# Shear Modulus (GPa) = 71.20095 17.77145 44.48620
#
# Velocity S-wave (km/s) = 6.01762 3.00637 4.75657
# Velocity P-wave (km/s) = 8.44767 6.11714 7.37504
#
# Compressibility (1/GPa) = 0.02203485
#
# Stress axis : x y z
#
# Youngs Moduli (GPa) = 77.74146 83.64186 42.20739
#
# Poissons Ratio (x) = 0.21079 0.25723
# Poissons Ratio (y) = 0.19592 0.19516
# Poissons Ratio (z) = 0.47378 0.38674
#
# Static dielectric constant tensor:
#      x y z
#    x 1.682850 0.000000 0.039330 
#    y 0.000000 1.756800 0.000000 
#    z 0.039330 0.000000 1.929450 
# 
# From -- ./inp_files/45357.got.cif
#   From: 2010.05.17/outbox.cif.g08.bks.cpg/sg14_23_cif.got.tgz:45357.got - 2010.06.03 17:49:19.
