data_PCOD9245702
_publ_section_title
;
Structure prediction by ZEFSAII (Michael W. Deem and Ramdas Pophale) SiO2 
 PCOD9245702
Probable space group: P 21/C
;
_chemical_formula_sum "Si O2"
_cell_formula_units_Z 24
_cell_length_a 8.158858
_cell_length_b 18.611993
_cell_length_c 14.304830
_cell_angle_alpha 90.000000
_cell_angle_beta 145.480801
_cell_angle_gamma 90.000000
_cell_volume 1230.962006
_symmetry_space_group_name_H-M "P 21/C"
_symmetry_group_IT_number 14
_symmetry_cell_setting 'monoclinic'
loop_
_space_group_symop_operation_xyz
x,y,z
-x,1/2+y,1/2-z
-x,-y,-z
x,1/2-y,1/2+z
loop_
_atom_site_type_symbol
_atom_site_label
_atom_site_fract_x
_atom_site_fract_y
_atom_site_fract_z
Si Si1 0.683610 0.343843 0.882379
Si Si2 0.818846 0.757438 0.282305
Si Si3 0.310111 0.848228 0.975174
Si Si4 0.701373 0.041579 0.873365
Si Si5 0.734640 0.063688 0.229128
Si Si6 0.368634 0.997379 0.541408
O O1 0.412015 0.291486 0.770674
O O2 0.714860 0.369550 0.791073
O O3 0.631310 0.416331 0.918254
O O4 0.974867 0.305850 0.055765
O O5 0.043948 0.706113 0.334140
O O6 0.615142 0.807020 0.122358
O O7 0.309153 0.908352 0.895562
O O8 0.261645 0.884126 0.054312
O O9 0.547181 0.044572 0.700321
O O10 0.499952 0.992934 0.845061
O O11 0.000000 0.000000 0.000000
O O12 0.044198 0.026395 0.385605
O O13 0.500000 0.000000 0.500000
#
# Coordination Sequence:
#
# PCOD9245702 Si02
#       6
#     4   4   4   4   4   4
#     4  10  21  39  58  84 116 154 194 234 293 344
#     4  10  22  39  58  78 120 160 192 237 278 355
#     4  11  22  39  59  87 117 154 197 236 294 348
#     4  11  22  38  62  91 119 150 194 250 297 345
#     4  11  22  38  62  87 117 151 195 248 295 346
#     4  11  22  39  63  89 118 153 195 249 299 344
#
# _framework density 19.496946000000001
#
# number of rings (size 3 to 8) (size 9 to 14) (size 15 to 20)
#    0.000    1.333    0.000    8.500    0.000    2.667 
#    0.000    6.667    0.000    0.000    0.000    0.000 
#    0.000    0.000    0.000    0.000    0.000    0.000 
#
# Total GULP energy -134153.847865 kJ/mol
# GULP energy per Si atom -5589.743661 kJ/mol
# Density = 1.945257 g / cm^3
# Si number density = 19.496946 Si / 1000 Ang^3
#
#
#
# Elastic Constant Matrix: (Units=GPa)
#
#
# Indices 1 2 3 4 5 6 
#
# 1 73.4776 1.8919 49.2943 0.0000 -10.4286 0.0000
# 2 1.8919 31.1848 24.7038 0.0000 -12.3960 0.0000
# 3 49.2943 24.7038 115.6602 0.0000 12.3249 0.0000
# 4 0.0000 0.0000 0.0000 43.3447 0.0000 5.1345
# 5 -10.4286 -12.3960 12.3249 0.0000 40.8196 0.0000
# 6 0.0000 0.0000 0.0000 5.1345 0.0000 21.3510
#
#
#
# Elastic Compliance Matrix: (Units=1/GPa)
#
#
# Indices 1 2 3 4 5 6 
#
# 1 0.028024 0.020266 -0.018279 0.000000 0.018833 0.000000
# 2 0.020266 0.064182 -0.025805 0.000000 0.032460 0.000000
# 3 -0.018279 -0.025805 0.024055 0.000000 -0.019769 0.000000
# 4 0.000000 0.000000 0.000000 0.023747 0.000000 -0.005711
# 5 0.018833 0.032460 -0.019769 0.000000 0.045136 0.000000
# 6 0.000000 0.000000 0.000000 -0.005711 0.000000 0.048210
#
#
# Mechanical properties :
#
#
# Convention : Reuss Voigt Hill
#
# Bulk Modulus (GPa) = 14.57192 41.34473 27.95832
# Shear Modulus (GPa) = 16.45467 30.73189 23.59328
#
# Velocity S-wave (km/s) = 2.90825 3.97450 3.48243
# Velocity P-wave (km/s) = 4.33214 6.50492 5.52636
#
# Compressibility (1/GPa) = 0.06862513
#
# Stress axis : x y z
#
# Youngs Moduli (GPa) = 35.68385 15.58062 41.57144
#
# Poissons Ratio (x) = -0.31576 0.75990
# Poissons Ratio (y) = -0.72318 1.07276
# Poissons Ratio (z) = 0.65228 0.40206
#
# Static dielectric constant tensor:
#      x y z
#    x 1.643750 0.000000 -0.001410 
#    y 0.000000 1.694690 0.000000 
#    z -0.001410 0.000000 1.670150 
# 
# From -- ./inp_files/9329.got.cif
#   From: 2010.05.17/outbox.cif.g08.bks.cpg/sg14_5_cif.got.tgz:9329.got - 2010.06.03 17:49:19.
