data_PCOD9245985
_publ_section_title
;
Structure prediction by ZEFSAII (Michael W. Deem and Ramdas Pophale) SiO2 
 PCOD9245985
Probable space group: P 21/C
;
_chemical_formula_sum "Si O2"
_cell_formula_units_Z 32
_cell_length_a 5.425243
_cell_length_b 15.252048
_cell_length_c 24.009941
_cell_angle_alpha 90.000000
_cell_angle_beta 132.094905
_cell_angle_gamma 90.000000
_cell_volume 1474.222748
_symmetry_space_group_name_H-M "P 21/C"
_symmetry_group_IT_number 14
_symmetry_cell_setting 'monoclinic'
loop_
_space_group_symop_operation_xyz
x,y,z
-x,1/2+y,1/2-z
-x,-y,-z
x,1/2-y,1/2+z
loop_
_atom_site_type_symbol
_atom_site_label
_atom_site_fract_x
_atom_site_fract_y
_atom_site_fract_z
Si Si1 0.416879 0.278820 0.947443
Si Si2 0.806585 0.187881 0.822430
Si Si3 0.870587 0.104308 0.189517
Si Si4 0.951896 0.145709 0.603976
Si Si5 0.513143 0.671737 0.155268
Si Si6 0.692559 0.202721 0.679447
Si Si7 0.430562 0.490520 0.705534
Si Si8 0.020115 0.547430 0.115047
O O1 0.547311 0.264251 0.905172
O O2 0.128471 0.207517 0.908943
O O3 0.238603 0.374442 0.913793
O O4 0.694273 0.289308 0.035228
O O5 0.568304 0.269577 0.802388
O O6 0.878403 0.196582 0.767144
O O7 0.658721 0.092601 0.809007
O O8 0.696403 0.198440 0.156371
O O9 0.138944 0.126880 0.278582
O O10 0.595667 0.039801 0.172958
O O11 0.102172 0.063783 0.175911
O O12 0.879233 0.149900 0.659149
O O13 0.322819 0.169730 0.639638
O O14 0.879211 0.045531 0.576271
O O15 0.257339 0.592951 0.106018
O O16 0.715420 0.472597 0.795322
#
# Coordination Sequence:
#
# PCOD9245985 Si02
#       8
#     4   4   4   4   4   4   4   4
#     4  11  24  42  65  95 139 179 211 270 335 394
#     4  11  24  41  69  97 132 174 226 274 318 394
#     4  11  22  41  64  96 127 169 216 279 324 373
#     4  12  28  40  67  98 138 178 217 264 329 406
#     4  10  21  39  67  93 138 172 216 265 331 382
#     4  12  25  45  65  95 134 176 222 273 323 387
#     4  11  23  37  68 102 123 166 225 273 324 378
#     4  10  22  39  59  99 138 178 210 257 328 407
#
# _framework density 21.706353
#
# number of rings (size 3 to 8) (size 9 to 14) (size 15 to 20)
#    0.000    1.000    3.750    3.375    8.750    0.500 
#    0.000    0.000    0.000    4.500    0.000    0.000 
#    0.000    0.000    0.000    0.000    0.000    0.000 
#
# Total GULP energy -178495.929248 kJ/mol
# GULP energy per Si atom -5577.997789 kJ/mol
# Density = 2.165695 g / cm^3
# Si number density = 21.706353 Si / 1000 Ang^3
#
#
#
# Elastic Constant Matrix: (Units=GPa)
#
#
# Indices 1 2 3 4 5 6 
#
# 1 131.8372 37.6016 20.6572 0.0000 11.5004 0.0000
# 2 37.6016 98.8505 -2.3783 0.0000 9.0507 0.0000
# 3 20.6572 -2.3783 19.2463 0.0000 0.9516 0.0000
# 4 0.0000 0.0000 0.0000 26.1581 0.0000 8.5283
# 5 11.5004 9.0507 0.9516 0.0000 17.2305 0.0000
# 6 0.0000 0.0000 0.0000 8.5283 0.0000 28.9247
#
#
#
# Elastic Compliance Matrix: (Units=1/GPa)
#
#
# Indices 1 2 3 4 5 6 
#
# 1 0.011047 -0.004076 -0.012135 0.000000 -0.004562 0.000000
# 2 -0.004076 0.012181 0.006079 0.000000 -0.004013 0.000000
# 3 -0.012135 0.006079 0.065671 0.000000 0.001280 0.000000
# 4 0.000000 0.000000 0.000000 0.042295 0.000000 -0.012470
# 5 -0.004562 -0.004013 0.001280 0.000000 0.063119 0.000000
# 6 0.000000 0.000000 0.000000 -0.012470 0.000000 0.038249
#
#
# Mechanical properties :
#
#
# Convention : Reuss Voigt Hill
#
# Bulk Modulus (GPa) = 14.57027 40.18833 27.37930
# Shear Modulus (GPa) = 18.13537 27.39955 22.76746
#
# Velocity S-wave (km/s) = 2.89361 3.55672 3.24216
# Velocity P-wave (km/s) = 4.22978 5.95161 5.16298
#
# Compressibility (1/GPa) = 0.06863293
#
# Stress axis : x y z
#
# Youngs Moduli (GPa) = 90.52126 82.09757 15.22753
#
# Poissons Ratio (x) = 0.33467 0.18479
# Poissons Ratio (y) = 0.36901 -0.09257
# Poissons Ratio (z) = 1.09848 -0.49906
#
# Static dielectric constant tensor:
#      x y z
#    x 1.950060 0.000000 0.016180 
#    y 0.000000 1.801370 0.000000 
#    z 0.016180 0.000000 1.792210 
# 
# From -- ./inp_files/63780.got.cif
#   From: 2010.05.17/outbox.cif.g08.bks.cpg/sg14_32_cif.got.tgz:63780.got - 2010.06.03 17:49:19.
