data_PCOD9245873
_publ_section_title
;
Structure prediction by ZEFSAII (Michael W. Deem and Ramdas Pophale) SiO2 
 PCOD9245873
Probable space group: P 21/C
;
_chemical_formula_sum "Si O2"
_cell_formula_units_Z 28
_cell_length_a 11.334742
_cell_length_b 5.457267
_cell_length_c 22.728896
_cell_angle_alpha 90.000000
_cell_angle_beta 93.830407
_cell_angle_gamma 90.000000
_cell_volume 1402.794168
_symmetry_space_group_name_H-M "P 21/C"
_symmetry_group_IT_number 14
_symmetry_cell_setting 'monoclinic'
loop_
_space_group_symop_operation_xyz
x,y,z
-x,1/2+y,1/2-z
-x,-y,-z
x,1/2-y,1/2+z
loop_
_atom_site_type_symbol
_atom_site_label
_atom_site_fract_x
_atom_site_fract_y
_atom_site_fract_z
Si Si1 0.993914 0.748718 0.961549
Si Si2 0.390816 0.914021 0.316764
Si Si3 0.360756 0.302586 0.477645
Si Si4 0.386194 0.360135 0.700512
Si Si5 0.569828 0.244818 0.399360
Si Si6 0.263349 0.352931 0.092479
Si Si7 0.751931 0.203893 0.578601
O O1 0.108089 0.732122 0.923832
O O2 0.868391 0.729691 0.924741
O O3 0.000000 0.500000 0.000000
O O4 0.000000 0.000000 0.000000
O O5 0.480273 0.735047 0.285661
O O6 0.294783 0.796980 0.356024
O O7 0.337440 0.073964 0.262633
O O8 0.480794 0.053170 0.363683
O O9 0.492312 0.296705 0.454911
O O10 0.346710 0.287400 0.547576
O O11 0.302652 0.552623 0.452726
O O12 0.292138 0.056543 0.451300
O O13 0.405846 0.566642 0.651845
O O14 0.299953 0.183287 0.661261
O O15 0.696861 0.130540 0.419614
#
# Coordination Sequence:
#
# PCOD9245873 Si02
#       7
#     4   4   4   4   4   4   4
#     4  12  24  44  68  91 130 174 217 263 320 394
#     4  10  21  39  64  91 124 169 219 254 324 384
#     4  11  22  40  63  98 133 163 209 264 336 388
#     4  11  21  38  63  90 128 168 210 264 317 392
#     4  10  22  37  61  94 130 167 203 269 324 391
#     4  11  25  37  62  97 128 168 215 266 330 388
#     4  11  22  41  68  93 123 176 216 266 314 394
#
# _framework density 19.960163000000001
#
# number of rings (size 3 to 8) (size 9 to 14) (size 15 to 20)
#    0.000    1.143    5.714    0.429    4.000    0.571 
#    0.000    0.000    3.143    0.000    0.000    0.000 
#    0.000    0.000    0.000    0.000    0.000    0.000 
#
# Total GULP energy -156182.743402 kJ/mol
# GULP energy per Si atom -5577.955121 kJ/mol
# Density = 1.991473 g / cm^3
# Si number density = 19.960163 Si / 1000 Ang^3
#
#
#
# Elastic Constant Matrix: (Units=GPa)
#
#
# Indices 1 2 3 4 5 6 
#
# 1 80.7309 21.0080 9.7777 0.0000 16.0400 0.0000
# 2 21.0080 83.2837 19.3978 0.0000 2.1736 0.0000
# 3 9.7777 19.3978 113.5566 0.0000 4.0512 0.0000
# 4 0.0000 0.0000 0.0000 33.9917 0.0000 -0.8150
# 5 16.0400 2.1736 4.0512 0.0000 17.8559 0.0000
# 6 0.0000 0.0000 0.0000 -0.8150 0.0000 24.5645
#
#
#
# Elastic Compliance Matrix: (Units=1/GPa)
#
#
# Indices 1 2 3 4 5 6 
#
# 1 0.016150 -0.003646 -0.000268 0.000000 -0.014003 0.000000
# 2 -0.003646 0.013347 -0.002041 0.000000 0.002114 0.000000
# 3 -0.000268 -0.002041 0.009235 0.000000 -0.001606 0.000000
# 4 0.000000 0.000000 0.000000 0.029442 0.000000 0.000977
# 5 -0.014003 0.002114 -0.001606 0.000000 0.068690 0.000000
# 6 0.000000 0.000000 0.000000 0.000977 0.000000 0.040741
#
#
# Mechanical properties :
#
#
# Convention : Reuss Voigt Hill
#
# Bulk Modulus (GPa) = 37.28346 41.99313 39.63830
# Shear Modulus (GPa) = 25.19419 30.44161 27.81790
#
# Velocity S-wave (km/s) = 3.55663 3.90951 3.73724
# Velocity P-wave (km/s) = 5.96537 6.43919 6.20681
#
# Compressibility (1/GPa) = 0.02682155
#
# Stress axis : x y z
#
# Youngs Moduli (GPa) = 61.91834 74.92245 108.28034
#
# Poissons Ratio (x) = 0.27316 0.02905
# Poissons Ratio (y) = 0.22575 0.22105
# Poissons Ratio (z) = 0.01661 0.15295
#
# Static dielectric constant tensor:
#      x y z
#    x 1.695760 0.000000 -0.001720 
#    y 0.000000 1.885140 0.000000 
#    z -0.001720 0.000000 1.732280 
# 
# From -- ./inp_files/66286.got.cif
#   From: 2010.05.17/outbox.cif.g08.bks.cpg/sg14_34_cif.got.tgz:66286.got - 2010.06.03 17:49:19.
