data_PCOD9245352
_publ_section_title
;
Structure prediction by ZEFSAII (Michael W. Deem and Ramdas Pophale) SiO2 
 PCOD9245352
Probable space group: P 21/C
;
_chemical_formula_sum "Si O2"
_cell_formula_units_Z 28
_cell_length_a 8.518810
_cell_length_b 14.608280
_cell_length_c 13.984787
_cell_angle_alpha 90.000000
_cell_angle_beta 46.044386
_cell_angle_gamma 90.000000
_cell_volume 1252.831335
_symmetry_space_group_name_H-M "P 21/C"
_symmetry_group_IT_number 14
_symmetry_cell_setting 'monoclinic'
loop_
_space_group_symop_operation_xyz
x,y,z
-x,1/2+y,1/2-z
-x,-y,-z
x,1/2-y,1/2+z
loop_
_atom_site_type_symbol
_atom_site_label
_atom_site_fract_x
_atom_site_fract_y
_atom_site_fract_z
Si Si1 0.077841 0.438104 0.278401
Si Si2 0.409640 0.589500 0.480970
Si Si3 0.250951 0.306076 0.545556
Si Si4 0.628985 0.545212 0.660537
Si Si5 0.118894 0.868212 0.674607
Si Si6 0.210708 0.945637 0.447471
Si Si7 0.617703 0.619705 0.014602
O O1 0.199738 0.460537 0.325604
O O2 0.026921 0.531303 0.241935
O O3 0.252548 0.385305 0.140157
O O4 0.843933 0.391830 0.390984
O O5 0.500000 0.500000 0.500000
O O6 0.559519 0.671006 0.456486
O O7 0.417774 0.553419 0.368535
O O8 0.264361 0.387678 0.463157
O O9 0.289684 0.210523 0.475881
O O10 0.031578 0.302781 0.700144
O O11 0.391892 0.583537 0.793740
O O12 0.364289 0.866833 0.606827
O O13 0.132067 0.867496 0.554209
O O14 0.340570 0.023692 0.452227
O O15 0.000000 0.000000 0.500000
#
# Coordination Sequence:
#
# PCOD9245352 Si02
#       7
#     4   4   4   4   4   4   4
#     4  11  20  41  67  91 123 172 222 258 315 392
#     4  10  21  37  65  93 125 163 211 262 314 386
#     4  11  26  41  65  98 134 168 216 273 336 375
#     4  11  21  41  66  98 121 167 225 266 310 395
#     4  11  21  45  65  89 127 176 215 254 325 402
#     4  11  23  40  69  94 126 168 226 263 311 391
#     4  11  25  43  64  92 137 177 203 274 343 377
#
# _framework density 22.349377
#
# number of rings (size 3 to 8) (size 9 to 14) (size 15 to 20)
#    0.000    1.143    5.714    2.143    8.000    0.000 
#    5.143    0.000    0.000    0.000    0.000    0.000 
#    0.000    0.000    0.000    0.000    0.000    0.000 
#
# Total GULP energy -156375.417652 kJ/mol
# GULP energy per Si atom -5584.836345 kJ/mol
# Density = 2.229851 g / cm^3
# Si number density = 22.349377 Si / 1000 Ang^3
#
#
#
# Elastic Constant Matrix: (Units=GPa)
#
#
# Indices 1 2 3 4 5 6 
#
# 1 78.2485 -21.1451 30.7349 0.0000 -17.5217 0.0000
# 2 -21.1451 39.6212 -2.2369 0.0000 4.6741 0.0000
# 3 30.7349 -2.2369 146.7960 0.0000 -22.5241 0.0000
# 4 0.0000 0.0000 0.0000 19.1968 0.0000 -2.1524
# 5 -17.5217 4.6741 -22.5241 0.0000 35.8570 0.0000
# 6 0.0000 0.0000 0.0000 -2.1524 0.0000 6.4097
#
#
#
# Elastic Compliance Matrix: (Units=1/GPa)
#
#
# Indices 1 2 3 4 5 6 
#
# 1 0.017382 0.008451 -0.002630 0.000000 0.005740 0.000000
# 2 0.008451 0.029744 -0.001414 0.000000 -0.000636 0.000000
# 3 -0.002630 -0.001414 0.007937 0.000000 0.003885 0.000000
# 4 0.000000 0.000000 0.000000 0.054130 0.000000 0.018177
# 5 0.005740 -0.000636 0.003885 0.000000 0.033217 0.000000
# 6 0.000000 0.000000 0.000000 0.018177 0.000000 0.162118
#
#
# Mechanical properties :
#
#
# Convention : Reuss Voigt Hill
#
# Bulk Modulus (GPa) = 15.65488 31.04126 23.34807
# Shear Modulus (GPa) = 15.77254 29.44689 22.60972
#
# Velocity S-wave (km/s) = 2.65943 3.63377 3.18409
# Velocity P-wave (km/s) = 4.05585 5.61471 4.89770
#
# Compressibility (1/GPa) = 0.06387786
#
# Stress axis : x y z
#
# Youngs Moduli (GPa) = 57.53185 33.62003 125.98643
#
# Poissons Ratio (x) = -0.28411 0.33130
# Poissons Ratio (y) = -0.48618 0.17810
# Poissons Ratio (z) = 0.15129 0.04753
#
# Static dielectric constant tensor:
#      x y z
#    x 1.831920 0.000000 0.035240 
#    y 0.000000 1.922430 0.000000 
#    z 0.035240 0.000000 1.865990 
# 
# From -- ./inp_files/41433.got.cif
#   From: 2010.05.17/outbox.cif.g08.bks.cpg/sg14_21_cif.got.tgz:41433.got - 2010.06.03 17:49:19.
