data_PCOD9245215
_publ_section_title
;
Structure prediction by ZEFSAII (Michael W. Deem and Ramdas Pophale) SiO2 
 PCOD9245215
Probable space group: P 21/C
;
_chemical_formula_sum "Si O2"
_cell_formula_units_Z 20
_cell_length_a 9.533359
_cell_length_b 6.676739
_cell_length_c 26.604492
_cell_angle_alpha 90.000000
_cell_angle_beta 151.269847
_cell_angle_gamma 90.000000
_cell_volume 814.002857
_symmetry_space_group_name_H-M "P 21/C"
_symmetry_group_IT_number 14
_symmetry_cell_setting 'monoclinic'
loop_
_space_group_symop_operation_xyz
x,y,z
-x,1/2+y,1/2-z
-x,-y,-z
x,1/2-y,1/2+z
loop_
_atom_site_type_symbol
_atom_site_label
_atom_site_fract_x
_atom_site_fract_y
_atom_site_fract_z
Si Si1 0.756012 0.661883 0.231052
Si Si2 0.798095 0.800827 0.849564
Si Si3 0.876292 0.337935 0.842681
Si Si4 0.766034 0.503574 0.124338
Si Si5 0.908562 0.267781 0.960181
O O1 0.832013 0.565783 0.309724
O O2 0.686510 0.553572 0.156728
O O3 0.441859 0.757460 0.147063
O O4 0.030934 0.806564 0.307612
O O5 0.891765 0.579179 0.860656
O O6 0.465865 0.797303 0.763135
O O7 0.966860 0.848702 0.953251
O O8 0.012523 0.240779 0.935506
O O9 0.027857 0.327150 0.836420
O O10 0.500000 0.500000 0.000000
O O11 0.000000 0.500000 0.000000
#
# Coordination Sequence:
#
# PCOD9245215 Si02
#       5
#     4   4   4   4   4
#     4  10  21  37  58  86 120 160 204 242 298 367
#     4   9  18  35  55  81 109 142 190 247 294 346
#     4   9  19  33  55  81 106 142 191 238 292 353
#     4  11  23  40  58  86 124 162 201 249 300 359
#     4   9  17  35  60  80 107 148 191 244 301 347
#
# _framework density 24.569938
#
# number of rings (size 3 to 8) (size 9 to 14) (size 15 to 20)
#    0.000    2.400    0.000    3.600    0.000    6.400 
#    0.000   15.000    0.000    0.000    0.000    0.000 
#    0.000    0.000    0.000    0.000    0.000    0.000 
#
# Total GULP energy -111511.578147 kJ/mol
# GULP energy per Si atom -5575.578907 kJ/mol
# Density = 2.451402 g / cm^3
# Si number density = 24.569938 Si / 1000 Ang^3
#
#
#
# Elastic Constant Matrix: (Units=GPa)
#
#
# Indices 1 2 3 4 5 6 
#
# 1 181.3728 9.4119 55.5725 0.0000 -46.5743 0.0000
# 2 9.4119 55.3358 12.6091 0.0000 -10.3309 0.0000
# 3 55.5725 12.6091 133.9512 0.0000 -41.9563 0.0000
# 4 0.0000 0.0000 0.0000 31.5838 0.0000 -6.2092
# 5 -46.5743 -10.3309 -41.9563 0.0000 63.0957 0.0000
# 6 0.0000 0.0000 0.0000 -6.2092 0.0000 37.0011
#
#
#
# Elastic Compliance Matrix: (Units=1/GPa)
#
#
# Indices 1 2 3 4 5 6 
#
# 1 0.007078 -0.000060 -0.001639 0.000000 0.004125 0.000000
# 2 -0.000060 0.018750 -0.001001 0.000000 0.002360 0.000000
# 3 -0.001639 -0.001001 0.009864 0.000000 0.005185 0.000000
# 4 0.000000 0.000000 0.000000 0.032742 0.000000 0.005494
# 5 0.004125 0.002360 0.005185 0.000000 0.022728 0.000000
# 6 0.000000 0.000000 0.000000 0.005494 0.000000 0.027948
#
#
# Mechanical properties :
#
#
# Convention : Reuss Voigt Hill
#
# Bulk Modulus (GPa) = 33.01156 58.42742 45.71949
# Shear Modulus (GPa) = 37.14492 45.87387 41.50940
#
# Velocity S-wave (km/s) = 3.89241 4.32565 4.11474
# Velocity P-wave (km/s) = 5.80225 6.98427 6.42052
#
# Compressibility (1/GPa) = 0.03029242
#
# Stress axis : x y z
#
# Youngs Moduli (GPa) = 141.28256 53.33224 101.38217
#
# Poissons Ratio (x) = 0.00322 0.16614
# Poissons Ratio (y) = 0.00853 0.10146
# Poissons Ratio (z) = 0.23152 0.05337
#
# Static dielectric constant tensor:
#      x y z
#    x 1.974780 0.000000 -0.069240 
#    y 0.000000 2.216270 0.000000 
#    z -0.069240 0.000000 1.961760 
# 
# From -- ./inp_files/38724.got.cif
#   From: 2010.05.17/outbox.cif.g08.bks.cpg/sg14_20_cif.got.tgz:38724.got - 2010.06.03 17:49:19.
