data_PCOD9245323
_publ_section_title
;
Structure prediction by ZEFSAII (Michael W. Deem and Ramdas Pophale) SiO2 
 PCOD9245323
Probable space group: P 21/C
;
_chemical_formula_sum "Si O2"
_cell_formula_units_Z 28
_cell_length_a 12.624894
_cell_length_b 5.095898
_cell_length_c 18.591589
_cell_angle_alpha 90.000000
_cell_angle_beta 69.419364
_cell_angle_gamma 90.000000
_cell_volume 1119.756495
_symmetry_space_group_name_H-M "P 21/C"
_symmetry_group_IT_number 14
_symmetry_cell_setting 'monoclinic'
loop_
_space_group_symop_operation_xyz
x,y,z
-x,1/2+y,1/2-z
-x,-y,-z
x,1/2-y,1/2+z
loop_
_atom_site_type_symbol
_atom_site_label
_atom_site_fract_x
_atom_site_fract_y
_atom_site_fract_z
Si Si1 0.524608 0.637196 0.632695
Si Si2 0.369431 0.841117 0.457351
Si Si3 0.344813 0.526421 0.252870
Si Si4 0.191725 0.825085 0.615669
Si Si5 0.834653 0.328378 0.597021
Si Si6 0.181517 0.178244 0.216971
Si Si7 0.038967 0.170322 0.395857
O O1 0.533558 0.376417 0.581342
O O2 0.580168 0.553844 0.696229
O O3 0.411408 0.784909 0.683883
O O4 0.595085 0.870313 0.577126
O O5 0.314591 0.845198 0.549128
O O6 0.265091 0.742154 0.433303
O O7 0.233392 0.665905 0.310880
O O8 0.299597 0.265243 0.225612
O O9 0.186011 0.587655 0.672237
O O10 0.093222 0.778267 0.580352
O O11 0.160699 0.091481 0.664188
O O12 0.891412 0.611302 0.576989
O O13 0.929970 0.110279 0.579729
O O14 0.089205 0.178945 0.302409
#
# Coordination Sequence:
#
# PCOD9245323 Si02
#       7
#     4   4   4   4   4   4   4
#     4  11  23  41  68  95 120 155 204 263 316 364
#     4  11  24  41  59  91 130 164 202 247 311 379
#     4  10  22  41  69  96 121 155 207 271 324 352
#     4  12  25  41  60  85 130 174 200 243 306 376
#     4  10  21  37  63  93 119 149 204 269 312 360
#     4  11  23  40  62  90 121 161 210 255 301 367
#     4  11  22  39  64  91 117 158 213 262 306 352
#
# _framework density 25.00544
#
# number of rings (size 3 to 8) (size 9 to 14) (size 15 to 20)
#    0.000    1.143    0.000    8.571    0.000    6.857 
#    0.000    4.286    0.000    0.000    0.000    0.000 
#    0.000    0.000    0.000    0.000    0.000    0.000 
#
# Total GULP energy -156976.332446 kJ/mol
# GULP energy per Si atom -5606.297587 kJ/mol
# Density = 2.494853 g / cm^3
# Si number density = 25.005440 Si / 1000 Ang^3
#
#
#
# Elastic Constant Matrix: (Units=GPa)
#
#
# Indices 1 2 3 4 5 6 
#
# 1 41.6990 12.9520 16.5064 0.0000 -9.7108 0.0000
# 2 12.9520 121.9487 30.1022 0.0000 -10.5597 0.0000
# 3 16.5064 30.1022 89.7211 0.0000 -27.2617 0.0000
# 4 0.0000 0.0000 0.0000 16.6859 0.0000 -1.2039
# 5 -9.7108 -10.5597 -27.2617 0.0000 42.2236 0.0000
# 6 0.0000 0.0000 0.0000 -1.2039 0.0000 42.6099
#
#
#
# Elastic Compliance Matrix: (Units=1/GPa)
#
#
# Indices 1 2 3 4 5 6 
#
# 1 0.026634 -0.001720 -0.003225 0.000000 0.003613 0.000000
# 2 -0.001720 0.009056 -0.002680 0.000000 0.000139 0.000000
# 3 -0.003225 -0.002680 0.015189 0.000000 0.008395 0.000000
# 4 0.000000 0.000000 0.000000 0.060053 0.000000 0.001697
# 5 0.003613 0.000139 0.008395 0.000000 0.029969 0.000000
# 6 0.000000 0.000000 0.000000 0.001697 0.000000 0.023517
#
#
# Mechanical properties :
#
#
# Convention : Reuss Voigt Hill
#
# Bulk Modulus (GPa) = 28.06672 41.38778 34.72725
# Shear Modulus (GPa) = 26.10370 33.22444 29.66407
#
# Velocity S-wave (km/s) = 3.23448 3.64907 3.44801
# Velocity P-wave (km/s) = 5.01974 5.86018 5.45617
#
# Compressibility (1/GPa) = 0.03562939
#
# Stress axis : x y z
#
# Youngs Moduli (GPa) = 37.54657 110.41955 65.83782
#
# Poissons Ratio (x) = 0.18990 0.21234
# Poissons Ratio (y) = 0.06457 0.17643
# Poissons Ratio (z) = 0.12109 0.29590
#
# Static dielectric constant tensor:
#      x y z
#    x 2.024690 0.000000 0.007020 
#    y 0.000000 1.924320 0.000000 
#    z 0.007020 0.000000 2.012510 
# 
# From -- ./inp_files/66444.got.cif
#   From: 2010.05.17/outbox.cif.g08.bks.cpg/sg14_34_cif.got.tgz:66444.got - 2010.06.03 17:49:19.
