data_PCOD9245227
_publ_section_title
;
Structure prediction by ZEFSAII (Michael W. Deem and Ramdas Pophale) SiO2 
 PCOD9245227
Probable space group: P 21/C
;
_chemical_formula_sum "Si O2"
_cell_formula_units_Z 32
_cell_length_a 12.196159
_cell_length_b 9.534052
_cell_length_c 18.108655
_cell_angle_alpha 90.000000
_cell_angle_beta 47.406828
_cell_angle_gamma 90.000000
_cell_volume 1550.134827
_symmetry_space_group_name_H-M "P 21/C"
_symmetry_group_IT_number 14
_symmetry_cell_setting 'monoclinic'
loop_
_space_group_symop_operation_xyz
x,y,z
-x,1/2+y,1/2-z
-x,-y,-z
x,1/2-y,1/2+z
loop_
_atom_site_type_symbol
_atom_site_label
_atom_site_fract_x
_atom_site_fract_y
_atom_site_fract_z
Si Si1 0.322316 0.748668 0.164388
Si Si2 0.357321 0.055796 0.110723
Si Si3 0.253723 0.325599 0.368558
Si Si4 0.522915 0.246007 0.650524
Si Si5 0.755915 0.080591 0.445368
Si Si6 0.996623 0.141891 0.454624
Si Si7 0.782479 0.361455 0.630297
Si Si8 0.683210 0.740335 0.993109
O O1 0.257204 0.661533 0.125592
O O2 0.263905 0.687143 0.267364
O O3 0.502422 0.735210 0.078700
O O4 0.283717 0.914150 0.174759
O O5 0.424261 0.157194 0.142304
O O6 0.269312 0.148515 0.091198
O O7 0.500000 0.000000 0.000000
O O8 0.416759 0.329670 0.257641
O O9 0.178994 0.475460 0.389492
O O10 0.263651 0.287595 0.450274
O O11 0.160689 0.203455 0.371217
O O12 0.618614 0.137344 0.558365
O O13 0.640731 0.340305 0.641018
O O14 0.905823 0.117543 0.421202
O O15 0.739960 0.913889 0.446864
O O16 0.908258 0.259096 0.541764
O O17 0.000000 0.000000 0.500000
#
# Coordination Sequence:
#
# PCOD9245227 Si02
#       8
#     4   4   4   4   4   4   4   4
#     4  11  22  40  65 102 133 165 214 275 328 382
#     4  10  21  37  59 100 139 167 202 273 335 384
#     4  12  25  42  69  99 132 171 222 269 329 391
#     4  11  23  37  70 102 131 167 220 275 327 381
#     4  11  23  42  67  96 134 172 217 271 327 395
#     4  11  26  48  64  91 133 180 219 271 328 390
#     4  11  25  42  70  97 131 172 224 269 324 391
#     4  11  21  38  66  98 138 165 210 269 332 383
#
# _framework density 20.643363999999998
#
# number of rings (size 3 to 8) (size 9 to 14) (size 15 to 20)
#    0.000    1.000    5.000    3.000    5.250    0.000 
#    0.000    2.500    0.000    0.000    0.000    0.000 
#    0.000    0.000    0.000    0.000    0.000    0.000 
#
# Total GULP energy -178983.568647 kJ/mol
# GULP energy per Si atom -5593.236520 kJ/mol
# Density = 2.059638 g / cm^3
# Si number density = 20.643364 Si / 1000 Ang^3
#
#
#
# Elastic Constant Matrix: (Units=GPa)
#
#
# Indices 1 2 3 4 5 6 
#
# 1 86.3055 31.9047 27.1348 0.0000 22.8577 0.0000
# 2 31.9047 142.1137 11.0819 0.0000 21.5957 0.0000
# 3 27.1348 11.0819 27.2042 0.0000 12.7864 0.0000
# 4 0.0000 0.0000 0.0000 22.1426 0.0000 6.0469
# 5 22.8577 21.5957 12.7864 0.0000 25.4507 0.0000
# 6 0.0000 0.0000 0.0000 6.0469 0.0000 29.5568
#
#
#
# Elastic Compliance Matrix: (Units=1/GPa)
#
#
# Indices 1 2 3 4 5 6 
#
# 1 0.018954 -0.001889 -0.014254 0.000000 -0.008259 0.000000
# 2 -0.001889 0.008267 0.001330 0.000000 -0.005986 0.000000
# 3 -0.014254 0.001330 0.058843 0.000000 -0.017889 0.000000
# 4 0.000000 0.000000 0.000000 0.047834 0.000000 -0.009786
# 5 -0.008259 -0.005986 -0.017889 0.000000 0.060776 0.000000
# 6 0.000000 0.000000 0.000000 -0.009786 0.000000 0.035835
#
#
# Mechanical properties :
#
#
# Convention : Reuss Voigt Hill
#
# Bulk Modulus (GPa) = 17.71853 43.98513 30.85183
# Shear Modulus (GPa) = 17.92445 27.79682 22.86063
#
# Velocity S-wave (km/s) = 2.94987 3.67348 3.33138
# Velocity P-wave (km/s) = 4.49490 6.27264 5.45666
#
# Compressibility (1/GPa) = 0.05643808
#
# Stress axis : x y z
#
# Youngs Moduli (GPa) = 52.75964 120.96867 16.99423
#
# Poissons Ratio (x) = 0.22846 0.24224
# Poissons Ratio (y) = 0.09964 -0.02260
# Poissons Ratio (z) = 0.75206 -0.16089
#
# Static dielectric constant tensor:
#      x y z
#    x 1.728580 0.000000 -0.018990 
#    y 0.000000 1.758230 0.000000 
#    z -0.018990 0.000000 1.721970 
# 
# From -- ./inp_files/57252.got.cif
#   From: 2010.05.17/outbox.cif.g08.bks.cpg/sg14_29_cif.got.tgz:57252.got - 2010.06.03 17:49:19.
