data_PCOD9245112
_publ_section_title
;
Structure prediction by ZEFSAII (Michael W. Deem and Ramdas Pophale) SiO2 
 PCOD9245112
Probable space group: P 21/C
;
_chemical_formula_sum "Si O2"
_cell_formula_units_Z 28
_cell_length_a 10.745313
_cell_length_b 19.536572
_cell_length_c 16.348493
_cell_angle_alpha 90.000000
_cell_angle_beta 155.274107
_cell_angle_gamma 90.000000
_cell_volume 1435.521722
_symmetry_space_group_name_H-M "P 21/C"
_symmetry_group_IT_number 14
_symmetry_cell_setting 'monoclinic'
loop_
_space_group_symop_operation_xyz
x,y,z
-x,1/2+y,1/2-z
-x,-y,-z
x,1/2-y,1/2+z
loop_
_atom_site_type_symbol
_atom_site_label
_atom_site_fract_x
_atom_site_fract_y
_atom_site_fract_z
Si Si1 0.155090 0.926769 0.085176
Si Si2 0.764576 0.591873 0.868203
Si Si3 0.893788 0.668698 0.291894
Si Si4 0.794315 0.470058 0.766272
Si Si5 0.592941 0.077263 0.581278
Si Si6 0.787089 0.923323 0.130236
Si Si7 0.561496 0.690370 0.624988
O O1 0.439452 0.933294 0.196870
O O2 0.292661 0.912221 0.257264
O O3 0.957713 0.870798 0.917123
O O4 0.000000 0.000000 0.000000
O O5 0.873832 0.537698 0.865909
O O6 0.736930 0.664618 0.810298
O O7 0.970415 0.586743 0.069460
O O8 0.694840 0.736416 0.183729
O O9 0.212475 0.686550 0.440303
O O10 0.693853 0.620773 0.114884
O O11 0.469179 0.439125 0.588973
O O12 0.815467 0.501402 0.689054
O O13 0.887776 0.096844 0.705121
O O14 0.500000 0.000000 0.500000
O O15 0.644018 0.866098 0.104703
#
# Coordination Sequence:
#
# PCOD9245112 Si02
#       7
#     4   4   4   4   4   4   4
#     4  11  22  39  64  97 130 164 217 268 321 382
#     4   9  19  36  59  91 122 170 207 262 321 372
#     4  11  25  46  66  92 133 171 217 267 323 388
#     4   9  18  33  60  90 127 160 209 266 315 376
#     4  12  24  39  67  99 133 173 211 269 328 375
#     4  10  21  36  61  94 126 166 216 259 322 382
#     4  10  23  45  66  87 129 173 213 263 327 386
#
# _framework density 19.505103999999999
#
# number of rings (size 3 to 8) (size 9 to 14) (size 15 to 20)
#    0.000    1.714    1.429    2.571    8.000    0.000 
#   10.286    1.429    0.000    0.000    0.000    0.000 
#    0.000    0.000    0.000    0.000    0.000    0.000 
#
# Total GULP energy -155935.040214 kJ/mol
# GULP energy per Si atom -5569.108579 kJ/mol
# Density = 1.946071 g / cm^3
# Si number density = 19.505104 Si / 1000 Ang^3
#
#
#
# Elastic Constant Matrix: (Units=GPa)
#
#
# Indices 1 2 3 4 5 6 
#
# 1 54.1279 40.7628 21.6413 0.0000 3.6458 0.0000
# 2 40.7628 120.5872 63.6082 0.0000 -1.9349 0.0000
# 3 21.6413 63.6082 119.9998 0.0000 -7.5050 0.0000
# 4 0.0000 0.0000 0.0000 30.6571 0.0000 2.0313
# 5 3.6458 -1.9349 -7.5050 0.0000 34.7284 0.0000
# 6 0.0000 0.0000 0.0000 2.0313 0.0000 28.5895
#
#
#
# Elastic Compliance Matrix: (Units=1/GPa)
#
#
# Indices 1 2 3 4 5 6 
#
# 1 0.025122 -0.008396 -0.000278 0.000000 -0.003165 0.000000
# 2 -0.008396 0.014334 -0.006061 0.000000 0.000370 0.000000
# 3 -0.000278 -0.006061 0.011735 0.000000 0.002228 0.000000
# 4 0.000000 0.000000 0.000000 0.032773 0.000000 -0.002329
# 5 -0.003165 0.000370 0.002228 0.000000 0.029629 0.000000
# 6 0.000000 0.000000 0.000000 -0.002329 0.000000 0.035143
#
#
# Mechanical properties :
#
#
# Convention : Reuss Voigt Hill
#
# Bulk Modulus (GPa) = 46.03701 60.74886 53.39294
# Shear Modulus (GPa) = 26.96181 30.04183 28.50182
#
# Velocity S-wave (km/s) = 3.72196 3.92880 3.82678
# Velocity P-wave (km/s) = 6.49033 7.19676 6.85265
#
# Compressibility (1/GPa) = 0.02172165
#
# Stress axis : x y z
#
# Youngs Moduli (GPa) = 39.80527 69.76498 85.21311
#
# Poissons Ratio (x) = 0.58578 0.02368
# Poissons Ratio (y) = 0.33422 0.51644
# Poissons Ratio (z) = 0.01106 0.42281
#
# Static dielectric constant tensor:
#      x y z
#    x 1.622650 0.000000 -0.002440 
#    y 0.000000 1.700780 0.000000 
#    z -0.002440 0.000000 1.728200 
# 
# From -- ./inp_files/58172.got.cif
#   From: 2010.05.17/outbox.cif.g08.bks.cpg/sg14_30_cif.got.tgz:58172.got - 2010.06.03 17:49:19.
