data_PCOD9245958
_publ_section_title
;
Structure prediction by ZEFSAII (Michael W. Deem and Ramdas Pophale) SiO2 
 PCOD9245958
Probable space group: P 21/C
;
_chemical_formula_sum "Si O2"
_cell_formula_units_Z 32
_cell_length_a 11.493167
_cell_length_b 8.163863
_cell_length_c 19.229052
_cell_angle_alpha 90.000000
_cell_angle_beta 130.693250
_cell_angle_gamma 90.000000
_cell_volume 1367.991719
_symmetry_space_group_name_H-M "P 21/C"
_symmetry_group_IT_number 14
_symmetry_cell_setting 'monoclinic'
loop_
_space_group_symop_operation_xyz
x,y,z
-x,1/2+y,1/2-z
-x,-y,-z
x,1/2-y,1/2+z
loop_
_atom_site_type_symbol
_atom_site_label
_atom_site_fract_x
_atom_site_fract_y
_atom_site_fract_z
Si Si1 0.688876 0.652850 0.957633
Si Si2 0.197093 0.815862 0.566129
Si Si3 0.199352 0.513656 0.210536
Si Si4 0.078658 0.148362 0.332353
Si Si5 0.567517 0.175245 0.093977
Si Si6 0.691943 0.099687 0.004926
Si Si7 0.151131 0.206235 0.104784
Si Si8 0.960914 0.496264 0.325605
O O1 0.750125 0.484689 0.949339
O O2 0.506821 0.672001 0.894790
O O3 0.755171 0.789858 0.930055
O O4 0.768740 0.666072 0.063647
O O5 0.210965 0.854452 0.652761
O O6 0.299346 0.680096 0.567469
O O7 0.018835 0.774647 0.480673
O O8 0.308448 0.573049 0.314437
O O9 0.228668 0.338259 0.186770
O O10 0.027620 0.509190 0.174336
O O11 0.977007 0.311292 0.305518
O O12 0.104012 0.104885 0.262620
O O13 0.632692 0.218522 0.043748
O O14 0.422663 0.052146 0.033061
O O15 0.864568 0.052364 0.092589
O O16 0.127764 0.037899 0.137598
#
# Coordination Sequence:
#
# PCOD9245958 Si02
#       8
#     4   4   4   4   4   4   4   4
#     4  11  22  40  65  91 127 163 204 252 316 363
#     4  10  21  39  66  93 120 162 208 264 303 355
#     4  11  21  40  65  90 129 163 205 252 311 372
#     4  12  22  39  62  97 121 159 209 260 298 362
#     4  11  24  40  60  88 128 173 201 245 317 378
#     4  10  23  41  60  88 125 169 200 246 319 370
#     4  10  21  41  64  95 120 160 207 262 309 356
#     4  11  24  37  66  95 122 155 210 262 302 358
#
# _framework density 23.391953000000001
#
# number of rings (size 3 to 8) (size 9 to 14) (size 15 to 20)
#    0.000    1.250    5.000    1.500    1.750    4.000 
#    0.000    1.250    0.000    0.000    0.000    0.000 
#    0.000    0.000    0.000    0.000    0.000    0.000 
#
# Total GULP energy -178958.290797 kJ/mol
# GULP energy per Si atom -5592.446587 kJ/mol
# Density = 2.333871 g / cm^3
# Si number density = 23.391953 Si / 1000 Ang^3
#
#
#
# Elastic Constant Matrix: (Units=GPa)
#
#
# Indices 1 2 3 4 5 6 
#
# 1 85.4581 -5.3806 0.5951 0.0000 -14.2003 0.0000
# 2 -5.3806 45.7808 -12.3884 0.0000 -7.7626 0.0000
# 3 0.5951 -12.3884 49.5457 0.0000 -10.0244 0.0000
# 4 0.0000 0.0000 0.0000 9.1520 0.0000 -7.1769
# 5 -14.2003 -7.7626 -10.0244 0.0000 32.1064 0.0000
# 6 0.0000 0.0000 0.0000 -7.1769 0.0000 33.4601
#
#
#
# Elastic Compliance Matrix: (Units=1/GPa)
#
#
# Indices 1 2 3 4 5 6 
#
# 1 0.013108 0.003359 0.002156 0.000000 0.007283 0.000000
# 2 0.003359 0.026386 0.008698 0.000000 0.010581 0.000000
# 3 0.002156 0.008698 0.024498 0.000000 0.010705 0.000000
# 4 0.000000 0.000000 0.000000 0.131360 0.000000 0.028175
# 5 0.007283 0.010581 0.010705 0.000000 0.040268 0.000000
# 6 0.000000 0.000000 0.000000 0.028175 0.000000 0.035930
#
#
# Mechanical properties :
#
#
# Convention : Reuss Voigt Hill
#
# Bulk Modulus (GPa) = 10.82042 16.27075 13.54559
# Shear Modulus (GPa) = 18.25282 28.14096 23.19689
#
# Velocity S-wave (km/s) = 2.79642 3.47222 3.15248
# Velocity P-wave (km/s) = 3.88103 4.80061 4.36510
#
# Compressibility (1/GPa) = 0.09241784
#
# Stress axis : x y z
#
# Youngs Moduli (GPa) = 76.28775 37.89926 40.81907
#
# Poissons Ratio (x) = -0.12730 -0.08800
# Poissons Ratio (y) = -0.25624 -0.35504
# Poissons Ratio (z) = -0.16447 -0.32965
#
# Static dielectric constant tensor:
#      x y z
#    x 1.864410 0.000000 -0.020080 
#    y 0.000000 1.983190 0.000000 
#    z -0.020080 0.000000 1.836460 
# 
# From -- ./inp_files/67063.got.cif
#   From: 2010.05.17/outbox.cif.g08.bks.cpg/sg14_34_cif.got.tgz:67063.got - 2010.06.03 17:49:19.
