data_PCOD9245496
_publ_section_title
;
Structure prediction by ZEFSAII (Michael W. Deem and Ramdas Pophale) SiO2 
 PCOD9245496
Probable space group: P 21/C
;
_chemical_formula_sum "Si O2"
_cell_formula_units_Z 32
_cell_length_a 8.942395
_cell_length_b 29.816993
_cell_length_c 12.684480
_cell_angle_alpha 90.000000
_cell_angle_beta 29.716892
_cell_angle_gamma 90.000000
_cell_volume 1676.571934
_symmetry_space_group_name_H-M "P 21/C"
_symmetry_group_IT_number 14
_symmetry_cell_setting 'monoclinic'
loop_
_space_group_symop_operation_xyz
x,y,z
-x,1/2+y,1/2-z
-x,-y,-z
x,1/2-y,1/2+z
loop_
_atom_site_type_symbol
_atom_site_label
_atom_site_fract_x
_atom_site_fract_y
_atom_site_fract_z
Si Si1 0.214520 0.042824 0.866928
Si Si2 0.943974 0.319516 0.763461
Si Si3 0.025792 0.577377 0.274033
Si Si4 0.889367 0.494731 0.946861
Si Si5 0.358954 0.245426 0.883791
Si Si6 0.262684 0.423258 0.109335
Si Si7 0.246835 0.320431 0.114114
Si Si8 0.991864 0.251657 0.418527
O O1 0.553506 0.025142 0.658064
O O2 0.147600 0.068310 0.798855
O O3 0.164496 0.070745 0.003436
O O4 0.000000 0.000000 0.000000
O O5 0.004398 0.371803 0.746785
O O6 0.596314 0.316951 0.938198
O O7 0.974784 0.288506 0.846648
O O8 0.185862 0.298339 0.533278
O O9 0.947541 0.541275 0.230943
O O10 0.374022 0.570459 0.100004
O O11 0.866623 0.541142 0.894912
O O12 0.000000 0.500000 0.000000
O O13 0.228211 0.287538 0.026584
O O14 0.719538 0.246619 0.667947
O O15 0.294780 0.251095 0.800221
O O16 0.191784 0.372179 0.123422
O O17 0.022042 0.298712 0.338040
#
# Coordination Sequence:
#
# PCOD9245496 Si02
#       8
#     4   4   4   4   4   4   4   4
#     4  11  19  38  65  85 113 161 205 239 287 353
#     4  10  22  37  61  90 117 154 206 247 289 358
#     4  10  21  39  62  90 117 158 207 242 290 361
#     4  11  23  39  60  90 129 152 188 255 306 350
#     4  11  22  38  60  84 120 157 195 244 304 347
#     4  10  21  38  61  90 119 156 205 245 289 357
#     4  10  22  37  59  91 117 155 206 243 293 359
#     4  11  22  39  60  86 121 158 194 248 300 352
#
# _framework density 19.086566000000001
#
# number of rings (size 3 to 8) (size 9 to 14) (size 15 to 20)
#    0.000    1.500    5.000    0.750    1.750    2.500 
#    0.000    1.250    0.000    0.000    0.000    0.000 
#    0.000    0.000    0.000    0.000    0.000    0.000 
#
# Total GULP energy -178454.707055 kJ/mol
# GULP energy per Si atom -5576.709595 kJ/mol
# Density = 1.904312 g / cm^3
# Si number density = 19.086566 Si / 1000 Ang^3
#
#
#
# Elastic Constant Matrix: (Units=GPa)
#
#
# Indices 1 2 3 4 5 6 
#
# 1 80.9039 52.2499 1.1235 0.0000 24.6796 0.0000
# 2 52.2499 149.1810 21.5523 0.0000 19.1691 0.0000
# 3 1.1235 21.5523 69.2441 0.0000 14.5220 0.0000
# 4 0.0000 0.0000 0.0000 17.6848 0.0000 -4.2963
# 5 24.6796 19.1691 14.5220 0.0000 26.0426 0.0000
# 6 0.0000 0.0000 0.0000 -4.2963 0.0000 17.8944
#
#
#
# Elastic Compliance Matrix: (Units=1/GPa)
#
#
# Indices 1 2 3 4 5 6 
#
# 1 0.022227 -0.006065 0.005672 0.000000 -0.019762 0.000000
# 2 -0.006065 0.009166 -0.002882 0.000000 0.000608 0.000000
# 3 0.005672 -0.002882 0.018039 0.000000 -0.013312 0.000000
# 4 0.000000 0.000000 0.000000 0.060048 0.000000 0.014417
# 5 -0.019762 0.000608 -0.013312 0.000000 0.064102 0.000000
# 6 0.000000 0.000000 0.000000 0.014417 0.000000 0.059345
#
#
# Mechanical properties :
#
#
# Convention : Reuss Voigt Hill
#
# Bulk Modulus (GPa) = 23.32059 49.90892 36.61476
# Shear Modulus (GPa) = 19.70289 27.28458 23.49374
#
# Velocity S-wave (km/s) = 3.21641 3.78500 3.51223
# Velocity P-wave (km/s) = 5.10280 6.73105 5.97268
#
# Compressibility (1/GPa) = 0.04288057
#
# Stress axis : x y z
#
# Youngs Moduli (GPa) = 44.99078 109.10242 55.43693
#
# Poissons Ratio (x) = 0.66169 -0.31442
# Poissons Ratio (y) = 0.27286 0.15977
# Poissons Ratio (z) = -0.25517 0.31443
#
# Static dielectric constant tensor:
#      x y z
#    x 1.656280 0.000000 0.029770 
#    y 0.000000 1.649360 0.000000 
#    z 0.029770 0.000000 1.707120 
# 
# From -- ./inp_files/22374.got.cif
#   From: 2010.05.17/outbox.cif.g08.bks.cpg/sg14_12_cif.got.tgz:22374.got - 2010.06.03 17:49:19.
