data_PCOD9245482
_publ_section_title
;
Structure prediction by ZEFSAII (Michael W. Deem and Ramdas Pophale) SiO2 
 PCOD9245482
Probable space group: P 21/C
;
_chemical_formula_sum "Si O2"
_cell_formula_units_Z 22
_cell_length_a 18.564737
_cell_length_b 5.046018
_cell_length_c 15.243692
_cell_angle_alpha 90.000000
_cell_angle_beta 37.367543
_cell_angle_gamma 90.000000
_cell_volume 866.689040
_symmetry_space_group_name_H-M "P 21/C"
_symmetry_group_IT_number 14
_symmetry_cell_setting 'monoclinic'
loop_
_space_group_symop_operation_xyz
x,y,z
-x,1/2+y,1/2-z
-x,-y,-z
x,1/2-y,1/2+z
loop_
_atom_site_type_symbol
_atom_site_label
_atom_site_fract_x
_atom_site_fract_y
_atom_site_fract_z
Si Si1 0.645239 0.706069 0.806005
Si Si2 0.129064 0.263316 0.038005
Si Si3 0.202180 0.769078 0.055164
Si Si4 0.000000 0.500000 0.000000
Si Si5 0.547426 0.441113 0.749041
Si Si6 0.739323 0.190549 0.800692
O O1 0.745422 0.750030 0.634530
O O2 0.538293 0.573087 0.854379
O O3 0.701092 0.486231 0.815098
O O4 0.641185 0.982821 0.860475
O O5 0.148551 0.481688 0.093555
O O6 0.113679 0.979629 0.097585
O O7 0.030973 0.338100 0.061777
O O8 0.236886 0.837929 0.119911
O O9 0.325871 0.797417 0.883074
O O10 0.136362 0.621665 0.867527
O O11 0.538161 0.696567 0.693303
#
# Coordination Sequence:
#
# PCOD9245482 Si02
#       6
#     4   4   4   2   4   4
#     4  10  21  40  60  86 120 158 190 244 304 346
#     4  10  21  38  61  86 121 156 199 240 291 349
#     4  11  23  40  59  89 122 154 192 254 299 333
#     4  10  22  38  62  88 114 162 198 226 282 358
#     4  11  21  38  63  85 111 154 204 241 292 364
#     4  11  23  39  61  87 125 156 195 241 295 350
#
# _framework density 25.383960999999999
#
# number of rings (size 3 to 8) (size 9 to 14) (size 15 to 20)
#    0.000    1.455    0.000    8.727    0.000    8.000 
#    0.000    5.455    0.000    0.000    0.000    0.000 
#    0.000    0.000    0.000    0.000    0.000    0.000 
#
# Total GULP energy -122656.073435 kJ/mol
# GULP energy per Si atom -5575.276065 kJ/mol
# Density = 2.532619 g / cm^3
# Si number density = 25.383961 Si / 1000 Ang^3
#
#
#
# Elastic Constant Matrix: (Units=GPa)
#
#
# Indices 1 2 3 4 5 6 
#
# 1 98.5630 9.7424 11.3692 0.0000 -4.0206 0.0000
# 2 9.7424 105.2852 4.6325 0.0000 -2.2689 0.0000
# 3 11.3692 4.6325 58.5649 0.0000 -4.8687 0.0000
# 4 0.0000 0.0000 0.0000 -4.2639 0.0000 27.5998
# 5 -4.0206 -2.2689 -4.8687 0.0000 36.8484 0.0000
# 6 0.0000 0.0000 0.0000 27.5998 0.0000 15.8746
#
#
#
# Elastic Compliance Matrix: (Units=1/GPa)
#
#
# Indices 1 2 3 4 5 6 
#
# 1 0.010485 -0.000869 -0.001897 0.000000 0.000840 0.000000
# 2 -0.000869 0.009612 -0.000556 0.000000 0.000424 0.000000
# 3 -0.001897 -0.000556 0.017661 0.000000 0.002092 0.000000
# 4 0.000000 0.000000 0.000000 -0.019139 0.000000 0.033275
# 5 0.000840 0.000424 0.002092 0.000000 0.027532 0.000000
# 6 0.000000 0.000000 0.000000 0.033275 0.000000 0.005141
#
#
# Mechanical properties :
#
#
# Convention : Reuss Voigt Hill
#
# Bulk Modulus (GPa) = 32.13982 34.87792 33.50887
# Shear Modulus (GPa) = 73.19860 25.46976 49.33418
#
# Velocity S-wave (km/s) = 5.37579 3.17105 4.41332
# Velocity P-wave (km/s) = 7.15690 5.21320 6.26093
#
# Compressibility (1/GPa) = 0.03111406
#
# Stress axis : x y z
#
# Youngs Moduli (GPa) = 95.37692 104.03657 56.62104
#
# Poissons Ratio (x) = 0.09037 0.10740
# Poissons Ratio (y) = 0.08285 0.03151
# Poissons Ratio (z) = 0.18092 0.05789
#
# Static dielectric constant tensor:
#      x y z
#    x 1.991800 0.000000 -0.014100 
#    y 0.000000 1.951150 0.000000 
#    z -0.014100 0.000000 2.075530 
# 
# From -- ./inp_files/47792.got.cif
#   From: 2010.05.17/outbox.cif.g08.bks.cpg/sg14_24_cif.got.tgz:47792.got - 2010.06.03 17:49:19.
