data_PCOD9245641
_publ_section_title
;
Structure prediction by ZEFSAII (Michael W. Deem and Ramdas Pophale) SiO2 
 PCOD9245641
Probable space group: P 21/C
;
_chemical_formula_sum "Si O2"
_cell_formula_units_Z 28
_cell_length_a 16.524902
_cell_length_b 8.328290
_cell_length_c 22.533128
_cell_angle_alpha 90.000000
_cell_angle_beta 155.845030
_cell_angle_gamma 90.000000
_cell_volume 1268.990188
_symmetry_space_group_name_H-M "P 21/C"
_symmetry_group_IT_number 14
_symmetry_cell_setting 'monoclinic'
loop_
_space_group_symop_operation_xyz
x,y,z
-x,1/2+y,1/2-z
-x,-y,-z
x,1/2-y,1/2+z
loop_
_atom_site_type_symbol
_atom_site_label
_atom_site_fract_x
_atom_site_fract_y
_atom_site_fract_z
Si Si1 0.482650 0.257788 0.142763
Si Si2 0.610878 0.072161 0.629362
Si Si3 0.120172 0.349152 0.316541
Si Si4 0.860424 0.190560 0.233098
Si Si5 0.060542 0.681809 0.030563
Si Si6 0.992210 0.867232 0.870489
Si Si7 0.813353 0.814042 0.966826
O O1 0.498859 0.423682 0.116846
O O2 0.711149 0.203264 0.296855
O O3 0.315165 0.176024 0.988099
O O4 0.399686 0.246705 0.153934
O O5 0.673804 0.247809 0.645511
O O6 0.500000 0.000000 0.500000
O O7 0.806994 0.970478 0.768996
O O8 0.146690 0.520462 0.303288
O O9 0.075639 0.213875 0.236647
O O10 0.929814 0.327190 0.232269
O O11 0.040131 0.195245 0.399360
O O12 0.903442 0.794117 0.961644
O O13 0.000000 0.500000 0.000000
O O14 0.044177 0.728699 0.951108
O O15 0.161080 0.004463 0.990668
#
# Coordination Sequence:
#
# PCOD9245641 Si02
#       7
#     4   4   4   4   4   4   4
#     4  11  24  41  71  93 138 170 228 269 329 399
#     4  11  22  41  65 102 129 172 219 273 336 398
#     4  11  22  40  68 102 127 174 219 277 334 393
#     4  10  21  38  66  95 140 165 218 276 334 391
#     4  12  26  46  66  97 137 176 222 275 332 398
#     4  11  23  43  70  93 135 173 220 276 343 390
#     4  10  23  44  66  98 133 176 223 276 333 397
#
# _framework density 22.064789000000001
#
# number of rings (size 3 to 8) (size 9 to 14) (size 15 to 20)
#    0.000    1.143    4.286    3.857    2.000    2.857 
#    0.000    0.000    0.000    0.000    0.000    0.000 
#    0.000    0.000    0.000    0.000    0.000    0.000 
#
# Total GULP energy -155980.038480 kJ/mol
# GULP energy per Si atom -5570.715660 kJ/mol
# Density = 2.201457 g / cm^3
# Si number density = 22.064789 Si / 1000 Ang^3
#
#
#
# Elastic Constant Matrix: (Units=GPa)
#
#
# Indices 1 2 3 4 5 6 
#
# 1 102.7718 15.3307 38.2385 0.0000 13.1278 0.0000
# 2 15.3307 64.7858 3.4007 0.0000 0.7224 0.0000
# 3 38.2385 3.4007 45.3163 0.0000 -3.1830 0.0000
# 4 0.0000 0.0000 0.0000 13.9477 0.0000 -10.4964
# 5 13.1278 0.7224 -3.1830 0.0000 33.3830 0.0000
# 6 0.0000 0.0000 0.0000 -10.4964 0.0000 35.0192
#
#
#
# Elastic Compliance Matrix: (Units=1/GPa)
#
#
# Indices 1 2 3 4 5 6 
#
# 1 0.016466 -0.003064 -0.014210 0.000000 -0.007764 0.000000
# 2 -0.003064 0.016073 0.001449 0.000000 0.000995 0.000000
# 3 -0.014210 0.001449 0.034571 0.000000 0.008853 0.000000
# 4 0.000000 0.000000 0.000000 0.092579 0.000000 0.027749
# 5 -0.007764 0.000995 0.008853 0.000000 0.033831 0.000000
# 6 0.000000 0.000000 0.000000 0.027749 0.000000 0.036873
#
#
# Mechanical properties :
#
#
# Convention : Reuss Voigt Hill
#
# Bulk Modulus (GPa) = 28.20010 36.31263 32.25637
# Shear Modulus (GPa) = 18.25733 26.86357 22.56045
#
# Velocity S-wave (km/s) = 2.87965 3.49303 3.20107
# Velocity P-wave (km/s) = 4.88517 5.72376 5.32101
#
# Compressibility (1/GPa) = 0.03546087
#
# Stress axis : x y z
#
# Youngs Moduli (GPa) = 60.73071 62.21463 28.92636
#
# Poissons Ratio (x) = 0.19063 0.41104
# Poissons Ratio (y) = 0.18608 -0.04192
# Poissons Ratio (z) = 0.86297 -0.09016
#
# Static dielectric constant tensor:
#      x y z
#    x 1.967770 0.000000 0.008550 
#    y 0.000000 1.842900 0.000000 
#    z 0.008550 0.000000 1.838620 
# 
# From -- ./inp_files/68363.got.cif
#   From: 2010.05.17/outbox.cif.g08.bks.cpg/sg14_35_cif.got.tgz:68363.got - 2010.06.03 17:49:19.
