data_PCOD9245522
_publ_section_title
;
Structure prediction by ZEFSAII (Michael W. Deem and Ramdas Pophale) SiO2 
 PCOD9245522
Probable space group: P 21/C
;
_chemical_formula_sum "Si O2"
_cell_formula_units_Z 24
_cell_length_a 14.600587
_cell_length_b 8.683567
_cell_length_c 9.431642
_cell_angle_alpha 90.000000
_cell_angle_beta 83.064342
_cell_angle_gamma 90.000000
_cell_volume 1187.042035
_symmetry_space_group_name_H-M "P 21/C"
_symmetry_group_IT_number 14
_symmetry_cell_setting 'monoclinic'
loop_
_space_group_symop_operation_xyz
x,y,z
-x,1/2+y,1/2-z
-x,-y,-z
x,1/2-y,1/2+z
loop_
_atom_site_type_symbol
_atom_site_label
_atom_site_fract_x
_atom_site_fract_y
_atom_site_fract_z
Si Si1 0.483244 0.144457 0.900726
Si Si2 0.795869 0.158098 0.026779
Si Si3 0.035640 0.630707 0.886124
Si Si4 0.926769 0.933953 0.902206
Si Si5 0.582568 0.591150 0.907755
Si Si6 0.680195 0.312523 0.819232
O O1 0.443191 0.111199 0.752610
O O2 0.582048 0.227129 0.853123
O O3 0.415096 0.253334 0.003845
O O4 0.500000 0.000000 0.000000
O O5 0.878762 0.269024 0.067039
O O6 0.712235 0.167316 0.152773
O O7 0.758147 0.220874 0.886557
O O8 0.831241 0.984469 0.993525
O O9 0.063392 0.537235 0.740412
O O10 0.955093 0.757335 0.871413
O O11 0.000000 0.500000 0.000000
O O12 0.000000 0.000000 0.000000
O O13 0.669628 0.479252 0.894123
O O14 0.500000 0.500000 0.000000
#
# Coordination Sequence:
#
# PCOD9245522 Si02
#       6
#     4   4   4   4   4   4
#     4  11  21  39  65  92 124 171 229 267 325 405
#     4  11  22  40  63  96 128 169 212 272 332 378
#     4  11  23  42  68  94 125 172 217 256 317 396
#     4  10  21  39  65  93 126 167 216 253 317 392
#     4  10  21  38  62  90 120 171 215 265 325 400
#     4  11  22  40  63  91 131 164 211 274 335 376
#
# _framework density 20.218323999999999
#
# number of rings (size 3 to 8) (size 9 to 14) (size 15 to 20)
#    0.000    1.333    1.667    7.000    2.333    0.000 
#    0.000    5.000    0.000    0.000    0.000    0.000 
#    0.000    0.000    0.000    0.000    0.000    0.000 
#
# Total GULP energy -133908.744763 kJ/mol
# GULP energy per Si atom -5579.531032 kJ/mol
# Density = 2.017231 g / cm^3
# Si number density = 20.218324 Si / 1000 Ang^3
#
#
#
# Elastic Constant Matrix: (Units=GPa)
#
#
# Indices 1 2 3 4 5 6 
#
# 1 51.6798 19.9302 6.3317 0.0000 -8.2323 0.0000
# 2 19.9302 104.9682 17.1070 0.0000 -22.8808 0.0000
# 3 6.3317 17.1070 102.6930 0.0000 -16.1149 0.0000
# 4 0.0000 0.0000 0.0000 38.8740 0.0000 -5.2418
# 5 -8.2323 -22.8808 -16.1149 0.0000 29.7173 0.0000
# 6 0.0000 0.0000 0.0000 -5.2418 0.0000 35.5213
#
#
#
# Elastic Compliance Matrix: (Units=1/GPa)
#
#
# Indices 1 2 3 4 5 6 
#
# 1 0.021155 -0.003278 -0.000257 0.000000 0.003197 0.000000
# 2 -0.003278 0.011987 -0.000534 0.000000 0.008031 0.000000
# 3 -0.000257 -0.000534 0.010675 0.000000 0.005306 0.000000
# 4 0.000000 0.000000 0.000000 0.026246 0.000000 0.003873
# 5 0.003197 0.008031 0.005306 0.000000 0.043598 0.000000
# 6 0.000000 0.000000 0.000000 0.003873 0.000000 0.028724
#
#
# Mechanical properties :
#
#
# Convention : Reuss Voigt Hill
#
# Bulk Modulus (GPa) = 28.02745 38.45320 33.24032
# Shear Modulus (GPa) = 30.78528 35.22064 33.00296
#
# Velocity S-wave (km/s) = 3.90634 4.17827 4.04459
# Velocity P-wave (km/s) = 5.85136 6.50673 6.18773
#
# Compressibility (1/GPa) = 0.03567931
#
# Stress axis : x y z
#
# Youngs Moduli (GPa) = 47.27061 83.42482 93.67419
#
# Poissons Ratio (x) = 0.27346 0.02403
# Poissons Ratio (y) = 0.15495 0.05006
# Poissons Ratio (z) = 0.01213 0.04458
#
# Static dielectric constant tensor:
#      x y z
#    x 1.705620 0.000000 -0.009810 
#    y 0.000000 1.713840 0.000000 
#    z -0.009810 0.000000 1.704490 
# 
# From -- ./inp_files/15033.got.cif
#   From: 2010.05.17/outbox.cif.g08.bks.cpg/sg14_8_cif.got.tgz:15033.got - 2010.06.03 17:49:19.
