data_PCOD9245970
_publ_section_title
;
Structure prediction by ZEFSAII (Michael W. Deem and Ramdas Pophale) SiO2 
 PCOD9245970
Probable space group: P 21/C
;
_chemical_formula_sum "Si O2"
_cell_formula_units_Z 24
_cell_length_a 26.260852
_cell_length_b 8.222982
_cell_length_c 9.034462
_cell_angle_alpha 90.000000
_cell_angle_beta 148.386277
_cell_angle_gamma 90.000000
_cell_volume 1022.654861
_symmetry_space_group_name_H-M "P 21/C"
_symmetry_group_IT_number 14
_symmetry_cell_setting 'monoclinic'
loop_
_space_group_symop_operation_xyz
x,y,z
-x,1/2+y,1/2-z
-x,-y,-z
x,1/2-y,1/2+z
loop_
_atom_site_type_symbol
_atom_site_label
_atom_site_fract_x
_atom_site_fract_y
_atom_site_fract_z
Si Si1 0.543547 0.131631 0.218500
Si Si2 0.817182 0.374053 0.155113
Si Si3 0.999761 0.259652 0.438656
Si Si4 0.416300 0.426865 0.898505
Si Si5 0.717323 0.122395 0.096397
Si Si6 0.901062 0.925516 0.087719
O O1 0.629349 0.245951 0.369256
O O2 0.586412 0.039304 0.464883
O O3 0.453835 0.250232 0.036490
O O4 0.500000 0.000000 0.000000
O O5 0.924683 0.363583 0.350573
O O6 0.810684 0.514155 0.264244
O O7 0.797809 0.204877 0.192215
O O8 0.747961 0.393432 0.842331
O O9 0.028445 0.347135 0.359671
O O10 0.094335 0.203747 0.767601
O O11 0.943009 0.094092 0.255759
O O12 0.318780 0.454283 0.564138
O O13 0.500000 0.500000 0.000000
#
# Coordination Sequence:
#
# PCOD9245970 Si02
#       6
#     4   4   4   4   4   4
#     4  11  23  42  71  96 130 173 225 267 325 408
#     4  12  22  42  67  97 134 178 219 284 349 391
#     4  11  23  41  70  96 129 181 237 277 338 408
#     4  10  21  39  66  97 126 175 221 262 320 402
#     4  11  23  41  67  96 136 176 221 274 347 395
#     4  11  23  41  68  96 129 176 234 279 338 408
#
# _framework density 23.468330000000002
#
# number of rings (size 3 to 8) (size 9 to 14) (size 15 to 20)
#    0.000    1.000    5.000    2.500    2.333    0.000 
#    0.000    1.667    0.000    0.000    0.000    0.000 
#    0.000    0.000    0.000    0.000    0.000    0.000 
#
# Total GULP energy -134101.216134 kJ/mol
# GULP energy per Si atom -5587.550672 kJ/mol
# Density = 2.341492 g / cm^3
# Si number density = 23.468330 Si / 1000 Ang^3
#
#
#
# Elastic Constant Matrix: (Units=GPa)
#
#
# Indices 1 2 3 4 5 6 
#
# 1 44.9779 -3.2640 1.0307 0.0000 -11.0251 0.0000
# 2 -3.2640 59.2746 25.6712 0.0000 -1.1989 0.0000
# 3 1.0307 25.6712 136.2167 0.0000 -34.2398 0.0000
# 4 0.0000 0.0000 0.0000 45.4094 0.0000 -10.7959
# 5 -11.0251 -1.1989 -34.2398 0.0000 34.7009 0.0000
# 6 0.0000 0.0000 0.0000 -10.7959 0.0000 37.6631
#
#
#
# Elastic Compliance Matrix: (Units=1/GPa)
#
#
# Indices 1 2 3 4 5 6 
#
# 1 0.024693 0.000597 0.002231 0.000000 0.010068 0.000000
# 2 0.000597 0.018748 -0.004425 0.000000 -0.003529 0.000000
# 3 0.002231 -0.004425 0.011035 0.000000 0.011444 0.000000
# 4 0.000000 0.000000 0.000000 0.023632 0.000000 0.006774
# 5 0.010068 -0.003529 0.011444 0.000000 0.043187 0.000000
# 6 0.000000 0.000000 0.000000 0.006774 0.000000 0.028493
#
#
# Mechanical properties :
#
#
# Convention : Reuss Voigt Hill
#
# Bulk Modulus (GPa) = 19.49940 31.92722 25.71331
# Shear Modulus (GPa) = 29.39863 38.02344 33.71103
#
# Velocity S-wave (km/s) = 3.54318 4.02954 3.79416
# Velocity P-wave (km/s) = 5.00656 5.93999 5.49314
#
# Compressibility (1/GPa) = 0.05128363
#
# Stress axis : x y z
#
# Youngs Moduli (GPa) = 40.49709 53.33768 90.62137
#
# Poissons Ratio (x) = -0.03184 -0.20220
# Poissons Ratio (y) = -0.02418 0.40098
# Poissons Ratio (z) = -0.09036 0.23601
#
# Static dielectric constant tensor:
#      x y z
#    x 1.875820 0.000000 0.034810 
#    y 0.000000 1.919740 0.000000 
#    z 0.034810 0.000000 1.974340 
# 
# From -- ./inp_files/17451.got.cif
#   From: 2010.05.17/outbox.cif.g08.bks.cpg/sg14_9_cif.got.tgz:17451.got - 2010.06.03 17:49:19.
