data_PCOD9245852
_publ_section_title
;
Structure prediction by ZEFSAII (Michael W. Deem and Ramdas Pophale) SiO2 
 PCOD9245852
Probable space group: P 21/C
;
_chemical_formula_sum "Si O2"
_cell_formula_units_Z 24
_cell_length_a 13.903982
_cell_length_b 8.271973
_cell_length_c 8.968904
_cell_angle_alpha 90.000000
_cell_angle_beta 91.044389
_cell_angle_gamma 90.000000
_cell_volume 1031.372452
_symmetry_space_group_name_H-M "P 21/C"
_symmetry_group_IT_number 14
_symmetry_cell_setting 'monoclinic'
loop_
_space_group_symop_operation_xyz
x,y,z
-x,1/2+y,1/2-z
-x,-y,-z
x,1/2-y,1/2+z
loop_
_atom_site_type_symbol
_atom_site_label
_atom_site_fract_x
_atom_site_fract_y
_atom_site_fract_z
Si Si1 0.460030 0.137528 0.888695
Si Si2 0.786787 0.109492 0.127609
Si Si3 0.077296 0.078439 0.703446
Si Si4 0.973074 0.242414 0.961964
Si Si5 0.601117 0.564496 0.940478
Si Si6 0.672434 0.244042 0.883582
O O1 0.407413 0.081949 0.737807
O O2 0.561720 0.216793 0.835604
O O3 0.393897 0.264314 0.976873
O O4 0.500000 0.000000 0.000000
O O5 0.742832 0.230760 0.248136
O O6 0.820302 0.948680 0.214637
O O7 0.882143 0.181940 0.053138
O O8 0.709162 0.104409 0.993858
O O9 0.004611 0.118075 0.836015
O O10 0.059589 0.214619 0.578540
O O11 0.053820 0.909022 0.622561
O O12 0.674349 0.417682 0.969650
O O13 0.500000 0.500000 0.000000
#
# Coordination Sequence:
#
# PCOD9245852 Si02
#       6
#     4   4   4   4   4   4
#     4  11  21  40  69  94 127 177 222 272 324 407
#     4  12  22  41  65  98 130 173 218 280 348 374
#     4  11  23  42  68  99 128 178 228 269 331 406
#     4  11  23  42  71  96 131 178 233 267 326 414
#     4  10  21  39  63  96 124 172 223 257 327 409
#     4  11  23  40  65  93 132 170 216 276 334 397
#
# _framework density 23.269963000000001
#
# number of rings (size 3 to 8) (size 9 to 14) (size 15 to 20)
#    0.000    1.000    3.333    5.500    0.000    0.000 
#    0.000    3.333    0.000    0.000    0.000    0.000 
#    0.000    0.000    0.000    0.000    0.000    0.000 
#
# Total GULP energy -134089.950993 kJ/mol
# GULP energy per Si atom -5587.081291 kJ/mol
# Density = 2.321700 g / cm^3
# Si number density = 23.269963 Si / 1000 Ang^3
#
#
#
# Elastic Constant Matrix: (Units=GPa)
#
#
# Indices 1 2 3 4 5 6 
#
# 1 68.0833 8.3640 15.5411 0.0000 7.2090 0.0000
# 2 8.3640 72.2551 16.2620 0.0000 -3.4641 0.0000
# 3 15.5411 16.2620 104.7756 0.0000 -7.5729 0.0000
# 4 0.0000 0.0000 0.0000 44.0676 0.0000 7.4788
# 5 7.2090 -3.4641 -7.5729 0.0000 34.5682 0.0000
# 6 0.0000 0.0000 0.0000 7.4788 0.0000 32.4680
#
#
#
# Elastic Compliance Matrix: (Units=1/GPa)
#
#
# Indices 1 2 3 4 5 6 
#
# 1 0.015841 -0.001483 -0.002407 0.000000 -0.003979 0.000000
# 2 -0.001483 0.014511 -0.001936 0.000000 0.001339 0.000000
# 3 -0.002407 -0.001936 0.010388 0.000000 0.002584 0.000000
# 4 0.000000 0.000000 0.000000 0.023616 0.000000 -0.005440
# 5 -0.003979 0.001339 0.002584 0.000000 0.030459 0.000000
# 6 0.000000 0.000000 0.000000 -0.005440 0.000000 0.032053
#
#
# Mechanical properties :
#
#
# Convention : Reuss Voigt Hill
#
# Bulk Modulus (GPa) = 34.37627 36.16093 35.26860
# Shear Modulus (GPa) = 33.73485 35.88387 34.80936
#
# Velocity S-wave (km/s) = 3.81164 3.93118 3.87187
# Velocity P-wave (km/s) = 5.84606 6.01490 5.93108
#
# Compressibility (1/GPa) = 0.02908984
#
# Stress axis : x y z
#
# Youngs Moduli (GPa) = 63.12785 68.91171 96.26103
#
# Poissons Ratio (x) = 0.10218 0.23171
# Poissons Ratio (y) = 0.09360 0.18632
# Poissons Ratio (z) = 0.15196 0.13338
#
# Static dielectric constant tensor:
#      x y z
#    x 1.896340 0.000000 0.028360 
#    y 0.000000 1.950810 0.000000 
#    z 0.028360 0.000000 1.872650 
# 
# From -- ./inp_files/15032.got.cif
#   From: 2010.05.17/outbox.cif.g08.bks.cpg/sg14_8_cif.got.tgz:15032.got - 2010.06.03 17:49:19.
