data_PCOD9245491
_publ_section_title
;
Structure prediction by ZEFSAII (Michael W. Deem and Ramdas Pophale) SiO2 
 PCOD9245491
Probable space group: P 21/C
;
_chemical_formula_sum "Si O2"
_cell_formula_units_Z 24
_cell_length_a 8.260948
_cell_length_b 28.837399
_cell_length_c 9.436882
_cell_angle_alpha 90.000000
_cell_angle_beta 149.074781
_cell_angle_gamma 90.000000
_cell_volume 1155.338046
_symmetry_space_group_name_H-M "P 21/C"
_symmetry_group_IT_number 14
_symmetry_cell_setting 'monoclinic'
loop_
_space_group_symop_operation_xyz
x,y,z
-x,1/2+y,1/2-z
-x,-y,-z
x,1/2-y,1/2+z
loop_
_atom_site_type_symbol
_atom_site_label
_atom_site_fract_x
_atom_site_fract_y
_atom_site_fract_z
Si Si1 0.217666 0.536651 0.582135
Si Si2 0.950650 0.534958 0.089407
Si Si3 0.857783 0.782696 0.257747
Si Si4 0.825140 0.140815 0.989575
Si Si5 0.894189 0.862260 0.496890
Si Si6 0.214294 0.729207 0.741533
O O1 0.595127 0.535122 0.889930
O O2 0.080026 0.589544 0.494782
O O3 0.000000 0.500000 0.500000
O O4 0.182532 0.524277 0.391221
O O5 0.032824 0.586550 0.097276
O O6 0.000000 0.500000 0.000000
O O7 0.936027 0.832333 0.386769
O O8 0.919840 0.751456 0.440742
O O9 0.113683 0.774815 0.328221
O O10 0.513338 0.764180 0.949250
O O11 0.477443 0.132071 0.783091
O O12 0.777212 0.179567 0.832241
O O13 0.012181 0.156458 0.273534
#
# Coordination Sequence:
#
# PCOD9245491 Si02
#       6
#     4   4   4   4   4   4
#     4  10  21  38  61  88 120 158 196 242 295 348
#     4  10  21  38  61  88 120 158 196 242 295 348
#     4  12  24  39  60  86 115 152 195 243 293 348
#     4  10  21  39  60  84 119 158 196 241 294 348
#     4  10  21  39  60  84 119 158 196 241 294 348
#     4  12  24  39  60  86 115 152 195 243 293 348
#
# _framework density 20.773139
#
# number of rings (size 3 to 8) (size 9 to 14) (size 15 to 20)
#    0.000    1.333    0.000    7.000    0.000    1.333 
#    0.000    3.333    0.000    0.000    0.000    0.000 
#    0.000    0.000    0.000    0.000    0.000    0.000 
#
# Total GULP energy -133616.493655 kJ/mol
# GULP energy per Si atom -5567.353902 kJ/mol
# Density = 2.072586 g / cm^3
# Si number density = 20.773139 Si / 1000 Ang^3
#
#
#
# Elastic Constant Matrix: (Units=GPa)
#
#
# Indices 1 2 3 4 5 6 
#
# 1 60.8191 31.3004 4.6007 0.0000 -13.9043 0.0000
# 2 31.3004 66.6259 9.7996 0.0000 -23.7060 0.0000
# 3 4.6007 9.7996 96.4166 0.0000 -4.3267 0.0000
# 4 0.0000 0.0000 0.0000 28.9328 0.0000 -14.1746
# 5 -13.9043 -23.7060 -4.3267 0.0000 27.0748 0.0000
# 6 0.0000 0.0000 0.0000 -14.1746 0.0000 25.8684
#
#
#
# Elastic Compliance Matrix: (Units=1/GPa)
#
#
# Indices 1 2 3 4 5 6 
#
# 1 0.021880 -0.009127 0.000029 0.000000 0.003250 0.000000
# 2 -0.009127 0.025789 -0.001393 0.000000 0.017671 0.000000
# 3 0.000029 -0.001393 0.010533 0.000000 0.000479 0.000000
# 4 0.000000 0.000000 0.000000 0.047246 0.000000 0.025888
# 5 0.003250 0.017671 0.000479 0.000000 0.054152 0.000000
# 6 0.000000 0.000000 0.000000 0.025888 0.000000 0.052843
#
#
# Mechanical properties :
#
#
# Convention : Reuss Voigt Hill
#
# Bulk Modulus (GPa) = 26.86592 35.02922 30.94757
# Shear Modulus (GPa) = 20.33912 28.25260 24.29586
#
# Velocity S-wave (km/s) = 3.13246 3.69189 3.42362
# Velocity P-wave (km/s) = 5.10335 5.92223 5.52797
#
# Compressibility (1/GPa) = 0.03722187
#
# Stress axis : x y z
#
# Youngs Moduli (GPa) = 45.70330 38.77584 94.93701
#
# Poissons Ratio (x) = 0.35392 -0.00279
# Poissons Ratio (y) = 0.41715 0.13222
# Poissons Ratio (z) = -0.00135 0.05400
#
# Static dielectric constant tensor:
#      x y z
#    x 1.689390 0.000000 -0.005450 
#    y 0.000000 2.092610 0.000000 
#    z -0.005450 0.000000 1.739080 
# 
# From -- ./inp_files/11359.got.cif
#   From: 2010.05.17/outbox.cif.g08.bks.cpg/sg14_6_cif.got.tgz:11359.got - 2010.06.03 17:49:19.
