data_PCOD9245366
_publ_section_title
;
Structure prediction by ZEFSAII (Michael W. Deem and Ramdas Pophale) SiO2 
 PCOD9245366
Probable space group: P 21/C
;
_chemical_formula_sum "Si O2"
_cell_formula_units_Z 28
_cell_length_a 15.453867
_cell_length_b 9.096998
_cell_length_c 15.032279
_cell_angle_alpha 90.000000
_cell_angle_beta 149.793749
_cell_angle_gamma 90.000000
_cell_volume 1063.228731
_symmetry_space_group_name_H-M "P 21/C"
_symmetry_group_IT_number 14
_symmetry_cell_setting 'monoclinic'
loop_
_space_group_symop_operation_xyz
x,y,z
-x,1/2+y,1/2-z
-x,-y,-z
x,1/2-y,1/2+z
loop_
_atom_site_type_symbol
_atom_site_label
_atom_site_fract_x
_atom_site_fract_y
_atom_site_fract_z
Si Si1 0.121462 0.565297 0.381166
Si Si2 0.796228 0.645644 0.000525
Si Si3 0.144746 0.913199 0.223562
Si Si4 0.862665 0.725462 0.375678
Si Si5 0.677611 0.850984 0.051615
Si Si6 0.573763 0.408575 0.885322
Si Si7 0.617553 0.296414 0.278448
O O1 0.282258 0.491285 0.473541
O O2 0.191080 0.686573 0.511976
O O3 0.005538 0.455898 0.338435
O O4 0.999417 0.616958 0.193955
O O5 0.773692 0.729376 0.888597
O O6 0.696000 0.492828 0.921683
O O7 0.758076 0.723060 0.061117
O O8 0.311099 0.869319 0.427433
O O9 0.182600 0.064701 0.204272
O O10 0.062524 0.797723 0.081738
O O11 0.790386 0.841552 0.240408
O O12 0.476751 0.803421 0.880048
O O13 0.437821 0.534755 0.789330
O O14 0.522105 0.267495 0.782567
#
# Coordination Sequence:
#
# PCOD9245366 Si02
#       7
#     4   4   4   4   4   4   4
#     4  11  21  39  66  91 123 168 212 253 317 374
#     4  10  22  38  64  91 123 160 210 268 303 362
#     4  10  21  37  67  94 119 165 223 261 295 374
#     4  11  20  38  65  93 128 157 213 268 310 359
#     4  11  22  40  61  92 125 164 205 262 318 362
#     4  10  21  40  63  93 126 171 210 255 320 368
#     4  11  21  38  65  92 127 172 205 253 320 384
#
# _framework density 26.334880999999999
#
# number of rings (size 3 to 8) (size 9 to 14) (size 15 to 20)
#    0.000    1.429    7.143    0.857    2.000    0.571 
#    0.000    1.429   18.857    0.000    0.000    0.000 
#    0.000    0.000    0.000    0.000    0.000    0.000 
#
# Total GULP energy -156300.667738 kJ/mol
# GULP energy per Si atom -5582.166705 kJ/mol
# Density = 2.627494 g / cm^3
# Si number density = 26.334881 Si / 1000 Ang^3
#
#
#
# Elastic Constant Matrix: (Units=GPa)
#
#
# Indices 1 2 3 4 5 6 
#
# 1 80.5185 22.0037 18.6095 0.0000 -32.0652 0.0000
# 2 22.0037 52.9722 0.6819 0.0000 -12.1253 0.0000
# 3 18.6095 0.6819 113.3088 0.0000 -36.5138 0.0000
# 4 0.0000 0.0000 0.0000 36.5096 0.0000 -7.8117
# 5 -32.0652 -12.1253 -36.5138 0.0000 36.9796 0.0000
# 6 0.0000 0.0000 0.0000 -7.8117 0.0000 26.4470
#
#
#
# Elastic Compliance Matrix: (Units=1/GPa)
#
#
# Indices 1 2 3 4 5 6 
#
# 1 0.020589 -0.004167 0.002869 0.000000 0.019320 0.000000
# 2 -0.004167 0.021964 0.002506 0.000000 0.006063 0.000000
# 3 0.002869 0.002506 0.013795 0.000000 0.016931 0.000000
# 4 0.000000 0.000000 0.000000 0.029238 0.000000 0.008636
# 5 0.019320 0.006063 0.016931 0.000000 0.062500 0.000000
# 6 0.000000 0.000000 0.000000 0.008636 0.000000 0.040362
#
#
# Mechanical properties :
#
#
# Convention : Reuss Voigt Hill
#
# Bulk Modulus (GPa) = 17.01681 36.59885 26.80783
# Shear Modulus (GPa) = 24.31671 33.68753 29.00212
#
# Velocity S-wave (km/s) = 3.04199 3.58047 3.32216
# Velocity P-wave (km/s) = 4.33751 5.56962 4.99173
#
# Compressibility (1/GPa) = 0.05876541
#
# Stress axis : x y z
#
# Youngs Moduli (GPa) = 48.57017 45.52845 72.48901
#
# Poissons Ratio (x) = 0.18971 -0.20800
# Poissons Ratio (y) = 0.20239 -0.18166
# Poissons Ratio (z) = -0.13937 -0.11410
#
# Static dielectric constant tensor:
#      x y z
#    x 2.119190 0.000000 0.122340 
#    y 0.000000 2.111870 0.000000 
#    z 0.122340 0.000000 2.148710 
# 
# From -- ./inp_files/48797.got.cif
#   From: 2010.05.17/outbox.cif.g08.bks.cpg/sg14_25_cif.got.tgz:48797.got - 2010.06.03 17:49:19.
