data_PCOD9245092
_publ_section_title
;
Structure prediction by ZEFSAII (Michael W. Deem and Ramdas Pophale) SiO2 
 PCOD9245092
Probable space group: P 21/C
;
_chemical_formula_sum "Si O2"
_cell_formula_units_Z 30
_cell_length_a 5.050486
_cell_length_b 10.136633
_cell_length_c 23.510948
_cell_angle_alpha 90.000000
_cell_angle_beta 102.077841
_cell_angle_gamma 90.000000
_cell_volume 1176.997653
_symmetry_space_group_name_H-M "P 21/C"
_symmetry_group_IT_number 14
_symmetry_cell_setting 'monoclinic'
loop_
_space_group_symop_operation_xyz
x,y,z
-x,1/2+y,1/2-z
-x,-y,-z
x,1/2-y,1/2+z
loop_
_atom_site_type_symbol
_atom_site_label
_atom_site_fract_x
_atom_site_fract_y
_atom_site_fract_z
Si Si1 0.458064 0.099974 0.734355
Si Si2 0.927605 0.552879 0.196816
Si Si3 0.605501 0.021138 0.862182
Si Si4 0.262880 0.591467 0.514005
Si Si5 0.107481 0.179348 0.192293
Si Si6 0.000000 0.500000 0.000000
Si Si7 0.544066 0.969392 0.576767
Si Si8 0.336527 0.761665 0.906858
O O1 0.393355 0.248055 0.712766
O O2 0.742037 0.048905 0.724650
O O3 0.444586 0.082055 0.802111
O O4 0.219037 0.009614 0.697110
O O5 0.987889 0.662064 0.247681
O O6 0.725306 0.589031 0.136622
O O7 0.863610 0.955538 0.842268
O O8 0.473533 0.891769 0.886390
O O9 0.673434 0.117524 0.917122
O O10 0.500000 0.500000 0.500000
O O11 0.242511 0.707449 0.466997
O O12 0.000000 0.500000 0.500000
O O13 0.921430 0.265335 0.143505
O O14 0.237886 0.573345 0.051002
O O15 0.754836 0.539468 0.033702
O O16 0.497936 0.127500 0.586785
#
# Coordination Sequence:
#
# PCOD9245092 Si02
#       8
#     4   4   4   4   4   2   4   4
#     4  11  23  38  62  98 132 166 213 270 326 386
#     4  11  23  40  67  95 130 167 215 275 321 391
#     4  10  22  40  60  96 136 161 222 274 321 391
#     4  10  21  36  60  90 125 165 207 273 323 371
#     4  11  22  38  66  94 131 175 218 259 336 397
#     4  10  26  46  64  92 126 168 220 282 304 384
#     4  11  23  44  70  90 130 168 225 266 333 390
#     4  11  21  37  71  92 123 175 223 263 331 403
#
# _framework density 25.488579999999999
#
# number of rings (size 3 to 8) (size 9 to 14) (size 15 to 20)
#    0.000    1.333    4.000    1.600    1.867    0.000 
#    4.800    0.000    2.933    0.000    0.000    0.000 
#    0.000    0.000    0.000    0.000    0.000    0.000 
#
# Total GULP energy -167132.293766 kJ/mol
# GULP energy per Si atom -5571.076459 kJ/mol
# Density = 2.543057 g / cm^3
# Si number density = 25.488580 Si / 1000 Ang^3
#
#
#
# Elastic Constant Matrix: (Units=GPa)
#
#
# Indices 1 2 3 4 5 6 
#
# 1 146.7417 12.5262 30.3183 0.0000 11.3353 0.0000
# 2 12.5262 50.1400 26.1697 0.0000 7.0214 0.0000
# 3 30.3183 26.1697 185.6163 0.0000 9.9731 0.0000
# 4 0.0000 0.0000 0.0000 39.9613 0.0000 -5.0951
# 5 11.3353 7.0214 9.9731 0.0000 34.8778 0.0000
# 6 0.0000 0.0000 0.0000 -5.0951 0.0000 19.1959
#
#
#
# Elastic Compliance Matrix: (Units=1/GPa)
#
#
# Indices 1 2 3 4 5 6 
#
# 1 0.007243 -0.001060 -0.000933 0.000000 -0.001874 0.000000
# 2 -0.001060 0.022118 -0.002767 0.000000 -0.003317 0.000000
# 3 -0.000933 -0.002767 0.005976 0.000000 -0.000848 0.000000
# 4 0.000000 0.000000 0.000000 0.025901 0.000000 0.006875
# 5 -0.001874 -0.003317 -0.000848 0.000000 0.030191 0.000000
# 6 0.000000 0.000000 0.000000 0.006875 0.000000 0.053919
#
#
# Mechanical properties :
#
#
# Convention : Reuss Voigt Hill
#
# Bulk Modulus (GPa) = 38.73573 57.83626 48.28599
# Shear Modulus (GPa) = 30.58630 39.70592 35.14611
#
# Velocity S-wave (km/s) = 3.46786 3.95117 3.71738
# Velocity P-wave (km/s) = 5.59151 6.59969 6.11641
#
# Compressibility (1/GPa) = 0.02581596
#
# Stress axis : x y z
#
# Youngs Moduli (GPa) = 138.07068 45.21274 167.34923
#
# Poissons Ratio (x) = 0.04793 0.15611
# Poissons Ratio (y) = 0.14637 0.46305
# Poissons Ratio (z) = 0.12880 0.12510
#
# Static dielectric constant tensor:
#      x y z
#    x 1.983780 0.000000 -0.006260 
#    y 0.000000 2.069940 0.000000 
#    z -0.006260 0.000000 2.095290 
# 
# From -- ./inp_files/71285.got.cif
#   From: 2010.05.17/outbox.cif.g08.bks.cpg/sg14_36_cif.got.tgz:71285.got - 2010.06.03 17:49:19.
