data_PCOD9245913
_publ_section_title
;
Structure prediction by ZEFSAII (Michael W. Deem and Ramdas Pophale) SiO2 
 PCOD9245913
Probable space group: P 21/C
;
_chemical_formula_sum "Si O2"
_cell_formula_units_Z 28
_cell_length_a 12.966961
_cell_length_b 9.610429
_cell_length_c 20.049412
_cell_angle_alpha 90.000000
_cell_angle_beta 147.488480
_cell_angle_gamma 90.000000
_cell_volume 1342.876823
_symmetry_space_group_name_H-M "P 21/C"
_symmetry_group_IT_number 14
_symmetry_cell_setting 'monoclinic'
loop_
_space_group_symop_operation_xyz
x,y,z
-x,1/2+y,1/2-z
-x,-y,-z
x,1/2-y,1/2+z
loop_
_atom_site_type_symbol
_atom_site_label
_atom_site_fract_x
_atom_site_fract_y
_atom_site_fract_z
Si Si1 0.351056 0.520106 0.359606
Si Si2 0.694469 0.881461 0.678350
Si Si3 0.720490 0.704817 0.345904
Si Si4 0.987238 0.180073 0.668685
Si Si5 0.330174 0.821226 0.390848
Si Si6 0.463188 0.499143 0.272624
Si Si7 0.902861 0.145087 0.469610
O O1 0.500000 0.500000 0.500000
O O2 0.159000 0.431819 0.265240
O O3 0.300989 0.682390 0.333127
O O4 0.449425 0.477924 0.344042
O O5 0.676222 0.832961 0.744602
O O6 0.901510 0.826854 0.767193
O O7 0.530529 0.818140 0.540972
O O8 0.672490 0.045294 0.657777
O O9 0.657911 0.571127 0.354514
O O10 0.947284 0.739997 0.474821
O O11 0.608054 0.852301 0.298047
O O12 0.834055 0.164343 0.642961
O O13 0.896655 0.162218 0.545997
O O14 0.309986 0.621582 0.172210
O O15 0.000000 0.000000 0.500000
#
# Coordination Sequence:
#
# PCOD9245913 Si02
#       7
#     4   4   4   4   4   4   4
#     4  12  23  42  61  91 135 161 201 265 311 369
#     4  10  21  42  59  90 130 158 210 265 298 382
#     4  10  21  39  65  91 121 165 206 258 324 357
#     4  11  20  41  65  87 124 168 203 256 322 362
#     4  11  23  36  64  93 120 170 212 247 313 382
#     4  11  22  41  66  90 126 162 207 259 313 374
#     4   9  18  39  63  86 120 159 206 251 303 374
#
# _framework density 20.850757999999999
#
# number of rings (size 3 to 8) (size 9 to 14) (size 15 to 20)
#    0.000    1.429    5.714    1.714    2.000    0.000 
#    5.143    0.714    0.000    0.000    0.000    0.000 
#    0.000    0.000    0.000    0.000    0.000    0.000 
#
# Total GULP energy -156347.130434 kJ/mol
# GULP energy per Si atom -5583.826087 kJ/mol
# Density = 2.080330 g / cm^3
# Si number density = 20.850758 Si / 1000 Ang^3
#
#
#
# Elastic Constant Matrix: (Units=GPa)
#
#
# Indices 1 2 3 4 5 6 
#
# 1 56.9039 7.6893 -3.9776 0.0000 3.6312 0.0000
# 2 7.6893 70.8976 -7.0205 0.0000 -3.0050 0.0000
# 3 -3.9776 -7.0205 58.9420 0.0000 -7.6538 0.0000
# 4 0.0000 0.0000 0.0000 23.4746 0.0000 2.3410
# 5 3.6312 -3.0050 -7.6538 0.0000 14.6150 0.0000
# 6 0.0000 0.0000 0.0000 2.3410 0.0000 34.0709
#
#
#
# Elastic Compliance Matrix: (Units=1/GPa)
#
#
# Indices 1 2 3 4 5 6 
#
# 1 0.018192 -0.002141 0.000353 0.000000 -0.004775 0.000000
# 2 -0.002141 0.014758 0.002228 0.000000 0.004733 0.000000
# 3 0.000353 0.002228 0.018566 0.000000 0.010093 0.000000
# 4 0.000000 0.000000 0.000000 0.042893 0.000000 -0.002947
# 5 -0.004775 0.004733 0.010093 0.000000 0.075868 0.000000
# 6 0.000000 0.000000 0.000000 -0.002947 0.000000 0.029553
#
#
# Mechanical properties :
#
#
# Convention : Reuss Voigt Hill
#
# Bulk Modulus (GPa) = 19.08541 20.01399 19.54970
# Shear Modulus (GPa) = 23.10369 27.10226 25.10297
#
# Velocity S-wave (km/s) = 3.33235 3.60921 3.47354
# Velocity P-wave (km/s) = 4.89687 5.19501 5.04814
#
# Compressibility (1/GPa) = 0.05239604
#
# Stress axis : x y z
#
# Youngs Moduli (GPa) = 54.96886 67.75882 53.86304
#
# Poissons Ratio (x) = 0.14504 -0.01899
# Poissons Ratio (y) = 0.11766 -0.12001
# Poissons Ratio (z) = -0.01938 -0.15097
#
# Static dielectric constant tensor:
#      x y z
#    x 1.742930 0.000000 0.016480 
#    y 0.000000 1.771160 0.000000 
#    z 0.016480 0.000000 1.732540 
# 
# From -- ./inp_files/68360.got.cif
#   From: 2010.05.17/outbox.cif.g08.bks.cpg/sg14_35_cif.got.tgz:68360.got - 2010.06.03 17:49:19.
