data_PCOD9245526
_publ_section_title
;
Structure prediction by ZEFSAII (Michael W. Deem and Ramdas Pophale) SiO2 
 PCOD9245526
Probable space group: P 21/C
;
_chemical_formula_sum "Si O2"
_cell_formula_units_Z 28
_cell_length_a 7.300412
_cell_length_b 29.636594
_cell_length_c 9.254100
_cell_angle_alpha 90.000000
_cell_angle_beta 148.669104
_cell_angle_gamma 90.000000
_cell_volume 1041.109274
_symmetry_space_group_name_H-M "P 21/C"
_symmetry_group_IT_number 14
_symmetry_cell_setting 'monoclinic'
loop_
_space_group_symop_operation_xyz
x,y,z
-x,1/2+y,1/2-z
-x,-y,-z
x,1/2-y,1/2+z
loop_
_atom_site_type_symbol
_atom_site_label
_atom_site_fract_x
_atom_site_fract_y
_atom_site_fract_z
Si Si1 0.591699 0.736109 0.786702
Si Si2 0.289918 0.847385 0.230531
Si Si3 0.428995 0.041049 0.842637
Si Si4 0.960542 0.381395 0.730869
Si Si5 0.948501 0.083797 0.726999
Si Si6 0.657821 0.200532 0.178352
Si Si7 0.367939 0.025928 0.229498
O O1 0.422192 0.703082 0.793696
O O2 0.387001 0.728843 0.500317
O O3 0.607674 0.784524 0.874568
O O4 0.969301 0.715635 0.006005
O O5 0.144277 0.866204 0.283161
O O6 0.647417 0.876990 0.444081
O O7 0.033545 0.858373 0.924227
O O8 0.107666 0.072528 0.677397
O O9 0.380245 0.013285 0.663488
O O10 0.779843 0.071068 0.083634
O O11 0.500000 0.000000 0.000000
O O12 0.701469 0.350736 0.655649
O O13 0.596971 0.052755 0.500571
O O14 0.246930 0.064799 0.035601
O O15 0.000000 0.000000 0.000000
#
# Coordination Sequence:
#
# PCOD9245526 Si02
#       7
#     4   4   4   4   4   4   4
#     4  10  21  38  62  91 123 155 197 244 294 358
#     4  10  21  39  60  84 114 154 195 232 284 357
#     4  10  23  39  56  84 116 147 193 249 294 341
#     4  10  22  40  60  81 116 156 192 233 292 357
#     4  11  22  36  55  82 110 142 187 236 282 329
#     4  10  21  39  62  90 120 158 197 243 299 356
#     4  11  22  37  57  78 108 148 189 231 285 344
#
# _framework density 26.894390999999999
#
# number of rings (size 3 to 8) (size 9 to 14) (size 15 to 20)
#    0.000    1.714    0.000    4.286    0.000    6.857 
#    0.000    2.857    0.000    0.000    0.000    0.000 
#    0.000    0.000    0.000    0.000    0.000    0.000 
#
# Total GULP energy -156673.321265 kJ/mol
# GULP energy per Si atom -5595.475759 kJ/mol
# Density = 2.683318 g / cm^3
# Si number density = 26.894391 Si / 1000 Ang^3
#
#
#
# Elastic Constant Matrix: (Units=GPa)
#
#
# Indices 1 2 3 4 5 6 
#
# 1 38.9976 9.7454 1.9326 0.0000 5.5431 0.0000
# 2 9.7454 76.1401 5.5304 0.0000 -6.4381 0.0000
# 3 1.9326 5.5304 99.4538 0.0000 -5.2953 0.0000
# 4 0.0000 0.0000 0.0000 32.3260 0.0000 3.7211
# 5 5.5431 -6.4381 -5.2953 0.0000 27.9770 0.0000
# 6 0.0000 0.0000 0.0000 3.7211 0.0000 55.9855
#
#
#
# Elastic Compliance Matrix: (Units=1/GPa)
#
#
# Indices 1 2 3 4 5 6 
#
# 1 0.027612 -0.004038 -0.000659 0.000000 -0.006525 0.000000
# 2 -0.004038 0.014019 -0.000492 0.000000 0.003933 0.000000
# 3 -0.000659 -0.000492 0.010199 0.000000 0.001948 0.000000
# 4 0.000000 0.000000 0.000000 0.031173 0.000000 -0.002072
# 5 -0.006525 0.003933 0.001948 0.000000 0.038310 0.000000
# 6 0.000000 0.000000 0.000000 -0.002072 0.000000 0.017999
#
#
# Mechanical properties :
#
#
# Convention : Reuss Voigt Hill
#
# Bulk Modulus (GPa) = 24.12470 27.66759 25.89614
# Shear Modulus (GPa) = 30.57963 36.41656 33.49809
#
# Velocity S-wave (km/s) = 3.37564 3.68374 3.53305
# Velocity P-wave (km/s) = 4.91761 5.32946 5.12767
#
# Compressibility (1/GPa) = 0.04145129
#
# Stress axis : x y z
#
# Youngs Moduli (GPa) = 36.21642 71.33285 98.05091
#
# Poissons Ratio (x) = 0.28804 0.06466
# Poissons Ratio (y) = 0.14624 0.04821
# Poissons Ratio (z) = 0.02388 0.03507
#
# Static dielectric constant tensor:
#      x y z
#    x 2.244860 0.000000 0.068730 
#    y 0.000000 2.090000 0.000000 
#    z 0.068730 0.000000 1.999860 
# 
# From -- ./inp_files/27123.got.cif
#   From: 2010.05.17/outbox.cif.g08.bks.cpg/sg14_14_cif.got.tgz:27123.got - 2010.06.03 17:49:19.
