data_PCOD9245914
_publ_section_title
;
Structure prediction by ZEFSAII (Michael W. Deem and Ramdas Pophale) SiO2 
 PCOD9245914
Probable space group: P 21/C
;
_chemical_formula_sum "Si O2"
_cell_formula_units_Z 32
_cell_length_a 22.319961
_cell_length_b 8.877989
_cell_length_c 21.983817
_cell_angle_alpha 90.000000
_cell_angle_beta 21.368053
_cell_angle_gamma 90.000000
_cell_volume 1587.226677
_symmetry_space_group_name_H-M "P 21/C"
_symmetry_group_IT_number 14
_symmetry_cell_setting 'monoclinic'
loop_
_space_group_symop_operation_xyz
x,y,z
-x,1/2+y,1/2-z
-x,-y,-z
x,1/2-y,1/2+z
loop_
_atom_site_type_symbol
_atom_site_label
_atom_site_fract_x
_atom_site_fract_y
_atom_site_fract_z
Si Si1 0.641831 0.160119 0.229301
Si Si2 0.828572 0.279389 0.940439
Si Si3 0.210288 0.768142 0.209632
Si Si4 0.972991 0.054841 0.713563
Si Si5 0.432313 0.866791 0.410221
Si Si6 0.726525 0.672760 0.148350
Si Si7 0.626794 0.087006 0.835313
Si Si8 0.920989 0.557527 0.512544
O O1 0.569953 0.269279 0.349256
O O2 0.514467 0.028863 0.333983
O O3 0.812219 0.078032 0.088783
O O4 0.698194 0.250380 0.116701
O O5 0.975630 0.384254 0.824623
O O6 0.906671 0.129302 0.837944
O O7 0.725856 0.358074 0.983361
O O8 0.232422 0.842466 0.254314
O O9 0.162450 0.902745 0.208952
O O10 0.074905 0.636110 0.333253
O O11 0.376183 0.689924 0.029928
O O12 0.136904 0.132115 0.530843
O O13 0.569418 0.743181 0.263167
O O14 0.688634 0.530696 0.226444
O O15 0.794268 0.802238 0.129991
O O16 0.500000 0.000000 0.000000
O O17 0.000000 0.500000 0.500000
#
# Coordination Sequence:
#
# PCOD9245914 Si02
#       8
#     4   4   4   4   4   4   4   4
#     4  11  25  42  68  95 127 175 222 259 331 392
#     4  11  25  44  66  93 130 168 222 269 323 382
#     4  10  22  42  66  92 133 164 212 266 327 374
#     4  10  24  43  64  94 125 168 217 271 316 381
#     4  10  24  43  63  93 130 174 214 268 319 385
#     4  10  22  41  64  94 133 167 212 266 322 381
#     4  12  23  41  65  99 135 169 211 267 326 390
#     4  10  21  39  65  91 125 167 211 262 315 384
#
# _framework density 20.160951000000001
#
# number of rings (size 3 to 8) (size 9 to 14) (size 15 to 20)
#    0.000    1.500    3.750    0.000    8.750    4.500 
#    2.250    0.000    0.000    0.000    0.000    0.000 
#    0.000    0.000    0.000    0.000    0.000    0.000 
#
# Total GULP energy -178395.034442 kJ/mol
# GULP energy per Si atom -5574.844826 kJ/mol
# Density = 2.011506 g / cm^3
# Si number density = 20.160951 Si / 1000 Ang^3
#
#
#
# Elastic Constant Matrix: (Units=GPa)
#
#
# Indices 1 2 3 4 5 6 
#
# 1 52.7154 20.6408 -0.7853 0.0000 5.8829 0.0000
# 2 20.6408 68.5984 8.5715 0.0000 5.7726 0.0000
# 3 -0.7853 8.5715 62.3609 0.0000 7.5720 0.0000
# 4 0.0000 0.0000 0.0000 35.4371 0.0000 3.0538
# 5 5.8829 5.7726 7.5720 0.0000 18.6963 0.0000
# 6 0.0000 0.0000 0.0000 3.0538 0.0000 19.7540
#
#
#
# Elastic Compliance Matrix: (Units=1/GPa)
#
#
# Indices 1 2 3 4 5 6 
#
# 1 0.022149 -0.006414 0.001858 0.000000 -0.005742 0.000000
# 2 -0.006414 0.016972 -0.002127 0.000000 -0.002361 0.000000
# 3 0.001858 -0.002127 0.017188 0.000000 -0.006889 0.000000
# 4 0.000000 0.000000 0.000000 0.028600 0.000000 -0.004421
# 5 -0.005742 -0.002361 -0.006889 0.000000 0.058812 0.000000
# 6 0.000000 0.000000 0.000000 -0.004421 0.000000 0.051306
#
#
# Mechanical properties :
#
#
# Convention : Reuss Voigt Hill
#
# Bulk Modulus (GPa) = 23.28646 26.72543 25.00595
# Shear Modulus (GPa) = 22.45097 25.12732 23.78915
#
# Velocity S-wave (km/s) = 3.34067 3.53418 3.43878
# Velocity P-wave (km/s) = 5.14348 5.47163 5.31009
#
# Compressibility (1/GPa) = 0.04294341
#
# Stress axis : x y z
#
# Youngs Moduli (GPa) = 45.14780 58.92117 58.18057
#
# Poissons Ratio (x) = 0.37790 -0.10808
# Poissons Ratio (y) = 0.28956 0.12374
# Poissons Ratio (z) = -0.08387 0.12532
#
# Static dielectric constant tensor:
#      x y z
#    x 1.721740 0.000000 -0.006910 
#    y 0.000000 1.734550 0.000000 
#    z -0.006910 0.000000 1.736490 
# 
# From -- ./inp_files/74901.got.cif
#   From: 2010.05.17/outbox.cif.g08.bks.cpg/sg14_38_cif.got.tgz:74901.got - 2010.06.03 17:49:19.
