data_PCOD9245912
_publ_section_title
;
Structure prediction by ZEFSAII (Michael W. Deem and Ramdas Pophale) SiO2 
 PCOD9245912
Probable space group: P 21/C
;
_chemical_formula_sum "Si O2"
_cell_formula_units_Z 24
_cell_length_a 7.264643
_cell_length_b 11.464822
_cell_length_c 12.813963
_cell_angle_alpha 90.000000
_cell_angle_beta 109.646437
_cell_angle_gamma 90.000000
_cell_volume 1005.117770
_symmetry_space_group_name_H-M "P 21/C"
_symmetry_group_IT_number 14
_symmetry_cell_setting 'monoclinic'
loop_
_space_group_symop_operation_xyz
x,y,z
-x,1/2+y,1/2-z
-x,-y,-z
x,1/2-y,1/2+z
loop_
_atom_site_type_symbol
_atom_site_label
_atom_site_fract_x
_atom_site_fract_y
_atom_site_fract_z
Si Si1 0.714770 0.046928 0.011199
Si Si2 0.841827 0.818736 0.118845
Si Si3 0.729577 0.675142 0.905242
Si Si4 0.664158 0.433642 0.963370
Si Si5 0.538652 0.203350 0.817854
Si Si6 0.903200 0.262627 0.150405
O O1 0.780712 0.147548 0.103312
O O2 0.853367 0.936224 0.053563
O O3 0.689980 0.110346 0.894819
O O4 0.500000 0.000000 0.000000
O O5 0.669167 0.835401 0.170506
O O6 0.035024 0.783566 0.218654
O O7 0.760377 0.718803 0.028217
O O8 0.759610 0.536184 0.912739
O O9 0.517167 0.700974 0.814441
O O10 0.892416 0.746891 0.873485
O O11 0.590494 0.330283 0.873296
O O12 0.500000 0.500000 0.000000
O O13 0.801702 0.371220 0.073860
#
# Coordination Sequence:
#
# PCOD9245912 Si02
#       6
#     4   4   4   4   4   4
#     4   9  20  41  63  86 126 168 208 264 317 373
#     4  10  21  39  65  90 126 168 208 262 326 379
#     4  11  23  39  65  94 128 167 212 266 325 378
#     4  11  22  43  66  90 130 170 216 263 323 386
#     4   9  21  41  60  95 127 165 219 264 310 393
#     4  10  24  42  61  94 128 162 216 266 319 391
#
# _framework density 23.877800000000001
#
# number of rings (size 3 to 8) (size 9 to 14) (size 15 to 20)
#    0.000    2.000    1.667    0.500    4.667    0.667 
#    9.000    0.000    0.000    0.000    0.000    0.000 
#    0.000    0.000    0.000    0.000    0.000    0.000 
#
# Total GULP energy -134146.676250 kJ/mol
# GULP energy per Si atom -5589.444844 kJ/mol
# Density = 2.382345 g / cm^3
# Si number density = 23.877800 Si / 1000 Ang^3
#
#
#
# Elastic Constant Matrix: (Units=GPa)
#
#
# Indices 1 2 3 4 5 6 
#
# 1 56.6522 30.0264 33.4041 0.0000 16.1408 0.0000
# 2 30.0264 164.4530 77.2727 0.0000 38.4786 0.0000
# 3 33.4041 77.2727 186.6009 0.0000 62.0575 0.0000
# 4 0.0000 0.0000 0.0000 17.8797 0.0000 7.5710
# 5 16.1408 38.4786 62.0575 0.0000 48.6669 0.0000
# 6 0.0000 0.0000 0.0000 7.5710 0.0000 33.4296
#
#
#
# Elastic Compliance Matrix: (Units=1/GPa)
#
#
# Indices 1 2 3 4 5 6 
#
# 1 0.020728 -0.002275 -0.001876 0.000000 -0.002684 0.000000
# 2 -0.002275 0.008147 -0.001867 0.000000 -0.003306 0.000000
# 3 -0.001876 -0.001867 0.010019 0.000000 -0.010677 0.000000
# 4 0.000000 0.000000 0.000000 0.061862 0.000000 -0.014010
# 5 -0.002684 -0.003306 -0.010677 0.000000 0.037667 0.000000
# 6 0.000000 0.000000 0.000000 -0.014010 0.000000 0.033087
#
#
# Mechanical properties :
#
#
# Convention : Reuss Voigt Hill
#
# Bulk Modulus (GPa) = 37.23285 76.56807 56.90046
# Shear Modulus (GPa) = 25.97420 37.79541 31.88481
#
# Velocity S-wave (km/s) = 3.30175 3.98284 3.65818
# Velocity P-wave (km/s) = 5.49203 7.29979 6.45946
#
# Compressibility (1/GPa) = 0.02685800
#
# Stress axis : x y z
#
# Youngs Moduli (GPa) = 48.24347 122.74476 99.81170
#
# Poissons Ratio (x) = 0.27928 0.18724
# Poissons Ratio (y) = 0.10977 0.18633
# Poissons Ratio (z) = 0.09050 0.22915
#
# Static dielectric constant tensor:
#      x y z
#    x 2.016760 0.000000 -0.066640 
#    y 0.000000 1.866770 0.000000 
#    z -0.066640 0.000000 2.023240 
# 
# From -- ./inp_files/24272.got.cif
#   From: 2010.05.17/outbox.cif.g08.bks.cpg/sg14_13_cif.got.tgz:24272.got - 2010.06.03 17:49:19.
