data_PCOD9245770
_publ_section_title
;
Structure prediction by ZEFSAII (Michael W. Deem and Ramdas Pophale) SiO2 
 PCOD9245770
Probable space group: P 21/C
;
_chemical_formula_sum "Si O2"
_cell_formula_units_Z 28
_cell_length_a 8.615748
_cell_length_b 16.309932
_cell_length_c 8.282087
_cell_angle_alpha 90.000000
_cell_angle_beta 89.609779
_cell_angle_gamma 90.000000
_cell_volume 1163.790624
_symmetry_space_group_name_H-M "P 21/C"
_symmetry_group_IT_number 14
_symmetry_cell_setting 'monoclinic'
loop_
_space_group_symop_operation_xyz
x,y,z
-x,1/2+y,1/2-z
-x,-y,-z
x,1/2-y,1/2+z
loop_
_atom_site_type_symbol
_atom_site_label
_atom_site_fract_x
_atom_site_fract_y
_atom_site_fract_z
Si Si1 0.661830 0.577201 0.329913
Si Si2 0.857210 0.841939 0.059502
Si Si3 0.434862 0.264108 0.256371
Si Si4 0.861920 0.936027 0.510367
Si Si5 0.646761 0.311035 0.991291
Si Si6 0.020377 0.711971 0.867827
Si Si7 0.392008 0.982710 0.655969
O O1 0.772665 0.578182 0.485081
O O2 0.603172 0.671732 0.304416
O O3 0.505910 0.523225 0.308194
O O4 0.767334 0.554626 0.175399
O O5 0.935758 0.798006 0.902357
O O6 0.713449 0.795005 0.146001
O O7 0.988729 0.831574 0.196250
O O8 0.497963 0.320294 0.111196
O O9 0.582368 0.257960 0.373130
O O10 0.931684 0.846437 0.494947
O O11 0.748917 0.954746 0.359655
O O12 0.000000 0.000000 0.500000
O O13 0.800420 0.286909 0.085276
O O14 0.675225 0.392475 0.886655
O O15 0.500000 0.000000 0.500000
#
# Coordination Sequence:
#
# PCOD9245770 Si02
#       7
#     4   4   4   4   4   4   4
#     4  10  21  39  61  92 115 160 206 252 300 364
#     4  12  22  40  63  93 127 156 208 255 323 378
#     4  11  20  36  61  87 121 155 197 257 306 364
#     4  11  21  42  65  87 122 169 213 246 303 376
#     4  11  22  37  57  92 122 150 205 253 315 361
#     4  12  23  38  62  96 124 167 195 262 323 368
#     4   9  21  37  63  82 116 159 209 242 290 364
#
# _framework density 24.059313
#
# number of rings (size 3 to 8) (size 9 to 14) (size 15 to 20)
#    0.000    1.143    5.714    0.857    4.000    0.000 
#    0.000    1.429    0.000    0.000    0.000    0.000 
#    0.000    0.000    0.000    0.000    0.000    0.000 
#
# Total GULP energy -156366.566132 kJ/mol
# GULP energy per Si atom -5584.520219 kJ/mol
# Density = 2.400455 g / cm^3
# Si number density = 24.059313 Si / 1000 Ang^3
#
#
#
# Elastic Constant Matrix: (Units=GPa)
#
#
# Indices 1 2 3 4 5 6 
#
# 1 119.2889 17.4352 29.5230 0.0000 22.1564 0.0000
# 2 17.4352 25.5862 -8.1849 0.0000 -6.0179 0.0000
# 3 29.5230 -8.1849 98.9532 0.0000 17.8893 0.0000
# 4 0.0000 0.0000 0.0000 26.8996 0.0000 4.0242
# 5 22.1564 -6.0179 17.8893 0.0000 41.6015 0.0000
# 6 0.0000 0.0000 0.0000 4.0242 0.0000 31.0740
#
#
#
# Elastic Compliance Matrix: (Units=1/GPa)
#
#
# Indices 1 2 3 4 5 6 
#
# 1 0.011978 -0.010746 -0.003283 0.000000 -0.006522 0.000000
# 2 -0.010746 0.050671 0.005462 0.000000 0.010704 0.000000
# 3 -0.003283 0.005462 0.012012 0.000000 -0.002627 0.000000
# 4 0.000000 0.000000 0.000000 0.037910 0.000000 -0.004910
# 5 -0.006522 0.010704 -0.002627 0.000000 0.030189 0.000000
# 6 0.000000 0.000000 0.000000 -0.004910 0.000000 0.032817
#
#
# Mechanical properties :
#
#
# Convention : Reuss Voigt Hill
#
# Bulk Modulus (GPa) = 17.38334 35.70833 26.54583
# Shear Modulus (GPa) = 23.59750 33.58534 28.59142
#
# Velocity S-wave (km/s) = 3.13518 3.74028 3.45102
# Velocity P-wave (km/s) = 4.51073 5.79025 5.19007
#
# Compressibility (1/GPa) = 0.05752635
#
# Stress axis : x y z
#
# Youngs Moduli (GPa) = 83.48916 19.73500 83.24976
#
# Poissons Ratio (x) = 0.21208 0.27334
# Poissons Ratio (y) = 0.89719 -0.45473
# Poissons Ratio (z) = 0.27413 -0.10780
#
# Static dielectric constant tensor:
#      x y z
#    x 1.920220 0.000000 0.046550 
#    y 0.000000 1.979440 0.000000 
#    z 0.046550 0.000000 2.008510 
# 
# From -- ./inp_files/9934.got.cif
#   From: 2010.05.17/outbox.cif.g08.bks.cpg/sg14_5_cif.got.tgz:9934.got - 2010.06.03 17:49:19.
