data_PCOD9245593
_publ_section_title
;
Structure prediction by ZEFSAII (Michael W. Deem and Ramdas Pophale) SiO2 
 PCOD9245593
Probable space group: P 21/C
;
_chemical_formula_sum "Si O2"
_cell_formula_units_Z 30
_cell_length_a 5.022896
_cell_length_b 19.373076
_cell_length_c 10.766790
_cell_angle_alpha 90.000000
_cell_angle_beta 91.400945
_cell_angle_gamma 90.000000
_cell_volume 1047.391813
_symmetry_space_group_name_H-M "P 21/C"
_symmetry_group_IT_number 14
_symmetry_cell_setting 'monoclinic'
loop_
_space_group_symop_operation_xyz
x,y,z
-x,1/2+y,1/2-z
-x,-y,-z
x,1/2-y,1/2+z
loop_
_atom_site_type_symbol
_atom_site_label
_atom_site_fract_x
_atom_site_fract_y
_atom_site_fract_z
Si Si1 0.734223 0.285753 0.127790
Si Si2 0.000000 0.500000 0.000000
Si Si3 0.057182 0.173068 0.038752
Si Si4 0.420491 0.576064 0.862958
Si Si5 0.177700 0.132025 0.507837
Si Si6 0.290080 0.564659 0.356729
Si Si7 0.382797 0.412047 0.387220
Si Si8 0.569764 0.686487 0.232302
O O1 0.519394 0.344612 0.079016
O O2 0.653132 0.246217 0.251998
O O3 0.803139 0.223046 0.035277
O O4 0.997399 0.332611 0.115105
O O5 0.205337 0.520413 0.882960
O O6 0.942788 0.418154 0.944322
O O7 0.257542 0.204272 0.142443
O O8 0.977240 0.101855 0.104697
O O9 0.188518 0.151353 0.912048
O O10 0.414751 0.600069 0.721759
O O11 0.703096 0.555129 0.929041
O O12 0.258076 0.179517 0.389419
O O13 0.254041 0.483674 0.340063
O O14 0.469240 0.574174 0.483018
O O15 0.438064 0.611897 0.257730
#
# Coordination Sequence:
#
# PCOD9245593 Si02
#       8
#     4   2   4   4   4   4   4   4
#     4  10  24  41  60  93 127 172 227 262 335 392
#     4  10  24  42  64  96 128 170 220 266 330 402
#     4  10  21  40  62  91 125 169 220 271 330 391
#     4  11  24  43  63  98 132 172 221 273 333 401
#     4  11  24  43  66  95 134 174 219 277 334 405
#     4   9  20  39  63  97 125 169 216 273 340 389
#     4  10  21  38  64  93 132 165 219 280 326 395
#     4  10  22  42  63  91 130 172 220 275 332 399
#
# _framework density 28.642575999999998
#
# number of rings (size 3 to 8) (size 9 to 14) (size 15 to 20)
#    0.000    1.867    0.000    2.400    1.867    7.467 
#    9.600    0.000    0.000    0.000    0.000    0.000 
#    0.000    0.000    0.000    0.000    0.000    0.000 
#
# Total GULP energy -167117.654014 kJ/mol
# GULP energy per Si atom -5570.588467 kJ/mol
# Density = 2.857738 g / cm^3
# Si number density = 28.642576 Si / 1000 Ang^3
#
#
#
# Elastic Constant Matrix: (Units=GPa)
#
#
# Indices 1 2 3 4 5 6 
#
# 1 32.8242 -28.1951 24.4396 0.0000 36.7943 0.0000
# 2 -28.1951 100.3949 67.1097 0.0000 24.6372 0.0000
# 3 24.4396 67.1097 103.3574 0.0000 -15.1610 0.0000
# 4 0.0000 0.0000 0.0000 21.5494 0.0000 -31.8499
# 5 36.7943 24.6372 -15.1610 0.0000 16.0093 0.0000
# 6 0.0000 0.0000 0.0000 -31.8499 0.0000 45.3904
#
#
#
# Elastic Compliance Matrix: (Units=1/GPa)
#
#
# Indices 1 2 3 4 5 6 
#
# 1 0.001603 -0.007902 0.006962 0.000000 0.015069 0.000000
# 2 -0.007902 0.004969 0.000214 0.000000 0.010715 0.000000
# 3 0.006962 0.000214 0.006382 0.000000 -0.010286 0.000000
# 4 0.000000 0.000000 0.000000 -1.251156 0.000000 -0.877921
# 5 0.015069 0.010715 -0.010286 0.000000 0.001600 0.000000
# 6 0.000000 0.000000 0.000000 -0.877921 0.000000 -0.593995
#
#
# Mechanical properties :
#
#
# Convention : Reuss Voigt Hill
#
# Bulk Modulus (GPa) = 86.94552 40.36499 63.65525
# Shear Modulus (GPa) = -2.73926 28.13796 12.69935
#
# Velocity S-wave (km/s) = -0.97900 3.13770 2.10793
# Velocity P-wave (km/s) = 5.39846 5.22016 5.31006
#
# Compressibility (1/GPa) = 0.01150146
#
# Stress axis : x y z
#
# Youngs Moduli (GPa) = 623.88145 201.23547 156.70189
#
# Poissons Ratio (x) = 1.59008 -1.09094
# Poissons Ratio (y) = 4.92964 -0.03347
# Poissons Ratio (z) = -4.34338 -0.04298
#
# Static dielectric constant tensor:
#      x y z
#    x 2.936960 0.000000 0.146010 
#    y 0.000000 3.255410 0.000000 
#    z 0.146010 0.000000 2.626820 
# 
# From -- ./inp_files/21776.got.cif
#   From: 2010.05.17/outbox.cif.g08.bks.cpg/sg14_11_cif.got.tgz:21776.got - 2010.06.03 17:49:19.
