data_PCOD9245080
_publ_section_title
;
Structure prediction by ZEFSAII (Michael W. Deem and Ramdas Pophale) SiO2 
 PCOD9245080
Probable space group: P 21/C
;
_chemical_formula_sum "Si O2"
_cell_formula_units_Z 32
_cell_length_a 17.596804
_cell_length_b 19.604740
_cell_length_c 16.949053
_cell_angle_alpha 90.000000
_cell_angle_beta 16.255554
_cell_angle_gamma 90.000000
_cell_volume 1636.731615
_symmetry_space_group_name_H-M "P 21/C"
_symmetry_group_IT_number 14
_symmetry_cell_setting 'monoclinic'
loop_
_space_group_symop_operation_xyz
x,y,z
-x,1/2+y,1/2-z
-x,-y,-z
x,1/2-y,1/2+z
loop_
_atom_site_type_symbol
_atom_site_label
_atom_site_fract_x
_atom_site_fract_y
_atom_site_fract_z
Si Si1 0.490964 0.157857 0.773747
Si Si2 0.991301 0.291614 0.853732
Si Si3 0.508760 0.208418 0.146269
Si Si4 0.683752 0.454207 0.964363
Si Si5 0.183750 0.545797 0.464339
Si Si6 0.749982 0.766497 0.249998
Si Si7 0.749996 0.138984 0.250020
Si Si8 0.990906 0.657890 0.773744
O O1 0.506385 0.218888 0.694066
O O2 0.597179 0.090708 0.625365
O O3 0.689818 0.179646 0.646648
O O4 0.187456 0.158453 0.108868
O O5 0.114620 0.277641 0.816012
O O6 0.993670 0.218918 0.805942
O O7 0.385450 0.222388 0.183978
O O8 0.312602 0.158485 0.391134
O O9 0.810245 0.179681 0.853349
O O10 0.492088 0.520337 0.154863
O O11 0.643376 0.408033 0.927098
O O12 0.992090 0.479667 0.654862
O O13 0.143409 0.591948 0.427019
O O14 0.097135 0.590738 0.625359
O O15 0.501902 0.814314 0.527352
O O16 0.998087 0.814315 0.972640
#
# Coordination Sequence:
#
# PCOD9245080 Si02
#       8
#     4   4   4   4   4   4   4   4
#     4  10  21  38  56  84 111 152 192 244 279 335
#     4  10  21  36  60  82 115 145 190 242 297 336
#     4  10  21  36  60  82 115 145 190 242 297 336
#     4  12  24  39  57  82 119 165 199 226 273 340
#     4  12  24  39  57  82 119 165 199 226 273 340
#     4  12  22  37  60  90 116 157 182 238 300 354
#     4  12  24  37  54  86 126 157 196 222 270 356
#     4  10  21  38  56  84 111 152 192 244 279 335
#
# _framework density 19.551158999999998
#
# number of rings (size 3 to 8) (size 9 to 14) (size 15 to 20)
#    0.000    1.000    2.500    5.250    7.000    0.000 
#    0.000    0.000    0.000    0.000    0.000   17.500 
#    0.000    0.000    0.000    0.000    0.000    0.000 
#
# Total GULP energy -178897.793977 kJ/mol
# GULP energy per Si atom -5590.556062 kJ/mol
# Density = 1.950666 g / cm^3
# Si number density = 19.551159 Si / 1000 Ang^3
#
#
#
# Elastic Constant Matrix: (Units=GPa)
#
#
# Indices 1 2 3 4 5 6 
#
# 1 98.1018 26.3755 -9.1580 0.0000 -16.1987 0.0000
# 2 26.3755 38.3493 1.9401 0.0000 8.8547 0.0000
# 3 -9.1580 1.9401 58.7795 0.0000 -7.8021 0.0000
# 4 0.0000 0.0000 0.0000 37.5064 0.0000 9.0971
# 5 -16.1987 8.8547 -7.8021 0.0000 27.9788 0.0000
# 6 0.0000 0.0000 0.0000 9.0971 0.0000 13.5981
#
#
#
# Elastic Compliance Matrix: (Units=1/GPa)
#
#
# Indices 1 2 3 4 5 6 
#
# 1 0.018086 -0.016732 0.005673 0.000000 0.017348 0.000000
# 2 -0.016732 0.043885 -0.007461 0.000000 -0.025657 0.000000
# 3 0.005673 -0.007461 0.019618 0.000000 0.011116 0.000000
# 4 0.000000 0.000000 0.000000 0.031826 0.000000 -0.021292
# 5 0.017348 -0.025657 0.011116 0.000000 0.057005 0.000000
# 6 0.000000 0.000000 0.000000 -0.021292 0.000000 0.087784
#
#
# Mechanical properties :
#
#
# Convention : Reuss Voigt Hill
#
# Bulk Modulus (GPa) = 22.44664 25.94954 24.19809
# Shear Modulus (GPa) = 16.12408 27.55485 21.83947
#
# Velocity S-wave (km/s) = 2.87490 3.75823 3.34584
# Velocity P-wave (km/s) = 4.74615 5.66867 5.22780
#
# Compressibility (1/GPa) = 0.04455011
#
# Stress axis : x y z
#
# Youngs Moduli (GPa) = 55.29083 22.78669 50.97264
#
# Poissons Ratio (x) = 0.38126 -0.28916
# Poissons Ratio (y) = 0.92512 0.38030
# Poissons Ratio (z) = -0.31366 0.17001
#
# Static dielectric constant tensor:
#      x y z
#    x 1.683240 0.000000 -0.000620 
#    y 0.000000 1.667950 0.000000 
#    z -0.000620 0.000000 1.680130 
# 
# From -- ./inp_files/47614.got.cif
#   From: 2010.05.17/outbox.cif.g08.bks.cpg/sg14_24_cif.got.tgz:47614.got - 2010.06.03 17:49:19.
