data_PCOD9245016
_publ_section_title
;
Structure prediction by ZEFSAII (Michael W. Deem and Ramdas Pophale) SiO2 
 PCOD9245016
Probable space group: P 21/C
;
_chemical_formula_sum "Si O2"
_cell_formula_units_Z 24
_cell_length_a 17.740282
_cell_length_b 10.281060
_cell_length_c 4.927132
_cell_angle_alpha 90.000000
_cell_angle_beta 77.343411
_cell_angle_gamma 90.000000
_cell_volume 876.817656
_symmetry_space_group_name_H-M "P 21/C"
_symmetry_group_IT_number 14
_symmetry_cell_setting 'monoclinic'
loop_
_space_group_symop_operation_xyz
x,y,z
-x,1/2+y,1/2-z
-x,-y,-z
x,1/2-y,1/2+z
loop_
_atom_site_type_symbol
_atom_site_label
_atom_site_fract_x
_atom_site_fract_y
_atom_site_fract_z
Si Si1 0.129775 0.481807 0.362998
Si Si2 0.233656 0.659961 0.927321
Si Si3 0.010561 0.669305 0.751961
Si Si4 0.563037 0.847749 0.204794
Si Si5 0.400658 0.658789 0.907545
Si Si6 0.727909 0.840770 0.981164
O O1 0.170660 0.565579 0.097882
O O2 0.072993 0.567787 0.593696
O O3 0.197050 0.420044 0.492578
O O4 0.074588 0.378798 0.257789
O O5 0.228439 0.787441 0.127056
O O6 0.318103 0.598126 0.909113
O O7 0.020621 0.797767 0.558006
O O8 0.563243 0.762416 0.475133
O O9 0.479314 0.917245 0.273802
O O10 0.646391 0.913594 0.107931
O O11 0.401777 0.713830 0.210818
O O12 0.728902 0.713448 0.176069
#
# Coordination Sequence:
#
# PCOD9245016 Si02
#       6
#     4   4   4   4   4   4
#     4  11  24  40  65  88 114 150 187 230 288 339
#     4  10  21  36  56  85 117 149 190 235 278 330
#     4  11  26  45  64  88 116 147 186 231 282 346
#     4   8  14  27  48  73 106 148 186 224 272 320
#     4   8  14  27  48  73 106 148 186 224 272 320
#     4  10  21  36  56  85 117 149 190 235 278 330
#
# _framework density 27.371708999999999
#
# number of rings (size 3 to 8) (size 9 to 14) (size 15 to 20)
#    0.000    2.333    0.000    2.000    0.000    6.667 
#    0.000    0.833    0.000    0.000    0.000   23.333 
#    0.000    0.000    0.000    0.000    0.000    0.000 
#
# Total GULP energy -134668.595901 kJ/mol
# GULP energy per Si atom -5611.191496 kJ/mol
# Density = 2.730941 g / cm^3
# Si number density = 27.371709 Si / 1000 Ang^3
#
#
#
# Elastic Constant Matrix: (Units=GPa)
#
#
# Indices 1 2 3 4 5 6 
#
# 1 186.3074 43.2787 24.8423 0.0000 -43.2364 0.0000
# 2 43.2787 68.7855 26.4199 0.0000 -14.8552 0.0000
# 3 24.8423 26.4199 120.9238 0.0000 6.2461 0.0000
# 4 0.0000 0.0000 0.0000 34.6531 0.0000 16.0793
# 5 -43.2364 -14.8552 6.2461 0.0000 49.8160 0.0000
# 6 0.0000 0.0000 0.0000 16.0793 0.0000 -0.1089
#
#
#
# Elastic Compliance Matrix: (Units=1/GPa)
#
#
# Indices 1 2 3 4 5 6 
#
# 1 0.007588 -0.003059 -0.001191 0.000000 0.005823 0.000000
# 2 -0.003059 0.018565 -0.003600 0.000000 0.003332 0.000000
# 3 -0.001191 -0.003600 0.009471 0.000000 -0.003295 0.000000
# 4 0.000000 0.000000 0.000000 0.000415 0.000000 0.061297
# 5 0.005823 0.003332 -0.003295 0.000000 0.026535 0.000000
# 6 0.000000 0.000000 0.000000 0.061297 0.000000 -0.132104
#
#
# Mechanical properties :
#
#
# Convention : Reuss Voigt Hill
#
# Bulk Modulus (GPa) = 50.19133 62.78871 56.49002
# Shear Modulus (GPa) = -105.96134 35.63711 -35.16211
#
# Velocity S-wave (km/s) = -6.22865 3.61219 -3.58804
# Velocity P-wave (km/s) = 5.77506 6.35503 1.87551
#
# Compressibility (1/GPa) = 0.01992376
#
# Stress axis : x y z
#
# Youngs Moduli (GPa) = 131.78036 53.86444 105.58431
#
# Poissons Ratio (x) = 0.16479 0.12578
# Poissons Ratio (y) = 0.40316 0.38008
# Poissons Ratio (z) = 0.15699 0.19390
#
# Static dielectric constant tensor:
#      x y z
#    x 2.169510 0.000000 -0.032630 
#    y 0.000000 2.098880 0.000000 
#    z -0.032630 0.000000 2.031680 
# 
# From -- ./inp_files/4060.got.cif
#   From: 2010.05.17/outbox.cif.g08.bks.cpg/sg14_3_cif.got.tgz:4060.got - 2010.06.03 17:49:19.
