data_PCOD9245083
_publ_section_title
;
Structure prediction by ZEFSAII (Michael W. Deem and Ramdas Pophale) SiO2 
 PCOD9245083
Probable space group: P 21/C
;
_chemical_formula_sum "Si O2"
_cell_formula_units_Z 32
_cell_length_a 7.060463
_cell_length_b 32.874909
_cell_length_c 5.276045
_cell_angle_alpha 90.000000
_cell_angle_beta 75.163276
_cell_angle_gamma 90.000000
_cell_volume 1183.803822
_symmetry_space_group_name_H-M "P 21/C"
_symmetry_group_IT_number 14
_symmetry_cell_setting 'monoclinic'
loop_
_space_group_symop_operation_xyz
x,y,z
-x,1/2+y,1/2-z
-x,-y,-z
x,1/2-y,1/2+z
loop_
_atom_site_type_symbol
_atom_site_label
_atom_site_fract_x
_atom_site_fract_y
_atom_site_fract_z
Si Si1 0.286871 0.139361 0.062192
Si Si2 0.828501 0.055550 0.196436
Si Si3 0.935264 0.601095 0.738489
Si Si4 0.481346 0.446433 0.465755
Si Si5 0.731937 0.528465 0.976782
Si Si6 0.819931 0.273948 0.849390
Si Si7 0.845719 0.363452 0.952933
Si Si8 0.700306 0.726951 0.295833
O O1 0.420082 0.100069 0.053121
O O2 0.375258 0.182440 0.102034
O O3 0.073500 0.138684 0.275885
O O4 0.226290 0.133764 0.786859
O O5 0.703861 0.050022 0.982228
O O6 0.752990 0.095533 0.371382
O O7 0.824444 0.013741 0.351202
O O8 0.032286 0.071030 0.011597
O O9 0.877426 0.566581 0.955710
O O10 0.120604 0.627143 0.762202
O O11 0.415564 0.457377 0.201698
O O12 0.373491 0.473458 0.717972
O O13 0.762485 0.255502 0.599374
O O14 0.754452 0.320367 0.920903
O O15 0.059964 0.274870 0.774471
O O16 0.645560 0.758684 0.534638
#
# Coordination Sequence:
#
# PCOD9245083 Si02
#       8
#     4   4   4   4   4   4   4   4
#     4   9  20  37  56  84 118 155 193 244 298 352
#     4  11  25  38  61  90 121 159 204 249 298 358
#     4  10  22  38  59  88 123 159 198 249 299 355
#     4  11  24  42  62  86 118 162 205 248 296 354
#     4  11  24  43  62  86 120 164 203 251 297 351
#     4   9  19  32  53  83 115 148 188 238 290 346
#     4  10  21  36  60  86 121 153 196 244 299 355
#     4   9  18  28  52  84 112 141 188 242 292 344
#
# _framework density 27.031507999999999
#
# number of rings (size 3 to 8) (size 9 to 14) (size 15 to 20)
#    0.000    2.000    1.250    1.125   14.000    0.500 
#    0.000    0.000    0.000    1.500    0.000    0.000 
#    0.000    0.000    0.000    0.000    0.000    0.000 
#
# Total GULP energy -178998.013786 kJ/mol
# GULP energy per Si atom -5593.687931 kJ/mol
# Density = 2.696998 g / cm^3
# Si number density = 27.031508 Si / 1000 Ang^3
#
#
#
# Elastic Constant Matrix: (Units=GPa)
#
#
# Indices 1 2 3 4 5 6 
#
# 1 49.4458 18.7772 17.2800 0.0000 10.9851 0.0000
# 2 18.7772 227.8950 57.4962 0.0000 23.7633 0.0000
# 3 17.2800 57.4962 120.2699 0.0000 27.8876 0.0000
# 4 0.0000 0.0000 0.0000 38.5013 0.0000 1.5315
# 5 10.9851 23.7633 27.8876 0.0000 41.8254 0.0000
# 6 0.0000 0.0000 0.0000 1.5315 0.0000 25.0024
#
#
#
# Elastic Compliance Matrix: (Units=1/GPa)
#
#
# Indices 1 2 3 4 5 6 
#
# 1 0.022112 -0.000948 -0.001777 0.000000 -0.004084 0.000000
# 2 -0.000948 0.005108 -0.002000 0.000000 -0.001320 0.000000
# 3 -0.001777 -0.002000 0.010828 0.000000 -0.005617 0.000000
# 4 0.000000 0.000000 0.000000 0.026037 0.000000 -0.001595
# 5 -0.004084 -0.001320 -0.005617 0.000000 0.029477 0.000000
# 6 0.000000 0.000000 0.000000 -0.001595 0.000000 0.040094
#
#
# Mechanical properties :
#
#
# Convention : Reuss Voigt Hill
#
# Bulk Modulus (GPa) = 34.96476 64.96863 49.96670
# Shear Modulus (GPa) = 32.75709 41.33632 37.04670
#
# Velocity S-wave (km/s) = 3.48488 3.91473 3.70604
# Velocity P-wave (km/s) = 5.39958 6.67233 6.06941
#
# Compressibility (1/GPa) = 0.02860022
#
# Stress axis : x y z
#
# Youngs Moduli (GPa) = 45.22335 195.76181 92.34958
#
# Poissons Ratio (x) = 0.18553 0.16410
# Poissons Ratio (y) = 0.04286 0.18468
# Poissons Ratio (z) = 0.08036 0.39149
#
# Static dielectric constant tensor:
#      x y z
#    x 2.268050 0.000000 -0.044650 
#    y 0.000000 2.049440 0.000000 
#    z -0.044650 0.000000 2.267620 
# 
# From -- ./inp_files/2139.got.cif
#   From: 2010.05.17/outbox.cif.g08.bks.cpg/sg14_2_cif.got.tgz:2139.got - 2010.06.03 17:49:19.
