data_PCOD9245849
_publ_section_title
;
Structure prediction by ZEFSAII (Michael W. Deem and Ramdas Pophale) SiO2 
 PCOD9245849
Probable space group: P 21/C
;
_chemical_formula_sum "Si O2"
_cell_formula_units_Z 32
_cell_length_a 10.380137
_cell_length_b 14.978879
_cell_length_c 8.313890
_cell_angle_alpha 90.000000
_cell_angle_beta 71.281151
_cell_angle_gamma 90.000000
_cell_volume 1224.291087
_symmetry_space_group_name_H-M "P 21/C"
_symmetry_group_IT_number 14
_symmetry_cell_setting 'monoclinic'
loop_
_space_group_symop_operation_xyz
x,y,z
-x,1/2+y,1/2-z
-x,-y,-z
x,1/2-y,1/2+z
loop_
_atom_site_type_symbol
_atom_site_label
_atom_site_fract_x
_atom_site_fract_y
_atom_site_fract_z
Si Si1 0.775294 0.715388 0.924192
Si Si2 0.480606 0.802929 0.607406
Si Si3 0.206402 0.548279 0.755820
Si Si4 0.231649 0.114186 0.910145
Si Si5 0.467373 0.888305 0.260784
Si Si6 0.060638 0.790848 0.488586
Si Si7 0.239093 0.611911 0.387765
Si Si8 0.990087 0.079961 0.218310
O O1 0.785709 0.672752 0.744985
O O2 0.746440 0.821317 0.941821
O O3 0.914531 0.795499 0.462929
O O4 0.640923 0.679354 0.067436
O O5 0.452925 0.839813 0.439463
O O6 0.453557 0.696637 0.643627
O O7 0.381186 0.853555 0.766890
O O8 0.351908 0.537351 0.782706
O O9 0.241735 0.562352 0.555092
O O10 0.079783 0.480219 0.802838
O O11 0.152433 0.638033 0.858843
O O12 0.082419 0.081717 0.021432
O O13 0.380646 0.072735 0.820740
O O14 0.037188 0.827656 0.677550
O O15 0.140987 0.698006 0.456032
O O16 0.161173 0.554063 0.280525
#
# Coordination Sequence:
#
# PCOD9245849 Si02
#       8
#     4   4   4   4   4   4   4   4
#     4  10  21  39  67  98 126 159 212 273 317 372
#     4  10  21  39  67  98 126 159 212 273 317 372
#     4  12  26  42  63  94 135 174 212 266 323 378
#     4  10  21  39  63  95 129 165 210 261 322 383
#     4  10  21  39  63  95 129 165 210 261 322 383
#     4  12  24  41  67  96 126 167 221 264 317 379
#     4  12  24  41  67  96 126 167 221 264 317 379
#     4  12  26  42  63  94 135 174 212 266 323 378
#
# _framework density 26.137573
#
# number of rings (size 3 to 8) (size 9 to 14) (size 15 to 20)
#    0.000    1.000    2.500    4.500    0.000    3.500 
#    0.000    0.000    0.000    3.750    0.000    0.000 
#    0.000    0.000    0.000    0.000    0.000    0.000 
#
# Total GULP energy -178989.762951 kJ/mol
# GULP energy per Si atom -5593.430092 kJ/mol
# Density = 2.607808 g / cm^3
# Si number density = 26.137573 Si / 1000 Ang^3
#
#
#
# Elastic Constant Matrix: (Units=GPa)
#
#
# Indices 1 2 3 4 5 6 
#
# 1 113.8365 -11.4940 35.6808 0.0000 -26.8659 0.0000
# 2 -11.4940 42.8595 15.5307 0.0000 -9.4541 0.0000
# 3 35.6808 15.5307 124.7465 0.0000 -21.9538 0.0000
# 4 0.0000 0.0000 0.0000 34.2463 0.0000 -2.5910
# 5 -26.8659 -9.4541 -21.9538 0.0000 44.3680 0.0000
# 6 0.0000 0.0000 0.0000 -2.5910 0.0000 36.2340
#
#
#
# Elastic Compliance Matrix: (Units=1/GPa)
#
#
# Indices 1 2 3 4 5 6 
#
# 1 0.011939 0.005803 -0.002900 0.000000 0.007031 0.000000
# 2 0.005803 0.027940 -0.003803 0.000000 0.007586 0.000000
# 3 -0.002900 -0.003803 0.009713 0.000000 0.002240 0.000000
# 4 0.000000 0.000000 0.000000 0.029359 0.000000 0.002099
# 5 0.007031 0.007586 0.002240 0.000000 0.029521 0.000000
# 6 0.000000 0.000000 0.000000 0.002099 0.000000 0.027749
#
#
# Mechanical properties :
#
#
# Convention : Reuss Voigt Hill
#
# Bulk Modulus (GPa) = 20.92390 40.09751 30.51071
# Shear Modulus (GPa) = 32.47783 39.08465 35.78124
#
# Velocity S-wave (km/s) = 3.52884 3.87116 3.70396
# Velocity P-wave (km/s) = 4.96249 5.94604 5.47639
#
# Compressibility (1/GPa) = 0.04779223
#
# Stress axis : x y z
#
# Youngs Moduli (GPa) = 83.76062 35.79111 102.95020
#
# Poissons Ratio (x) = -0.20771 0.29855
# Poissons Ratio (y) = -0.48610 0.39156
# Poissons Ratio (z) = 0.24290 0.13613
#
# Static dielectric constant tensor:
#      x y z
#    x 2.082690 0.000000 0.008840 
#    y 0.000000 2.273120 0.000000 
#    z 0.008840 0.000000 2.009840 
# 
# From -- ./inp_files/13875.got.cif
#   From: 2010.05.17/outbox.cif.g08.bks.cpg/sg14_7_cif.got.tgz:13875.got - 2010.06.03 17:49:19.
