data_PCOD9245872
_publ_section_title
;
Structure prediction by ZEFSAII (Michael W. Deem and Ramdas Pophale) SiO2 
 PCOD9245872
Probable space group: P 21/C
;
_chemical_formula_sum "Si O2"
_cell_formula_units_Z 32
_cell_length_a 6.055665
_cell_length_b 10.511460
_cell_length_c 22.354458
_cell_angle_alpha 90.000000
_cell_angle_beta 85.449121
_cell_angle_gamma 90.000000
_cell_volume 1418.461823
_symmetry_space_group_name_H-M "P 21/C"
_symmetry_group_IT_number 14
_symmetry_cell_setting 'monoclinic'
loop_
_space_group_symop_operation_xyz
x,y,z
-x,1/2+y,1/2-z
-x,-y,-z
x,1/2-y,1/2+z
loop_
_atom_site_type_symbol
_atom_site_label
_atom_site_fract_x
_atom_site_fract_y
_atom_site_fract_z
Si Si1 0.992918 0.675495 0.333555
Si Si2 0.095674 0.795642 0.698066
Si Si3 0.647990 0.046158 0.845834
Si Si4 0.711987 0.785343 0.135735
Si Si5 0.974531 0.206507 0.973900
Si Si6 0.343034 0.604836 0.428663
Si Si7 0.658332 0.104763 0.407740
Si Si8 0.710237 0.818980 0.430049
O O1 0.797573 0.572600 0.325025
O O2 0.864697 0.790059 0.369067
O O3 0.105919 0.706796 0.268441
O O4 0.178008 0.624076 0.375732
O O5 0.191600 0.665382 0.667392
O O6 0.230533 0.903632 0.660690
O O7 0.846559 0.798768 0.679555
O O8 0.424967 0.109881 0.823810
O O9 0.530053 0.002339 0.910873
O O10 0.555955 0.691091 0.100603
O O11 0.873362 0.847159 0.082614
O O12 0.822409 0.314415 0.946440
O O13 0.816159 0.105902 0.010421
O O14 0.135879 0.271707 0.018722
O O15 0.493633 0.731194 0.431594
O O16 0.636227 0.964672 0.434025
#
# Coordination Sequence:
#
# PCOD9245872 Si02
#       8
#     4   4   4   4   4   4   4   4
#     4  10  23  42  61  89 125 161 206 259 306 358
#     4  10  23  42  61  89 125 161 206 259 306 358
#     4  10  22  41  63  87 120 156 208 253 298 369
#     4  10  22  41  61  91 122 164 205 254 308 364
#     4  10  21  39  64  90 132 159 201 256 308 366
#     4  10  22  41  61  91 122 164 205 254 308 364
#     4  10  22  39  62  95 125 164 206 251 307 366
#     4  10  22  39  62  95 125 164 206 251 307 366
#
# _framework density 22.559649
#
# number of rings (size 3 to 8) (size 9 to 14) (size 15 to 20)
#    0.000    2.000    0.000    1.875    1.750   10.500 
#    4.500   16.250    0.000    0.000    0.000    0.000 
#    0.000    0.000    0.000    0.000    0.000    0.000 
#
# Total GULP energy -178418.464699 kJ/mol
# GULP energy per Si atom -5575.577022 kJ/mol
# Density = 2.250830 g / cm^3
# Si number density = 22.559649 Si / 1000 Ang^3
#
#
#
# Elastic Constant Matrix: (Units=GPa)
#
#
# Indices 1 2 3 4 5 6 
#
# 1 105.1975 27.7610 52.3961 0.0000 -7.3774 0.0000
# 2 27.7610 75.4514 19.8667 0.0000 -2.1590 0.0000
# 3 52.3961 19.8667 120.0013 0.0000 -7.1262 0.0000
# 4 0.0000 0.0000 0.0000 7.7339 0.0000 -1.9351
# 5 -7.3774 -2.1590 -7.1262 0.0000 17.5654 0.0000
# 6 0.0000 0.0000 0.0000 -1.9351 0.0000 22.2107
#
#
#
# Elastic Compliance Matrix: (Units=1/GPa)
#
#
# Indices 1 2 3 4 5 6 
#
# 1 0.013100 -0.003423 -0.004971 0.000000 0.003064 0.000000
# 2 -0.003423 0.014763 -0.000950 0.000000 -0.000009 0.000000
# 3 -0.004971 -0.000950 0.010790 0.000000 0.002173 0.000000
# 4 0.000000 0.000000 0.000000 0.132183 0.000000 0.011516
# 5 0.003064 -0.000009 0.002173 0.000000 0.059098 0.000000
# 6 0.000000 0.000000 0.000000 0.011516 0.000000 0.046027
#
#
# Mechanical properties :
#
#
# Convention : Reuss Voigt Hill
#
# Bulk Modulus (GPa) = 50.08890 55.63308 52.86099
# Shear Modulus (GPa) = 16.59454 22.87709 19.73582
#
# Velocity S-wave (km/s) = 2.71511 3.18790 2.96096
# Velocity P-wave (km/s) = 5.66394 6.18581 5.93062
#
# Compressibility (1/GPa) = 0.01996450
#
# Stress axis : x y z
#
# Youngs Moduli (GPa) = 76.33422 67.73694 92.67746
#
# Poissons Ratio (x) = 0.23189 0.46072
# Poissons Ratio (y) = 0.26132 0.08803
# Poissons Ratio (z) = 0.37948 0.06434
#
# Static dielectric constant tensor:
#      x y z
#    x 1.890120 0.000000 -0.023290 
#    y 0.000000 1.858650 0.000000 
#    z -0.023290 0.000000 1.839800 
# 
# From -- ./inp_files/63534.got.cif
#   From: 2010.05.17/outbox.cif.g08.bks.cpg/sg14_32_cif.got.tgz:63534.got - 2010.06.03 17:49:19.
