data_PCOD9245037
_publ_section_title
;
Structure prediction by ZEFSAII (Michael W. Deem and Ramdas Pophale) SiO2 
 PCOD9245037
Probable space group: P 21/C
;
_chemical_formula_sum "Si O2"
_cell_formula_units_Z 26
_cell_length_a 18.747261
_cell_length_b 4.924918
_cell_length_c 10.856572
_cell_angle_alpha 90.000000
_cell_angle_beta 89.451790
_cell_angle_gamma 90.000000
_cell_volume 1002.327548
_symmetry_space_group_name_H-M "P 21/C"
_symmetry_group_IT_number 14
_symmetry_cell_setting 'monoclinic'
loop_
_space_group_symop_operation_xyz
x,y,z
-x,1/2+y,1/2-z
-x,-y,-z
x,1/2-y,1/2+z
loop_
_atom_site_type_symbol
_atom_site_label
_atom_site_fract_x
_atom_site_fract_y
_atom_site_fract_z
Si Si1 0.771443 0.152995 0.818147
Si Si2 0.380836 0.213147 0.342913
Si Si3 0.927491 0.329401 0.417907
Si Si4 0.381265 0.713107 0.164871
Si Si5 0.074579 0.171490 0.423838
Si Si6 0.500000 0.000000 0.000000
Si Si7 0.771648 0.846919 0.172344
O O1 0.850417 0.218502 0.862056
O O2 0.699235 0.248907 0.884626
O O3 0.767669 0.332629 0.693333
O O4 0.765796 0.831704 0.797698
O O5 0.390667 0.418498 0.225653
O O6 0.437707 0.303998 0.440780
O O7 0.300297 0.255133 0.393663
O O8 0.389512 0.917815 0.282446
O O9 0.932251 0.643197 0.453628
O O10 0.001666 0.241951 0.352705
O O11 0.925450 0.141255 0.539910
O O12 0.438682 0.807134 0.066619
O O13 0.150861 0.260254 0.373499
#
# Coordination Sequence:
#
# PCOD9245037 Si02
#       7
#     4   4   4   4   4   2   4
#     4  10  21  39  59  85 120 158 196 252 307 355
#     4  10  24  43  62  94 130 155 209 266 301 378
#     4  10  21  36  57  87 121 157 203 254 296 358
#     4  10  24  43  62  94 130 155 209 266 301 378
#     4  10  21  36  57  87 121 157 203 254 296 358
#     4  12  24  42  72  92 118 182 200 250 344 372
#     4  10  21  39  59  85 120 158 196 252 307 355
#
# _framework density 25.939626000000001
#
# number of rings (size 3 to 8) (size 9 to 14) (size 15 to 20)
#    0.000    1.846    0.000    2.769    2.154    3.692 
#    0.000    0.000    0.000    0.000    0.000    0.000 
#    0.000    0.000    0.000    0.000    0.000    0.000 
#
# Total GULP energy -144849.277349 kJ/mol
# GULP energy per Si atom -5571.126052 kJ/mol
# Density = 2.588059 g / cm^3
# Si number density = 25.939626 Si / 1000 Ang^3
#
#
#
# Elastic Constant Matrix: (Units=GPa)
#
#
# Indices 1 2 3 4 5 6 
#
# 1 280.9576 16.6804 37.9447 0.0000 0.4179 0.0000
# 2 16.6804 90.0613 21.8679 0.0000 -3.1375 0.0000
# 3 37.9447 21.8679 38.4660 0.0000 -1.6401 0.0000
# 4 0.0000 0.0000 0.0000 37.6610 0.0000 -4.5939
# 5 0.4179 -3.1375 -1.6401 0.0000 43.6282 0.0000
# 6 0.0000 0.0000 0.0000 -4.5939 0.0000 5.9748
#
#
#
# Elastic Compliance Matrix: (Units=1/GPa)
#
#
# Indices 1 2 3 4 5 6 
#
# 1 0.004113 0.000254 -0.004209 0.000000 -0.000179 0.000000
# 2 0.000254 0.012916 -0.007566 0.000000 0.000642 0.000000
# 3 -0.004209 -0.007566 0.034484 0.000000 0.000793 0.000000
# 4 0.000000 0.000000 0.000000 0.029301 0.000000 0.022529
# 5 -0.000179 0.000642 0.000793 0.000000 0.022999 0.000000
# 6 0.000000 0.000000 0.000000 0.022529 0.000000 0.184691
#
#
# Mechanical properties :
#
#
# Convention : Reuss Voigt Hill
#
# Bulk Modulus (GPa) = 35.12371 62.49675 48.81023
# Shear Modulus (GPa) = 15.57456 39.65225 27.61341
#
# Velocity S-wave (km/s) = 2.45300 3.91402 3.26625
# Velocity P-wave (km/s) = 4.64681 6.67619 5.75171
#
# Compressibility (1/GPa) = 0.02847080
#
# Stress axis : x y z
#
# Youngs Moduli (GPa) = 243.13632 77.42361 28.99876
#
# Poissons Ratio (x) = -0.01967 0.12206
# Poissons Ratio (y) = -0.06177 0.21940
# Poissons Ratio (z) = 1.02342 0.58578
#
# Static dielectric constant tensor:
#      x y z
#    x 2.039770 0.000000 -0.000450 
#    y 0.000000 1.966950 0.000000 
#    z -0.000450 0.000000 2.103070 
# 
# From -- ./inp_files/33383.got.cif
#   From: 2010.05.17/outbox.cif.g08.bks.cpg/sg14_17_cif.got.tgz:33383.got - 2010.06.03 17:49:19.
