data_PCOD9245662
_publ_section_title
;
Structure prediction by ZEFSAII (Michael W. Deem and Ramdas Pophale) SiO2 
 PCOD9245662
Probable space group: P 21/C
;
_chemical_formula_sum "Si O2"
_cell_formula_units_Z 20
_cell_length_a 7.798398
_cell_length_b 12.173313
_cell_length_c 12.764732
_cell_angle_alpha 90.000000
_cell_angle_beta 136.595287
_cell_angle_gamma 90.000000
_cell_volume 832.675361
_symmetry_space_group_name_H-M "P 21/C"
_symmetry_group_IT_number 14
_symmetry_cell_setting 'monoclinic'
loop_
_space_group_symop_operation_xyz
x,y,z
-x,1/2+y,1/2-z
-x,-y,-z
x,1/2-y,1/2+z
loop_
_atom_site_type_symbol
_atom_site_label
_atom_site_fract_x
_atom_site_fract_y
_atom_site_fract_z
Si Si1 0.346343 0.389687 0.950683
Si Si2 0.528277 0.653081 0.557222
Si Si3 0.878201 0.248041 0.005336
Si Si4 0.422406 0.219860 0.147343
Si Si5 0.051226 0.470280 0.144332
O O1 0.374034 0.282053 0.890050
O O2 0.430764 0.341359 0.100032
O O3 0.066085 0.432283 0.840872
O O4 0.500000 0.500000 0.000000
O O5 0.254239 0.656076 0.484058
O O6 0.559153 0.641269 0.446220
O O7 0.684451 0.569127 0.695805
O O8 0.670898 0.285199 0.827143
O O9 0.145521 0.214562 0.075188
O O10 0.907807 0.354223 0.092419
O O11 0.000000 0.500000 0.000000
#
# Coordination Sequence:
#
# PCOD9245662 Si02
#       5
#     4   4   4   4   4
#     4  10  21  38  67  96 132 185 228 277 358 411
#     4  10  24  41  68  99 140 178 231 295 339 424
#     4  12  21  41  67 101 134 180 231 287 349 414
#     4  10  25  39  68 100 136 180 234 283 355 415
#     4  12  21  43  71  98 134 185 235 278 359 422
#
# _framework density 24.018965000000001
#
# number of rings (size 3 to 8) (size 9 to 14) (size 15 to 20)
#    1.200    0.000    6.000    0.000    5.600    0.000 
#    0.000    1.000    4.400    7.200    0.000    0.000 
#    0.000    0.000    0.000    0.000    0.000    0.000 
#
# Total GULP energy -111484.911335 kJ/mol
# GULP energy per Si atom -5574.245567 kJ/mol
# Density = 2.396430 g / cm^3
# Si number density = 24.018965 Si / 1000 Ang^3
#
#
#
# Elastic Constant Matrix: (Units=GPa)
#
#
# Indices 1 2 3 4 5 6 
#
# 1 144.2999 31.8297 61.8970 0.0000 13.2488 0.0000
# 2 31.8297 110.7152 42.1027 0.0000 16.2787 0.0000
# 3 61.8970 42.1027 143.5860 0.0000 3.7858 0.0000
# 4 0.0000 0.0000 0.0000 51.8450 0.0000 15.0374
# 5 13.2488 16.2787 3.7858 0.0000 30.1047 0.0000
# 6 0.0000 0.0000 0.0000 15.0374 0.0000 17.3999
#
#
#
# Elastic Compliance Matrix: (Units=1/GPa)
#
#
# Indices 1 2 3 4 5 6 
#
# 1 0.008893 -0.000765 -0.003529 0.000000 -0.003056 0.000000
# 2 -0.000765 0.011091 -0.002782 0.000000 -0.005311 0.000000
# 3 -0.003529 -0.002782 0.009251 0.000000 0.001894 0.000000
# 4 0.000000 0.000000 0.000000 0.025741 0.000000 -0.022246
# 5 -0.003056 -0.005311 0.001894 0.000000 0.037196 0.000000
# 6 0.000000 0.000000 0.000000 -0.022246 0.000000 0.076697
#
#
# Mechanical properties :
#
#
# Convention : Reuss Voigt Hill
#
# Bulk Modulus (GPa) = 66.29935 74.47331 70.38633
# Shear Modulus (GPa) = 26.58880 37.38801 31.98840
#
# Velocity S-wave (km/s) = 3.33076 3.94966 3.65334
# Velocity P-wave (km/s) = 6.51573 7.20230 6.86760
#
# Compressibility (1/GPa) = 0.01508310
#
# Stress axis : x y z
#
# Youngs Moduli (GPa) = 112.44768 90.16257 108.09156
#
# Poissons Ratio (x) = 0.06902 0.38141
# Poissons Ratio (y) = 0.08608 0.30073
# Poissons Ratio (z) = 0.39678 0.25085
#
# Static dielectric constant tensor:
#      x y z
#    x 1.994590 0.000000 0.018550 
#    y 0.000000 1.946380 0.000000 
#    z 0.018550 0.000000 1.964550 
# 
# From -- ./inp_files/40824.got.cif
#   From: 2010.05.17/outbox.cif.g08.bks.cpg/sg14_21_cif.got.tgz:40824.got - 2010.06.03 17:49:19.
