data_PCOD9245182
_publ_section_title
;
Structure prediction by ZEFSAII (Michael W. Deem and Ramdas Pophale) SiO2 
 PCOD9245182
Probable space group: P 21/C
;
_chemical_formula_sum "Si O2"
_cell_formula_units_Z 32
_cell_length_a 13.233229
_cell_length_b 8.220002
_cell_length_c 33.097108
_cell_angle_alpha 90.000000
_cell_angle_beta 154.610061
_cell_angle_gamma 90.000000
_cell_volume 1543.685329
_symmetry_space_group_name_H-M "P 21/C"
_symmetry_group_IT_number 14
_symmetry_cell_setting 'monoclinic'
loop_
_space_group_symop_operation_xyz
x,y,z
-x,1/2+y,1/2-z
-x,-y,-z
x,1/2-y,1/2+z
loop_
_atom_site_type_symbol
_atom_site_label
_atom_site_fract_x
_atom_site_fract_y
_atom_site_fract_z
Si Si1 0.348867 0.376093 0.120783
Si Si2 0.472379 0.352632 0.598280
Si Si3 0.991749 0.564029 0.935266
Si Si4 0.305428 0.137632 0.391940
Si Si5 0.858853 0.008034 0.798364
Si Si6 0.897214 0.346537 0.226935
Si Si7 0.739059 0.315305 0.512213
Si Si8 0.109516 0.329552 0.911748
O O1 0.421563 0.204403 0.126021
O O2 0.576099 0.494821 0.199483
O O3 0.247087 0.379855 0.129259
O O4 0.132790 0.441651 0.015491
O O5 0.739563 0.306236 0.684581
O O6 0.396066 0.527661 0.554477
O O7 0.322224 0.226114 0.517220
O O8 0.161697 0.715718 0.989538
O O9 0.979448 0.478013 0.886947
O O10 0.568502 0.198987 0.477149
O O11 0.221844 0.150118 0.408059
O O12 0.147561 0.266436 0.309233
O O13 0.237647 0.956015 0.354018
O O14 0.920781 0.034437 0.773922
O O15 0.933355 0.177374 0.846352
O O16 0.032400 0.875191 0.879975
#
# Coordination Sequence:
#
# PCOD9245182 Si02
#       8
#     4   4   4   4   4   4   4   4
#     4   9  19  40  61  79 111 149 184 239 295 342
#     4   9  19  37  56  77 111 144 184 234 284 342
#     4  10  21  37  60  84 108 146 192 234 292 352
#     4  11  22  35  56  83 117 157 197 239 284 336
#     4   9  20  37  55  79 114 147 185 235 287 341
#     4  10  21  37  57  81 113 156 195 232 281 338
#     4  11  22  35  56  88 116 147 191 237 288 350
#     4   9  20  36  53  78 110 149 188 230 283 342
#
# _framework density 20.729614999999999
#
# number of rings (size 3 to 8) (size 9 to 14) (size 15 to 20)
#    0.000    2.250    0.000    3.000    0.000   10.000 
#    0.000    3.750    0.000    0.000    0.000    0.000 
#    0.000    0.000    0.000    0.000    0.000    0.000 
#
# Total GULP energy -178360.812118 kJ/mol
# GULP energy per Si atom -5573.775379 kJ/mol
# Density = 2.068243 g / cm^3
# Si number density = 20.729615 Si / 1000 Ang^3
#
#
#
# Elastic Constant Matrix: (Units=GPa)
#
#
# Indices 1 2 3 4 5 6 
#
# 1 44.9226 20.8043 9.1421 0.0000 3.4331 0.0000
# 2 20.8043 48.8482 -6.6619 0.0000 -2.6135 0.0000
# 3 9.1421 -6.6619 41.2290 0.0000 6.9097 0.0000
# 4 0.0000 0.0000 0.0000 25.7430 0.0000 0.4970
# 5 3.4331 -2.6135 6.9097 0.0000 20.7547 0.0000
# 6 0.0000 0.0000 0.0000 0.4970 0.0000 11.9530
#
#
#
# Elastic Compliance Matrix: (Units=1/GPa)
#
#
# Indices 1 2 3 4 5 6 
#
# 1 0.031097 -0.014634 -0.008567 0.000000 -0.004134 0.000000
# 2 -0.014634 0.027870 0.007153 0.000000 0.003549 0.000000
# 3 -0.008567 0.007153 0.028513 0.000000 -0.007175 0.000000
# 4 0.000000 0.000000 0.000000 0.038877 0.000000 -0.001616
# 5 -0.004134 0.003549 -0.007175 0.000000 0.051701 0.000000
# 6 0.000000 0.000000 0.000000 -0.001616 0.000000 0.083728
#
#
# Mechanical properties :
#
#
# Convention : Reuss Voigt Hill
#
# Bulk Modulus (GPa) = 18.05561 20.17430 19.11496
# Shear Modulus (GPa) = 16.00811 19.13783 17.57297
#
# Velocity S-wave (km/s) = 2.78192 3.04174 2.91473
# Velocity P-wave (km/s) = 4.36438 4.69994 4.53526
#
# Compressibility (1/GPa) = 0.05538444
#
# Stress axis : x y z
#
# Youngs Moduli (GPa) = 32.15739 35.88147 35.07206
#
# Poissons Ratio (x) = 0.52508 0.30047
# Poissons Ratio (y) = 0.47058 -0.25089
# Poissons Ratio (z) = 0.27550 -0.25668
#
# Static dielectric constant tensor:
#      x y z
#    x 1.765880 0.000000 -0.010820 
#    y 0.000000 1.751950 0.000000 
#    z -0.010820 0.000000 1.789770 
# 
# From -- ./inp_files/80038.got.cif
#   From: 2010.05.17/outbox.cif.g08.bks.cpg/sg14_41_cif.got.tgz:80038.got - 2010.06.03 17:49:19.
