data_PCOD9245283
_publ_section_title
;
Structure prediction by ZEFSAII (Michael W. Deem and Ramdas Pophale) SiO2 
 PCOD9245283
Probable space group: P 21/C
;
_chemical_formula_sum "Si O2"
_cell_formula_units_Z 20
_cell_length_a 25.355844
_cell_length_b 7.155843
_cell_length_c 5.361093
_cell_angle_alpha 90.000000
_cell_angle_beta 77.494054
_cell_angle_gamma 90.000000
_cell_volume 949.650354
_symmetry_space_group_name_H-M "P 21/C"
_symmetry_group_IT_number 14
_symmetry_cell_setting 'monoclinic'
loop_
_space_group_symop_operation_xyz
x,y,z
-x,1/2+y,1/2-z
-x,-y,-z
x,1/2-y,1/2+z
loop_
_atom_site_type_symbol
_atom_site_label
_atom_site_fract_x
_atom_site_fract_y
_atom_site_fract_z
Si Si1 0.170866 0.623655 0.822099
Si Si2 0.050507 0.868043 0.496479
Si Si3 0.553910 0.376451 0.943344
Si Si4 0.329808 0.464582 0.168121
Si Si5 0.717173 0.542873 0.283822
O O1 0.176259 0.739518 0.557581
O O2 0.110098 0.543511 0.899362
O O3 0.218414 0.472069 0.785217
O O4 0.048021 0.787903 0.779903
O O5 0.000000 0.000000 0.500000
O O6 0.555488 0.251482 0.690443
O O7 0.606213 0.510819 0.892082
O O8 0.500000 0.500000 0.000000
O O9 0.307685 0.251572 0.188825
O O10 0.304837 0.547669 0.442953
O O11 0.306466 0.547715 0.939423
#
# Coordination Sequence:
#
# PCOD9245283 Si02
#       5
#     4   4   4   4   4
#     4  10  21  37  61  91 129 165 215 264 318 377
#     4  10  21  40  61  93 130 172 216 271 318 381
#     4  12  28  46  73 101 130 172 216 263 321 380
#     4  10  23  40  63  91 131 157 214 261 316 374
#     4  10  21  39  63  89 128 170 204 264 320 378
#
# _framework density 21.060383000000002
#
# number of rings (size 3 to 8) (size 9 to 14) (size 15 to 20)
#    0.000    1.600    0.000    3.600    5.600    4.800 
#    7.200    0.000    0.000    0.000    0.000    0.000 
#    0.000    0.000    0.000    0.000    0.000    0.000 
#
# Total GULP energy -111665.606733 kJ/mol
# GULP energy per Si atom -5583.280337 kJ/mol
# Density = 2.101245 g / cm^3
# Si number density = 21.060383 Si / 1000 Ang^3
#
#
#
# Elastic Constant Matrix: (Units=GPa)
#
#
# Indices 1 2 3 4 5 6 
#
# 1 222.8195 61.9883 46.4935 0.0000 -32.3017 0.0000
# 2 61.9883 98.4455 21.1490 0.0000 -14.0531 0.0000
# 3 46.4935 21.1490 160.3610 0.0000 22.4499 0.0000
# 4 0.0000 0.0000 0.0000 -8.0565 0.0000 -16.4170
# 5 -32.3017 -14.0531 22.4499 0.0000 50.8102 0.0000
# 6 0.0000 0.0000 0.0000 -16.4170 0.0000 50.5923
#
#
#
# Elastic Compliance Matrix: (Units=1/GPa)
#
#
# Indices 1 2 3 4 5 6 
#
# 1 0.006327 -0.002967 -0.002016 0.000000 0.004093 0.000000
# 2 -0.002967 0.012554 -0.001085 0.000000 0.002065 0.000000
# 3 -0.002016 -0.001085 0.007659 0.000000 -0.004966 0.000000
# 4 0.000000 0.000000 0.000000 -0.074717 0.000000 -0.024245
# 5 0.004093 0.002065 -0.004966 0.000000 0.025048 0.000000
# 6 0.000000 0.000000 0.000000 -0.024245 0.000000 0.011898
#
#
# Mechanical properties :
#
#
# Convention : Reuss Voigt Hill
#
# Bulk Modulus (GPa) = 69.42176 82.32083 75.87129
# Shear Modulus (GPa) = 876.30581 42.13553 459.22067
#
# Velocity S-wave (km/s) = 20.42046 4.47777 14.78252
# Velocity P-wave (km/s) = 24.26991 8.11830 18.09607
#
# Compressibility (1/GPa) = 0.01440470
#
# Stress axis : x y z
#
# Youngs Moduli (GPa) = 158.04535 79.65712 130.57049
#
# Poissons Ratio (x) = 0.23632 0.26325
# Poissons Ratio (y) = 0.46888 0.14162
# Poissons Ratio (z) = 0.31865 0.08640
#
# Static dielectric constant tensor:
#      x y z
#    x 1.744060 0.000000 0.016380 
#    y 0.000000 1.721610 0.000000 
#    z 0.016380 0.000000 1.789230 
# 
# From -- ./inp_files/4309.got.cif
#   From: 2010.05.17/outbox.cif.g08.bks.cpg/sg14_3_cif.got.tgz:4309.got - 2010.06.03 17:49:19.
