data_PCOD9245109
_publ_section_title
;
Structure prediction by ZEFSAII (Michael W. Deem and Ramdas Pophale) SiO2 
 PCOD9245109
Probable space group: P 21/C
;
_chemical_formula_sum "Si O2"
_cell_formula_units_Z 24
_cell_length_a 6.993587
_cell_length_b 11.717784
_cell_length_c 14.162111
_cell_angle_alpha 90.000000
_cell_angle_beta 112.102590
_cell_angle_gamma 90.000000
_cell_volume 1075.286853
_symmetry_space_group_name_H-M "P 21/C"
_symmetry_group_IT_number 14
_symmetry_cell_setting 'monoclinic'
loop_
_space_group_symop_operation_xyz
x,y,z
-x,1/2+y,1/2-z
-x,-y,-z
x,1/2-y,1/2+z
loop_
_atom_site_type_symbol
_atom_site_label
_atom_site_fract_x
_atom_site_fract_y
_atom_site_fract_z
Si Si1 0.333882 0.572586 0.078782
Si Si2 0.964005 0.040059 0.626017
Si Si3 0.400035 0.026324 0.202126
Si Si4 0.187845 0.714217 0.635070
Si Si5 0.176596 0.605194 0.300790
Si Si6 0.939208 0.794062 0.914059
O O1 0.122549 0.537629 0.095009
O O2 0.514529 0.521939 0.174761
O O3 0.339305 0.707640 0.098188
O O4 0.265053 0.539213 0.961166
O O5 0.051764 0.166976 0.627095
O O6 0.998609 0.983303 0.733599
O O7 0.606980 0.043923 0.178124
O O8 0.261831 0.136659 0.153352
O O9 0.280885 0.910336 0.160722
O O10 0.169268 0.781357 0.731577
O O11 0.979417 0.710182 0.533536
O O12 0.127634 0.640641 0.397590
#
# Coordination Sequence:
#
# PCOD9245109 Si02
#       6
#     4   4   4   4   4   4
#     4   8  17  34  61  81 110 158 188 238 293 333
#     4   8  17  37  57  80 117 148 193 242 286 341
#     4  10  21  36  61  87 119 154 197 242 298 349
#     4   9  20  40  58  87 124 148 199 247 288 358
#     4  10  24  39  61  91 114 160 201 239 295 351
#     4  11  22  38  63  86 118 161 190 246 305 340
#
# _framework density 22.319627000000001
#
# number of rings (size 3 to 8) (size 9 to 14) (size 15 to 20)
#    0.000    3.000    0.000    1.500   11.667    0.667 
#    0.000    5.833    0.000    0.000    0.000    0.000 
#    0.000    0.000    0.000    0.000    0.000    0.000 
#
# Total GULP energy -133787.263240 kJ/mol
# GULP energy per Si atom -5574.469302 kJ/mol
# Density = 2.226883 g / cm^3
# Si number density = 22.319627 Si / 1000 Ang^3
#
#
#
# Elastic Constant Matrix: (Units=GPa)
#
#
# Indices 1 2 3 4 5 6 
#
# 1 54.0411 3.5783 10.4348 0.0000 2.3319 0.0000
# 2 3.5783 111.4824 35.8731 0.0000 14.4430 0.0000
# 3 10.4348 35.8731 80.8167 0.0000 16.1928 0.0000
# 4 0.0000 0.0000 0.0000 39.9072 0.0000 3.4530
# 5 2.3319 14.4430 16.1928 0.0000 21.6134 0.0000
# 6 0.0000 0.0000 0.0000 3.4530 0.0000 -11.4655
#
#
#
# Elastic Compliance Matrix: (Units=1/GPa)
#
#
# Indices 1 2 3 4 5 6 
#
# 1 0.018984 0.000235 -0.002487 0.000000 -0.000342 0.000000
# 2 0.000235 0.010791 -0.003966 0.000000 -0.004265 0.000000
# 3 -0.002487 -0.003966 0.016320 0.000000 -0.009309 0.000000
# 4 0.000000 0.000000 0.000000 0.024422 0.000000 0.007355
# 5 -0.000342 -0.004265 -0.009309 0.000000 0.056129 0.000000
# 6 0.000000 0.000000 0.000000 0.007355 0.000000 -0.085003
#
#
# Mechanical properties :
#
#
# Convention : Reuss Voigt Hill
#
# Bulk Modulus (GPa) = 29.70861 38.45695 34.08278
# Shear Modulus (GPa) = 76.57198 23.10796 49.83997
#
# Velocity S-wave (km/s) = 5.86357 3.22113 4.73060
# Velocity P-wave (km/s) = 7.69295 5.57689 6.71875
#
# Compressibility (1/GPa) = 0.03366028
#
# Stress axis : x y z
#
# Youngs Moduli (GPa) = 52.67635 92.66828 61.27350
#
# Poissons Ratio (x) = -0.02180 0.15239
# Poissons Ratio (y) = -0.01239 0.24300
# Poissons Ratio (z) = 0.13101 0.36750
#
# Static dielectric constant tensor:
#      x y z
#    x 1.863120 0.000000 -0.040210 
#    y 0.000000 1.837620 0.000000 
#    z -0.040210 0.000000 1.924500 
# 
# From -- ./inp_files/55495.got.cif
#   From: 2010.05.17/outbox.cif.g08.bks.cpg/sg14_28_cif.got.tgz:55495.got - 2010.06.03 17:49:19.
