data_PCOD9245693
_publ_section_title
;
Structure prediction by ZEFSAII (Michael W. Deem and Ramdas Pophale) SiO2 
 PCOD9245693
Probable space group: P 21/C
;
_chemical_formula_sum "Si O2"
_cell_formula_units_Z 32
_cell_length_a 10.672036
_cell_length_b 21.247792
_cell_length_c 16.640611
_cell_angle_alpha 90.000000
_cell_angle_beta 153.922295
_cell_angle_gamma 90.000000
_cell_volume 1658.738249
_symmetry_space_group_name_H-M "P 21/C"
_symmetry_group_IT_number 14
_symmetry_cell_setting 'monoclinic'
loop_
_space_group_symop_operation_xyz
x,y,z
-x,1/2+y,1/2-z
-x,-y,-z
x,1/2-y,1/2+z
loop_
_atom_site_type_symbol
_atom_site_label
_atom_site_fract_x
_atom_site_fract_y
_atom_site_fract_z
Si Si1 0.029705 0.713355 0.577094
Si Si2 0.463402 0.361963 0.392795
Si Si3 0.121877 0.549761 0.456083
Si Si4 0.892375 0.334521 0.139594
Si Si5 0.832611 0.426003 0.325108
Si Si6 0.558496 0.250548 0.325377
Si Si7 0.969894 0.294583 0.776502
Si Si8 0.390910 0.395873 0.951788
O O1 0.094957 0.646019 0.652521
O O2 0.700428 0.716966 0.366704
O O3 0.081505 0.773989 0.662232
O O4 0.223893 0.718185 0.610683
O O5 0.165543 0.372017 0.265399
O O6 0.434640 0.305572 0.311009
O O7 0.603231 0.422289 0.430645
O O8 0.699555 0.332944 0.588591
O O9 0.153718 0.567899 0.569428
O O10 0.061067 0.475459 0.422752
O O11 0.851050 0.578073 0.249318
O O12 0.999218 0.272810 0.249604
O O13 0.657281 0.374285 0.051286
O O14 0.726466 0.301551 0.971358
O O15 0.531589 0.437835 0.104644
O O16 0.243152 0.336611 0.912013
#
# Coordination Sequence:
#
# PCOD9245693 Si02
#       8
#     4   4   4   4   4   4   4   4
#     4  12  22  36  59  91 121 149 197 247 304 362
#     4  10  21  39  56  86 118 159 192 246 302 354
#     4  10  23  42  64  84 117 159 215 249 289 355
#     4  11  21  35  57  86 122 154 190 242 311 359
#     4  11  22  39  64  89 114 161 207 254 291 353
#     4  11  22  35  57  88 121 152 190 244 309 363
#     4  10  22  34  57  87 121 150 189 244 303 362
#     4  11  22  40  62  88 122 160 201 246 298 359
#
# _framework density 19.291772000000002
#
# number of rings (size 3 to 8) (size 9 to 14) (size 15 to 20)
#    0.000    1.250    3.750    3.375    3.500    0.000 
#    0.000    0.625    0.000    9.750    0.000    0.000 
#    0.000    0.000    0.000    0.000    0.000    0.000 
#
# Total GULP energy -178477.102508 kJ/mol
# GULP energy per Si atom -5577.409453 kJ/mol
# Density = 1.924786 g / cm^3
# Si number density = 19.291772 Si / 1000 Ang^3
#
#
#
# Elastic Constant Matrix: (Units=GPa)
#
#
# Indices 1 2 3 4 5 6 
#
# 1 60.7781 28.6370 39.4068 0.0000 10.9106 0.0000
# 2 28.6370 28.2226 12.1433 0.0000 1.4013 0.0000
# 3 39.4068 12.1433 73.0381 0.0000 4.2717 0.0000
# 4 0.0000 0.0000 0.0000 19.6732 0.0000 -5.7011
# 5 10.9106 1.4013 4.2717 0.0000 43.6623 0.0000
# 6 0.0000 0.0000 0.0000 -5.7011 0.0000 8.6085
#
#
#
# Elastic Compliance Matrix: (Units=1/GPa)
#
#
# Indices 1 2 3 4 5 6 
#
# 1 0.051496 -0.043151 -0.020053 0.000000 -0.009521 0.000000
# 2 -0.043151 0.074338 0.010491 0.000000 0.007371 0.000000
# 3 -0.020053 0.010491 0.022622 0.000000 0.002461 0.000000
# 4 0.000000 0.000000 0.000000 0.062903 0.000000 0.041658
# 5 -0.009521 0.007371 0.002461 0.000000 0.024805 0.000000
# 6 0.000000 0.000000 0.000000 0.041658 0.000000 0.143753
#
#
# Mechanical properties :
#
#
# Convention : Reuss Voigt Hill
#
# Bulk Modulus (GPa) = 23.23935 35.82365 29.53150
# Shear Modulus (GPa) = 10.00629 19.84558 14.92593
#
# Velocity S-wave (km/s) = 2.27993 3.21083 2.78455
# Velocity P-wave (km/s) = 4.35926 5.68820 5.06748
#
# Compressibility (1/GPa) = 0.04303045
#
# Stress axis : x y z
#
# Youngs Moduli (GPa) = 19.41902 13.45215 44.20384
#
# Poissons Ratio (x) = 0.58048 0.88641
# Poissons Ratio (y) = 0.83796 -0.46376
# Poissons Ratio (z) = 0.38941 -0.14113
#
# Static dielectric constant tensor:
#      x y z
#    x 1.703850 0.000000 -0.060400 
#    y 0.000000 1.658020 0.000000 
#    z -0.060400 0.000000 1.705300 
# 
# From -- ./inp_files/42198.got.cif
#   From: 2010.05.17/outbox.cif.g08.bks.cpg/sg14_22_cif.got.tgz:42198.got - 2010.06.03 17:49:19.
