data_PCOD9245305
_publ_section_title
;
Structure prediction by ZEFSAII (Michael W. Deem and Ramdas Pophale) SiO2 
 PCOD9245305
Probable space group: P 21/C
;
_chemical_formula_sum "Si O2"
_cell_formula_units_Z 28
_cell_length_a 14.787795
_cell_length_b 7.818111
_cell_length_c 12.487119
_cell_angle_alpha 90.000000
_cell_angle_beta 50.168011
_cell_angle_gamma 90.000000
_cell_volume 1108.630668
_symmetry_space_group_name_H-M "P 21/C"
_symmetry_group_IT_number 14
_symmetry_cell_setting 'monoclinic'
loop_
_space_group_symop_operation_xyz
x,y,z
-x,1/2+y,1/2-z
-x,-y,-z
x,1/2-y,1/2+z
loop_
_atom_site_type_symbol
_atom_site_label
_atom_site_fract_x
_atom_site_fract_y
_atom_site_fract_z
Si Si1 0.153519 0.273243 0.197915
Si Si2 0.704258 0.056379 0.471456
Si Si3 0.463585 0.710565 0.071001
Si Si4 0.043261 0.823808 0.809516
Si Si5 0.381033 0.630118 0.341157
Si Si6 0.856203 0.476422 0.587311
Si Si7 0.343562 0.036455 0.094623
O O1 0.254021 0.362505 0.047941
O O2 0.148179 0.382942 0.312364
O O3 0.207660 0.089644 0.187406
O O4 0.036028 0.277852 0.215799
O O5 0.611912 0.080452 0.443776
O O6 0.834201 0.138381 0.345356
O O7 0.650165 0.177109 0.601151
O O8 0.482102 0.639394 0.176145
O O9 0.374034 0.874443 0.143687
O O10 0.578891 0.798235 0.932482
O O11 0.097122 0.802411 0.889590
O O12 0.941121 0.955948 0.929780
O O13 0.270456 0.551466 0.363888
O O14 0.391790 0.524058 0.441759
#
# Coordination Sequence:
#
# PCOD9245305 Si02
#       7
#     4   4   4   4   4   4   4
#     4  11  22  40  63  98 123 166 220 262 324 376
#     4  10  24  37  65  94 128 172 210 274 318 390
#     4  10  22  45  62  93 125 173 212 261 342 371
#     4  10  21  37  62  92 129 162 212 256 325 378
#     4  11  21  45  64  93 130 172 216 257 336 386
#     4  10  22  40  63  89 128 177 200 269 320 383
#     4  10  24  42  68  91 131 169 212 282 310 390
#
# _framework density 25.256381999999999
#
# number of rings (size 3 to 8) (size 9 to 14) (size 15 to 20)
#    0.000    1.714    4.286    0.000    6.000    2.857 
#    7.714    0.714    0.000    0.000    0.000    0.000 
#    0.000    0.000    0.000    0.000    0.000    0.000 
#
# Total GULP energy -155962.895104 kJ/mol
# GULP energy per Si atom -5570.103397 kJ/mol
# Density = 2.519890 g / cm^3
# Si number density = 25.256382 Si / 1000 Ang^3
#
#
#
# Elastic Constant Matrix: (Units=GPa)
#
#
# Indices 1 2 3 4 5 6 
#
# 1 131.4715 4.8148 19.6398 0.0000 8.8979 0.0000
# 2 4.8148 61.2368 19.5402 0.0000 14.7834 0.0000
# 3 19.6398 19.5402 95.7708 0.0000 14.2170 0.0000
# 4 0.0000 0.0000 0.0000 39.9459 0.0000 1.9365
# 5 8.8979 14.7834 14.2170 0.0000 40.0549 0.0000
# 6 0.0000 0.0000 0.0000 1.9365 0.0000 46.9045
#
#
#
# Elastic Compliance Matrix: (Units=1/GPa)
#
#
# Indices 1 2 3 4 5 6 
#
# 1 0.007906 0.000157 -0.001461 0.000000 -0.001296 0.000000
# 2 0.000157 0.018685 -0.002972 0.000000 -0.005876 0.000000
# 3 -0.001461 -0.002972 0.011756 0.000000 -0.002751 0.000000
# 4 0.000000 0.000000 0.000000 0.025084 0.000000 -0.001036
# 5 -0.001296 -0.005876 -0.002751 0.000000 0.028399 0.000000
# 6 0.000000 0.000000 0.000000 -0.001036 0.000000 0.021363
#
#
# Mechanical properties :
#
#
# Convention : Reuss Voigt Hill
#
# Bulk Modulus (GPa) = 33.56239 41.82984 37.69612
# Shear Modulus (GPa) = 37.97190 41.68001 39.82596
#
# Velocity S-wave (km/s) = 3.88165 4.06677 3.97529
# Velocity P-wave (km/s) = 5.77989 6.21687 6.00236
#
# Compressibility (1/GPa) = 0.02979525
#
# Stress axis : x y z
#
# Youngs Moduli (GPa) = 126.47951 53.51980 85.06255
#
# Poissons Ratio (x) = -0.00843 0.12429
# Poissons Ratio (y) = -0.01991 0.25283
# Poissons Ratio (z) = 0.18480 0.15907
#
# Static dielectric constant tensor:
#      x y z
#    x 2.031210 0.000000 -0.000420 
#    y 0.000000 2.199250 0.000000 
#    z -0.000420 0.000000 2.039960 
# 
# From -- ./inp_files/31459.got.cif
#   From: 2010.05.17/outbox.cif.g08.bks.cpg/sg14_16_cif.got.tgz:31459.got - 2010.06.03 17:49:19.
