data_PCOD9245422
_publ_section_title
;
Structure prediction by ZEFSAII (Michael W. Deem and Ramdas Pophale) SiO2 
 PCOD9245422
Probable space group: P 21/C
;
_chemical_formula_sum "Si O2"
_cell_formula_units_Z 20
_cell_length_a 12.685242
_cell_length_b 7.695658
_cell_length_c 17.977870
_cell_angle_alpha 90.000000
_cell_angle_beta 27.502197
_cell_angle_gamma 90.000000
_cell_volume 810.439015
_symmetry_space_group_name_H-M "P 21/C"
_symmetry_group_IT_number 14
_symmetry_cell_setting 'monoclinic'
loop_
_space_group_symop_operation_xyz
x,y,z
-x,1/2+y,1/2-z
-x,-y,-z
x,1/2-y,1/2+z
loop_
_atom_site_type_symbol
_atom_site_label
_atom_site_fract_x
_atom_site_fract_y
_atom_site_fract_z
Si Si1 0.339870 0.194855 0.368422
Si Si2 0.236466 0.554201 0.469994
Si Si3 0.056998 0.978530 0.301574
Si Si4 0.271139 0.820610 0.586080
Si Si5 0.753206 0.816461 0.240662
O O1 0.319093 0.359902 0.435380
O O2 0.592899 0.120598 0.201779
O O3 0.274552 0.263360 0.327560
O O4 0.152157 0.057047 0.511309
O O5 0.266842 0.685306 0.519075
O O6 0.975042 0.564956 0.609692
O O7 0.924541 0.039572 0.309579
O O8 0.202273 0.138166 0.241437
O O9 0.202477 0.804815 0.196731
O O10 0.524319 0.896356 0.418645
#
# Coordination Sequence:
#
# PCOD9245422 Si02
#       5
#     4   4   4   4   4
#     4  11  21  37  60  86 116 151 189 235 283 335
#     4  10  21  38  59  86 117 151 189 233 282 336
#     4  11  22  39  59  84 115 152 191 235 284 337
#     4  10  22  40  59  84 116 152 191 234 283 338
#     4  10  21  38  59  86 115 148 191 235 281 338
#
# _framework density 24.677980000000002
#
# number of rings (size 3 to 8) (size 9 to 14) (size 15 to 20)
#    0.000    1.600    0.000    6.600    0.000    1.600 
#    0.000   15.000    0.000    0.000    0.000    0.000 
#    0.000    0.000    0.000    0.000    0.000    0.000 
#
# Total GULP energy -111993.419828 kJ/mol
# GULP energy per Si atom -5599.670991 kJ/mol
# Density = 2.462181 g / cm^3
# Si number density = 24.677980 Si / 1000 Ang^3
#
#
#
# Elastic Constant Matrix: (Units=GPa)
#
#
# Indices 1 2 3 4 5 6 
#
# 1 46.8749 0.1224 22.9966 0.0000 2.9418 0.0000
# 2 0.1224 40.8445 6.0167 0.0000 -0.1670 0.0000
# 3 22.9966 6.0167 112.1288 0.0000 -4.6243 0.0000
# 4 0.0000 0.0000 0.0000 46.8799 0.0000 18.3314
# 5 2.9418 -0.1670 -4.6243 0.0000 32.4066 0.0000
# 6 0.0000 0.0000 0.0000 18.3314 0.0000 22.4723
#
#
#
# Elastic Compliance Matrix: (Units=1/GPa)
#
#
# Indices 1 2 3 4 5 6 
#
# 1 0.024005 0.000664 -0.005078 0.000000 -0.002900 0.000000
# 2 0.000664 0.024697 -0.001467 0.000000 -0.000142 0.000000
# 3 -0.005078 -0.001467 0.010117 0.000000 0.001897 0.000000
# 4 0.000000 0.000000 0.000000 0.031322 0.000000 -0.025551
# 5 -0.002900 -0.000142 0.001897 0.000000 0.031391 0.000000
# 6 0.000000 0.000000 0.000000 -0.025551 0.000000 0.065342
#
#
# Mechanical properties :
#
#
# Convention : Reuss Voigt Hill
#
# Bulk Modulus (GPa) = 21.25142 28.67995 24.96568
# Shear Modulus (GPa) = 23.32941 31.73259 27.53100
#
# Velocity S-wave (km/s) = 3.07800 3.58979 3.34370
# Velocity P-wave (km/s) = 4.61110 5.36927 5.00456
#
# Compressibility (1/GPa) = 0.04705568
#
# Stress axis : x y z
#
# Youngs Moduli (GPa) = 41.65776 40.49126 98.84507
#
# Poissons Ratio (x) = -0.02690 0.50198
# Poissons Ratio (y) = -0.02767 0.14504
# Poissons Ratio (z) = 0.21156 0.05941
#
# Static dielectric constant tensor:
#      x y z
#    x 1.975760 0.000000 0.003770 
#    y 0.000000 1.947370 0.000000 
#    z 0.003770 0.000000 1.950190 
# 
# From -- ./inp_files/22973.got.cif
#   From: 2010.05.17/outbox.cif.g08.bks.cpg/sg14_12_cif.got.tgz:22973.got - 2010.06.03 17:49:19.
