data_PCOD9245563
_publ_section_title
;
Structure prediction by ZEFSAII (Michael W. Deem and Ramdas Pophale) SiO2 
 PCOD9245563
Probable space group: P 21/C
;
_chemical_formula_sum "Si O2"
_cell_formula_units_Z 28
_cell_length_a 8.967411
_cell_length_b 20.978310
_cell_length_c 15.548889
_cell_angle_alpha 90.000000
_cell_angle_beta 30.205304
_cell_angle_gamma 90.000000
_cell_volume 1471.604859
_symmetry_space_group_name_H-M "P 21/C"
_symmetry_group_IT_number 14
_symmetry_cell_setting 'monoclinic'
loop_
_space_group_symop_operation_xyz
x,y,z
-x,1/2+y,1/2-z
-x,-y,-z
x,1/2-y,1/2+z
loop_
_atom_site_type_symbol
_atom_site_label
_atom_site_fract_x
_atom_site_fract_y
_atom_site_fract_z
Si Si1 0.155426 0.550231 0.486580
Si Si2 0.617944 0.105582 0.406470
Si Si3 0.691282 0.744495 0.683148
Si Si4 0.944414 0.972560 0.284383
Si Si5 0.845197 0.963277 0.654089
Si Si6 0.168546 0.829433 0.533203
Si Si7 0.823173 0.167733 0.128741
O O1 0.506545 0.547710 0.298925
O O2 0.062326 0.619756 0.501538
O O3 0.000000 0.500000 0.500000
O O4 0.088962 0.541415 0.620210
O O5 0.271778 0.085923 0.581949
O O6 0.716686 0.157518 0.427655
O O7 0.742748 0.128799 0.253578
O O8 0.766101 0.038166 0.356884
O O9 0.475081 0.798322 0.753772
O O10 0.915121 0.776015 0.641846
O O11 0.908679 0.717960 0.500558
O O12 0.459367 0.692648 0.835610
O O13 0.145271 0.992688 0.265013
O O14 0.020037 0.896739 0.580040
O O15 0.000000 0.000000 0.500000
#
# Coordination Sequence:
#
# PCOD9245563 Si02
#       7
#     4   4   4   4   4   4   4
#     4  12  23  39  65  95 126 162 209 262 324 376
#     4  10  21  38  63  92 126 158 204 258 313 375
#     4  10  23  41  63  85 121 169 214 255 301 372
#     4  10  22  38  60  96 130 159 200 256 325 381
#     4  11  24  39  64  94 129 164 208 262 324 381
#     4  10  22  41  63  87 124 164 207 256 310 367
#     4  11  22  41  63  91 123 164 214 256 313 372
#
# _framework density 19.026847
#
# number of rings (size 3 to 8) (size 9 to 14) (size 15 to 20)
#    0.000    1.429    2.857    2.143    6.000    1.143 
#    0.000    0.000    0.000    0.000    0.000    0.000 
#    0.000    0.000    0.000    0.000    0.000    0.000 
#
# Total GULP energy -156124.690702 kJ/mol
# GULP energy per Si atom -5575.881811 kJ/mol
# Density = 1.898354 g / cm^3
# Si number density = 19.026847 Si / 1000 Ang^3
#
#
#
# Elastic Constant Matrix: (Units=GPa)
#
#
# Indices 1 2 3 4 5 6 
#
# 1 76.6854 30.8854 30.1396 0.0000 -1.5558 0.0000
# 2 30.8854 61.4174 32.5045 0.0000 -5.5379 0.0000
# 3 30.1396 32.5045 85.1892 0.0000 -6.2951 0.0000
# 4 0.0000 0.0000 0.0000 40.4474 0.0000 -3.3047
# 5 -1.5558 -5.5379 -6.2951 0.0000 38.0667 0.0000
# 6 0.0000 0.0000 0.0000 -3.3047 0.0000 23.2998
#
#
#
# Elastic Compliance Matrix: (Units=1/GPa)
#
#
# Indices 1 2 3 4 5 6 
#
# 1 0.017165 -0.006845 -0.003526 0.000000 -0.000877 0.000000
# 2 -0.006845 0.023241 -0.006294 0.000000 0.002061 0.000000
# 3 -0.003526 -0.006294 0.015499 0.000000 0.001503 0.000000
# 4 0.000000 0.000000 0.000000 0.025013 0.000000 0.003548
# 5 -0.000877 0.002061 0.001503 0.000000 0.026782 0.000000
# 6 0.000000 0.000000 0.000000 0.003548 0.000000 0.043422
#
#
# Mechanical properties :
#
#
# Convention : Reuss Voigt Hill
#
# Bulk Modulus (GPa) = 44.29650 45.59455 44.94553
# Shear Modulus (GPa) = 26.04483 29.01361 27.52922
#
# Velocity S-wave (km/s) = 3.70381 3.90920 3.80789
# Velocity P-wave (km/s) = 6.45155 6.66267 6.55796
#
# Compressibility (1/GPa) = 0.02257515
#
# Stress axis : x y z
#
# Youngs Moduli (GPa) = 58.25752 43.02762 64.52204
#
# Poissons Ratio (x) = 0.29452 0.22751
# Poissons Ratio (y) = 0.39877 0.40608
# Poissons Ratio (z) = 0.20542 0.27080
#
# Static dielectric constant tensor:
#      x y z
#    x 1.678900 0.000000 0.032800 
#    y 0.000000 1.592980 0.000000 
#    z 0.032800 0.000000 1.746350 
# 
# From -- ./inp_files/16824.got.cif
#   From: 2010.05.17/outbox.cif.g08.bks.cpg/sg14_9_cif.got.tgz:16824.got - 2010.06.03 17:49:19.
