data_PCOD9245814
_publ_section_title
;
Structure prediction by ZEFSAII (Michael W. Deem and Ramdas Pophale) SiO2 
 PCOD9245814
Probable space group: P 21/C
;
_chemical_formula_sum "Si O2"
_cell_formula_units_Z 20
_cell_length_a 26.583723
_cell_length_b 8.132497
_cell_length_c 11.239340
_cell_angle_alpha 90.000000
_cell_angle_beta 20.324727
_cell_angle_gamma 90.000000
_cell_volume 843.987085
_symmetry_space_group_name_H-M "P 21/C"
_symmetry_group_IT_number 14
_symmetry_cell_setting 'monoclinic'
loop_
_space_group_symop_operation_xyz
x,y,z
-x,1/2+y,1/2-z
-x,-y,-z
x,1/2-y,1/2+z
loop_
_atom_site_type_symbol
_atom_site_label
_atom_site_fract_x
_atom_site_fract_y
_atom_site_fract_z
Si Si1 0.094628 0.090219 0.191079
Si Si2 0.328687 0.911726 0.191111
Si Si3 0.230690 0.201124 0.567515
Si Si4 0.928359 0.256118 0.367765
Si Si5 0.526396 0.619513 0.829637
O O1 0.990371 0.222563 0.360506
O O2 0.067824 0.285447 0.476979
O O3 0.228824 0.176221 0.957036
O O4 0.124849 0.942499 0.032612
O O5 0.197987 0.864848 0.392456
O O6 0.275810 0.026111 0.416096
O O7 0.396873 0.745172 0.090888
O O8 0.439091 0.014778 0.864480
O O9 0.336516 0.269679 0.433608
O O10 0.000000 0.500000 0.000000
O O11 0.500000 0.500000 0.000000
#
# Coordination Sequence:
#
# PCOD9245814 Si02
#       5
#     4   4   4   4   4
#     4  10  21  39  63 100 138 172 218 276 334 400
#     4  12  26  46  69 100 137 182 231 285 344 409
#     4  11  23  44  70 102 135 175 228 286 340 406
#     4  11  23  40  70 100 135 178 225 285 344 397
#     4  12  27  47  69  98 138 185 229 280 345 416
#
# _framework density 23.697046
#
# number of rings (size 3 to 8) (size 9 to 14) (size 15 to 20)
#    0.000    0.800    0.000    8.400    0.000    6.400 
#    0.000    0.000    0.000    0.000    0.000    0.000 
#    0.000    0.000    0.000    0.000    0.000    0.000 
#
# Total GULP energy -112039.749130 kJ/mol
# GULP energy per Si atom -5601.987457 kJ/mol
# Density = 2.364311 g / cm^3
# Si number density = 23.697046 Si / 1000 Ang^3
#
#
#
# Elastic Constant Matrix: (Units=GPa)
#
#
# Indices 1 2 3 4 5 6 
#
# 1 97.1960 11.5498 3.0815 0.0000 -0.0366 0.0000
# 2 11.5498 56.8858 7.9013 0.0000 3.4547 0.0000
# 3 3.0815 7.9013 55.4774 0.0000 -6.9773 0.0000
# 4 0.0000 0.0000 0.0000 40.4531 0.0000 -2.5550
# 5 -0.0366 3.4547 -6.9773 0.0000 25.5090 0.0000
# 6 0.0000 0.0000 0.0000 -2.5550 0.0000 64.6402
#
#
#
# Elastic Compliance Matrix: (Units=1/GPa)
#
#
# Indices 1 2 3 4 5 6 
#
# 1 0.010549 -0.002120 -0.000255 0.000000 0.000233 0.000000
# 2 -0.002120 0.018622 -0.002954 0.000000 -0.003333 0.000000
# 3 -0.000255 -0.002954 0.019170 0.000000 0.005643 0.000000
# 4 0.000000 0.000000 0.000000 0.024782 0.000000 0.000980
# 5 0.000233 -0.003333 0.005643 0.000000 0.041197 0.000000
# 6 0.000000 0.000000 0.000000 0.000980 0.000000 0.015509
#
#
# Mechanical properties :
#
#
# Convention : Reuss Voigt Hill
#
# Bulk Modulus (GPa) = 26.53704 28.29161 27.41432
# Shear Modulus (GPa) = 32.66964 38.58892 35.62928
#
# Velocity S-wave (km/s) = 3.71703 4.03976 3.88175
# Velocity P-wave (km/s) = 5.44468 5.80726 5.62889
#
# Compressibility (1/GPa) = 0.03768318
#
# Stress axis : x y z
#
# Youngs Moduli (GPa) = 94.79906 53.69911 52.16514
#
# Poissons Ratio (x) = 0.11387 0.01328
# Poissons Ratio (y) = 0.20102 0.15408
# Poissons Ratio (z) = 0.02414 0.15861
#
# Static dielectric constant tensor:
#      x y z
#    x 1.938920 0.000000 0.048980 
#    y 0.000000 1.907480 0.000000 
#    z 0.048980 0.000000 1.889890 
# 
# From -- ./inp_files/36022.got.cif
#   From: 2010.05.17/outbox.cif.g08.bks.cpg/sg14_19_cif.got.tgz:36022.got - 2010.06.03 17:49:19.
