data_PCOD9245401
_publ_section_title
;
Structure prediction by ZEFSAII (Michael W. Deem and Ramdas Pophale) SiO2 
 PCOD9245401
Probable space group: P 21/C
;
_chemical_formula_sum "Si O2"
_cell_formula_units_Z 32
_cell_length_a 9.991904
_cell_length_b 9.411263
_cell_length_c 26.202274
_cell_angle_alpha 90.000000
_cell_angle_beta 145.181830
_cell_angle_gamma 90.000000
_cell_volume 1406.861804
_symmetry_space_group_name_H-M "P 21/C"
_symmetry_group_IT_number 14
_symmetry_cell_setting 'monoclinic'
loop_
_space_group_symop_operation_xyz
x,y,z
-x,1/2+y,1/2-z
-x,-y,-z
x,1/2-y,1/2+z
loop_
_atom_site_type_symbol
_atom_site_label
_atom_site_fract_x
_atom_site_fract_y
_atom_site_fract_z
Si Si1 0.513008 0.442021 0.718558
Si Si2 0.666162 0.357458 0.257082
Si Si3 0.230428 0.059550 0.783471
Si Si4 0.381109 0.582597 0.509107
Si Si5 0.225293 0.074145 0.545863
Si Si6 0.005278 0.234603 0.280273
Si Si7 0.472449 0.887106 0.535642
Si Si8 0.164678 0.102510 0.018462
O O1 0.339271 0.519334 0.702494
O O2 0.623520 0.294648 0.771615
O O3 0.707801 0.550755 0.757017
O O4 0.387426 0.399583 0.626380
O O5 0.435018 0.398035 0.151765
O O6 0.882272 0.329442 0.286074
O O7 0.447652 0.099956 0.887925
O O8 0.032863 0.170091 0.738666
O O9 0.153563 0.902840 0.776427
O O10 0.500000 0.500000 0.500000
O O11 0.325243 0.744078 0.477189
O O12 0.192438 0.477039 0.473641
O O13 0.133570 0.229826 0.498959
O O14 0.344895 0.971753 0.541379
O O15 0.000000 0.000000 0.500000
O O16 0.260635 0.169990 0.373040
O O17 0.500000 0.000000 0.500000
O O18 0.000000 0.000000 0.000000
#
# Coordination Sequence:
#
# PCOD9245401 Si02
#       8
#     4   4   4   4   4   4   4   4
#     4   9  21  37  57  84 118 156 203 257 312 375
#     4  10  22  40  61  90 123 163 212 263 321 385
#     4   9  20  37  57  84 115 156 204 256 314 375
#     4  10  21  38  58  84 119 161 208 259 317 381
#     4  11  24  42  64  94 130 170 216 271 330 390
#     4  10  21  39  62  89 121 163 211 265 321 380
#     4  11  24  40  61  94 129 168 214 266 325 387
#     4  10  21  39  60  85 120 163 209 259 314 379
#
# _framework density 22.745659
#
# number of rings (size 3 to 8) (size 9 to 14) (size 15 to 20)
#    0.000    2.000    0.000    3.000    0.000   11.000 
#    0.000    1.250    0.000    0.000    0.000    0.000 
#    0.000    0.000    0.000    0.000    0.000    0.000 
#
# Total GULP energy -178395.854787 kJ/mol
# GULP energy per Si atom -5574.870462 kJ/mol
# Density = 2.269389 g / cm^3
# Si number density = 22.745659 Si / 1000 Ang^3
#
#
#
# Elastic Constant Matrix: (Units=GPa)
#
#
# Indices 1 2 3 4 5 6 
#
# 1 166.0008 84.3949 25.5864 0.0000 13.8625 0.0000
# 2 84.3949 157.7832 24.6514 0.0000 -2.8331 0.0000
# 3 25.5864 24.6514 44.7382 0.0000 7.9257 0.0000
# 4 0.0000 0.0000 0.0000 27.4291 0.0000 -1.1441
# 5 13.8625 -2.8331 7.9257 0.0000 26.4218 0.0000
# 6 0.0000 0.0000 0.0000 -1.1441 0.0000 54.1471
#
#
#
# Elastic Compliance Matrix: (Units=1/GPa)
#
#
# Indices 1 2 3 4 5 6 
#
# 1 0.009057 -0.004651 -0.001782 0.000000 -0.004716 0.000000
# 2 -0.004651 0.009424 -0.003321 0.000000 0.004447 0.000000
# 3 -0.001782 -0.003321 0.026507 0.000000 -0.007373 0.000000
# 4 0.000000 0.000000 0.000000 0.036490 0.000000 0.000771
# 5 -0.004716 0.004447 -0.007373 0.000000 0.043010 0.000000
# 6 0.000000 0.000000 0.000000 0.000771 0.000000 0.018484
#
#
# Mechanical properties :
#
#
# Convention : Reuss Voigt Hill
#
# Bulk Modulus (GPa) = 39.24362 70.86529 55.05446
# Shear Modulus (GPa) = 29.24441 37.19222 33.21832
#
# Velocity S-wave (km/s) = 3.58958 4.04807 3.82570
# Velocity P-wave (km/s) = 5.87118 7.28507 6.61601
#
# Compressibility (1/GPa) = 0.02548185
#
# Stress axis : x y z
#
# Youngs Moduli (GPa) = 110.41273 106.11188 37.72563
#
# Poissons Ratio (x) = 0.49349 0.06722
# Poissons Ratio (y) = 0.51349 0.12528
# Poissons Ratio (z) = 0.19673 0.35237
#
# Static dielectric constant tensor:
#      x y z
#    x 1.803750 0.000000 -0.025190 
#    y 0.000000 2.980760 0.000000 
#    z -0.025190 0.000000 1.846750 
# 
# From -- ./inp_files/76374.got.cif
#   From: 2010.05.17/outbox.cif.g08.bks.cpg/sg14_39_cif.got.tgz:76374.got - 2010.06.03 17:49:19.
