data_PCOD9245932
_publ_section_title
;
Structure prediction by ZEFSAII (Michael W. Deem and Ramdas Pophale) SiO2 
 PCOD9245932
Probable space group: P 21/C
;
_chemical_formula_sum "Si O2"
_cell_formula_units_Z 24
_cell_length_a 15.082151
_cell_length_b 8.773503
_cell_length_c 8.875081
_cell_angle_alpha 90.000000
_cell_angle_beta 90.432530
_cell_angle_gamma 90.000000
_cell_volume 1174.346517
_symmetry_space_group_name_H-M "P 21/C"
_symmetry_group_IT_number 14
_symmetry_cell_setting 'monoclinic'
loop_
_space_group_symop_operation_xyz
x,y,z
-x,1/2+y,1/2-z
-x,-y,-z
x,1/2-y,1/2+z
loop_
_atom_site_type_symbol
_atom_site_label
_atom_site_fract_x
_atom_site_fract_y
_atom_site_fract_z
Si Si1 0.079048 0.921181 0.584691
Si Si2 0.555118 0.108744 0.895764
Si Si3 0.722382 0.152423 0.115085
Si Si4 0.916050 0.408111 0.563877
Si Si5 0.434118 0.405770 0.894705
Si Si6 0.729063 0.034459 0.457910
O O1 0.063668 0.899686 0.759921
O O2 0.085884 0.753483 0.517298
O O3 0.169779 0.015649 0.563415
O O4 0.000000 0.000000 0.500000
O O5 0.489415 0.251745 0.859468
O O6 0.579895 0.011311 0.750414
O O7 0.640516 0.136969 0.000579
O O8 0.500000 0.000000 0.000000
O O9 0.809144 0.055639 0.062742
O O10 0.703916 0.106794 0.290743
O O11 0.738106 0.333548 0.087111
O O12 0.000000 0.500000 0.500000
O O13 0.500000 0.500000 0.000000
O O14 0.341283 0.408810 0.986350
#
# Coordination Sequence:
#
# PCOD9245932 Si02
#       6
#     4   4   4   4   4   4
#     4  10  21  39  65  95 131 167 214 269 328 389
#     4  12  26  43  65  95 128 172 222 277 334 393
#     4  10  21  40  65  94 128 170 222 265 329 397
#     4  10  21  39  66  96 126 171 219 264 322 396
#     4  12  24  41  66  93 131 172 224 275 332 396
#     4  10  21  39  65  95 127 174 217 267 327 394
#
# _framework density 20.436900000000001
#
# number of rings (size 3 to 8) (size 9 to 14) (size 15 to 20)
#    0.000    1.333    1.667    4.000    0.000    4.000 
#    3.000    0.000    3.667    0.000    0.000    0.000 
#    0.000    0.000    0.000    0.000    0.000    0.000 
#
# Total GULP energy -133642.135919 kJ/mol
# GULP energy per Si atom -5568.422330 kJ/mol
# Density = 2.039038 g / cm^3
# Si number density = 20.436900 Si / 1000 Ang^3
#
#
#
# Elastic Constant Matrix: (Units=GPa)
#
#
# Indices 1 2 3 4 5 6 
#
# 1 160.6636 45.5407 73.5334 0.0000 -12.6391 0.0000
# 2 45.5407 54.9753 25.8958 0.0000 -10.5477 0.0000
# 3 73.5334 25.8958 130.9857 0.0000 -13.9439 0.0000
# 4 0.0000 0.0000 0.0000 31.0467 0.0000 -3.8854
# 5 -12.6391 -10.5477 -13.9439 0.0000 32.6802 0.0000
# 6 0.0000 0.0000 0.0000 -3.8854 0.0000 34.6182
#
#
#
# Elastic Compliance Matrix: (Units=1/GPa)
#
#
# Indices 1 2 3 4 5 6 
#
# 1 0.009990 -0.006214 -0.004381 0.000000 -0.000011 0.000000
# 2 -0.006214 0.024738 -0.000847 0.000000 0.005220 0.000000
# 3 -0.004381 -0.000847 0.010530 0.000000 0.002525 0.000000
# 4 0.000000 0.000000 0.000000 0.032668 0.000000 0.003667
# 5 -0.000011 0.005220 0.002525 0.000000 0.033357 0.000000
# 6 0.000000 0.000000 0.000000 0.003667 0.000000 0.029298
#
#
# Mechanical properties :
#
#
# Convention : Reuss Voigt Hill
#
# Bulk Modulus (GPa) = 44.69304 70.72936 57.71120
# Shear Modulus (GPa) = 29.25311 33.11267 31.18289
#
# Velocity S-wave (km/s) = 3.78747 4.02959 3.91040
# Velocity P-wave (km/s) = 6.40647 7.50559 6.97771
#
# Compressibility (1/GPa) = 0.02237485
#
# Stress axis : x y z
#
# Youngs Moduli (GPa) = 100.10345 40.42407 94.96748
#
# Poissons Ratio (x) = 0.25119 0.41603
# Poissons Ratio (y) = 0.62203 0.08040
# Poissons Ratio (z) = 0.43853 0.03422
#
# Static dielectric constant tensor:
#      x y z
#    x 2.001650 0.000000 0.041780 
#    y 0.000000 1.756290 0.000000 
#    z 0.041780 0.000000 1.593590 
# 
# From -- ./inp_files/15094.got.cif
#   From: 2010.05.17/outbox.cif.g08.bks.cpg/sg14_8_cif.got.tgz:15094.got - 2010.06.03 17:49:19.
