data_PCOD9245265
_publ_section_title
;
Structure prediction by ZEFSAII (Michael W. Deem and Ramdas Pophale) SiO2 
 PCOD9245265
Probable space group: P 21/C
;
_chemical_formula_sum "Si O2"
_cell_formula_units_Z 26
_cell_length_a 4.797185
_cell_length_b 12.806892
_cell_length_c 21.874536
_cell_angle_alpha 90.000000
_cell_angle_beta 53.015964
_cell_angle_gamma 90.000000
_cell_volume 1073.516781
_symmetry_space_group_name_H-M "P 21/C"
_symmetry_group_IT_number 14
_symmetry_cell_setting 'monoclinic'
loop_
_space_group_symop_operation_xyz
x,y,z
-x,1/2+y,1/2-z
-x,-y,-z
x,1/2-y,1/2+z
loop_
_atom_site_type_symbol
_atom_site_label
_atom_site_fract_x
_atom_site_fract_y
_atom_site_fract_z
Si Si1 0.712691 0.850659 0.574798
Si Si2 0.369203 0.372490 0.474990
Si Si3 0.049656 0.386712 0.830950
Si Si4 0.406651 0.244006 0.698925
Si Si5 0.500000 0.000000 0.500000
Si Si6 0.017703 0.391036 0.161148
Si Si7 0.582997 0.088470 0.078345
O O1 0.686024 0.732045 0.555917
O O2 0.001877 0.878531 0.588035
O O3 0.736440 0.924688 0.513899
O O4 0.323971 0.874387 0.652120
O O5 0.534879 0.468851 0.415511
O O6 0.564561 0.358675 0.513473
O O7 0.986087 0.412575 0.544578
O O8 0.288122 0.292751 0.778414
O O9 0.194637 0.501526 0.800259
O O10 0.143812 0.158882 0.707319
O O11 0.395718 0.339190 0.652093
O O12 0.783172 0.191733 0.656031
O O13 0.647780 0.931402 0.420393
#
# Coordination Sequence:
#
# PCOD9245265 Si02
#       7
#     4   4   4   4   2   4   4
#     4  11  22  40  64  91 127 165 206 268 323 372
#     4  10  21  38  60  90 122 154 203 256 318 367
#     4  11  26  42  60  92 126 163 213 252 307 389
#     4  12  24  42  65  90 127 172 211 253 320 388
#     4  10  22  40  68  98 126 162 218 274 332 378
#     4  11  25  43  67  95 127 166 212 273 322 379
#     4  10  21  37  60  90 120 157 204 255 304 379
#
# _framework density 24.219463999999999
#
# number of rings (size 3 to 8) (size 9 to 14) (size 15 to 20)
#    0.000    1.231    0.000    6.462    0.000    9.231 
#    0.000    0.000    0.000    0.000    0.000    0.000 
#    0.000    0.000    0.000    0.000    0.000    0.000 
#
# Total GULP energy -144978.625288 kJ/mol
# GULP energy per Si atom -5576.100973 kJ/mol
# Density = 2.416434 g / cm^3
# Si number density = 24.219464 Si / 1000 Ang^3
#
#
#
# Elastic Constant Matrix: (Units=GPa)
#
#
# Indices 1 2 3 4 5 6 
#
# 1 93.7258 12.8003 2.0244 0.0000 26.8642 0.0000
# 2 12.8003 112.1754 24.8855 0.0000 23.4862 0.0000
# 3 2.0244 24.8855 37.5417 0.0000 14.7637 0.0000
# 4 0.0000 0.0000 0.0000 39.0000 0.0000 2.9463
# 5 26.8642 23.4862 14.7637 0.0000 32.0757 0.0000
# 6 0.0000 0.0000 0.0000 2.9463 0.0000 28.9791
#
#
#
# Elastic Compliance Matrix: (Units=1/GPa)
#
#
# Indices 1 2 3 4 5 6 
#
# 1 0.014772 0.000356 0.004805 0.000000 -0.014844 0.000000
# 2 0.000356 0.011304 -0.005055 0.000000 -0.006248 0.000000
# 3 0.004805 -0.005055 0.036454 0.000000 -0.017102 0.000000
# 4 0.000000 0.000000 0.000000 0.025840 0.000000 -0.002627
# 5 -0.014844 -0.006248 -0.017102 0.000000 0.056056 0.000000
# 6 0.000000 0.000000 0.000000 -0.002627 0.000000 0.034775
#
#
# Mechanical properties :
#
#
# Convention : Reuss Voigt Hill
#
# Bulk Modulus (GPa) = 15.93817 35.87371 25.90594
# Shear Modulus (GPa) = 25.01244 33.59313 29.30278
#
# Velocity S-wave (km/s) = 3.21712 3.72833 3.48211
# Velocity P-wave (km/s) = 4.51606 5.77737 5.18521
#
# Compressibility (1/GPa) = 0.06274247
#
# Stress axis : x y z
#
# Youngs Moduli (GPa) = 67.69708 88.46765 27.43160
#
# Poissons Ratio (x) = -0.03153 -0.13181
# Poissons Ratio (y) = -0.02413 0.13866
# Poissons Ratio (z) = -0.32528 0.44719
#
# Static dielectric constant tensor:
#      x y z
#    x 1.797850 0.000000 0.079150 
#    y 0.000000 2.010540 0.000000 
#    z 0.079150 0.000000 1.788480 
# 
# From -- ./inp_files/63260.got.cif
#   From: 2010.05.17/outbox.cif.g08.bks.cpg/sg14_32_cif.got.tgz:63260.got - 2010.06.03 17:49:19.
