data_PCOD9245764
_publ_section_title
;
Structure prediction by ZEFSAII (Michael W. Deem and Ramdas Pophale) SiO2 
 PCOD9245764
Probable space group: P 21/C
;
_chemical_formula_sum "Si O2"
_cell_formula_units_Z 24
_cell_length_a 15.404335
_cell_length_b 4.900501
_cell_length_c 12.949667
_cell_angle_alpha 90.000000
_cell_angle_beta 94.485895
_cell_angle_gamma 90.000000
_cell_volume 974.562252
_symmetry_space_group_name_H-M "P 21/C"
_symmetry_group_IT_number 14
_symmetry_cell_setting 'monoclinic'
loop_
_space_group_symop_operation_xyz
x,y,z
-x,1/2+y,1/2-z
-x,-y,-z
x,1/2-y,1/2+z
loop_
_atom_site_type_symbol
_atom_site_label
_atom_site_fract_x
_atom_site_fract_y
_atom_site_fract_z
Si Si1 0.924800 0.658295 0.843661
Si Si2 0.107709 0.838691 0.300896
Si Si3 0.333722 0.068675 0.014983
Si Si4 0.300317 0.736079 0.311565
Si Si5 0.554767 0.922148 0.780685
Si Si6 0.240681 0.569651 0.084924
O O1 0.906895 0.465585 0.742804
O O2 0.856109 0.552217 0.920769
O O3 0.027769 0.618261 0.871949
O O4 0.904756 0.959756 0.798598
O O5 0.207629 0.855589 0.343061
O O6 0.415333 0.031583 0.098607
O O7 0.255607 0.881502 0.054670
O O8 0.303801 0.378744 0.024130
O O9 0.343215 0.951753 0.902306
O O10 0.365112 0.971460 0.280716
O O11 0.274805 0.564536 0.206747
O O12 0.474666 0.115490 0.741815
#
# Coordination Sequence:
#
# PCOD9245764 Si02
#       6
#     4   4   4   4   4   4
#     4   9  16  32  55  84 121 158 199 239 278 337
#     4   9  18  31  57  86 113 161 200 232 293 341
#     4  11  24  40  64  91 118 158 198 239 302 356
#     4  10  23  42  64  88 123 156 196 249 297 352
#     4  11  24  42  63  88 118 153 196 246 302 361
#     4  10  21  39  61  90 125 160 197 240 287 346
#
# _framework density 24.626439000000001
#
# number of rings (size 3 to 8) (size 9 to 14) (size 15 to 20)
#    0.000    2.000    0.000    5.000    0.000    9.333 
#    0.000    1.667    0.000    0.000    0.000    0.000 
#    0.000    0.000    0.000    0.000    0.000    0.000 
#
# Total GULP energy -134240.675510 kJ/mol
# GULP energy per Si atom -5593.361480 kJ/mol
# Density = 2.457039 g / cm^3
# Si number density = 24.626439 Si / 1000 Ang^3
#
#
#
# Elastic Constant Matrix: (Units=GPa)
#
#
# Indices 1 2 3 4 5 6 
#
# 1 116.4437 -1.4637 12.5813 0.0000 14.5599 0.0000
# 2 -1.4637 61.1441 0.7402 0.0000 -0.0529 0.0000
# 3 12.5813 0.7402 97.4312 0.0000 17.4201 0.0000
# 4 0.0000 0.0000 0.0000 22.0260 0.0000 -6.1374
# 5 14.5599 -0.0529 17.4201 0.0000 23.1367 0.0000
# 6 0.0000 0.0000 0.0000 -6.1374 0.0000 30.4593
#
#
#
# Elastic Compliance Matrix: (Units=1/GPa)
#
#
# Indices 1 2 3 4 5 6 
#
# 1 0.009327 0.000221 -0.000181 0.000000 -0.005733 0.000000
# 2 0.000221 0.016362 -0.000156 0.000000 0.000016 0.000000
# 3 -0.000181 -0.000156 0.011865 0.000000 -0.008820 0.000000
# 4 0.000000 0.000000 0.000000 0.048102 0.000000 0.009692
# 5 -0.005733 0.000016 -0.008820 0.000000 0.053470 0.000000
# 6 0.000000 0.000000 0.000000 0.009692 0.000000 0.034784
#
#
# Mechanical properties :
#
#
# Convention : Reuss Voigt Hill
#
# Bulk Modulus (GPa) = 26.79410 33.19275 29.99342
# Shear Modulus (GPa) = 26.79789 32.66848 29.73318
#
# Velocity S-wave (km/s) = 3.30233 3.64615 3.47849
# Velocity P-wave (km/s) = 5.04424 5.58871 5.32344
#
# Compressibility (1/GPa) = 0.03732165
#
# Stress axis : x y z
#
# Youngs Moduli (GPa) = 107.21585 61.11729 84.28039
#
# Poissons Ratio (x) = -0.01348 0.01526
# Poissons Ratio (y) = -0.02364 0.01311
# Poissons Ratio (z) = 0.01942 0.00951
#
# Static dielectric constant tensor:
#      x y z
#    x 2.011440 0.000000 -0.039490 
#    y 0.000000 1.867700 0.000000 
#    z -0.039490 0.000000 1.962320 
# 
# From -- ./inp_files/45726.got.cif
#   From: 2010.05.17/outbox.cif.g08.bks.cpg/sg14_23_cif.got.tgz:45726.got - 2010.06.03 17:49:19.
