data_PCOD9245275
_publ_section_title
;
Structure prediction by ZEFSAII (Michael W. Deem and Ramdas Pophale) SiO2 
 PCOD9245275
Probable space group: P 21/C
;
_chemical_formula_sum "Si O2"
_cell_formula_units_Z 20
_cell_length_a 14.763410
_cell_length_b 9.287932
_cell_length_c 8.071164
_cell_angle_alpha 90.000000
_cell_angle_beta 130.025097
_cell_angle_gamma 90.000000
_cell_volume 847.493063
_symmetry_space_group_name_H-M "P 21/C"
_symmetry_group_IT_number 14
_symmetry_cell_setting 'monoclinic'
loop_
_space_group_symop_operation_xyz
x,y,z
-x,1/2+y,1/2-z
-x,-y,-z
x,1/2-y,1/2+z
loop_
_atom_site_type_symbol
_atom_site_label
_atom_site_fract_x
_atom_site_fract_y
_atom_site_fract_z
Si Si1 0.136291 0.021275 0.119766
Si Si2 0.253472 0.081477 0.930663
Si Si3 0.717271 0.960225 0.400618
Si Si4 0.486779 0.908705 0.649178
Si Si5 0.728408 0.220614 0.197440
O O1 0.161516 0.098090 0.973365
O O2 0.192864 0.861555 0.194095
O O3 0.206578 0.095620 0.355664
O O4 0.000000 0.000000 0.000000
O O5 0.250565 0.120569 0.731738
O O6 0.251808 0.906179 0.911604
O O7 0.383060 0.132593 0.139582
O O8 0.582578 0.988850 0.300939
O O9 0.747542 0.126148 0.386151
O O10 0.596892 0.222182 0.504438
O O11 0.500000 0.000000 0.500000
#
# Coordination Sequence:
#
# PCOD9245275 Si02
#       5
#     4   4   4   4   4
#     4  11  20  35  57  81 109 153 205 248 273 324
#     4  10  21  37  61  87 120 154 191 235 289 357
#     4   9  21  36  58  87 115 155 192 230 292 350
#     4  11  18  32  61  93 116 150 189 233 290 352
#     4   9  21  38  60  88 118 154 195 230 290 357
#
# _framework density 23.599014
#
# number of rings (size 3 to 8) (size 9 to 14) (size 15 to 20)
#    1.200    0.800    4.000    3.000    0.000    0.800 
#    0.000    0.000    0.000   14.400    0.000    0.000 
#    0.000    0.000    0.000    0.000    0.000    0.000 
#
# Total GULP energy -111455.155509 kJ/mol
# GULP energy per Si atom -5572.757775 kJ/mol
# Density = 2.354530 g / cm^3
# Si number density = 23.599014 Si / 1000 Ang^3
#
#
#
# Elastic Constant Matrix: (Units=GPa)
#
#
# Indices 1 2 3 4 5 6 
#
# 1 186.4197 12.1710 64.8219 0.0000 -17.7225 0.0000
# 2 12.1710 69.9602 -1.8431 0.0000 -16.3560 0.0000
# 3 64.8219 -1.8431 49.5339 0.0000 -10.1629 0.0000
# 4 0.0000 0.0000 0.0000 21.4405 0.0000 -13.9390
# 5 -17.7225 -16.3560 -10.1629 0.0000 44.9692 0.0000
# 6 0.0000 0.0000 0.0000 -13.9390 0.0000 19.5627
#
#
#
# Elastic Compliance Matrix: (Units=1/GPa)
#
#
# Indices 1 2 3 4 5 6 
#
# 1 0.010150 -0.002060 -0.013309 0.000000 0.000243 0.000000
# 2 -0.002060 0.016200 0.004551 0.000000 0.006109 0.000000
# 3 -0.013309 0.004551 0.038838 0.000000 0.005188 0.000000
# 4 0.000000 0.000000 0.000000 0.086893 0.000000 0.061914
# 5 0.000243 0.006109 0.005188 0.000000 0.025728 0.000000
# 6 0.000000 0.000000 0.000000 0.061914 0.000000 0.095233
#
#
# Mechanical properties :
#
#
# Convention : Reuss Voigt Hill
#
# Bulk Modulus (GPa) = 22.95986 50.69039 36.82512
# Shear Modulus (GPa) = 16.17108 32.57873 24.37490
#
# Velocity S-wave (km/s) = 2.62056 3.71956 3.21733
# Velocity P-wave (km/s) = 4.34818 6.32244 5.42586
#
# Compressibility (1/GPa) = 0.04355427
#
# Stress axis : x y z
#
# Youngs Moduli (GPa) = 98.52640 61.72713 25.74778
#
# Poissons Ratio (x) = 0.12713 0.34267
# Poissons Ratio (y) = 0.20292 -0.11719
# Poissons Ratio (z) = 1.31127 -0.28094
#
# Static dielectric constant tensor:
#      x y z
#    x 1.896360 0.000000 -0.192390 
#    y 0.000000 1.920010 0.000000 
#    z -0.192390 0.000000 1.592440 
# 
# From -- ./inp_files/8810.got.cif
#   From: 2010.05.17/outbox.cif.g08.bks.cpg/sg14_5_cif.got.tgz:8810.got - 2010.06.03 17:49:19.
