data_PCOD9245498
_publ_section_title
;
Structure prediction by ZEFSAII (Michael W. Deem and Ramdas Pophale) SiO2 
 PCOD9245498
Probable space group: P 21/C
;
_chemical_formula_sum "Si O2"
_cell_formula_units_Z 32
_cell_length_a 8.709414
_cell_length_b 11.575683
_cell_length_c 20.618102
_cell_angle_alpha 90.000000
_cell_angle_beta 123.089306
_cell_angle_gamma 90.000000
_cell_volume 1741.547378
_symmetry_space_group_name_H-M "P 21/C"
_symmetry_group_IT_number 14
_symmetry_cell_setting 'monoclinic'
loop_
_space_group_symop_operation_xyz
x,y,z
-x,1/2+y,1/2-z
-x,-y,-z
x,1/2-y,1/2+z
loop_
_atom_site_type_symbol
_atom_site_label
_atom_site_fract_x
_atom_site_fract_y
_atom_site_fract_z
Si Si1 0.810912 0.728403 0.177450
Si Si2 0.803372 0.767895 0.833849
Si Si3 0.492157 0.387896 0.185797
Si Si4 0.548161 0.973769 0.822615
Si Si5 0.507152 0.599786 0.557077
Si Si6 0.232344 0.680649 0.279368
Si Si7 0.369926 0.509771 0.908777
Si Si8 0.218929 0.746008 0.417078
O O1 0.783183 0.729997 0.250040
O O2 0.699510 0.835979 0.120098
O O3 0.736612 0.607838 0.131159
O O4 0.029310 0.722286 0.214372
O O5 0.707977 0.655034 0.841296
O O6 0.692557 0.871555 0.842601
O O7 0.017173 0.768734 0.898552
O O8 0.575128 0.444308 0.268342
O O9 0.622065 0.280663 0.199899
O O10 0.507432 0.466650 0.126488
O O11 0.336513 0.927602 0.771901
O O12 0.567409 0.039337 0.894898
O O13 0.500000 0.500000 0.500000
O O14 0.375744 0.703086 0.501535
O O15 0.228324 0.663765 0.355900
O O16 0.247151 0.623497 0.896507
O O17 0.500000 0.500000 0.000000
#
# Coordination Sequence:
#
# PCOD9245498 Si02
#       8
#     4   4   4   4   4   4   4   4
#     4  11  22  39  66  93 120 166 214 255 307 376
#     4  10  22  40  62  92 125 162 211 262 311 371
#     4  10  21  38  61  90 122 159 207 261 308 365
#     4  11  21  38  65  90 124 165 205 265 313 369
#     4  12  24  40  64  94 131 166 202 257 324 375
#     4   9  22  38  61  92 121 161 214 252 307 377
#     4  11  22  40  66  87 123 164 208 255 310 371
#     4  10  22  41  61  91 125 165 208 254 312 379
#
# _framework density 18.374466000000002
#
# number of rings (size 3 to 8) (size 9 to 14) (size 15 to 20)
#    0.000    1.500    5.000    0.000    1.750    2.500 
#    0.000    1.875    0.000    0.000    0.000    0.000 
#    0.000    0.000    0.000    0.000    0.000    0.000 
#
# Total GULP energy -178267.029996 kJ/mol
# GULP energy per Si atom -5570.844687 kJ/mol
# Density = 1.833264 g / cm^3
# Si number density = 18.374466 Si / 1000 Ang^3
#
#
#
# Elastic Constant Matrix: (Units=GPa)
#
#
# Indices 1 2 3 4 5 6 
#
# 1 104.5185 14.4375 25.7472 0.0000 7.2481 0.0000
# 2 14.4375 27.5120 -4.1476 0.0000 -3.1114 0.0000
# 3 25.7472 -4.1476 77.2188 0.0000 -2.5477 0.0000
# 4 0.0000 0.0000 0.0000 10.8708 0.0000 -6.0621
# 5 7.2481 -3.1114 -2.5477 0.0000 32.8435 0.0000
# 6 0.0000 0.0000 0.0000 -6.0621 0.0000 6.0625
#
#
#
# Elastic Compliance Matrix: (Units=1/GPa)
#
#
# Indices 1 2 3 4 5 6 
#
# 1 0.011950 -0.007366 -0.004502 0.000000 -0.003684 0.000000
# 2 -0.007366 0.041623 0.004888 0.000000 0.005948 0.000000
# 3 -0.004502 0.004888 0.014800 0.000000 0.002604 0.000000
# 4 0.000000 0.000000 0.000000 0.207935 0.000000 0.207919
# 5 -0.003684 0.005948 0.002604 0.000000 0.032026 0.000000
# 6 0.000000 0.000000 0.000000 0.207919 0.000000 0.372852
#
#
# Mechanical properties :
#
#
# Convention : Reuss Voigt Hill
#
# Bulk Modulus (GPa) = 18.37803 31.25817 24.81810
# Shear Modulus (GPa) = 7.00986 21.50283 14.25634
#
# Velocity S-wave (km/s) = 1.95532 3.42461 2.78848
# Velocity P-wave (km/s) = 3.88862 5.71716 4.88914
#
# Compressibility (1/GPa) = 0.05441278
#
# Stress axis : x y z
#
# Youngs Moduli (GPa) = 83.68488 24.02524 67.56914
#
# Poissons Ratio (x) = 0.17697 0.30417
# Poissons Ratio (y) = 0.61643 -0.33028
# Poissons Ratio (z) = 0.37671 -0.11744
#
# Static dielectric constant tensor:
#      x y z
#    x 1.625440 0.000000 -0.000520 
#    y 0.000000 1.782470 0.000000 
#    z -0.000520 0.000000 1.619380 
# 
# From -- ./inp_files/55572.got.cif
#   From: 2010.05.17/outbox.cif.g08.bks.cpg/sg14_28_cif.got.tgz:55572.got - 2010.06.03 17:49:19.
