data_PCOD9245951
_publ_section_title
;
Structure prediction by ZEFSAII (Michael W. Deem and Ramdas Pophale) SiO2 
 PCOD9245951
Probable space group: P 21/C
;
_chemical_formula_sum "Si O2"
_cell_formula_units_Z 32
_cell_length_a 9.547013
_cell_length_b 33.012628
_cell_length_c 5.229733
_cell_angle_alpha 90.000000
_cell_angle_beta 81.591997
_cell_angle_gamma 90.000000
_cell_volume 1630.549660
_symmetry_space_group_name_H-M "P 21/C"
_symmetry_group_IT_number 14
_symmetry_cell_setting 'monoclinic'
loop_
_space_group_symop_operation_xyz
x,y,z
-x,1/2+y,1/2-z
-x,-y,-z
x,1/2-y,1/2+z
loop_
_atom_site_type_symbol
_atom_site_label
_atom_site_fract_x
_atom_site_fract_y
_atom_site_fract_z
Si Si1 0.449584 0.350840 0.579516
Si Si2 0.248625 0.415321 0.502660
Si Si3 0.589398 0.959689 0.432736
Si Si4 0.080465 0.880229 0.497286
Si Si5 0.736161 0.776777 0.045906
Si Si6 0.944186 0.651880 0.559093
Si Si7 0.411920 0.881293 0.482854
Si Si8 0.089348 0.459701 0.931510
O O1 0.322494 0.383159 0.674619
O O2 0.384486 0.308637 0.505734
O O3 0.528989 0.368205 0.309310
O O4 0.545031 0.349853 0.806008
O O5 0.368081 0.445271 0.364209
O O6 0.180629 0.380928 0.337161
O O7 0.124980 0.444601 0.634561
O O8 0.486678 0.923276 0.544661
O O9 0.748876 0.962475 0.506511
O O10 0.500000 0.000000 0.500000
O O11 0.245263 0.886253 0.502366
O O12 0.011987 0.863996 0.778034
O O13 0.007301 0.922879 0.444269
O O14 0.049192 0.850133 0.270125
O O15 0.729710 0.742857 0.828037
O O16 0.876040 0.804871 0.019156
O O17 0.000000 0.500000 0.000000
#
# Coordination Sequence:
#
# PCOD9245951 Si02
#       8
#     4   4   4   4   4   4   4   4
#     4  10  21  39  66  88 129 161 207 259 304 376
#     4   9  20  38  58  84 114 168 206 260 314 370
#     4  11  22  38  56  85 122 163 214 274 321 358
#     4  11  22  40  62  90 121 171 219 251 310 379
#     4  11  22  38  68 106 128 156 204 256 312 374
#     4  10  21  39  66  88 129 161 207 259 304 376
#     4  11  22  40  62  90 121 171 219 251 310 379
#     4  11  22  38  56  85 122 163 214 274 321 358
#
# _framework density 19.625284000000001
#
# number of rings (size 3 to 8) (size 9 to 14) (size 15 to 20)
#    0.000    1.500    2.500    3.000    0.000    1.000 
#    4.500    0.000    0.000   15.000    0.000    0.000 
#    0.000    0.000    0.000    0.000    0.000    0.000 
#
# Total GULP energy -178198.793384 kJ/mol
# GULP energy per Si atom -5568.712293 kJ/mol
# Density = 1.958062 g / cm^3
# Si number density = 19.625284 Si / 1000 Ang^3
#
#
#
# Elastic Constant Matrix: (Units=GPa)
#
#
# Indices 1 2 3 4 5 6 
#
# 1 125.1217 24.5524 10.5074 0.0000 17.9167 0.0000
# 2 24.5524 49.7362 -2.9169 0.0000 -8.3536 0.0000
# 3 10.5074 -2.9169 60.6765 0.0000 14.3675 0.0000
# 4 0.0000 0.0000 0.0000 22.9318 0.0000 -0.7941
# 5 17.9167 -8.3536 14.3675 0.0000 25.9644 0.0000
# 6 0.0000 0.0000 0.0000 -0.7941 0.0000 18.2001
#
#
#
# Elastic Compliance Matrix: (Units=1/GPa)
#
#
# Indices 1 2 3 4 5 6 
#
# 1 0.010728 -0.006916 0.000103 0.000000 -0.009685 0.000000
# 2 -0.006916 0.025739 -0.000755 0.000000 0.013471 0.000000
# 3 0.000103 -0.000755 0.018989 0.000000 -0.010822 0.000000
# 4 0.000000 0.000000 0.000000 0.043674 0.000000 0.001906
# 5 -0.009685 0.013471 -0.010822 0.000000 0.055519 0.000000
# 6 0.000000 0.000000 0.000000 0.001906 0.000000 0.055028
#
#
# Mechanical properties :
#
#
# Convention : Reuss Voigt Hill
#
# Bulk Modulus (GPa) = 24.80199 33.31333 29.05766
# Shear Modulus (GPa) = 20.98618 26.97869 23.98243
#
# Velocity S-wave (km/s) = 3.27363 3.71170 3.49953
# Velocity P-wave (km/s) = 5.19173 5.94816 5.58277
#
# Compressibility (1/GPa) = 0.04031935
#
# Stress axis : x y z
#
# Youngs Moduli (GPa) = 93.21813 38.85211 52.66162
#
# Poissons Ratio (x) = 0.26871 -0.00543
# Poissons Ratio (y) = 0.64472 0.03975
# Poissons Ratio (z) = -0.00961 0.02933
#
# Static dielectric constant tensor:
#      x y z
#    x 1.723530 0.000000 0.020750 
#    y 0.000000 1.673090 0.000000 
#    z 0.020750 0.000000 1.808030 
# 
# From -- ./inp_files/2232.got.cif
#   From: 2010.05.17/outbox.cif.g08.bks.cpg/sg14_2_cif.got.tgz:2232.got - 2010.06.03 17:49:19.
