data_PCOD9245110
_publ_section_title
;
Structure prediction by ZEFSAII (Michael W. Deem and Ramdas Pophale) SiO2 
 PCOD9245110
Probable space group: P 21/C
;
_chemical_formula_sum "Si O2"
_cell_formula_units_Z 32
_cell_length_a 11.526447
_cell_length_b 9.789696
_cell_length_c 14.704007
_cell_angle_alpha 90.000000
_cell_angle_beta 66.521940
_cell_angle_gamma 90.000000
_cell_volume 1521.845004
_symmetry_space_group_name_H-M "P 21/C"
_symmetry_group_IT_number 14
_symmetry_cell_setting 'monoclinic'
loop_
_space_group_symop_operation_xyz
x,y,z
-x,1/2+y,1/2-z
-x,-y,-z
x,1/2-y,1/2+z
loop_
_atom_site_type_symbol
_atom_site_label
_atom_site_fract_x
_atom_site_fract_y
_atom_site_fract_z
Si Si1 0.550666 0.177558 0.524495
Si Si2 0.267514 0.683667 0.196867
Si Si3 0.733939 0.730701 0.834849
Si Si4 0.202122 0.986182 0.252580
Si Si5 0.374312 0.193849 0.821293
Si Si6 0.904929 0.516022 0.863356
Si Si7 0.289602 0.043335 0.424770
Si Si8 0.598518 0.378698 0.664669
O O1 0.608154 0.170853 0.405862
O O2 0.399585 0.188068 0.578963
O O3 0.609664 0.305604 0.563212
O O4 0.599359 0.043796 0.563261
O O5 0.226733 0.839332 0.204674
O O6 0.162482 0.590383 0.182935
O O7 0.292895 0.644252 0.293691
O O8 0.720971 0.679726 0.734354
O O9 0.854232 0.661545 0.843055
O O10 0.748042 0.892512 0.826051
O O11 0.053424 0.002667 0.317537
O O12 0.274754 0.998094 0.325508
O O13 0.310836 0.293309 0.915027
O O14 0.485501 0.289417 0.745370
O O15 0.418680 0.042907 0.836976
O O16 0.836945 0.502978 0.981843
#
# Coordination Sequence:
#
# PCOD9245110 Si02
#       8
#     4   4   4   4   4   4   4   4
#     4  10  23  40  62  99 127 155 210 257 328 375
#     4  11  24  39  65  92 125 170 200 266 314 372
#     4  10  22  38  60  92 124 158 207 263 307 373
#     4  11  23  43  62  88 129 170 211 254 310 367
#     4  10  21  36  61  89 123 162 197 253 322 368
#     4  11  23  41  64  90 121 171 220 251 303 377
#     4  10  22  39  65  91 121 166 208 265 307 376
#     4  11  21  39  60  91 132 159 200 253 319 382
#
# _framework density 21.027107000000001
#
# number of rings (size 3 to 8) (size 9 to 14) (size 15 to 20)
#    0.000    1.500    2.500    2.625    5.250    2.500 
#    0.000    0.000    0.000    1.500    0.000    0.000 
#    0.000    0.000    0.000    0.000    0.000    0.000 
#
# Total GULP energy -178866.935503 kJ/mol
# GULP energy per Si atom -5589.591734 kJ/mol
# Density = 2.097925 g / cm^3
# Si number density = 21.027107 Si / 1000 Ang^3
#
#
#
# Elastic Constant Matrix: (Units=GPa)
#
#
# Indices 1 2 3 4 5 6 
#
# 1 45.9347 6.4005 21.5483 0.0000 -20.8588 0.0000
# 2 6.4005 131.4496 5.7670 0.0000 -12.7282 0.0000
# 3 21.5483 5.7670 44.5629 0.0000 0.4213 0.0000
# 4 0.0000 0.0000 0.0000 24.8247 0.0000 -4.5451
# 5 -20.8588 -12.7282 0.4213 0.0000 30.2756 0.0000
# 6 0.0000 0.0000 0.0000 -4.5451 0.0000 14.8506
#
#
#
# Elastic Compliance Matrix: (Units=1/GPa)
#
#
# Indices 1 2 3 4 5 6 
#
# 1 0.048456 0.002043 -0.024022 0.000000 0.034577 0.000000
# 2 0.002043 0.008067 -0.002077 0.000000 0.004827 0.000000
# 3 -0.024022 -0.002077 0.034494 0.000000 -0.017904 0.000000
# 4 0.000000 0.000000 0.000000 0.042674 0.000000 0.013061
# 5 0.034577 0.004827 -0.017904 0.000000 0.059131 0.000000
# 6 0.000000 0.000000 0.000000 0.013061 0.000000 0.071335
#
#
# Mechanical properties :
#
#
# Convention : Reuss Voigt Hill
#
# Bulk Modulus (GPa) = 23.30827 32.15320 27.73074
# Shear Modulus (GPa) = 15.31064 26.53892 20.92478
#
# Velocity S-wave (km/s) = 2.70133 3.55650 3.15800
# Velocity P-wave (km/s) = 4.56492 5.67357 5.14917
#
# Compressibility (1/GPa) = 0.04290323
#
# Stress axis : x y z
#
# Youngs Moduli (GPa) = 20.63736 123.96806 28.99050
#
# Poissons Ratio (x) = -0.25322 0.69641
# Poissons Ratio (y) = -0.04215 0.06022
# Poissons Ratio (z) = 0.49575 0.25751
#
# Static dielectric constant tensor:
#      x y z
#    x 1.756410 0.000000 0.020680 
#    y 0.000000 1.774490 0.000000 
#    z 0.020680 0.000000 1.799450 
# 
# From -- ./inp_files/43695.got.cif
#   From: 2010.05.17/outbox.cif.g08.bks.cpg/sg14_22_cif.got.tgz:43695.got - 2010.06.03 17:49:19.
