data_PCOD9245175
_publ_section_title
;
Structure prediction by ZEFSAII (Michael W. Deem and Ramdas Pophale) SiO2 
 PCOD9245175
Probable space group: P 21/C
;
_chemical_formula_sum "Si O2"
_cell_formula_units_Z 24
_cell_length_a 26.478315
_cell_length_b 7.304357
_cell_length_c 5.439931
_cell_angle_alpha 90.000000
_cell_angle_beta 102.715106
_cell_angle_gamma 90.000000
_cell_volume 1026.319450
_symmetry_space_group_name_H-M "P 21/C"
_symmetry_group_IT_number 14
_symmetry_cell_setting 'monoclinic'
loop_
_space_group_symop_operation_xyz
x,y,z
-x,1/2+y,1/2-z
-x,-y,-z
x,1/2-y,1/2+z
loop_
_atom_site_type_symbol
_atom_site_label
_atom_site_fract_x
_atom_site_fract_y
_atom_site_fract_z
Si Si1 0.096422 0.152441 0.131567
Si Si2 0.981832 0.290799 0.991519
Si Si3 0.810239 0.454105 0.420066
Si Si4 0.768758 0.039247 0.376211
Si Si5 0.663424 0.869413 0.166510
Si Si6 0.547340 0.635623 0.589966
O O1 0.109674 0.206517 0.424146
O O2 0.130099 0.979389 0.088828
O O3 0.033809 0.164004 0.053855
O O4 0.953141 0.241336 0.713471
O O5 0.000000 0.500000 0.000000
O O6 0.789917 0.246738 0.420869
O O7 0.798583 0.540286 0.672289
O O8 0.779663 0.541320 0.157406
O O9 0.708592 0.017498 0.248376
O O10 0.668626 0.729987 0.405904
O O11 0.605133 0.946877 0.123496
O O12 0.500000 0.500000 0.500000
O O13 0.544171 0.780158 0.360659
#
# Coordination Sequence:
#
# PCOD9245175 Si02
#       6
#     4   4   4   4   4   4
#     4  10  21  37  63  88 120 162 200 240 305 365
#     4  10  21  40  70  96 128 165 209 257 310 372
#     4  10  21  37  57  84 126 152 203 247 300 357
#     4  10  21  37  56  85 118 160 200 254 299 361
#     4  10  21  37  59  86 119 159 208 251 306 370
#     4  10  21  40  61  91 125 163 207 260 321 377
#
# _framework density 23.384532
#
# number of rings (size 3 to 8) (size 9 to 14) (size 15 to 20)
#    0.000    2.000    0.000    3.000    0.000    4.000 
#    6.000    0.000   88.000    0.000    0.000    0.000 
#    0.000    0.000    0.000    0.000    0.000    0.000 
#
# Total GULP energy -134007.919712 kJ/mol
# GULP energy per Si atom -5583.663321 kJ/mol
# Density = 2.333131 g / cm^3
# Si number density = 23.384532 Si / 1000 Ang^3
#
#
#
# Elastic Constant Matrix: (Units=GPa)
#
#
# Indices 1 2 3 4 5 6 
#
# 1 122.9691 37.7207 25.2284 0.0000 18.4910 0.0000
# 2 37.7207 70.0766 10.1786 0.0000 11.6898 0.0000
# 3 25.2284 10.1786 190.0438 0.0000 -26.7602 0.0000
# 4 0.0000 0.0000 0.0000 26.5880 0.0000 13.4299
# 5 18.4910 11.6898 -26.7602 0.0000 54.1587 0.0000
# 6 0.0000 0.0000 0.0000 13.4299 0.0000 48.2834
#
#
#
# Elastic Compliance Matrix: (Units=1/GPa)
#
#
# Indices 1 2 3 4 5 6 
#
# 1 0.010440 -0.004836 -0.001593 0.000000 -0.003307 0.000000
# 2 -0.004836 0.017366 -0.000627 0.000000 -0.002407 0.000000
# 3 -0.001593 -0.000627 0.006022 0.000000 0.003654 0.000000
# 4 0.000000 0.000000 0.000000 0.043759 0.000000 -0.012171
# 5 -0.003307 -0.002407 0.003654 0.000000 0.021919 0.000000
# 6 0.000000 0.000000 0.000000 -0.012171 0.000000 0.024097
#
#
# Mechanical properties :
#
#
# Convention : Reuss Voigt Hill
#
# Bulk Modulus (GPa) = 50.72204 58.81611 54.76908
# Shear Modulus (GPa) = 34.65363 46.47014 40.56189
#
# Velocity S-wave (km/s) = 3.85373 4.46266 4.16932
# Velocity P-wave (km/s) = 6.44509 7.19445 6.83005
#
# Compressibility (1/GPa) = 0.01971529
#
# Stress axis : x y z
#
# Youngs Moduli (GPa) = 95.78762 57.58374 166.07132
#
# Poissons Ratio (x) = 0.27850 0.26448
# Poissons Ratio (y) = 0.46327 0.10412
# Poissons Ratio (z) = 0.15255 0.03610
#
# Static dielectric constant tensor:
#      x y z
#    x 1.870700 0.000000 -0.027580 
#    y 0.000000 1.858730 0.000000 
#    z -0.027580 0.000000 1.971090 
# 
# From -- ./inp_files/4462.got.cif
#   From: 2010.05.17/outbox.cif.g08.bks.cpg/sg14_3_cif.got.tgz:4462.got - 2010.06.03 17:49:19.
