data_PCOD9245784
_publ_section_title
;
Structure prediction by ZEFSAII (Michael W. Deem and Ramdas Pophale) SiO2 
 PCOD9245784
Probable space group: P 21/C
;
_chemical_formula_sum "Si O2"
_cell_formula_units_Z 30
_cell_length_a 7.567047
_cell_length_b 7.103012
_cell_length_c 20.918981
_cell_angle_alpha 90.000000
_cell_angle_beta 82.657947
_cell_angle_gamma 90.000000
_cell_volume 1115.151851
_symmetry_space_group_name_H-M "P 21/C"
_symmetry_group_IT_number 14
_symmetry_cell_setting 'monoclinic'
loop_
_space_group_symop_operation_xyz
x,y,z
-x,1/2+y,1/2-z
-x,-y,-z
x,1/2-y,1/2+z
loop_
_atom_site_type_symbol
_atom_site_label
_atom_site_fract_x
_atom_site_fract_y
_atom_site_fract_z
Si Si1 0.197697 0.573631 0.035977
Si Si2 0.855011 0.711297 0.384932
Si Si3 0.521880 0.882893 0.832620
Si Si4 0.833398 0.728680 0.064099
Si Si5 0.623322 0.318517 0.849854
Si Si6 0.161251 0.797147 0.781087
Si Si7 0.000000 0.000000 0.000000
Si Si8 0.713798 0.606294 0.198250
O O1 0.107375 0.417535 0.086993
O O2 0.337936 0.663477 0.077090
O O3 0.043383 0.727961 0.027786
O O4 0.243622 0.450761 0.971264
O O5 0.642669 0.701520 0.383756
O O6 0.965270 0.665917 0.315924
O O7 0.934296 0.568501 0.431595
O O8 0.315501 0.861598 0.823666
O O9 0.622638 0.804048 0.764115
O O10 0.559649 0.106517 0.837888
O O11 0.824971 0.716368 0.139958
O O12 0.792256 0.930888 0.038874
O O13 0.783971 0.358788 0.792878
O O14 0.459856 0.449384 0.836144
O O15 0.181153 0.573090 0.783612
#
# Coordination Sequence:
#
# PCOD9245784 Si02
#       8
#     4   4   4   4   4   4   2   4
#     4  10  21  39  62  88 123 166 211 255 313 380
#     4  11  22  41  66  89 126 171 208 264 321 378
#     4  10  23  41  61  99 132 159 211 266 312 380
#     4  10  21  39  63  87 125 163 212 263 309 380
#     4  10  22  38  60  93 128 162 208 264 315 380
#     4  10  22  40  63  92 128 166 208 261 320 378
#     4  10  24  40  62  96 124 164 218 266 312 376
#     4  10  21  41  62  91 126 166 209 257 318 378
#
# _framework density 26.902163000000002
#
# number of rings (size 3 to 8) (size 9 to 14) (size 15 to 20)
#    0.000    1.867    1.333    1.600    3.733    1.600 
#    0.000    0.667    0.000    0.000    0.000    0.000 
#    0.000    0.000    0.000    0.000    0.000    0.000 
#
# Total GULP energy -167221.326693 kJ/mol
# GULP energy per Si atom -5574.044223 kJ/mol
# Density = 2.684093 g / cm^3
# Si number density = 26.902163 Si / 1000 Ang^3
#
#
#
# Elastic Constant Matrix: (Units=GPa)
#
#
# Indices 1 2 3 4 5 6 
#
# 1 90.4178 13.4639 18.7228 0.0000 21.2382 0.0000
# 2 13.4639 77.7709 22.7734 0.0000 -3.7237 0.0000
# 3 18.7228 22.7734 67.5657 0.0000 6.4219 0.0000
# 4 0.0000 0.0000 0.0000 35.0989 0.0000 10.3374
# 5 21.2382 -3.7237 6.4219 0.0000 48.0672 0.0000
# 6 0.0000 0.0000 0.0000 10.3374 0.0000 26.6321
#
#
#
# Elastic Compliance Matrix: (Units=1/GPa)
#
#
# Indices 1 2 3 4 5 6 
#
# 1 0.013170 -0.001817 -0.002502 0.000000 -0.005625 0.000000
# 2 -0.001817 0.014667 -0.004684 0.000000 0.002565 0.000000
# 3 -0.002502 -0.004684 0.017221 0.000000 -0.001558 0.000000
# 4 0.000000 0.000000 0.000000 0.032168 0.000000 -0.012486
# 5 -0.005625 0.002565 -0.001558 0.000000 0.023697 0.000000
# 6 0.000000 0.000000 0.000000 -0.012486 0.000000 0.042395
#
#
# Mechanical properties :
#
#
# Convention : Reuss Voigt Hill
#
# Bulk Modulus (GPa) = 36.96643 38.40829 37.68736
# Shear Modulus (GPa) = 29.35282 34.01258 31.68270
#
# Velocity S-wave (km/s) = 3.30676 3.55957 3.43549
# Velocity P-wave (km/s) = 5.32451 5.58588 5.45676
#
# Compressibility (1/GPa) = 0.02705157
#
# Stress axis : x y z
#
# Youngs Moduli (GPa) = 75.93122 68.17946 58.06962
#
# Poissons Ratio (x) = 0.12385 0.14532
# Poissons Ratio (y) = 0.13793 0.27200
# Poissons Ratio (z) = 0.19002 0.31935
#
# Static dielectric constant tensor:
#      x y z
#    x 2.305530 0.000000 0.878260 
#    y 0.000000 -71.242540 0.000000 
#    z 0.878260 0.000000 8.932960 
# 
# From -- ./inp_files/64576.got.cif
#   From: 2010.05.17/outbox.cif.g08.bks.cpg/sg14_33_cif.got.tgz:64576.got - 2010.06.03 17:49:19.
