data_PCOD9245200
_publ_section_title
;
Structure prediction by ZEFSAII (Michael W. Deem and Ramdas Pophale) SiO2 
 PCOD9245200
Probable space group: P 21/C
;
_chemical_formula_sum "Si O2"
_cell_formula_units_Z 32
_cell_length_a 14.493734
_cell_length_b 22.101022
_cell_length_c 8.740318
_cell_angle_alpha 90.000000
_cell_angle_beta 30.384303
_cell_angle_gamma 90.000000
_cell_volume 1416.108437
_symmetry_space_group_name_H-M "P 21/C"
_symmetry_group_IT_number 14
_symmetry_cell_setting 'monoclinic'
loop_
_space_group_symop_operation_xyz
x,y,z
-x,1/2+y,1/2-z
-x,-y,-z
x,1/2-y,1/2+z
loop_
_atom_site_type_symbol
_atom_site_label
_atom_site_fract_x
_atom_site_fract_y
_atom_site_fract_z
Si Si1 0.170749 0.433582 0.395446
Si Si2 0.167821 0.935283 0.844705
Si Si3 0.310601 0.158566 0.931880
Si Si4 0.571759 0.879763 0.706686
Si Si5 0.136457 0.272538 0.206060
Si Si6 0.406290 0.597519 0.749610
Si Si7 0.356501 0.827209 0.764867
Si Si8 0.124974 0.709002 0.150484
O O1 0.154772 0.503678 0.462369
O O2 0.175386 0.387255 0.531898
O O3 0.018818 0.423941 0.480750
O O4 0.354138 0.419718 0.039444
O O5 0.304079 0.948812 0.507265
O O6 0.243427 0.879746 0.837677
O O7 0.429534 0.120550 0.879976
O O8 0.455853 0.181583 0.597140
O O9 0.247375 0.216685 0.120198
O O10 0.727403 0.828496 0.520362
O O11 0.401462 0.846470 0.872977
O O12 0.498601 0.916059 0.956270
O O13 0.051465 0.231256 0.192946
O O14 0.964905 0.292188 0.553322
O O15 0.249337 0.649538 0.949591
O O16 0.257811 0.764148 0.925109
#
# Coordination Sequence:
#
# PCOD9245200 Si02
#       8
#     4   4   4   4   4   4   4   4
#     4  10  22  42  64  85 114 155 201 244 292 351
#     4  10  22  42  64  85 114 155 201 244 292 351
#     4  10  21  37  58  83 116 156 196 239 290 349
#     4  11  22  37  58  87 121 153 193 241 293 348
#     4  12  22  35  57  85 121 156 194 238 291 350
#     4  11  22  37  58  87 121 153 193 241 293 348
#     4  10  21  37  58  83 116 156 196 239 290 349
#     4  12  22  35  57  85 121 156 194 238 291 350
#
# _framework density 22.59714
#
# number of rings (size 3 to 8) (size 9 to 14) (size 15 to 20)
#    0.000    1.250    0.000    8.250    0.000    5.000 
#    0.000    0.000    0.000    3.750    0.000    0.000 
#    0.000    0.000    0.000    0.000    0.000    0.000 
#
# Total GULP energy -178358.398295 kJ/mol
# GULP energy per Si atom -5573.699947 kJ/mol
# Density = 2.254571 g / cm^3
# Si number density = 22.597140 Si / 1000 Ang^3
#
#
#
# Elastic Constant Matrix: (Units=GPa)
#
#
# Indices 1 2 3 4 5 6 
#
# 1 50.8157 -4.9477 4.8822 0.0000 -0.2994 0.0000
# 2 -4.9477 87.9087 7.6568 0.0000 -13.6541 0.0000
# 3 4.8822 7.6568 43.2778 0.0000 5.1007 0.0000
# 4 0.0000 0.0000 0.0000 21.5996 0.0000 3.5662
# 5 -0.2994 -13.6541 5.1007 0.0000 36.1542 0.0000
# 6 0.0000 0.0000 0.0000 3.5662 0.0000 15.8135
#
#
#
# Elastic Compliance Matrix: (Units=1/GPa)
#
#
# Indices 1 2 3 4 5 6 
#
# 1 0.020092 0.001538 -0.002671 0.000000 0.001124 0.000000
# 2 0.001538 0.012526 -0.002998 0.000000 0.005166 0.000000
# 3 -0.002671 -0.002998 0.024482 0.000000 -0.004608 0.000000
# 4 0.000000 0.000000 0.000000 0.048088 0.000000 -0.010845
# 5 0.001124 0.005166 -0.004608 0.000000 0.030270 0.000000
# 6 0.000000 0.000000 0.000000 -0.010845 0.000000 0.065683
#
#
# Mechanical properties :
#
#
# Convention : Reuss Voigt Hill
#
# Bulk Modulus (GPa) = 20.47673 21.90942 21.19308
# Shear Modulus (GPa) = 22.15515 26.34084 24.24800
#
# Velocity S-wave (km/s) = 3.13460 3.41790 3.27931
# Velocity P-wave (km/s) = 4.70980 5.02919 4.87211
#
# Compressibility (1/GPa) = 0.04883593
#
# Stress axis : x y z
#
# Youngs Moduli (GPa) = 49.77112 79.83654 40.84713
#
# Poissons Ratio (x) = -0.12279 0.10911
# Poissons Ratio (y) = -0.07655 0.12248
# Poissons Ratio (z) = 0.13295 0.23939
#
# Static dielectric constant tensor:
#      x y z
#    x 1.974460 0.000000 -0.068500 
#    y 0.000000 1.882900 0.000000 
#    z -0.068500 0.000000 1.884520 
# 
# From -- ./inp_files/17028.got.cif
#   From: 2010.05.17/outbox.cif.g08.bks.cpg/sg14_9_cif.got.tgz:17028.got - 2010.06.03 17:49:19.
