data_PCOD9245706
_publ_section_title
;
Structure prediction by ZEFSAII (Michael W. Deem and Ramdas Pophale) SiO2 
 PCOD9245706
Probable space group: P 21/C
;
_chemical_formula_sum "Si O2"
_cell_formula_units_Z 24
_cell_length_a 11.402283
_cell_length_b 7.524457
_cell_length_c 17.858570
_cell_angle_alpha 90.000000
_cell_angle_beta 50.834692
_cell_angle_gamma 90.000000
_cell_volume 1187.951166
_symmetry_space_group_name_H-M "P 21/C"
_symmetry_group_IT_number 14
_symmetry_cell_setting 'monoclinic'
loop_
_space_group_symop_operation_xyz
x,y,z
-x,1/2+y,1/2-z
-x,-y,-z
x,1/2-y,1/2+z
loop_
_atom_site_type_symbol
_atom_site_label
_atom_site_fract_x
_atom_site_fract_y
_atom_site_fract_z
Si Si1 0.525292 0.203747 0.419832
Si Si2 0.693186 0.039660 0.575865
Si Si3 0.796495 0.266158 0.414790
Si Si4 0.954241 0.571830 0.872081
Si Si5 0.703932 0.461993 0.245852
Si Si6 0.752972 0.657436 0.370367
O O1 0.449726 0.035440 0.411532
O O2 0.673353 0.173592 0.410004
O O3 0.579855 0.336194 0.333224
O O4 0.400146 0.293875 0.523355
O O5 0.840688 0.925392 0.489361
O O6 0.732582 0.233810 0.525033
O O7 0.671363 0.015685 0.672023
O O8 0.808328 0.466138 0.381409
O O9 0.940347 0.135872 0.354323
O O10 0.126138 0.619972 0.818332
O O11 0.874953 0.695393 0.843202
O O12 0.714378 0.628250 0.298767
#
# Coordination Sequence:
#
# PCOD9245706 Si02
#       6
#     4   4   4   4   4   4
#     4  10  21  39  58  89 117 161 202 239 292 363
#     4   9  21  38  60  84 123 154 191 249 301 339
#     4   9  19  38  63  79 119 152 203 230 301 346
#     4   9  22  38  62  85 119 157 198 241 299 356
#     4  11  21  36  63  90 123 152 202 254 293 348
#     4  10  22  38  62  87 118 154 203 241 293 354
#
# _framework density 20.202850999999999
#
# number of rings (size 3 to 8) (size 9 to 14) (size 15 to 20)
#    1.000    1.333    0.000    3.000    4.667    2.667 
#    0.000    0.833    3.667    0.000    0.000    0.000 
#    0.000    0.000    0.000    0.000    0.000    0.000 
#
# Total GULP energy -133698.032505 kJ/mol
# GULP energy per Si atom -5570.751354 kJ/mol
# Density = 2.015687 g / cm^3
# Si number density = 20.202851 Si / 1000 Ang^3
#
#
#
# Elastic Constant Matrix: (Units=GPa)
#
#
# Indices 1 2 3 4 5 6 
#
# 1 15.1779 4.5112 9.9253 0.0000 9.3697 0.0000
# 2 4.5112 48.1647 -5.2189 0.0000 10.7639 0.0000
# 3 9.9253 -5.2189 95.7028 0.0000 30.5704 0.0000
# 4 0.0000 0.0000 0.0000 10.8828 0.0000 3.6502
# 5 9.3697 10.7639 30.5704 0.0000 48.9705 0.0000
# 6 0.0000 0.0000 0.0000 3.6502 0.0000 13.3844
#
#
#
# Elastic Compliance Matrix: (Units=1/GPa)
#
#
# Indices 1 2 3 4 5 6 
#
# 1 0.077212 -0.005424 -0.004953 0.000000 -0.010489 0.000000
# 2 -0.005424 0.023140 0.003894 0.000000 -0.006479 0.000000
# 3 -0.004953 0.003894 0.013922 0.000000 -0.008599 0.000000
# 4 0.000000 0.000000 0.000000 0.101140 0.000000 -0.027583
# 5 -0.010489 -0.006479 -0.008599 0.000000 0.029220 0.000000
# 6 0.000000 0.000000 0.000000 -0.027583 0.000000 0.082236
#
#
# Mechanical properties :
#
#
# Convention : Reuss Voigt Hill
#
# Bulk Modulus (GPa) = 9.87093 19.72006 14.79549
# Shear Modulus (GPa) = 13.38314 24.63608 19.00961
#
# Velocity S-wave (km/s) = 2.57658 3.49583 3.07080
# Velocity P-wave (km/s) = 3.70786 5.10653 4.46233
#
# Compressibility (1/GPa) = 0.10130758
#
# Stress axis : x y z
#
# Youngs Moduli (GPa) = 12.95141 43.21491 71.82935
#
# Poissons Ratio (x) = 0.23441 0.35576
# Poissons Ratio (y) = 0.07025 -0.27972
# Poissons Ratio (z) = 0.06415 -0.16829
#
# Static dielectric constant tensor:
#      x y z
#    x 1.702910 0.000000 -0.018350 
#    y 0.000000 1.738910 0.000000 
#    z -0.018350 0.000000 1.773100 
# 
# From -- ./inp_files/56993.got.cif
#   From: 2010.05.17/outbox.cif.g08.bks.cpg/sg14_29_cif.got.tgz:56993.got - 2010.06.03 17:49:19.
