data_PCOD9245978
_publ_section_title
;
Structure prediction by ZEFSAII (Michael W. Deem and Ramdas Pophale) SiO2 
 PCOD9245978
Probable space group: P 21/C
;
_chemical_formula_sum "Si O2"
_cell_formula_units_Z 32
_cell_length_a 23.467623
_cell_length_b 8.637762
_cell_length_c 8.997883
_cell_angle_alpha 90.000000
_cell_angle_beta 54.067149
_cell_angle_gamma 90.000000
_cell_volume 1476.854339
_symmetry_space_group_name_H-M "P 21/C"
_symmetry_group_IT_number 14
_symmetry_cell_setting 'monoclinic'
loop_
_space_group_symop_operation_xyz
x,y,z
-x,1/2+y,1/2-z
-x,-y,-z
x,1/2-y,1/2+z
loop_
_atom_site_type_symbol
_atom_site_label
_atom_site_fract_x
_atom_site_fract_y
_atom_site_fract_z
Si Si1 0.748977 0.741912 0.160336
Si Si2 0.939824 0.060425 0.700774
Si Si3 0.382670 0.436051 0.705541
Si Si4 0.645750 0.473214 0.747283
Si Si5 0.448867 0.319226 0.294182
Si Si6 0.024023 0.362074 0.568174
Si Si7 0.611166 0.288526 0.096936
Si Si8 0.844097 0.818340 0.772467
O O1 0.698540 0.601105 0.196974
O O2 0.773309 0.719792 0.290840
O O3 0.704292 0.895425 0.188000
O O4 0.822832 0.749840 0.963275
O O5 0.960713 0.238995 0.695835
O O6 0.865504 0.999928 0.748805
O O7 0.000000 0.000000 0.500000
O O8 0.949677 0.952851 0.828473
O O9 0.423892 0.386399 0.492263
O O10 0.406645 0.332703 0.809479
O O11 0.393092 0.607273 0.747320
O O12 0.574162 0.562734 0.803030
O O13 0.654036 0.359989 0.591457
O O14 0.641396 0.378264 0.907755
O O15 0.529365 0.267418 0.179625
O O16 0.088595 0.270816 0.394486
O O17 0.000000 0.500000 0.500000
#
# Coordination Sequence:
#
# PCOD9245978 Si02
#       8
#     4   4   4   4   4   4   4   4
#     4  11  23  43  63  89 128 174 223 260 319 407
#     4  10  21  39  67 102 137 171 210 268 327 373
#     4  11  22  38  62  90 121 169 215 272 339 403
#     4  11  24  39  61  88 128 169 217 280 344 405
#     4  11  21  38  61  93 121 160 216 281 349 420
#     4  11  23  42  70 107 139 169 214 270 331 378
#     4  12  22  39  61  90 124 164 216 284 351 403
#     4  11  22  42  68  93 129 178 222 266 323 394
#
# _framework density 21.667674999999999
#
# number of rings (size 3 to 8) (size 9 to 14) (size 15 to 20)
#    0.000    1.000    1.250    8.250    1.750    0.000 
#    0.000    3.750    2.750    0.000    0.000    0.000 
#    0.000    0.000    0.000    0.000    0.000    0.000 
#
# Total GULP energy -178543.473293 kJ/mol
# GULP energy per Si atom -5579.483540 kJ/mol
# Density = 2.161836 g / cm^3
# Si number density = 21.667675 Si / 1000 Ang^3
#
#
#
# Elastic Constant Matrix: (Units=GPa)
#
#
# Indices 1 2 3 4 5 6 
#
# 1 106.5332 48.5924 22.7944 0.0000 8.1355 0.0000
# 2 48.5924 101.4593 12.1426 0.0000 11.1488 0.0000
# 3 22.7944 12.1426 78.1808 0.0000 7.5579 0.0000
# 4 0.0000 0.0000 0.0000 33.5050 0.0000 11.0058
# 5 8.1355 11.1488 7.5579 0.0000 29.1718 0.0000
# 6 0.0000 0.0000 0.0000 11.0058 0.0000 22.9522
#
#
#
# Elastic Compliance Matrix: (Units=1/GPa)
#
#
# Indices 1 2 3 4 5 6 
#
# 1 0.012590 -0.005631 -0.002733 0.000000 -0.000651 0.000000
# 2 -0.005631 0.012927 -0.000041 0.000000 -0.003359 0.000000
# 3 -0.002733 -0.000041 0.013866 0.000000 -0.002814 0.000000
# 4 0.000000 0.000000 0.000000 0.035426 0.000000 -0.016987
# 5 -0.000651 -0.003359 -0.002814 0.000000 0.036474 0.000000
# 6 0.000000 0.000000 0.000000 -0.016987 0.000000 0.051714
#
#
# Mechanical properties :
#
#
# Convention : Reuss Voigt Hill
#
# Bulk Modulus (GPa) = 44.30217 50.35912 47.33064
# Shear Modulus (GPa) = 26.69048 30.63540 28.66294
#
# Velocity S-wave (km/s) = 3.51352 3.76423 3.64104
# Velocity P-wave (km/s) = 6.07868 6.49497 6.29027
#
# Compressibility (1/GPa) = 0.02257226
#
# Stress axis : x y z
#
# Youngs Moduli (GPa) = 79.43003 77.35668 72.11760
#
# Poissons Ratio (x) = 0.43560 0.19711
# Poissons Ratio (y) = 0.44727 0.00297
# Poissons Ratio (z) = 0.21710 0.00319
#
# Static dielectric constant tensor:
#      x y z
#    x 1.554840 0.000000 -0.047650 
#    y 0.000000 1.858160 0.000000 
#    z -0.047650 0.000000 1.739180 
# 
# From -- ./inp_files/19359.got.cif
#   From: 2010.05.17/outbox.cif.g08.bks.cpg/sg14_10_cif.got.tgz:19359.got - 2010.06.03 17:49:19.
