data_PCOD9245620
_publ_section_title
;
Structure prediction by ZEFSAII (Michael W. Deem and Ramdas Pophale) SiO2 
 PCOD9245620
Probable space group: P 21/C
;
_chemical_formula_sum "Si O2"
_cell_formula_units_Z 32
_cell_length_a 5.004971
_cell_length_b 10.370967
_cell_length_c 23.503050
_cell_angle_alpha 90.000000
_cell_angle_beta 87.956029
_cell_angle_gamma 90.000000
_cell_volume 1219.182259
_symmetry_space_group_name_H-M "P 21/C"
_symmetry_group_IT_number 14
_symmetry_cell_setting 'monoclinic'
loop_
_space_group_symop_operation_xyz
x,y,z
-x,1/2+y,1/2-z
-x,-y,-z
x,1/2-y,1/2+z
loop_
_atom_site_type_symbol
_atom_site_label
_atom_site_fract_x
_atom_site_fract_y
_atom_site_fract_z
Si Si1 0.857574 0.778668 0.481313
Si Si2 0.058245 0.972061 0.665044
Si Si3 0.636735 0.286327 0.345866
Si Si4 0.737848 0.013232 0.555116
Si Si5 0.680229 0.527752 0.271476
Si Si6 0.124961 0.382270 0.411151
Si Si7 0.397308 0.178403 0.630334
Si Si8 0.173595 0.875783 0.836094
O O1 0.850716 0.658221 0.523572
O O2 0.756489 0.745420 0.418801
O O3 0.137348 0.856624 0.473408
O O4 0.692248 0.893562 0.514081
O O5 0.256171 0.852936 0.669753
O O6 0.807985 0.957662 0.709176
O O7 0.201600 0.109775 0.676269
O O8 0.953054 0.972117 0.601121
O O9 0.337177 0.299758 0.371736
O O10 0.688300 0.380359 0.292257
O O11 0.829409 0.343992 0.393334
O O12 0.490596 0.053151 0.594440
O O13 0.877707 0.611258 0.311696
O O14 0.378145 0.567636 0.287241
O O15 0.181863 0.527933 0.390449
O O16 0.666826 0.246678 0.648672
#
# Coordination Sequence:
#
# PCOD9245620 Si02
#       8
#     4   4   4   4   4   4   4   4
#     4  10  21  38  65  93 133 172 219 273 336 386
#     4  11  24  39  67  97 126 176 217 275 333 397
#     4  10  22  41  64  94 126 162 225 268 318 392
#     4  10  22  39  61  99 133 164 225 272 335 394
#     4  10  25  44  67  95 126 179 215 276 333 386
#     4  10  21  42  67  91 127 175 218 267 319 394
#     4  11  25  39  64  98 139 172 214 280 335 395
#     4  10  25  46  64  94 138 169 226 273 325 403
#
# _framework density 26.247102000000002
#
# number of rings (size 3 to 8) (size 9 to 14) (size 15 to 20)
#    0.000    1.750    1.250    1.125    8.750    0.500 
#    2.250    0.625    0.000    0.000    0.000    0.000 
#    0.000    0.000    0.000    0.000    0.000    0.000 
#
# Total GULP energy -179229.107790 kJ/mol
# GULP energy per Si atom -5600.909618 kJ/mol
# Density = 2.618736 g / cm^3
# Si number density = 26.247102 Si / 1000 Ang^3
#
#
#
# Elastic Constant Matrix: (Units=GPa)
#
#
# Indices 1 2 3 4 5 6 
#
# 1 81.5824 6.8767 -0.1427 0.0000 5.4740 0.0000
# 2 6.8767 96.1043 24.6965 0.0000 6.8615 0.0000
# 3 -0.1427 24.6965 90.1976 0.0000 4.8487 0.0000
# 4 0.0000 0.0000 0.0000 27.0831 0.0000 -8.8484
# 5 5.4740 6.8615 4.8487 0.0000 33.6303 0.0000
# 6 0.0000 0.0000 0.0000 -8.8484 0.0000 30.8320
#
#
#
# Elastic Compliance Matrix: (Units=1/GPa)
#
#
# Indices 1 2 3 4 5 6 
#
# 1 0.012457 -0.000846 0.000354 0.000000 -0.001906 0.000000
# 2 -0.000846 0.011367 -0.003020 0.000000 -0.001746 0.000000
# 3 0.000354 -0.003020 0.011977 0.000000 -0.001168 0.000000
# 4 0.000000 0.000000 0.000000 0.040744 0.000000 0.011693
# 5 -0.001906 -0.001746 -0.001168 0.000000 0.030570 0.000000
# 6 0.000000 0.000000 0.000000 0.011693 0.000000 0.035790
#
#
# Mechanical properties :
#
#
# Convention : Reuss Voigt Hill
#
# Bulk Modulus (GPa) = 34.75024 36.74947 35.74986
# Shear Modulus (GPa) = 31.34393 34.07265 32.70829
#
# Velocity S-wave (km/s) = 3.45945 3.60689 3.53394
# Velocity P-wave (km/s) = 5.40606 5.60160 5.50470
#
# Compressibility (1/GPa) = 0.02877678
#
# Stress axis : x y z
#
# Youngs Moduli (GPa) = 80.27362 87.97737 83.49375
#
# Poissons Ratio (x) = 0.07445 -0.02955
# Poissons Ratio (y) = 0.06793 0.25213
# Poissons Ratio (z) = -0.02841 0.26567
#
# Static dielectric constant tensor:
#      x y z
#    x 2.092880 0.000000 0.017390 
#    y 0.000000 2.099570 0.000000 
#    z 0.017390 0.000000 2.074490 
# 
# From -- ./inp_files/71306.got.cif
#   From: 2010.05.17/outbox.cif.g08.bks.cpg/sg14_36_cif.got.tgz:71306.got - 2010.06.03 17:49:19.
