data_PCOD9245640
_publ_section_title
;
Structure prediction by ZEFSAII (Michael W. Deem and Ramdas Pophale) SiO2 
 PCOD9245640
Probable space group: P 21/C
;
_chemical_formula_sum "Si O2"
_cell_formula_units_Z 30
_cell_length_a 9.802849
_cell_length_b 15.128677
_cell_length_c 10.194928
_cell_angle_alpha 90.000000
_cell_angle_beta 106.494242
_cell_angle_gamma 90.000000
_cell_volume 1449.730637
_symmetry_space_group_name_H-M "P 21/C"
_symmetry_group_IT_number 14
_symmetry_cell_setting 'monoclinic'
loop_
_space_group_symop_operation_xyz
x,y,z
-x,1/2+y,1/2-z
-x,-y,-z
x,1/2-y,1/2+z
loop_
_atom_site_type_symbol
_atom_site_label
_atom_site_fract_x
_atom_site_fract_y
_atom_site_fract_z
Si Si1 0.549304 0.222942 0.622279
Si Si2 0.811180 0.287348 0.017152
Si Si3 0.103737 0.198816 0.106395
Si Si4 0.720027 0.770110 0.110368
Si Si5 0.000000 0.500000 0.500000
Si Si6 0.731012 0.093346 0.979209
Si Si7 0.688144 0.395297 0.762541
Si Si8 0.428456 0.081701 0.790911
O O1 0.702284 0.194463 0.605961
O O2 0.437554 0.239044 0.474430
O O3 0.575765 0.316500 0.702400
O O4 0.479977 0.149896 0.694818
O O5 0.751845 0.194622 0.942165
O O6 0.793175 0.361084 0.902538
O O7 0.972601 0.266280 0.097704
O O8 0.208709 0.209810 0.258573
O O9 0.185674 0.225657 0.995210
O O10 0.036278 0.102654 0.061956
O O11 0.695918 0.868557 0.163009
O O12 0.834353 0.471519 0.433097
O O13 0.567179 0.067908 0.918215
O O14 0.764139 0.090739 0.143419
O O15 0.618993 0.488265 0.778474
#
# Coordination Sequence:
#
# PCOD9245640 Si02
#       8
#     4   4   4   4   2   4   4   4
#     4  11  23  43  69  98 139 181 233 291 352 419
#     4  10  23  42  66  93 135 183 220 284 355 415
#     4  11  27  44  73  98 142 185 231 294 351 425
#     4  12  24  45  69 102 138 181 234 292 354 414
#     4  10  24  42  64 106 126 190 236 280 346 428
#     4  10  21  38  66  94 137 176 232 285 339 421
#     4  11  22  39  68  97 137 175 233 286 349 420
#     4  12  23  39  69 105 132 184 232 296 353 410
#
# _framework density 20.693498000000002
#
# number of rings (size 3 to 8) (size 9 to 14) (size 15 to 20)
#    0.000    1.067    5.333    1.200    7.467    0.533 
#    0.000    2.000    0.000    0.000    0.000    0.000 
#    0.000    0.000    0.000    0.000    0.000    0.000 
#
# Total GULP energy -167093.197249 kJ/mol
# GULP energy per Si atom -5569.773242 kJ/mol
# Density = 2.064640 g / cm^3
# Si number density = 20.693498 Si / 1000 Ang^3
#
#
#
# Elastic Constant Matrix: (Units=GPa)
#
#
# Indices 1 2 3 4 5 6 
#
# 1 95.6063 24.6213 26.3987 0.0000 0.9864 0.0000
# 2 24.6213 56.4098 21.9760 0.0000 -12.9036 0.0000
# 3 26.3987 21.9760 71.1513 0.0000 -6.3865 0.0000
# 4 0.0000 0.0000 0.0000 16.5278 0.0000 9.8260
# 5 0.9864 -12.9036 -6.3865 0.0000 21.5393 0.0000
# 6 0.0000 0.0000 0.0000 9.8260 0.0000 23.9490
#
#
#
# Elastic Compliance Matrix: (Units=1/GPa)
#
#
# Indices 1 2 3 4 5 6 
#
# 1 0.012867 -0.005337 -0.003560 0.000000 -0.004842 0.000000
# 2 -0.005337 0.024980 -0.004490 0.000000 0.013878 0.000000
# 3 -0.003560 -0.004490 0.016988 0.000000 0.002510 0.000000
# 4 0.000000 0.000000 0.000000 0.080023 0.000000 -0.032833
# 5 -0.004842 0.013878 0.002510 0.000000 0.055707 0.000000
# 6 0.000000 0.000000 0.000000 -0.032833 0.000000 0.055226
#
#
# Mechanical properties :
#
#
# Convention : Reuss Voigt Hill
#
# Bulk Modulus (GPa) = 35.63596 41.01771 38.32683
# Shear Modulus (GPa) = 17.73563 22.41467 20.07515
#
# Velocity S-wave (km/s) = 2.93074 3.29473 3.11805
# Velocity P-wave (km/s) = 5.35822 5.85989 5.61466
#
# Compressibility (1/GPa) = 0.02806154
#
# Stress axis : x y z
#
# Youngs Moduli (GPa) = 77.71877 40.03131 58.86667
#
# Poissons Ratio (x) = 0.21363 0.20958
# Poissons Ratio (y) = 0.41476 0.26430
# Poissons Ratio (z) = 0.27670 0.17973
#
# Static dielectric constant tensor:
#      x y z
#    x 1.780390 0.000000 -0.025810 
#    y 0.000000 1.741270 0.000000 
#    z -0.025810 0.000000 1.756980 
# 
# From -- ./inp_files/25337.got.cif
#   From: 2010.05.17/outbox.cif.g08.bks.cpg/sg14_13_cif.got.tgz:25337.got - 2010.06.03 17:49:19.
