data_PCOD9245103
_publ_section_title
;
Structure prediction by ZEFSAII (Michael W. Deem and Ramdas Pophale) SiO2 
 PCOD9245103
Probable space group: P 21/C
;
_chemical_formula_sum "Si O2"
_cell_formula_units_Z 28
_cell_length_a 17.520399
_cell_length_b 15.862054
_cell_length_c 7.452033
_cell_angle_alpha 90.000000
_cell_angle_beta 142.707072
_cell_angle_gamma 90.000000
_cell_volume 1254.793099
_symmetry_space_group_name_H-M "P 21/C"
_symmetry_group_IT_number 14
_symmetry_cell_setting 'monoclinic'
loop_
_space_group_symop_operation_xyz
x,y,z
-x,1/2+y,1/2-z
-x,-y,-z
x,1/2-y,1/2+z
loop_
_atom_site_type_symbol
_atom_site_label
_atom_site_fract_x
_atom_site_fract_y
_atom_site_fract_z
Si Si1 0.156324 0.651647 0.212661
Si Si2 0.657061 0.448225 0.944128
Si Si3 0.115140 0.127022 0.859276
Si Si4 0.300226 0.503070 0.571864
Si Si5 0.394416 0.398999 0.424516
Si Si6 0.167537 0.191055 0.339570
Si Si7 0.109913 0.656607 0.547012
O O1 0.273650 0.589305 0.413587
O O2 0.121400 0.643720 0.356691
O O3 0.165922 0.750102 0.189068
O O4 0.032749 0.621027 0.876967
O O5 0.543690 0.382669 0.691319
O O6 0.636960 0.526852 0.776192
O O7 0.644371 0.476891 0.128912
O O8 0.795666 0.408988 0.184062
O O9 0.139787 0.209098 0.781968
O O10 0.168771 0.043958 0.870239
O O11 0.182126 0.150373 0.171164
O O12 0.370938 0.437677 0.577313
O O13 0.292380 0.327945 0.187346
O O14 0.036492 0.154104 0.173607
#
# Coordination Sequence:
#
# PCOD9245103 Si02
#       7
#     4   4   4   4   4   4   4
#     4  10  21  36  60  94 125 164 201 262 310 372
#     4  10  24  43  61  92 123 164 209 256 302 383
#     4  11  21  38  60  95 129 158 214 255 315 374
#     4  11  22  40  65  91 128 164 210 254 314 371
#     4  11  23  42  65  88 126 164 206 256 315 358
#     4  11  22  38  65  92 124 167 206 263 309 371
#     4  10  21  39  61  90 126 156 213 251 314 367
#
# _framework density 22.314435
#
# number of rings (size 3 to 8) (size 9 to 14) (size 15 to 20)
#    0.000    1.429    1.429    6.000    4.000    1.714 
#    0.000    7.143    0.000    0.000    0.000    0.000 
#    0.000    0.000    0.000    0.000    0.000    0.000 
#
# Total GULP energy -156433.534749 kJ/mol
# GULP energy per Si atom -5586.911955 kJ/mol
# Density = 2.226365 g / cm^3
# Si number density = 22.314435 Si / 1000 Ang^3
#
#
#
# Elastic Constant Matrix: (Units=GPa)
#
#
# Indices 1 2 3 4 5 6 
#
# 1 29.6043 0.9001 21.2524 0.0000 -8.4354 0.0000
# 2 0.9001 42.1745 19.6554 0.0000 2.1039 0.0000
# 3 21.2524 19.6554 64.3160 0.0000 6.7107 0.0000
# 4 0.0000 0.0000 0.0000 28.4850 0.0000 -6.2622
# 5 -8.4354 2.1039 6.7107 0.0000 18.2878 0.0000
# 6 0.0000 0.0000 0.0000 -6.2622 0.0000 18.3313
#
#
#
# Elastic Compliance Matrix: (Units=1/GPa)
#
#
# Indices 1 2 3 4 5 6 
#
# 1 0.065472 0.010070 -0.028846 0.000000 0.039626 0.000000
# 2 0.010070 0.029198 -0.012878 0.000000 0.006011 0.000000
# 3 -0.028846 -0.012878 0.031454 0.000000 -0.023366 0.000000
# 4 0.000000 0.000000 0.000000 0.037957 0.000000 0.012966
# 5 0.039626 0.006011 -0.023366 0.000000 0.080842 0.000000
# 6 0.000000 0.000000 0.000000 0.012966 0.000000 0.058981
#
#
# Mechanical properties :
#
#
# Convention : Reuss Voigt Hill
#
# Bulk Modulus (GPa) = 15.91976 24.41228 20.16602
# Shear Modulus (GPa) = 12.88163 19.30662 16.09412
#
# Velocity S-wave (km/s) = 2.40527 2.94463 2.68851
# Velocity P-wave (km/s) = 3.85532 4.74605 4.32369
#
# Compressibility (1/GPa) = 0.06281502
#
# Stress axis : x y z
#
# Youngs Moduli (GPa) = 15.27372 34.24901 31.79284
#
# Poissons Ratio (x) = -0.34488 0.91711
# Poissons Ratio (y) = -0.15380 0.40942
# Poissons Ratio (z) = 0.44059 0.44105
#
# Static dielectric constant tensor:
#      x y z
#    x 1.847530 0.000000 0.009650 
#    y 0.000000 1.817790 0.000000 
#    z 0.009650 0.000000 1.855310 
# 
# From -- ./inp_files/16295.got.cif
#   From: 2010.05.17/outbox.cif.g08.bks.cpg/sg14_9_cif.got.tgz:16295.got - 2010.06.03 17:49:19.
