data_PCOD9245441
_publ_section_title
;
Structure prediction by ZEFSAII (Michael W. Deem and Ramdas Pophale) SiO2 
 PCOD9245441
Probable space group: P 21/C
;
_chemical_formula_sum "Si O2"
_cell_formula_units_Z 32
_cell_length_a 25.831442
_cell_length_b 12.656344
_cell_length_c 25.644958
_cell_angle_alpha 90.000000
_cell_angle_beta 168.535158
_cell_angle_gamma 90.000000
_cell_volume 1666.488443
_symmetry_space_group_name_H-M "P 21/C"
_symmetry_group_IT_number 14
_symmetry_cell_setting 'monoclinic'
loop_
_space_group_symop_operation_xyz
x,y,z
-x,1/2+y,1/2-z
-x,-y,-z
x,1/2-y,1/2+z
loop_
_atom_site_type_symbol
_atom_site_label
_atom_site_fract_x
_atom_site_fract_y
_atom_site_fract_z
Si Si1 0.847897 0.628460 0.938573
Si Si2 0.807326 0.177196 0.930150
Si Si3 0.724302 0.578178 0.546635
Si Si4 0.371878 0.895633 0.793680
Si Si5 0.745911 0.430235 0.258667
Si Si6 0.373151 0.794102 0.907523
Si Si7 0.287086 0.320354 0.977663
Si Si8 0.767906 0.941544 0.470057
O O1 0.775069 0.507194 0.852672
O O2 0.643162 0.700911 0.705295
O O3 0.797604 0.638223 0.950608
O O4 0.141708 0.653031 0.212206
O O5 0.780620 0.299624 0.885284
O O6 0.755424 0.107229 0.828032
O O7 0.577427 0.156663 0.744320
O O8 0.083017 0.158233 0.229601
O O9 0.632865 0.589718 0.516790
O O10 0.725693 0.695029 0.524506
O O11 0.501987 0.504280 0.302393
O O12 0.998815 0.523642 0.808781
O O13 0.416290 0.858292 0.896373
O O14 0.722091 0.322525 0.201885
O O15 0.000000 0.500000 0.500000
O O16 0.500000 0.500000 0.000000
O O17 0.217617 0.385038 0.960412
#
# Coordination Sequence:
#
# PCOD9245441 Si02
#       8
#     4   4   4   4   4   4   4   4
#     4  11  21  36  55  87 122 150 180 228 298 360
#     4  10  22  38  64  91 107 149 205 242 281 335
#     4  10  21  38  60  86 113 154 196 238 294 343
#     4   9  20  36  60  86 117 145 184 238 286 342
#     4  11  23  43  63  84 120 157 191 242 292 334
#     4  11  23  36  58  87 114 151 193 226 281 354
#     4  11  21  40  62  85 114 148 202 251 275 332
#     4  11  23  39  58  84 122 158 189 239 300 342
#
# _framework density 19.202052999999999
#
# number of rings (size 3 to 8) (size 9 to 14) (size 15 to 20)
#    0.000    1.500    0.000    6.750    0.000    8.000 
#    0.000    7.500    0.000    0.000    0.000    0.000 
#    0.000    0.000    0.000    0.000    0.000    0.000 
#
# Total GULP energy -178905.747607 kJ/mol
# GULP energy per Si atom -5590.804613 kJ/mol
# Density = 1.915835 g / cm^3
# Si number density = 19.202053 Si / 1000 Ang^3
#
#
#
# Elastic Constant Matrix: (Units=GPa)
#
#
# Indices 1 2 3 4 5 6 
#
# 1 72.1485 36.0307 1.7157 0.0000 -10.9622 0.0000
# 2 36.0307 66.6838 -4.5494 0.0000 1.3440 0.0000
# 3 1.7157 -4.5494 53.7574 0.0000 -3.7256 0.0000
# 4 0.0000 0.0000 0.0000 28.9017 0.0000 5.6729
# 5 -10.9622 1.3440 -3.7256 0.0000 20.9085 0.0000
# 6 0.0000 0.0000 0.0000 5.6729 0.0000 27.3186
#
#
#
# Elastic Compliance Matrix: (Units=1/GPa)
#
#
# Indices 1 2 3 4 5 6 
#
# 1 0.021715 -0.012035 -0.000880 0.000000 0.012002 0.000000
# 2 -0.012035 0.021765 0.001713 0.000000 -0.007404 0.000000
# 3 -0.000880 0.001713 0.018970 0.000000 0.002809 0.000000
# 4 0.000000 0.000000 0.000000 0.036070 0.000000 -0.007490
# 5 0.012002 -0.007404 0.002809 0.000000 0.055096 0.000000
# 6 0.000000 0.000000 0.000000 -0.007490 0.000000 0.038160
#
#
# Mechanical properties :
#
#
# Convention : Reuss Voigt Hill
#
# Bulk Modulus (GPa) = 24.97121 28.77597 26.87359
# Shear Modulus (GPa) = 21.97520 26.05195 24.01358
#
# Velocity S-wave (km/s) = 3.38660 3.68737 3.54018
# Velocity P-wave (km/s) = 5.32210 5.75738 5.54401
#
# Compressibility (1/GPa) = 0.04004612
#
# Stress axis : x y z
#
# Youngs Moduli (GPa) = 46.05103 45.94536 52.71541
#
# Poissons Ratio (x) = 0.55295 0.04638
# Poissons Ratio (y) = 0.55422 -0.09030
# Poissons Ratio (z) = 0.04051 -0.07870
#
# Static dielectric constant tensor:
#      x y z
#    x 1.658260 0.000000 -0.010500 
#    y 0.000000 1.666670 0.000000 
#    z -0.010500 0.000000 1.657000 
# 
# From -- ./inp_files/78341.got.cif
#   From: 2010.05.17/outbox.cif.g08.bks.cpg/sg14_40_cif.got.tgz:78341.got - 2010.06.03 17:49:19.
