data_PCOD9245368
_publ_section_title
;
Structure prediction by ZEFSAII (Michael W. Deem and Ramdas Pophale) SiO2 
 PCOD9245368
Probable space group: P 21/C
;
_chemical_formula_sum "Si O2"
_cell_formula_units_Z 24
_cell_length_a 5.141185
_cell_length_b 20.869445
_cell_length_c 9.122875
_cell_angle_alpha 90.000000
_cell_angle_beta 118.395984
_cell_angle_gamma 90.000000
_cell_volume 861.056235
_symmetry_space_group_name_H-M "P 21/C"
_symmetry_group_IT_number 14
_symmetry_cell_setting 'monoclinic'
loop_
_space_group_symop_operation_xyz
x,y,z
-x,1/2+y,1/2-z
-x,-y,-z
x,1/2-y,1/2+z
loop_
_atom_site_type_symbol
_atom_site_label
_atom_site_fract_x
_atom_site_fract_y
_atom_site_fract_z
Si Si1 0.890186 0.134765 0.645452
Si Si2 0.329693 0.181681 0.198442
Si Si3 0.811809 0.219532 0.878301
Si Si4 0.160092 0.487468 0.279839
Si Si5 0.256376 0.884485 0.917119
Si Si6 0.711219 0.929493 0.470203
O O1 0.566888 0.105666 0.537416
O O2 0.072036 0.123039 0.546709
O O3 0.886796 0.976661 0.624087
O O4 0.864870 0.201545 0.723132
O O5 0.131973 0.226622 0.037331
O O6 0.515140 0.133674 0.147397
O O7 0.576007 0.225149 0.339782
O O8 0.068440 0.144098 0.210567
O O9 0.945164 0.916932 0.201303
O O10 0.675266 0.155925 0.918874
O O11 0.250381 0.539300 0.423675
O O12 0.369717 0.472662 0.195835
#
# Coordination Sequence:
#
# PCOD9245368 Si02
#       6
#     4   4   4   4   4   4
#     4  10  21  37  67  95 136 171 218 274 333 404
#     4  10  26  44  68  92 137 172 235 274 339 396
#     4  10  26  47  67  99 132 178 232 281 338 398
#     4   9  21  40  63 102 137 174 217 269 340 411
#     4  10  25  41  71  93 136 172 228 276 341 395
#     4   9  21  35  62  99 139 170 216 257 337 405
#
# _framework density 27.872741000000001
#
# number of rings (size 3 to 8) (size 9 to 14) (size 15 to 20)
#    2.000    0.333    0.000    0.500    7.000    2.000 
#    3.000    1.667    0.000    0.000    0.000    0.000 
#    0.000    0.000    0.000    0.000    0.000    0.000 
#
# Total GULP energy -134344.885718 kJ/mol
# GULP energy per Si atom -5597.703572 kJ/mol
# Density = 2.780930 g / cm^3
# Si number density = 27.872741 Si / 1000 Ang^3
#
#
#
# Elastic Constant Matrix: (Units=GPa)
#
#
# Indices 1 2 3 4 5 6 
#
# 1 165.3326 46.5858 21.5851 0.0000 5.1590 0.0000
# 2 46.5858 102.6679 16.0015 0.0000 4.0589 0.0000
# 3 21.5851 16.0015 86.4440 0.0000 6.2169 0.0000
# 4 0.0000 0.0000 0.0000 54.3041 0.0000 -1.8110
# 5 5.1590 4.0589 6.2169 0.0000 35.5924 0.0000
# 6 0.0000 0.0000 0.0000 -1.8110 0.0000 53.7715
#
#
#
# Elastic Compliance Matrix: (Units=1/GPa)
#
#
# Indices 1 2 3 4 5 6 
#
# 1 0.007063 -0.003003 -0.001173 0.000000 -0.000476 0.000000
# 2 -0.003003 0.011331 -0.001302 0.000000 -0.000629 0.000000
# 3 -0.001173 -0.001302 0.012233 0.000000 -0.001818 0.000000
# 4 0.000000 0.000000 0.000000 0.018436 0.000000 0.000621
# 5 -0.000476 -0.000629 -0.001818 0.000000 0.028554 0.000000
# 6 0.000000 0.000000 0.000000 0.000621 0.000000 0.018618
#
#
# Mechanical properties :
#
#
# Convention : Reuss Voigt Hill
#
# Bulk Modulus (GPa) = 50.84170 58.08770 54.46470
# Shear Modulus (GPa) = 43.95692 46.75174 45.35433
#
# Velocity S-wave (km/s) = 3.97553 4.09996 4.03822
# Velocity P-wave (km/s) = 6.27322 6.58016 6.42852
#
# Compressibility (1/GPa) = 0.01966890
#
# Stress axis : x y z
#
# Youngs Moduli (GPa) = 141.59056 88.25659 81.74611
#
# Poissons Ratio (x) = 0.26503 0.09592
# Poissons Ratio (y) = 0.42519 0.10646
# Poissons Ratio (z) = 0.16614 0.11494
#
# Static dielectric constant tensor:
#      x y z
#    x 2.087370 0.000000 0.059010 
#    y 0.000000 2.193160 0.000000 
#    z 0.059010 0.000000 2.250620 
# 
# From -- ./inp_files/21650.got.cif
#   From: 2010.05.17/outbox.cif.g08.bks.cpg/sg14_11_cif.got.tgz:21650.got - 2010.06.03 17:49:19.
