data_PCOD9245505
_publ_section_title
;
Structure prediction by ZEFSAII (Michael W. Deem and Ramdas Pophale) SiO2 
 PCOD9245505
Probable space group: P 21/C
;
_chemical_formula_sum "Si O2"
_cell_formula_units_Z 30
_cell_length_a 11.920448
_cell_length_b 7.295015
_cell_length_c 16.292766
_cell_angle_alpha 90.000000
_cell_angle_beta 61.686213
_cell_angle_gamma 90.000000
_cell_volume 1247.313122
_symmetry_space_group_name_H-M "P 21/C"
_symmetry_group_IT_number 14
_symmetry_cell_setting 'monoclinic'
loop_
_space_group_symop_operation_xyz
x,y,z
-x,1/2+y,1/2-z
-x,-y,-z
x,1/2-y,1/2+z
loop_
_atom_site_type_symbol
_atom_site_label
_atom_site_fract_x
_atom_site_fract_y
_atom_site_fract_z
Si Si1 0.131029 0.770150 0.111689
Si Si2 0.324635 0.439752 0.319850
Si Si3 0.905024 0.327904 0.547825
Si Si4 0.008391 0.165817 0.182133
Si Si5 0.269100 0.286149 0.165863
Si Si6 0.460701 0.119166 0.352137
Si Si7 0.386170 0.913339 0.092275
Si Si8 0.500000 0.500000 0.000000
O O1 0.277859 0.823108 0.073971
O O2 0.084806 0.662628 0.207592
O O3 0.054511 0.961399 0.146610
O O4 0.097087 0.702050 0.032347
O O5 0.234220 0.581089 0.396498
O O6 0.260190 0.387302 0.255780
O O7 0.351092 0.254160 0.360479
O O8 0.459992 0.531759 0.249622
O O9 0.000000 0.500000 0.500000
O O10 0.943385 0.250428 0.623448
O O11 0.137423 0.266526 0.164049
O O12 0.373941 0.386102 0.074347
O O13 0.320395 0.078728 0.163636
O O14 0.555087 0.249003 0.374687
O O15 0.433565 0.969092 0.430016
O O16 0.500000 0.000000 0.000000
#
# Coordination Sequence:
#
# PCOD9245505 Si02
#       8
#     4   4   4   4   4   4   4   2
#     4  10  22  39  64  90 127 170 219 270 332 399
#     4  11  23  40  65  96 132 171 225 279 336 410
#     4  10  21  38  65  94 122 176 222 267 337 399
#     4  10  21  40  64  91 130 168 222 273 332 400
#     4  10  21  38  61  94 129 173 218 281 338 399
#     4  11  23  40  64  93 133 171 221 277 346 403
#     4  11  20  36  63  90 129 174 218 274 334 401
#     4  10  22  38  60  94 126 172 218 268 346 404
#
# _framework density 24.051697000000001
#
# number of rings (size 3 to 8) (size 9 to 14) (size 15 to 20)
#    0.000    1.600    1.333    4.000    3.733    1.067 
#    0.000    0.667    0.000    0.000    0.000    0.000 
#    0.000    0.000    0.000    0.000    0.000    0.000 
#
# Total GULP energy -167341.698658 kJ/mol
# GULP energy per Si atom -5578.056622 kJ/mol
# Density = 2.399695 g / cm^3
# Si number density = 24.051697 Si / 1000 Ang^3
#
#
#
# Elastic Constant Matrix: (Units=GPa)
#
#
# Indices 1 2 3 4 5 6 
#
# 1 84.5316 1.3734 22.7016 0.0000 15.4663 0.0000
# 2 1.3734 43.4712 -3.9180 0.0000 -4.0336 0.0000
# 3 22.7016 -3.9180 69.9733 0.0000 20.5509 0.0000
# 4 0.0000 0.0000 0.0000 31.3569 0.0000 0.1731
# 5 15.4663 -4.0336 20.5509 0.0000 33.4203 0.0000
# 6 0.0000 0.0000 0.0000 0.1731 0.0000 32.0528
#
#
#
# Elastic Compliance Matrix: (Units=1/GPa)
#
#
# Indices 1 2 3 4 5 6 
#
# 1 0.013506 -0.001123 -0.003135 0.000000 -0.004458 0.000000
# 2 -0.001123 0.023377 0.000845 0.000000 0.002822 0.000000
# 3 -0.003135 0.000845 0.018184 0.000000 -0.009629 0.000000
# 4 0.000000 0.000000 0.000000 0.031892 0.000000 -0.000172
# 5 -0.004458 0.002822 -0.009629 0.000000 0.038246 0.000000
# 6 0.000000 0.000000 0.000000 -0.000172 0.000000 0.031199
#
#
# Mechanical properties :
#
#
# Convention : Reuss Voigt Hill
#
# Bulk Modulus (GPa) = 20.73012 26.47667 23.60339
# Shear Modulus (GPa) = 27.88449 31.22061 29.55255
#
# Velocity S-wave (km/s) = 3.40863 3.60677 3.50910
# Velocity P-wave (km/s) = 4.91216 5.32703 5.12379
#
# Compressibility (1/GPa) = 0.04823898
#
# Stress axis : x y z
#
# Youngs Moduli (GPa) = 74.04242 42.77676 54.99487
#
# Poissons Ratio (x) = 0.04803 0.17243
# Poissons Ratio (y) = 0.08314 -0.04644
# Poissons Ratio (z) = 0.23215 -0.03613
#
# Static dielectric constant tensor:
#      x y z
#    x 1.883780 0.000000 -0.107150 
#    y 0.000000 1.777300 0.000000 
#    z -0.107150 0.000000 1.559100 
# 
# From -- ./inp_files/43691.got.cif
#   From: 2010.05.17/outbox.cif.g08.bks.cpg/sg14_22_cif.got.tgz:43691.got - 2010.06.03 17:49:19.
