data_PCOD9245756
_publ_section_title
;
Structure prediction by ZEFSAII (Michael W. Deem and Ramdas Pophale) SiO2 
 PCOD9245756
Probable space group: P 21/C
;
_chemical_formula_sum "Si O2"
_cell_formula_units_Z 26
_cell_length_a 22.135339
_cell_length_b 4.792167
_cell_length_c 10.279284
_cell_angle_alpha 90.000000
_cell_angle_beta 124.449551
_cell_angle_gamma 90.000000
_cell_volume 899.160599
_symmetry_space_group_name_H-M "P 21/C"
_symmetry_group_IT_number 14
_symmetry_cell_setting 'monoclinic'
loop_
_space_group_symop_operation_xyz
x,y,z
-x,1/2+y,1/2-z
-x,-y,-z
x,1/2-y,1/2+z
loop_
_atom_site_type_symbol
_atom_site_label
_atom_site_fract_x
_atom_site_fract_y
_atom_site_fract_z
Si Si1 0.368879 0.233011 0.265298
Si Si2 0.482930 0.883707 0.137817
Si Si3 0.761715 0.889779 0.218664
Si Si4 0.951490 0.838153 0.216430
Si Si5 0.000000 0.000000 0.500000
Si Si6 0.664185 0.238513 0.444043
Si Si7 0.856471 0.128760 0.890918
O O1 0.452548 0.327866 0.388060
O O2 0.312808 0.274657 0.312025
O O3 0.366062 0.920115 0.212499
O O4 0.335435 0.427859 0.109193
O O5 0.486364 0.188344 0.204932
O O6 0.399868 0.774359 0.025860
O O7 0.810805 0.614057 0.262202
O O8 0.802313 0.113567 0.361812
O O9 0.737663 0.100191 0.074638
O O10 0.013162 0.086458 0.323827
O O11 0.888710 0.980336 0.060263
O O12 0.951797 0.748029 0.364253
O O13 0.077264 0.799147 0.594068
#
# Coordination Sequence:
#
# PCOD9245756 Si02
#       7
#     4   4   4   4   2   4   4
#     4  10  21  39  61  88 130 172 215 280 325 360
#     4   8  16  33  58  86 118 166 224 270 312 368
#     4  12  25  40  61  95 131 167 212 258 325 397
#     4  10  22  42  66  93 119 149 199 252 302 372
#     4  10  24  46  72  90 120 164 202 256 316 366
#     4  10  21  39  62  90 127 174 222 262 317 388
#     4  11  25  42  64  96 127 160 209 260 317 393
#
# _framework density 28.915861
#
# number of rings (size 3 to 8) (size 9 to 14) (size 15 to 20)
#    0.000    1.846    0.000    3.692    0.000    9.846 
#    0.000    1.538    0.000   12.923    0.000    0.000 
#    0.000    0.000    0.000    0.000    0.000    0.000 
#
# Total GULP energy -145233.105522 kJ/mol
# GULP energy per Si atom -5585.888674 kJ/mol
# Density = 2.885005 g / cm^3
# Si number density = 28.915861 Si / 1000 Ang^3
#
#
#
# Elastic Constant Matrix: (Units=GPa)
#
#
# Indices 1 2 3 4 5 6 
#
# 1 124.0284 26.5139 27.1309 0.0000 15.2685 0.0000
# 2 26.5139 146.1590 50.5403 0.0000 9.4622 0.0000
# 3 27.1309 50.5403 119.3188 0.0000 14.6693 0.0000
# 4 0.0000 0.0000 0.0000 55.3275 0.0000 20.9790
# 5 15.2685 9.4622 14.6693 0.0000 27.9460 0.0000
# 6 0.0000 0.0000 0.0000 20.9790 0.0000 37.7635
#
#
#
# Elastic Compliance Matrix: (Units=1/GPa)
#
#
# Indices 1 2 3 4 5 6 
#
# 1 0.009014 -0.000981 -0.001143 0.000000 -0.003993 0.000000
# 2 -0.000981 0.008149 -0.003159 0.000000 -0.000565 0.000000
# 3 -0.001143 -0.003159 0.010445 0.000000 -0.003788 0.000000
# 4 0.000000 0.000000 0.000000 0.022897 0.000000 -0.012720
# 5 -0.003993 -0.000565 -0.003788 0.000000 0.040145 0.000000
# 6 0.000000 0.000000 0.000000 -0.012720 0.000000 0.033547
#
#
# Mechanical properties :
#
#
# Convention : Reuss Voigt Hill
#
# Bulk Modulus (GPa) = 58.68404 66.43071 62.55737
# Shear Modulus (GPa) = 35.60138 43.22879 39.41509
#
# Velocity S-wave (km/s) = 3.51266 3.87070 3.69602
# Velocity P-wave (km/s) = 6.06552 6.55744 6.31627
#
# Compressibility (1/GPa) = 0.01704041
#
# Stress axis : x y z
#
# Youngs Moduli (GPa) = 110.93832 122.71717 95.74269
#
# Poissons Ratio (x) = 0.12044 0.10944
# Poissons Ratio (y) = 0.10888 0.30245
# Poissons Ratio (z) = 0.12681 0.38767
#
# Static dielectric constant tensor:
#      x y z
#    x 3.146160 0.000000 -0.927540 
#    y 0.000000 2.215480 0.000000 
#    z -0.927540 0.000000 3.263570 
# 
# From -- ./inp_files/34614.got.cif
#   From: 2010.05.17/outbox.cif.g08.bks.cpg/sg14_18_cif.got.tgz:34614.got - 2010.06.03 17:49:19.
