data_PCOD9245259
_publ_section_title
;
Structure prediction by ZEFSAII (Michael W. Deem and Ramdas Pophale) SiO2 
 PCOD9245259
Probable space group: P 21/C
;
_chemical_formula_sum "Si O2"
_cell_formula_units_Z 24
_cell_length_a 6.278285
_cell_length_b 9.548491
_cell_length_c 19.372544
_cell_angle_alpha 90.000000
_cell_angle_beta 120.402649
_cell_angle_gamma 90.000000
_cell_volume 1001.651466
_symmetry_space_group_name_H-M "P 21/C"
_symmetry_group_IT_number 14
_symmetry_cell_setting 'monoclinic'
loop_
_space_group_symop_operation_xyz
x,y,z
-x,1/2+y,1/2-z
-x,-y,-z
x,1/2-y,1/2+z
loop_
_atom_site_type_symbol
_atom_site_label
_atom_site_fract_x
_atom_site_fract_y
_atom_site_fract_z
Si Si1 0.065497 0.707841 0.538144
Si Si2 0.380936 0.231637 0.847331
Si Si3 0.412755 0.846704 0.761659
Si Si4 0.100454 0.788923 0.313162
Si Si5 0.911254 0.553379 0.377655
Si Si6 0.915949 0.559552 0.112034
O O1 0.360325 0.680470 0.576557
O O2 0.986008 0.598199 0.585631
O O3 0.939361 0.653482 0.448617
O O4 0.983493 0.861301 0.551468
O O5 0.482231 0.279438 0.789858
O O6 0.300123 0.356533 0.885073
O O7 0.116477 0.168082 0.777273
O O8 0.347991 0.733440 0.809501
O O9 0.618848 0.956320 0.817378
O O10 0.158917 0.914416 0.697629
O O11 0.032861 0.637868 0.334923
O O12 0.130986 0.896074 0.381856
#
# Coordination Sequence:
#
# PCOD9245259 Si02
#       6
#     4   4   4   4   4   4
#     4  10  22  39  58  82 114 151 188 228 278 335
#     4   9  20  36  57  83 113 145 182 228 278 331
#     4   9  20  36  57  83 113 145 182 228 278 331
#     4  10  21  37  60  87 112 144 188 235 280 327
#     4  10  22  39  58  82 114 151 188 228 278 335
#     4  10  21  37  60  87 112 144 188 235 280 327
#
# _framework density 23.960431
#
# number of rings (size 3 to 8) (size 9 to 14) (size 15 to 20)
#    0.000    2.333    0.000    1.000    0.000   20.667 
#    0.000    5.000    0.000    0.000    0.000    0.000 
#    0.000    0.000    0.000    0.000    0.000    0.000 
#
# Total GULP energy -133810.499877 kJ/mol
# GULP energy per Si atom -5575.437495 kJ/mol
# Density = 2.390590 g / cm^3
# Si number density = 23.960431 Si / 1000 Ang^3
#
#
#
# Elastic Constant Matrix: (Units=GPa)
#
#
# Indices 1 2 3 4 5 6 
#
# 1 70.2111 12.5842 7.0073 0.0000 -7.5295 0.0000
# 2 12.5842 72.7007 -14.7649 0.0000 -8.1541 0.0000
# 3 7.0073 -14.7649 37.3267 0.0000 -6.3635 0.0000
# 4 0.0000 0.0000 0.0000 25.2233 0.0000 -16.5998
# 5 -7.5295 -8.1541 -6.3635 0.0000 14.3303 0.0000
# 6 0.0000 0.0000 0.0000 -16.5998 0.0000 7.8712
#
#
#
# Elastic Compliance Matrix: (Units=1/GPa)
#
#
# Indices 1 2 3 4 5 6 
#
# 1 0.015610 -0.002747 -0.003121 0.000000 0.005253 0.000000
# 2 -0.002747 0.017647 0.009696 0.000000 0.012904 0.000000
# 3 -0.003121 0.009696 0.034483 0.000000 0.019189 0.000000
# 4 0.000000 0.000000 0.000000 -0.102201 0.000000 -0.215535
# 5 0.005253 0.012904 0.019189 0.000000 0.088405 0.000000
# 6 0.000000 0.000000 0.000000 -0.215535 0.000000 -0.327504
#
#
# Mechanical properties :
#
#
# Convention : Reuss Voigt Hill
#
# Bulk Modulus (GPa) = 13.26348 21.09909 17.18128
# Shear Modulus (GPa) = -19.52493 21.17907 0.82707
#
# Velocity S-wave (km/s) = -2.85771 2.97630 0.58816
# Velocity P-wave (km/s) = 2.31108 4.54270 2.76541
#
# Compressibility (1/GPa) = 0.07539501
#
# Stress axis : x y z
#
# Youngs Moduli (GPa) = 64.06175 56.66717 28.99971
#
# Poissons Ratio (x) = 0.15565 0.09052
# Poissons Ratio (y) = 0.17597 -0.28118
# Poissons Ratio (z) = 0.19997 -0.54944
#
# Static dielectric constant tensor:
#      x y z
#    x 1.989520 0.000000 0.060570 
#    y 0.000000 1.970100 0.000000 
#    z 0.060570 0.000000 1.942100 
# 
# From -- ./inp_files/60632.got.cif
#   From: 2010.05.17/outbox.cif.g08.bks.cpg/sg14_31_cif.got.tgz:60632.got - 2010.06.03 17:49:19.
