data_PCOD9245452
_publ_section_title
;
Structure prediction by ZEFSAII (Michael W. Deem and Ramdas Pophale) SiO2 
 PCOD9245452
Probable space group: P 21/C
;
_chemical_formula_sum "Si O2"
_cell_formula_units_Z 24
_cell_length_a 14.427781
_cell_length_b 13.350173
_cell_length_c 12.792702
_cell_angle_alpha 90.000000
_cell_angle_beta 151.201260
_cell_angle_gamma 90.000000
_cell_volume 1187.015475
_symmetry_space_group_name_H-M "P 21/C"
_symmetry_group_IT_number 14
_symmetry_cell_setting 'monoclinic'
loop_
_space_group_symop_operation_xyz
x,y,z
-x,1/2+y,1/2-z
-x,-y,-z
x,1/2-y,1/2+z
loop_
_atom_site_type_symbol
_atom_site_label
_atom_site_fract_x
_atom_site_fract_y
_atom_site_fract_z
Si Si1 0.430364 0.404412 0.532644
Si Si2 0.599416 0.108054 0.601850
Si Si3 0.194085 0.942966 0.721589
Si Si4 0.108046 0.772777 0.227076
Si Si5 0.672759 0.774143 0.267113
Si Si6 0.584284 0.279863 0.304977
O O1 0.638924 0.443047 0.700779
O O2 0.289266 0.497101 0.413109
O O3 0.328720 0.347483 0.334084
O O4 0.472083 0.320749 0.658645
O O5 0.801509 0.130534 0.741932
O O6 0.456776 0.182144 0.399131
O O7 0.614487 0.150070 0.734848
O O8 0.500000 0.000000 0.500000
O O9 0.162032 0.826752 0.713926
O O10 0.000000 0.000000 0.500000
O O11 0.217355 0.754538 0.444537
O O12 0.879340 0.766181 0.005645
O O13 0.557168 0.825427 0.247461
#
# Coordination Sequence:
#
# PCOD9245452 Si02
#       6
#     4   4   4   4   4   4
#     4  10  21  38  60  87 122 159 197 249 318 358
#     4  10  23  44  63  83 126 175 205 254 321 379
#     4  11  20  36  65  90 116 155 201 253 310 367
#     4  11  22  39  60  93 124 156 215 258 305 375
#     4  10  21  40  60  89 120 161 206 257 305 369
#     4  10  21  40  60  87 125 160 206 255 307 364
#
# _framework density 20.218775000000001
#
# number of rings (size 3 to 8) (size 9 to 14) (size 15 to 20)
#    0.000    1.667    6.667    0.000    0.000    7.333 
#    0.000    1.667    0.000    0.000    0.000    0.000 
#    0.000    0.000    0.000    0.000    0.000    0.000 
#
# Total GULP energy -133834.537634 kJ/mol
# GULP energy per Si atom -5576.439068 kJ/mol
# Density = 2.017276 g / cm^3
# Si number density = 20.218775 Si / 1000 Ang^3
#
#
#
# Elastic Constant Matrix: (Units=GPa)
#
#
# Indices 1 2 3 4 5 6 
#
# 1 58.4113 1.0735 52.9539 0.0000 -6.0382 0.0000
# 2 1.0735 70.0595 8.0443 0.0000 -2.3690 0.0000
# 3 52.9539 8.0443 135.6779 0.0000 10.8552 0.0000
# 4 0.0000 0.0000 0.0000 23.5893 0.0000 10.9588
# 5 -6.0382 -2.3690 10.8552 0.0000 33.9656 0.0000
# 6 0.0000 0.0000 0.0000 10.9588 0.0000 19.9898
#
#
#
# Elastic Compliance Matrix: (Units=1/GPa)
#
#
# Indices 1 2 3 4 5 6 
#
# 1 0.029049 0.001258 -0.012143 0.000000 0.009133 0.000000
# 2 0.001258 0.014483 -0.001486 0.000000 0.001709 0.000000
# 3 -0.012143 -0.001486 0.012704 0.000000 -0.006322 0.000000
# 4 0.000000 0.000000 0.000000 0.056878 0.000000 -0.031181
# 5 0.009133 0.001709 -0.006322 0.000000 0.033205 0.000000
# 6 0.000000 0.000000 0.000000 -0.031181 0.000000 0.067120
#
#
# Mechanical properties :
#
#
# Convention : Reuss Voigt Hill
#
# Bulk Modulus (GPa) = 31.75305 43.14355 37.44830
# Shear Modulus (GPa) = 20.10627 28.98075 24.54351
#
# Velocity S-wave (km/s) = 3.15689 3.79008 3.48788
# Velocity P-wave (km/s) = 5.38765 6.36692 5.89764
#
# Compressibility (1/GPa) = 0.03149304
#
# Stress axis : x y z
#
# Youngs Moduli (GPa) = 34.42415 69.04765 78.71751
#
# Poissons Ratio (x) = -0.08686 0.95587
# Poissons Ratio (y) = -0.04330 0.11700
# Poissons Ratio (z) = 0.41801 0.10263
#
# Static dielectric constant tensor:
#      x y z
#    x 1.778770 0.000000 -0.004390 
#    y 0.000000 1.798640 0.000000 
#    z -0.004390 0.000000 1.725780 
# 
# From -- ./inp_files/32809.got.cif
#   From: 2010.05.17/outbox.cif.g08.bks.cpg/sg14_17_cif.got.tgz:32809.got - 2010.06.03 17:49:19.
