data_PCOD9245006
_publ_section_title
;
Structure prediction by ZEFSAII (Michael W. Deem and Ramdas Pophale) SiO2 
 PCOD9245006
Probable space group: P 21/C
;
_chemical_formula_sum "Si O2"
_cell_formula_units_Z 24
_cell_length_a 21.592871
_cell_length_b 4.973939
_cell_length_c 22.419196
_cell_angle_alpha 90.000000
_cell_angle_beta 152.405676
_cell_angle_gamma 90.000000
_cell_volume 1115.339688
_symmetry_space_group_name_H-M "P 21/C"
_symmetry_group_IT_number 14
_symmetry_cell_setting 'monoclinic'
loop_
_space_group_symop_operation_xyz
x,y,z
-x,1/2+y,1/2-z
-x,-y,-z
x,1/2-y,1/2+z
loop_
_atom_site_type_symbol
_atom_site_label
_atom_site_fract_x
_atom_site_fract_y
_atom_site_fract_z
Si Si1 0.894227 0.257864 0.094693
Si Si2 0.077099 0.760726 0.243672
Si Si3 0.870165 0.684741 0.898598
Si Si4 0.471152 0.805829 0.419777
Si Si5 0.719662 0.548205 0.661974
Si Si6 0.245719 0.674303 0.639757
O O1 0.865906 0.231007 0.140611
O O2 0.951949 0.555089 0.132057
O O3 0.775291 0.178108 0.948900
O O4 0.018427 0.057633 0.187532
O O5 0.186450 0.665655 0.290030
O O6 0.809393 0.734832 0.780947
O O7 0.782453 0.479352 0.863629
O O8 0.865660 0.969446 0.928096
O O9 0.000000 0.500000 0.000000
O O10 0.617437 0.690130 0.529506
O O11 0.375793 0.590862 0.370772
O O12 0.385212 0.909985 0.290403
O O13 0.500000 0.000000 0.500000
#
# Coordination Sequence:
#
# PCOD9245006 Si02
#       6
#     4   4   4   4   4   4
#     4  10  21  39  59  87 112 148 186 234 290 336
#     4  10  22  38  62  83 115 147 186 236 287 341
#     4  11  21  32  54  85 111 142 180 235 286 337
#     4  10  21  37  55  79 113 156 186 230 279 335
#     4  10  21  36  56  82 113 150 193 226 285 339
#     4  11  21  35  56  78 115 145 184 231 278 332
#
# _framework density 21.518104999999998
#
# number of rings (size 3 to 8) (size 9 to 14) (size 15 to 20)
#    0.000    1.667    1.667    3.500    2.333    1.333 
#    0.000    0.000    3.667    0.000    0.000    0.000 
#    0.000    0.000    0.000    0.000    0.000    0.000 
#
# Total GULP energy -133887.144572 kJ/mol
# GULP energy per Si atom -5578.631024 kJ/mol
# Density = 2.146913 g / cm^3
# Si number density = 21.518105 Si / 1000 Ang^3
#
#
#
# Elastic Constant Matrix: (Units=GPa)
#
#
# Indices 1 2 3 4 5 6 
#
# 1 35.6822 -3.1393 19.4316 0.0000 -17.2760 0.0000
# 2 -3.1393 68.8151 -6.7305 0.0000 -8.2367 0.0000
# 3 19.4316 -6.7305 141.1629 0.0000 -43.2136 0.0000
# 4 0.0000 0.0000 0.0000 21.4927 0.0000 -4.2430
# 5 -17.2760 -8.2367 -43.2136 0.0000 32.9448 0.0000
# 6 0.0000 0.0000 0.0000 -4.2430 0.0000 20.2089
#
#
#
# Elastic Compliance Matrix: (Units=1/GPa)
#
#
# Indices 1 2 3 4 5 6 
#
# 1 0.039289 0.005060 0.002552 0.000000 0.025215 0.000000
# 2 0.005060 0.016495 0.003617 0.000000 0.011522 0.000000
# 3 0.002552 0.003617 0.012685 0.000000 0.018882 0.000000
# 4 0.000000 0.000000 0.000000 0.048539 0.000000 0.010191
# 5 0.025215 0.011522 0.018882 0.000000 0.071225 0.000000
# 6 0.000000 0.000000 0.000000 0.010191 0.000000 0.051623
#
#
# Mechanical properties :
#
#
# Convention : Reuss Voigt Hill
#
# Bulk Modulus (GPa) = 10.99766 29.42043 20.20904
# Shear Modulus (GPa) = 20.18509 30.66918 25.42713
#
# Velocity S-wave (km/s) = 3.06609 3.77937 3.44126
# Velocity P-wave (km/s) = 4.20196 5.72250 5.02013
#
# Compressibility (1/GPa) = 0.09092839
#
# Stress axis : x y z
#
# Youngs Moduli (GPa) = 25.45252 60.62279 78.83021
#
# Poissons Ratio (x) = -0.30675 -0.20118
# Poissons Ratio (y) = -0.12879 -0.28514
# Poissons Ratio (z) = -0.06496 -0.21928
#
# Static dielectric constant tensor:
#      x y z
#    x 1.774440 0.000000 0.010150 
#    y 0.000000 2.028090 0.000000 
#    z 0.010150 0.000000 1.916270 
# 
# From -- ./inp_files/69560.got.cif
#   From: 2010.05.17/outbox.cif.g08.bks.cpg/sg14_35_cif.got.tgz:69560.got - 2010.06.03 17:49:19.
