data_PCOD9245895
_publ_section_title
;
Structure prediction by ZEFSAII (Michael W. Deem and Ramdas Pophale) SiO2 
 PCOD9245895
Probable space group: P 21/C
;
_chemical_formula_sum "Si O2"
_cell_formula_units_Z 24
_cell_length_a 12.890758
_cell_length_b 8.357511
_cell_length_c 9.209729
_cell_angle_alpha 90.000000
_cell_angle_beta 115.223311
_cell_angle_gamma 90.000000
_cell_volume 897.603733
_symmetry_space_group_name_H-M "P 21/C"
_symmetry_group_IT_number 14
_symmetry_cell_setting 'monoclinic'
loop_
_space_group_symop_operation_xyz
x,y,z
-x,1/2+y,1/2-z
-x,-y,-z
x,1/2-y,1/2+z
loop_
_atom_site_type_symbol
_atom_site_label
_atom_site_fract_x
_atom_site_fract_y
_atom_site_fract_z
Si Si1 0.848499 0.074536 0.758147
Si Si2 0.830605 0.977614 0.059518
Si Si3 0.618429 0.956221 0.371831
Si Si4 0.658418 0.335368 0.633392
Si Si5 0.028790 0.311025 0.798768
Si Si6 0.570300 0.681263 0.125053
O O1 0.737875 0.181078 0.667011
O O2 0.949266 0.204543 0.858334
O O3 0.895801 0.973662 0.648087
O O4 0.829149 0.960470 0.885348
O O5 0.877317 0.825548 0.176080
O O6 0.710665 0.036593 0.052548
O O7 0.924807 0.117132 0.142060
O O8 0.620010 0.802584 0.270002
O O9 0.651408 0.886988 0.548333
O O10 0.671588 0.095124 0.303617
O O11 0.493267 0.033301 0.333502
O O12 0.530535 0.283920 0.515823
#
# Coordination Sequence:
#
# PCOD9245895 Si02
#       6
#     4   4   4   4   4   4
#     4  10  21  41  67  93 139 173 226 283 332 414
#     4  10  21  39  64  94 135 175 223 281 332 408
#     4  11  24  46  72 100 136 183 230 284 358 412
#     4  11  23  44  67 101 135 180 231 282 346 408
#     4   9  18  38  62  94 127 179 219 263 343 391
#     4  11  24  46  74 100 137 184 230 290 353 417
#
# _framework density 26.737857999999999
#
# number of rings (size 3 to 8) (size 9 to 14) (size 15 to 20)
#    0.000    1.667    1.667    3.500    0.000    0.000 
#    9.000   33.333    0.000    0.000    0.000    0.000 
#    0.000    0.000    0.000    0.000    0.000    0.000 
#
# Total GULP energy -134018.632459 kJ/mol
# GULP energy per Si atom -5584.109686 kJ/mol
# Density = 2.667700 g / cm^3
# Si number density = 26.737858 Si / 1000 Ang^3
#
#
#
# Elastic Constant Matrix: (Units=GPa)
#
#
# Indices 1 2 3 4 5 6 
#
# 1 88.4940 32.1061 29.3393 0.0000 -4.8998 0.0000
# 2 32.1061 149.4050 61.2723 0.0000 -18.6599 0.0000
# 3 29.3393 61.2723 97.6611 0.0000 -21.7405 0.0000
# 4 0.0000 0.0000 0.0000 44.4294 0.0000 -1.0896
# 5 -4.8998 -18.6599 -21.7405 0.0000 25.1417 0.0000
# 6 0.0000 0.0000 0.0000 -1.0896 0.0000 55.9408
#
#
#
# Elastic Compliance Matrix: (Units=1/GPa)
#
#
# Indices 1 2 3 4 5 6 
#
# 1 0.012864 -0.001653 -0.003148 0.000000 -0.001443 0.000000
# 2 -0.001653 0.009326 -0.004812 0.000000 0.002439 0.000000
# 3 -0.003148 -0.004812 0.016437 0.000000 0.010028 0.000000
# 4 0.000000 0.000000 0.000000 0.022518 0.000000 0.000439
# 5 -0.001443 0.002439 0.010028 0.000000 0.049975 0.000000
# 6 0.000000 0.000000 0.000000 0.000439 0.000000 0.017885
#
#
# Mechanical properties :
#
#
# Convention : Reuss Voigt Hill
#
# Bulk Modulus (GPa) = 51.54630 64.55506 58.05068
# Shear Modulus (GPa) = 32.32081 39.29188 35.80634
#
# Velocity S-wave (km/s) = 3.48056 3.83759 3.66343
# Velocity P-wave (km/s) = 5.95589 6.62059 6.29702
#
# Compressibility (1/GPa) = 0.01940003
#
# Stress axis : x y z
#
# Youngs Moduli (GPa) = 77.73637 107.22167 60.83967
#
# Poissons Ratio (x) = 0.17728 0.19155
# Poissons Ratio (y) = 0.12853 0.29275
# Poissons Ratio (z) = 0.24475 0.51593
#
# Static dielectric constant tensor:
#      x y z
#    x 2.100610 0.000000 0.065100 
#    y 0.000000 2.087060 0.000000 
#    z 0.065100 0.000000 2.145510 
# 
# From -- ./inp_files/15145.got.cif
#   From: 2010.05.17/outbox.cif.g08.bks.cpg/sg14_8_cif.got.tgz:15145.got - 2010.06.03 17:49:19.
