data_PCOD9245087
_publ_section_title
;
Structure prediction by ZEFSAII (Michael W. Deem and Ramdas Pophale) SiO2 
 PCOD9245087
Probable space group: P 21/C
;
_chemical_formula_sum "Si O2"
_cell_formula_units_Z 28
_cell_length_a 11.311972
_cell_length_b 14.474277
_cell_length_c 14.073600
_cell_angle_alpha 90.000000
_cell_angle_beta 30.618652
_cell_angle_gamma 90.000000
_cell_volume 1173.633490
_symmetry_space_group_name_H-M "P 21/C"
_symmetry_group_IT_number 14
_symmetry_cell_setting 'monoclinic'
loop_
_space_group_symop_operation_xyz
x,y,z
-x,1/2+y,1/2-z
-x,-y,-z
x,1/2-y,1/2+z
loop_
_atom_site_type_symbol
_atom_site_label
_atom_site_fract_x
_atom_site_fract_y
_atom_site_fract_z
Si Si1 0.715941 0.329375 0.911182
Si Si2 0.266540 0.061945 0.747103
Si Si3 0.069167 0.787409 0.939992
Si Si4 0.901070 0.822330 0.718210
Si Si5 0.076292 0.117337 0.696102
Si Si6 0.466227 0.596419 0.239186
Si Si7 0.437546 0.627277 0.468633
O O1 0.587536 0.237005 0.036160
O O2 0.852599 0.296434 0.722735
O O3 0.891965 0.368901 0.867145
O O4 0.507295 0.399312 0.037877
O O5 0.106922 0.048511 0.764818
O O6 0.328828 0.979359 0.772961
O O7 0.131535 0.137658 0.902699
O O8 0.301148 0.814779 0.837851
O O9 0.971939 0.696426 0.059476
O O10 0.896811 0.719802 0.772062
O O11 0.654397 0.873873 0.889927
O O12 0.283657 0.109498 0.479475
O O13 0.825823 0.102606 0.822240
O O14 0.486042 0.576143 0.336484
#
# Coordination Sequence:
#
# PCOD9245087 Si02
#       7
#     4   4   4   4   4   4   4
#     4  11  22  39  59  89 124 160 200 250 304 360
#     4  11  22  38  58  96 125 150 205 253 301 360
#     4  11  21  37  65  89 122 157 195 256 313 340
#     4  10  22  41  58  90 125 154 204 248 293 369
#     4  10  21  36  60  89 119 153 197 251 305 349
#     4  12  22  36  65  92 122 159 196 255 310 347
#     4  11  22  39  56  90 124 152 206 247 292 366
#
# _framework density 23.857534000000001
#
# number of rings (size 3 to 8) (size 9 to 14) (size 15 to 20)
#    0.000    1.143    8.571    0.857    4.000    0.000 
#    2.571    0.714    0.000    1.714    0.000    0.000 
#    0.000    0.000    0.000    0.000    0.000    0.000 
#
# Total GULP energy -156498.058264 kJ/mol
# GULP energy per Si atom -5589.216367 kJ/mol
# Density = 2.380323 g / cm^3
# Si number density = 23.857534 Si / 1000 Ang^3
#
#
#
# Elastic Constant Matrix: (Units=GPa)
#
#
# Indices 1 2 3 4 5 6 
#
# 1 92.6087 10.8601 38.9973 0.0000 -23.5285 0.0000
# 2 10.8601 28.3282 9.5279 0.0000 4.3573 0.0000
# 3 38.9973 9.5279 145.5467 0.0000 -7.1513 0.0000
# 4 0.0000 0.0000 0.0000 18.6278 0.0000 0.7117
# 5 -23.5285 4.3573 -7.1513 0.0000 48.4756 0.0000
# 6 0.0000 0.0000 0.0000 0.7117 0.0000 27.5334
#
#
#
# Elastic Compliance Matrix: (Units=1/GPa)
#
#
# Indices 1 2 3 4 5 6 
#
# 1 0.014615 -0.005624 -0.003198 0.000000 0.007127 0.000000
# 2 -0.005624 0.038901 -0.001356 0.000000 -0.006426 0.000000
# 3 -0.003198 -0.001356 0.007802 0.000000 -0.000279 0.000000
# 4 0.000000 0.000000 0.000000 0.053736 0.000000 -0.001389
# 5 0.007127 -0.006426 -0.000279 0.000000 0.024625 0.000000
# 6 0.000000 0.000000 0.000000 -0.001389 0.000000 0.036355
#
#
# Mechanical properties :
#
#
# Convention : Reuss Voigt Hill
#
# Bulk Modulus (GPa) = 24.41127 42.80600 33.60864
# Shear Modulus (GPa) = 23.80465 32.73393 28.26929
#
# Velocity S-wave (km/s) = 3.16220 3.70815 3.44600
# Velocity P-wave (km/s) = 4.85664 6.02620 5.47275
#
# Compressibility (1/GPa) = 0.04096469
#
# Stress axis : x y z
#
# Youngs Moduli (GPa) = 68.42337 25.70636 128.16569
#
# Poissons Ratio (x) = 0.14457 0.40981
# Poissons Ratio (y) = 0.38479 0.17373
# Poissons Ratio (z) = 0.21879 0.03484
#
# Static dielectric constant tensor:
#      x y z
#    x 1.925790 0.000000 -0.009840 
#    y 0.000000 2.014880 0.000000 
#    z -0.009840 0.000000 1.902550 
# 
# From -- ./inp_files/45273.got.cif
#   From: 2010.05.17/outbox.cif.g08.bks.cpg/sg14_23_cif.got.tgz:45273.got - 2010.06.03 17:49:19.
