data_PCOD9245077
_publ_section_title
;
Structure prediction by ZEFSAII (Michael W. Deem and Ramdas Pophale) SiO2 
 PCOD9245077
Probable space group: P 21/C
;
_chemical_formula_sum "Si O2"
_cell_formula_units_Z 24
_cell_length_a 20.692076
_cell_length_b 5.186973
_cell_length_c 13.540159
_cell_angle_alpha 90.000000
_cell_angle_beta 40.325187
_cell_angle_gamma 90.000000
_cell_volume 940.437597
_symmetry_space_group_name_H-M "P 21/C"
_symmetry_group_IT_number 14
_symmetry_cell_setting 'monoclinic'
loop_
_space_group_symop_operation_xyz
x,y,z
-x,1/2+y,1/2-z
-x,-y,-z
x,1/2-y,1/2+z
loop_
_atom_site_type_symbol
_atom_site_label
_atom_site_fract_x
_atom_site_fract_y
_atom_site_fract_z
Si Si1 0.095221 0.752078 0.097191
Si Si2 0.393881 0.372383 0.600488
Si Si3 0.268015 0.398506 0.939646
Si Si4 0.682680 0.118576 0.417336
Si Si5 0.891010 0.594327 0.591685
Si Si6 0.115772 0.438677 0.737676
O O1 0.985808 0.680037 0.189594
O O2 0.102381 0.781856 0.207045
O O3 0.182296 0.550670 0.979484
O O4 0.117610 0.014077 0.011620
O O5 0.500000 0.500000 0.500000
O O6 0.342100 0.314349 0.766859
O O7 0.340860 0.598414 0.597351
O O8 0.388076 0.103567 0.547483
O O9 0.319809 0.584997 0.960949
O O10 0.212767 0.186276 0.072937
O O11 0.794457 0.043482 0.251266
O O12 0.885315 0.879837 0.645610
O O13 0.000000 0.500000 0.500000
#
# Coordination Sequence:
#
# PCOD9245077 Si02
#       6
#     4   4   4   4   4   4
#     4  11  19  39  61  95 142 189 235 284 357 423
#     4  12  28  51  76 103 140 190 244 305 363 417
#     4  11  25  42  71  99 141 185 230 303 355 424
#     4  11  26  47  73 109 143 181 244 295 359 433
#     4   9  20  39  62  99 145 187 233 285 353 432
#     4  10  21  36  59  97 136 189 238 280 345 432
#
# _framework density 25.520032
#
# number of rings (size 3 to 8) (size 9 to 14) (size 15 to 20)
#    0.000    1.333    3.333    1.500    4.667    1.333 
#    0.000    1.667    0.000    0.000    0.000    0.000 
#    0.000    0.000    0.000    0.000    0.000    0.000 
#
# Total GULP energy -134181.737453 kJ/mol
# GULP energy per Si atom -5590.905727 kJ/mol
# Density = 2.546195 g / cm^3
# Si number density = 25.520032 Si / 1000 Ang^3
#
#
#
# Elastic Constant Matrix: (Units=GPa)
#
#
# Indices 1 2 3 4 5 6 
#
# 1 127.3250 38.1194 40.1601 0.0000 15.9376 0.0000
# 2 38.1194 62.1591 10.2356 0.0000 1.5221 0.0000
# 3 40.1601 10.2356 75.0365 0.0000 6.4494 0.0000
# 4 0.0000 0.0000 0.0000 26.5200 0.0000 0.2415
# 5 15.9376 1.5221 6.4494 0.0000 49.2060 0.0000
# 6 0.0000 0.0000 0.0000 0.2415 0.0000 60.5871
#
#
#
# Elastic Compliance Matrix: (Units=1/GPa)
#
#
# Indices 1 2 3 4 5 6 
#
# 1 0.011728 -0.006269 -0.005170 0.000000 -0.002927 0.000000
# 2 -0.006269 0.019811 0.000537 0.000000 0.001347 0.000000
# 3 -0.005170 0.000537 0.016059 0.000000 -0.000447 0.000000
# 4 0.000000 0.000000 0.000000 0.037709 0.000000 -0.000150
# 5 -0.002927 0.001347 -0.000447 0.000000 0.021288 0.000000
# 6 0.000000 0.000000 0.000000 -0.000150 0.000000 0.016506
#
#
# Mechanical properties :
#
#
# Convention : Reuss Voigt Hill
#
# Bulk Modulus (GPa) = 38.76933 49.06119 43.91526
# Shear Modulus (GPa) = 32.57280 38.99634 35.78457
#
# Velocity S-wave (km/s) = 3.57650 3.91329 3.74868
# Velocity P-wave (km/s) = 5.68153 6.29959 5.99852
#
# Compressibility (1/GPa) = 0.02579359
#
# Stress axis : x y z
#
# Youngs Moduli (GPa) = 85.26641 50.47721 62.27009
#
# Poissons Ratio (x) = 0.31645 0.32194
# Poissons Ratio (y) = 0.53455 -0.03345
# Poissons Ratio (z) = 0.44084 -0.02711
#
# Static dielectric constant tensor:
#      x y z
#    x 2.001350 0.000000 -0.005640 
#    y 0.000000 2.138040 0.000000 
#    z -0.005640 0.000000 2.006870 
# 
# From -- ./inp_files/49616.got.cif
#   From: 2010.05.17/outbox.cif.g08.bks.cpg/sg14_25_cif.got.tgz:49616.got - 2010.06.03 17:49:19.
