data_PCOD9245529
_publ_section_title
;
Structure prediction by ZEFSAII (Michael W. Deem and Ramdas Pophale) SiO2 
 PCOD9245529
Probable space group: P 21/C
;
_chemical_formula_sum "Si O2"
_cell_formula_units_Z 24
_cell_length_a 18.256802
_cell_length_b 8.360300
_cell_length_c 9.297952
_cell_angle_alpha 90.000000
_cell_angle_beta 51.478524
_cell_angle_gamma 90.000000
_cell_volume 1110.321379
_symmetry_space_group_name_H-M "P 21/C"
_symmetry_group_IT_number 14
_symmetry_cell_setting 'monoclinic'
loop_
_space_group_symop_operation_xyz
x,y,z
-x,1/2+y,1/2-z
-x,-y,-z
x,1/2-y,1/2+z
loop_
_atom_site_type_symbol
_atom_site_label
_atom_site_fract_x
_atom_site_fract_y
_atom_site_fract_z
Si Si1 0.033770 0.640893 0.065067
Si Si2 0.827970 0.771270 0.361216
Si Si3 0.577888 0.068067 0.796340
Si Si4 0.287621 0.362995 0.726727
Si Si5 0.093977 0.573267 0.314300
Si Si6 0.459630 0.368719 0.940943
O O1 0.935958 0.722668 0.232546
O O2 0.080033 0.594226 0.159918
O O3 0.000000 0.500000 0.000000
O O4 0.099662 0.760039 0.892333
O O5 0.786081 0.801698 0.567220
O O6 0.765542 0.639275 0.358641
O O7 0.826285 0.938034 0.272635
O O8 0.544242 0.245974 0.801650
O O9 0.673199 0.031720 0.764492
O O10 0.575988 0.959061 0.657057
O O11 0.500000 0.000000 0.000000
O O12 0.374468 0.238484 0.607294
O O13 0.000000 0.500000 0.500000
O O14 0.500000 0.500000 0.000000
#
# Coordination Sequence:
#
# PCOD9245529 Si02
#       6
#     4   4   4   4   4   4
#     4  11  21  39  65  94 122 175 226 268 334 409
#     4  11  22  40  63  92 131 166 209 279 331 381
#     4  10  21  39  65  95 127 169 215 255 316 394
#     4  11  22  40  63  94 130 169 216 270 337 377
#     4  10  21  38  62  91 125 167 221 266 330 412
#     4  11  23  42  68  96 127 172 221 258 318 402
#
# _framework density 21.615362999999999
#
# number of rings (size 3 to 8) (size 9 to 14) (size 15 to 20)
#    0.000    1.333    1.667    7.000    2.333    0.000 
#    0.000    5.000    3.667    0.000    0.000    0.000 
#    0.000    0.000    0.000    0.000    0.000    0.000 
#
# Total GULP energy -133997.368408 kJ/mol
# GULP energy per Si atom -5583.223684 kJ/mol
# Density = 2.156617 g / cm^3
# Si number density = 21.615363 Si / 1000 Ang^3
#
#
#
# Elastic Constant Matrix: (Units=GPa)
#
#
# Indices 1 2 3 4 5 6 
#
# 1 57.9089 14.6865 -0.8203 0.0000 2.2009 0.0000
# 2 14.6865 93.3010 20.7326 0.0000 0.3493 0.0000
# 3 -0.8203 20.7326 94.4771 0.0000 5.9958 0.0000
# 4 0.0000 0.0000 0.0000 38.1766 0.0000 1.6060
# 5 2.2009 0.3493 5.9958 0.0000 32.3240 0.0000
# 6 0.0000 0.0000 0.0000 1.6060 0.0000 34.2317
#
#
#
# Elastic Compliance Matrix: (Units=1/GPa)
#
#
# Indices 1 2 3 4 5 6 
#
# 1 0.018106 -0.003048 0.000913 0.000000 -0.001369 0.000000
# 2 -0.003048 0.011784 -0.002649 0.000000 0.000571 0.000000
# 3 0.000913 -0.002649 0.011309 0.000000 -0.002131 0.000000
# 4 0.000000 0.000000 0.000000 0.026246 0.000000 -0.001231
# 5 -0.001369 0.000571 -0.002131 0.000000 0.031419 0.000000
# 6 0.000000 0.000000 0.000000 -0.001231 0.000000 0.029270
#
#
# Mechanical properties :
#
#
# Convention : Reuss Voigt Hill
#
# Bulk Modulus (GPa) = 31.61321 34.98719 33.30020
# Shear Modulus (GPa) = 33.72759 35.01900 34.37330
#
# Velocity S-wave (km/s) = 3.95442 4.02941 3.99209
# Velocity P-wave (km/s) = 5.95877 6.15383 6.05709
#
# Compressibility (1/GPa) = 0.03163234
#
# Stress axis : x y z
#
# Youngs Moduli (GPa) = 55.22895 84.85933 88.42511
#
# Poissons Ratio (x) = 0.25864 -0.08073
# Poissons Ratio (y) = 0.16833 0.23421
# Poissons Ratio (z) = -0.05042 0.22477
#
# Static dielectric constant tensor:
#      x y z
#    x 1.797730 0.000000 0.000080 
#    y 0.000000 1.882170 0.000000 
#    z 0.000080 0.000000 1.787040 
# 
# From -- ./inp_files/15044.got.cif
#   From: 2010.05.17/outbox.cif.g08.bks.cpg/sg14_8_cif.got.tgz:15044.got - 2010.06.03 17:49:19.
