data_PCOD9245869
_publ_section_title
;
Structure prediction by ZEFSAII (Michael W. Deem and Ramdas Pophale) SiO2 
 PCOD9245869
Probable space group: P 21/C
;
_chemical_formula_sum "Si O2"
_cell_formula_units_Z 20
_cell_length_a 6.007892
_cell_length_b 11.635631
_cell_length_c 13.621955
_cell_angle_alpha 90.000000
_cell_angle_beta 116.957504
_cell_angle_gamma 90.000000
_cell_volume 848.782384
_symmetry_space_group_name_H-M "P 21/C"
_symmetry_group_IT_number 14
_symmetry_cell_setting 'monoclinic'
loop_
_space_group_symop_operation_xyz
x,y,z
-x,1/2+y,1/2-z
-x,-y,-z
x,1/2-y,1/2+z
loop_
_atom_site_type_symbol
_atom_site_label
_atom_site_fract_x
_atom_site_fract_y
_atom_site_fract_z
Si Si1 0.743231 0.182957 0.175169
Si Si2 0.644743 0.443155 0.848208
Si Si3 0.051394 0.861005 0.418706
Si Si4 0.878859 0.008979 0.824007
Si Si5 0.208083 0.343995 0.513599
O O1 0.656755 0.159807 0.269763
O O2 0.876199 0.299056 0.167327
O O3 0.500611 0.175140 0.056097
O O4 0.931554 0.080632 0.187005
O O5 0.380392 0.507228 0.786832
O O6 0.865506 0.532870 0.868063
O O7 0.710162 0.398984 0.969580
O O8 0.907469 0.766662 0.456307
O O9 0.797492 0.949624 0.910844
O O10 0.037980 0.119209 0.888704
#
# Coordination Sequence:
#
# PCOD9245869 Si02
#       5
#     4   4   4   4   4
#     4  10  21  39  64  90 119 164 205 247 305 360
#     4  10  23  41  60  89 126 160 201 251 304 362
#     4  10  23  41  60  89 126 160 201 253 303 361
#     4   9  19  37  61  89 120 157 201 249 297 354
#     4   9  19  36  59  89 122 156 201 249 296 356
#
# _framework density 23.563165999999999
#
# number of rings (size 3 to 8) (size 9 to 14) (size 15 to 20)
#    0.000    2.400    0.000    0.600    0.000   11.200 
#    0.000    4.000    0.000    0.000    0.000    0.000 
#    0.000    0.000    0.000    0.000    0.000    0.000 
#
# Total GULP energy -111786.355068 kJ/mol
# GULP energy per Si atom -5589.317753 kJ/mol
# Density = 2.350953 g / cm^3
# Si number density = 23.563166 Si / 1000 Ang^3
#
#
#
# Elastic Constant Matrix: (Units=GPa)
#
#
# Indices 1 2 3 4 5 6 
#
# 1 61.8767 14.2136 52.9678 0.0000 3.9669 0.0000
# 2 14.2136 66.9586 54.2022 0.0000 -15.6604 0.0000
# 3 52.9678 54.2022 184.1213 0.0000 21.2759 0.0000
# 4 0.0000 0.0000 0.0000 20.3952 0.0000 -0.2546
# 5 3.9669 -15.6604 21.2759 0.0000 31.2035 0.0000
# 6 0.0000 0.0000 0.0000 -0.2546 0.0000 38.1131
#
#
#
# Elastic Compliance Matrix: (Units=1/GPa)
#
#
# Indices 1 2 3 4 5 6 
#
# 1 0.021640 0.001907 -0.007142 0.000000 0.003076 0.000000
# 2 0.001907 0.029339 -0.011788 0.000000 0.022519 0.000000
# 3 -0.007142 -0.011788 0.012521 0.000000 -0.013545 0.000000
# 4 0.000000 0.000000 0.000000 0.049035 0.000000 0.000328
# 5 0.003076 0.022519 -0.013545 0.000000 0.052194 0.000000
# 6 0.000000 0.000000 0.000000 0.000328 0.000000 0.026240
#
#
# Mechanical properties :
#
#
# Convention : Reuss Voigt Hill
#
# Bulk Modulus (GPa) = 33.95071 61.74709 47.84890
# Shear Modulus (GPa) = 21.29180 30.71389 26.00284
#
# Velocity S-wave (km/s) = 3.00926 3.61428 3.32556
# Velocity P-wave (km/s) = 5.14916 6.60902 5.92423
#
# Compressibility (1/GPa) = 0.02945446
#
# Stress axis : x y z
#
# Youngs Moduli (GPa) = 46.21132 34.08488 79.86451
#
# Poissons Ratio (x) = -0.06502 0.57041
# Poissons Ratio (y) = -0.08815 0.94142
# Poissons Ratio (z) = 0.33005 0.40178
#
# Static dielectric constant tensor:
#      x y z
#    x 1.854080 0.000000 -0.022330 
#    y 0.000000 1.887690 0.000000 
#    z -0.022330 0.000000 1.912730 
# 
# From -- ./inp_files/48734.got.cif
#   From: 2010.05.17/outbox.cif.g08.bks.cpg/sg14_25_cif.got.tgz:48734.got - 2010.06.03 17:49:19.
