data_PCOD9245721
_publ_section_title
;
Structure prediction by ZEFSAII (Michael W. Deem and Ramdas Pophale) SiO2 
 PCOD9245721
Probable space group: P 21/C
;
_chemical_formula_sum "Si O2"
_cell_formula_units_Z 28
_cell_length_a 8.314537
_cell_length_b 12.500646
_cell_length_c 16.926466
_cell_angle_alpha 90.000000
_cell_angle_beta 123.952962
_cell_angle_gamma 90.000000
_cell_volume 1459.322611
_symmetry_space_group_name_H-M "P 21/C"
_symmetry_group_IT_number 14
_symmetry_cell_setting 'monoclinic'
loop_
_space_group_symop_operation_xyz
x,y,z
-x,1/2+y,1/2-z
-x,-y,-z
x,1/2-y,1/2+z
loop_
_atom_site_type_symbol
_atom_site_label
_atom_site_fract_x
_atom_site_fract_y
_atom_site_fract_z
Si Si1 0.291599 0.516471 0.034106
Si Si2 0.019124 0.834169 0.375107
Si Si3 0.270378 0.317410 0.433716
Si Si4 0.280812 0.213254 0.597256
Si Si5 0.906048 0.998520 0.214204
Si Si6 0.293237 0.097383 0.360529
Si Si7 0.652997 0.299006 0.626266
O O1 0.267615 0.414846 0.083712
O O2 0.492263 0.573964 0.110569
O O3 0.296593 0.460380 0.948189
O O4 0.130145 0.606902 0.978021
O O5 0.851026 0.759011 0.364192
O O6 0.918012 0.923104 0.293629
O O7 0.186193 0.778623 0.367930
O O8 0.192515 0.271081 0.495447
O O9 0.168720 0.423780 0.376651
O O10 0.251854 0.221548 0.365722
O O11 0.499120 0.331015 0.515467
O O12 0.508561 0.244728 0.651007
O O13 0.762684 0.097461 0.187315
O O14 0.122235 0.044697 0.263864
#
# Coordination Sequence:
#
# PCOD9245721 Si02
#       7
#     4   4   4   4   4   4   4
#     4   9  15  32  54  83 109 147 188 242 278 344
#     4  11  20  37  63  86 114 152 206 239 288 346
#     4   9  19  38  59  81 118 159 192 232 297 351
#     4   9  20  35  61  83 114 156 196 231 292 354
#     4  11  21  33  61  89 117 154 194 247 296 339
#     4   9  16  30  57  83 108 147 195 232 285 335
#     4  10  21  39  60  79 123 155 194 237 298 351
#
# _framework density 19.186983000000001
#
# number of rings (size 3 to 8) (size 9 to 14) (size 15 to 20)
#    0.857    1.429    1.429    3.429    0.000    0.000 
#    0.000    5.000   12.571    0.000    0.000    0.000 
#    0.000    0.000    0.000    0.000    0.000    0.000 
#
# Total GULP energy -155885.566214 kJ/mol
# GULP energy per Si atom -5567.341650 kJ/mol
# Density = 1.914331 g / cm^3
# Si number density = 19.186983 Si / 1000 Ang^3
#
#
#
# Elastic Constant Matrix: (Units=GPa)
#
#
# Indices 1 2 3 4 5 6 
#
# 1 108.3723 43.0731 38.2988 0.0000 27.6979 0.0000
# 2 43.0731 72.7662 56.9943 0.0000 26.7504 0.0000
# 3 38.2988 56.9943 65.7116 0.0000 17.2408 0.0000
# 4 0.0000 0.0000 0.0000 46.6848 0.0000 9.5765
# 5 27.6979 26.7504 17.2408 0.0000 16.7709 0.0000
# 6 0.0000 0.0000 0.0000 9.5765 0.0000 10.1318
#
#
#
# Elastic Compliance Matrix: (Units=1/GPa)
#
#
# Indices 1 2 3 4 5 6 
#
# 1 0.017746 0.010593 -0.010144 0.000000 -0.035776 0.000000
# 2 0.010593 0.089865 -0.057402 0.000000 -0.101824 0.000000
# 3 -0.010144 -0.057402 0.058196 0.000000 0.048486 0.000000
# 4 0.000000 0.000000 0.000000 0.026572 0.000000 -0.025116
# 5 -0.035776 -0.101824 0.048486 0.000000 0.231285 0.000000
# 6 0.000000 0.000000 0.000000 -0.025116 0.000000 0.122438
#
#
# Mechanical properties :
#
#
# Convention : Reuss Voigt Hill
#
# Bulk Modulus (GPa) = 19.26736 58.17583 38.72159
# Shear Modulus (GPa) = 7.38215 21.94976 14.66596
#
# Velocity S-wave (km/s) = 1.96363 3.38597 2.76772
# Velocity P-wave (km/s) = 3.89933 6.75815 5.51713
#
# Compressibility (1/GPa) = 0.05190125
#
# Stress axis : x y z
#
# Youngs Moduli (GPa) = 56.35116 11.12775 17.18326
#
# Poissons Ratio (x) = -0.11788 0.17430
# Poissons Ratio (y) = -0.59692 0.98636
# Poissons Ratio (z) = 0.57162 0.63876
#
# Static dielectric constant tensor:
#      x y z
#    x 1.714200 0.000000 0.000160 
#    y 0.000000 1.680750 0.000000 
#    z 0.000160 0.000000 1.677240 
# 
# From -- ./inp_files/72209.got.cif
#   From: 2010.05.17/outbox.cif.g08.bks.cpg/sg14_37_cif.got.tgz:72209.got - 2010.06.03 17:49:19.
