data_PCOD9245838
_publ_section_title
;
Structure prediction by ZEFSAII (Michael W. Deem and Ramdas Pophale) SiO2 
 PCOD9245838
Probable space group: P 21/C
;
_chemical_formula_sum "Si O2"
_cell_formula_units_Z 28
_cell_length_a 7.822840
_cell_length_b 12.563803
_cell_length_c 23.974609
_cell_angle_alpha 90.000000
_cell_angle_beta 33.599244
_cell_angle_gamma 90.000000
_cell_volume 1303.950174
_symmetry_space_group_name_H-M "P 21/C"
_symmetry_group_IT_number 14
_symmetry_cell_setting 'monoclinic'
loop_
_space_group_symop_operation_xyz
x,y,z
-x,1/2+y,1/2-z
-x,-y,-z
x,1/2-y,1/2+z
loop_
_atom_site_type_symbol
_atom_site_label
_atom_site_fract_x
_atom_site_fract_y
_atom_site_fract_z
Si Si1 0.734956 0.638087 0.647103
Si Si2 0.351842 0.751122 0.584841
Si Si3 0.555669 0.406142 0.529098
Si Si4 0.757533 0.445380 0.308291
Si Si5 0.766045 0.844579 0.569141
Si Si6 0.151524 0.973541 0.609116
Si Si7 0.684399 0.058251 0.641574
O O1 0.524755 0.583029 0.656774
O O2 0.746751 0.760535 0.624432
O O3 0.572731 0.615501 0.750826
O O4 0.084456 0.595452 0.551896
O O5 0.501936 0.703179 0.487917
O O6 0.206880 0.650194 0.657005
O O7 0.604536 0.795788 0.558707
O O8 0.131655 0.848084 0.628089
O O9 0.500000 0.500000 0.500000
O O10 0.333836 0.442592 0.638745
O O11 0.051910 0.460284 0.190103
O O12 0.117277 0.870747 0.455299
O O13 0.588450 0.952457 0.634361
O O14 0.500000 0.000000 0.500000
O O15 0.932737 0.010774 0.618428
#
# Coordination Sequence:
#
# PCOD9245838 Si02
#       7
#     4   4   4   4   4   4   4
#     4  10  21  42  65  91 125 164 217 255 307 378
#     4  10  21  39  63  92 127 159 209 257 311 369
#     4  10  21  41  61  92 124 158 205 260 312 362
#     4   9  22  40  62  93 125 167 209 256 316 362
#     4  10  21  42  62  91 125 167 207 251 315 375
#     4  11  21  39  61  91 126 163 206 257 306 369
#     4  10  22  42  64  90 126 166 209 254 310 377
#
# _framework density 21.473212
#
# number of rings (size 3 to 8) (size 9 to 14) (size 15 to 20)
#    0.000    2.000    1.429    1.286    0.000    3.429 
#   18.000    0.000    0.000    0.000    0.000    0.000 
#    0.000    0.000    0.000    0.000    0.000    0.000 
#
# Total GULP energy -156374.973868 kJ/mol
# GULP energy per Si atom -5584.820495 kJ/mol
# Density = 2.142434 g / cm^3
# Si number density = 21.473212 Si / 1000 Ang^3
#
#
#
# Elastic Constant Matrix: (Units=GPa)
#
#
# Indices 1 2 3 4 5 6 
#
# 1 64.9131 26.6229 32.9136 0.0000 -5.9771 0.0000
# 2 26.6229 106.9254 49.6546 0.0000 15.2342 0.0000
# 3 32.9136 49.6546 118.5535 0.0000 19.4994 0.0000
# 4 0.0000 0.0000 0.0000 29.3624 0.0000 10.2826
# 5 -5.9771 15.2342 19.4994 0.0000 31.6078 0.0000
# 6 0.0000 0.0000 0.0000 10.2826 0.0000 35.2246
#
#
#
# Elastic Compliance Matrix: (Units=1/GPa)
#
#
# Indices 1 2 3 4 5 6 
#
# 1 0.020706 -0.003846 -0.005661 0.000000 0.009262 0.000000
# 2 -0.003846 0.012567 -0.003428 0.000000 -0.004670 0.000000
# 3 -0.005661 -0.003428 0.012628 0.000000 -0.007209 0.000000
# 4 0.000000 0.000000 0.000000 0.037935 0.000000 -0.011074
# 5 0.009262 -0.004670 -0.007209 0.000000 0.040087 0.000000
# 6 0.000000 0.000000 0.000000 -0.011074 0.000000 0.031622
#
#
# Mechanical properties :
#
#
# Convention : Reuss Voigt Hill
#
# Bulk Modulus (GPa) = 49.92184 56.53047 53.22616
# Shear Modulus (GPa) = 26.58280 31.31901 28.95090
#
# Velocity S-wave (km/s) = 3.52227 3.82319 3.67581
# Velocity P-wave (km/s) = 6.31195 6.77291 6.54649
#
# Compressibility (1/GPa) = 0.02003131
#
# Stress axis : x y z
#
# Youngs Moduli (GPa) = 48.29578 79.57322 79.18935
#
# Poissons Ratio (x) = 0.30605 0.44828
# Poissons Ratio (y) = 0.18575 0.27144
# Poissons Ratio (z) = 0.27340 0.27275
#
# Static dielectric constant tensor:
#      x y z
#    x 1.836190 0.000000 0.026960 
#    y 0.000000 1.798350 0.000000 
#    z 0.026960 0.000000 1.755320 
# 
# From -- ./inp_files/76643.got.cif
#   From: 2010.05.17/outbox.cif.g08.bks.cpg/sg14_39_cif.got.tgz:76643.got - 2010.06.03 17:49:19.
