data_PCOD9245523
_publ_section_title
;
Structure prediction by ZEFSAII (Michael W. Deem and Ramdas Pophale) SiO2 
 PCOD9245523
Probable space group: P 21/C
;
_chemical_formula_sum "Si O2"
_cell_formula_units_Z 24
_cell_length_a 15.047999
_cell_length_b 8.792454
_cell_length_c 9.546483
_cell_angle_alpha 90.000000
_cell_angle_beta 75.651547
_cell_angle_gamma 90.000000
_cell_volume 1223.684077
_symmetry_space_group_name_H-M "P 21/C"
_symmetry_group_IT_number 14
_symmetry_cell_setting 'monoclinic'
loop_
_space_group_symop_operation_xyz
x,y,z
-x,1/2+y,1/2-z
-x,-y,-z
x,1/2-y,1/2+z
loop_
_atom_site_type_symbol
_atom_site_label
_atom_site_fract_x
_atom_site_fract_y
_atom_site_fract_z
Si Si1 0.471584 0.368033 0.903157
Si Si2 0.927874 0.099218 0.119807
Si Si3 0.993641 0.349016 0.911429
Si Si4 0.185937 0.174142 0.869149
Si Si5 0.699335 0.674676 0.406610
Si Si6 0.572031 0.440038 0.358106
O O1 0.446348 0.460372 0.773253
O O2 0.550335 0.238837 0.847290
O O3 0.500000 0.500000 0.000000
O O4 0.384823 0.271787 0.995509
O O5 0.965856 0.130345 0.260477
O O6 0.837778 0.997347 0.165886
O O7 0.921117 0.247177 0.026363
O O8 0.000000 0.000000 0.000000
O O9 0.093688 0.270561 0.879549
O O10 0.000000 0.500000 0.000000
O O11 0.266865 0.242688 0.745764
O O12 0.217379 0.176177 0.016868
O O13 0.667881 0.503127 0.381662
O O14 0.500000 0.500000 0.500000
#
# Coordination Sequence:
#
# PCOD9245523 Si02
#       6
#     4   4   4   4   4   4
#     4  11  23  42  68  93 127 170 219 254 319 396
#     4  10  21  38  62  90 122 170 215 265 324 399
#     4  11  21  39  65  91 123 172 228 265 323 400
#     4  11  22  40  63  91 131 164 210 274 332 376
#     4  11  22  40  63  96 128 169 212 271 333 375
#     4  10  21  39  65  93 125 169 214 255 314 392
#
# _framework density 19.612905000000001
#
# number of rings (size 3 to 8) (size 9 to 14) (size 15 to 20)
#    0.000    1.333    1.667    7.000    2.333    0.000 
#    0.000    5.000    0.000    0.000    0.000    0.000 
#    0.000    0.000    0.000    0.000    0.000    0.000 
#
# Total GULP energy -133870.817581 kJ/mol
# GULP energy per Si atom -5577.950733 kJ/mol
# Density = 1.956827 g / cm^3
# Si number density = 19.612905 Si / 1000 Ang^3
#
#
#
# Elastic Constant Matrix: (Units=GPa)
#
#
# Indices 1 2 3 4 5 6 
#
# 1 47.0259 25.2067 20.3514 0.0000 8.6418 0.0000
# 2 25.2067 129.0974 36.2542 0.0000 4.1162 0.0000
# 3 20.3514 36.2542 118.0221 0.0000 23.8830 0.0000
# 4 0.0000 0.0000 0.0000 32.1032 0.0000 -2.4891
# 5 8.6418 4.1162 23.8830 0.0000 37.1577 0.0000
# 6 0.0000 0.0000 0.0000 -2.4891 0.0000 38.4012
#
#
#
# Elastic Compliance Matrix: (Units=1/GPa)
#
#
# Indices 1 2 3 4 5 6 
#
# 1 0.025200 -0.004157 -0.002271 0.000000 -0.003941 0.000000
# 2 -0.004157 0.009186 -0.002408 0.000000 0.001497 0.000000
# 3 -0.002271 -0.002408 0.010855 0.000000 -0.006182 0.000000
# 4 0.000000 0.000000 0.000000 0.031307 0.000000 0.002029
# 5 -0.003941 0.001497 -0.006182 0.000000 0.031637 0.000000
# 6 0.000000 0.000000 0.000000 0.002029 0.000000 0.026172
#
#
# Mechanical properties :
#
#
# Convention : Reuss Voigt Hill
#
# Bulk Modulus (GPa) = 36.27173 50.86335 43.56754
# Shear Modulus (GPa) = 31.01364 35.68796 33.35080
#
# Velocity S-wave (km/s) = 3.98085 4.27032 4.12813
# Velocity P-wave (km/s) = 6.29790 7.09254 6.70700
#
# Compressibility (1/GPa) = 0.02756968
#
# Stress axis : x y z
#
# Youngs Moduli (GPa) = 39.68242 108.85840 92.12067
#
# Poissons Ratio (x) = 0.45252 0.20921
# Poissons Ratio (y) = 0.16496 0.22182
# Poissons Ratio (z) = 0.09012 0.26212
#
# Static dielectric constant tensor:
#      x y z
#    x 1.709690 0.000000 -0.005470 
#    y 0.000000 1.385750 0.000000 
#    z -0.005470 0.000000 1.681800 
# 
# From -- ./inp_files/15018.got.cif
#   From: 2010.05.17/outbox.cif.g08.bks.cpg/sg14_8_cif.got.tgz:15018.got - 2010.06.03 17:49:19.
