data_PCOD9245973
_publ_section_title
;
Structure prediction by ZEFSAII (Michael W. Deem and Ramdas Pophale) SiO2 
 PCOD9245973
Probable space group: P 21/C
;
_chemical_formula_sum "Si O2"
_cell_formula_units_Z 32
_cell_length_a 7.333470
_cell_length_b 8.976409
_cell_length_c 19.650944
_cell_angle_alpha 90.000000
_cell_angle_beta 73.479881
_cell_angle_gamma 90.000000
_cell_volume 1240.187452
_symmetry_space_group_name_H-M "P 21/C"
_symmetry_group_IT_number 14
_symmetry_cell_setting 'monoclinic'
loop_
_space_group_symop_operation_xyz
x,y,z
-x,1/2+y,1/2-z
-x,-y,-z
x,1/2-y,1/2+z
loop_
_atom_site_type_symbol
_atom_site_label
_atom_site_fract_x
_atom_site_fract_y
_atom_site_fract_z
Si Si1 0.842527 0.018813 0.274854
Si Si2 0.612706 0.781433 0.377713
Si Si3 0.191300 0.443483 0.823215
Si Si4 0.347320 0.803421 0.130994
Si Si5 0.977458 0.191775 0.926464
Si Si6 0.727822 0.766743 0.006624
Si Si7 0.756104 0.428935 0.043047
Si Si8 0.450257 0.539344 0.298774
O O1 0.749164 0.155741 0.327228
O O2 0.762496 0.030784 0.207114
O O3 0.063571 0.020548 0.271007
O O4 0.756211 0.866265 0.313451
O O5 0.718848 0.702983 0.428208
O O6 0.468136 0.899198 0.426534
O O7 0.483022 0.669071 0.349161
O O8 0.113095 0.291626 0.863552
O O9 0.170334 0.562248 0.886599
O O10 0.410111 0.430919 0.779955
O O11 0.453961 0.894901 0.178267
O O12 0.175604 0.881632 0.107355
O O13 0.518157 0.775818 0.060292
O O14 0.847920 0.304033 0.986105
O O15 0.129593 0.129909 0.964825
O O16 0.788973 0.593385 0.009325
#
# Coordination Sequence:
#
# PCOD9245973 Si02
#       8
#     4   4   4   4   4   4   4   4
#     4  11  22  42  68  90 118 168 215 264 312 365
#     4  12  23  40  69  95 126 166 213 264 314 373
#     4  10  22  40  65  94 126 161 214 268 316 368
#     4  11  23  41  64  88 129 169 205 258 321 376
#     4  10  21  39  66  98 120 156 213 276 316 355
#     4  11  20  39  67  94 122 160 215 263 315 366
#     4  11  19  40  69  99 121 153 216 280 308 354
#     4  12  27  42  57  95 137 171 206 249 319 395
#
# _framework density 25.802551000000001
#
# number of rings (size 3 to 8) (size 9 to 14) (size 15 to 20)
#    0.000    1.000    3.750    5.625    0.000    3.500 
#    2.250    0.625    0.000    0.000    0.000    0.000 
#    0.000    0.000    0.000    0.000    0.000    0.000 
#
# Total GULP energy -179209.753062 kJ/mol
# GULP energy per Si atom -5600.304783 kJ/mol
# Density = 2.574382 g / cm^3
# Si number density = 25.802551 Si / 1000 Ang^3
#
#
#
# Elastic Constant Matrix: (Units=GPa)
#
#
# Indices 1 2 3 4 5 6 
#
# 1 118.1231 11.0478 24.9949 0.0000 48.9873 0.0000
# 2 11.0478 50.1892 26.1796 0.0000 9.4218 0.0000
# 3 24.9949 26.1796 108.0449 0.0000 51.3786 0.0000
# 4 0.0000 0.0000 0.0000 -466.7146 0.0000 -377.1460
# 5 48.9873 9.4218 51.3786 0.0000 58.7551 0.0000
# 6 0.0000 0.0000 0.0000 -377.1460 0.0000 -278.0037
#
#
#
# Elastic Compliance Matrix: (Units=1/GPa)
#
#
# Indices 1 2 3 4 5 6 
#
# 1 0.014150 -0.002683 0.004763 0.000000 -0.015533 0.000000
# 2 -0.002683 0.023456 -0.007426 0.000000 0.004969 0.000000
# 3 0.004763 -0.007426 0.019301 0.000000 -0.019658 0.000000
# 4 0.000000 0.000000 0.000000 0.022257 0.000000 -0.030194
# 5 -0.015533 0.004969 -0.019658 0.000000 0.046363 0.000000
# 6 0.000000 0.000000 0.000000 -0.030194 0.000000 0.037365
#
#
# Mechanical properties :
#
#
# Convention : Reuss Voigt Hill
#
# Bulk Modulus (GPa) = 21.63821 44.53354 33.08587
# Shear Modulus (GPa) = 26.45649 -122.91698 -48.23025
#
# Velocity S-wave (km/s) = 3.20557 -6.90948 -4.32812
# Velocity P-wave (km/s) = 4.70162 6.80865 3.48228
#
# Compressibility (1/GPa) = 0.04621455
#
# Stress axis : x y z
#
# Youngs Moduli (GPa) = 70.66900 42.63338 51.81126
#
# Poissons Ratio (x) = 0.11440 -0.24677
# Poissons Ratio (y) = 0.18963 0.38474
# Poissons Ratio (z) = -0.33659 0.31659
#
# Static dielectric constant tensor:
#      x y z
#    x 2.012950 0.000000 0.049120 
#    y 0.000000 2.051980 0.000000 
#    z 0.049120 0.000000 2.050550 
# 
# From -- ./inp_files/55664.got.cif
#   From: 2010.05.17/outbox.cif.g08.bks.cpg/sg14_28_cif.got.tgz:55664.got - 2010.06.03 17:49:19.
