data_PCOD9245394
_publ_section_title
;
Structure prediction by ZEFSAII (Michael W. Deem and Ramdas Pophale) SiO2 
 PCOD9245394
Probable space group: P 21/C
;
_chemical_formula_sum "Si O2"
_cell_formula_units_Z 30
_cell_length_a 16.175570
_cell_length_b 5.162372
_cell_length_c 15.072026
_cell_angle_alpha 90.000000
_cell_angle_beta 89.135868
_cell_angle_gamma 90.000000
_cell_volume 1258.435987
_symmetry_space_group_name_H-M "P 21/C"
_symmetry_group_IT_number 14
_symmetry_cell_setting 'monoclinic'
loop_
_space_group_symop_operation_xyz
x,y,z
-x,1/2+y,1/2-z
-x,-y,-z
x,1/2-y,1/2+z
loop_
_atom_site_type_symbol
_atom_site_label
_atom_site_fract_x
_atom_site_fract_y
_atom_site_fract_z
Si Si1 0.589373 0.492197 0.185857
Si Si2 0.119680 0.534756 0.451480
Si Si3 0.240371 0.586850 0.912410
Si Si4 0.234149 0.592663 0.113930
Si Si5 0.076694 0.363521 0.822167
Si Si6 0.129722 0.123108 0.135512
Si Si7 0.000000 0.000000 0.500000
Si Si8 0.590447 0.997583 0.305775
O O1 0.671210 0.484615 0.126152
O O2 0.599333 0.714209 0.261105
O O3 0.498381 0.526001 0.144191
O O4 0.585054 0.207875 0.228033
O O5 0.085839 0.426296 0.360723
O O6 0.097622 0.333472 0.532868
O O7 0.214295 0.610902 0.428795
O O8 0.073191 0.781834 0.490134
O O9 0.166286 0.482615 0.851737
O O10 0.235858 0.491866 0.012912
O O11 0.181458 0.373780 0.164024
O O12 0.328318 0.581055 0.143302
O O13 0.190878 0.873480 0.125148
O O14 0.069506 0.420688 0.719139
O O15 0.005819 0.464382 0.888468
#
# Coordination Sequence:
#
# PCOD9245394 Si02
#       8
#     4   4   4   4   4   4   2   4
#     4  10  22  37  59  90 122 176 220 275 333 393
#     4  10  23  45  64 101 134 168 226 272 330 408
#     4  10  22  37  64  90 129 170 222 273 329 391
#     4  11  22  40  61  97 131 170 223 280 319 401
#     4  11  22  43  68  93 132 175 213 274 329 399
#     4  11  25  41  69  98 134 173 221 271 331 388
#     4  10  24  44  68  98 132 174 218 268 334 398
#     4  10  21  38  57  88 132 165 227 274 328 397
#
# _framework density 23.839115
#
# number of rings (size 3 to 8) (size 9 to 14) (size 15 to 20)
#    0.000    1.600    1.333    2.800    7.467    0.533 
#    2.400    0.000    0.000    7.200    0.000    0.000 
#    0.000    0.000    0.000    0.000    0.000    0.000 
#
# Total GULP energy -167096.555942 kJ/mol
# GULP energy per Si atom -5569.885198 kJ/mol
# Density = 2.378486 g / cm^3
# Si number density = 23.839115 Si / 1000 Ang^3
#
#
#
# Elastic Constant Matrix: (Units=GPa)
#
#
# Indices 1 2 3 4 5 6 
#
# 1 135.3740 2.5279 60.6085 0.0000 -16.6223 0.0000
# 2 2.5279 54.6413 13.6464 0.0000 -18.1495 0.0000
# 3 60.6085 13.6464 139.2915 0.0000 -17.8560 0.0000
# 4 0.0000 0.0000 0.0000 28.9088 0.0000 -7.9088
# 5 -16.6223 -18.1495 -17.8560 0.0000 45.1726 0.0000
# 6 0.0000 0.0000 0.0000 -7.9088 0.0000 35.4012
#
#
#
# Elastic Compliance Matrix: (Units=1/GPa)
#
#
# Indices 1 2 3 4 5 6 
#
# 1 0.009417 0.001361 -0.003915 0.000000 0.002464 0.000000
# 2 0.001361 0.021459 -0.001606 0.000000 0.008487 0.000000
# 3 -0.003915 -0.001606 0.009241 0.000000 0.001567 0.000000
# 4 0.000000 0.000000 0.000000 0.036843 0.000000 0.008231
# 5 0.002464 0.008487 0.001567 0.000000 0.027073 0.000000
# 6 0.000000 0.000000 0.000000 0.008231 0.000000 0.030086
#
#
# Mechanical properties :
#
#
# Convention : Reuss Voigt Hill
#
# Bulk Modulus (GPa) = 31.45138 53.65248 42.55193
# Shear Modulus (GPa) = 32.67142 38.73147 35.70145
#
# Velocity S-wave (km/s) = 3.70604 4.03513 3.87408
# Velocity P-wave (km/s) = 5.61558 6.65317 6.15627
#
# Compressibility (1/GPa) = 0.03179511
#
# Stress axis : x y z
#
# Youngs Moduli (GPa) = 106.19268 46.60149 108.21532
#
# Poissons Ratio (x) = -0.06341 0.42365
# Poissons Ratio (y) = -0.14449 0.17383
# Poissons Ratio (z) = 0.41573 0.07486
#
# Static dielectric constant tensor:
#      x y z
#    x 1.948350 0.000000 0.079020 
#    y 0.000000 1.983070 0.000000 
#    z 0.079020 0.000000 1.936450 
# 
# From -- ./inp_files/48152.got.cif
#   From: 2010.05.17/outbox.cif.g08.bks.cpg/sg14_25_cif.got.tgz:48152.got - 2010.06.03 17:49:19.
