data_PCOD9245159
_publ_section_title
;
Structure prediction by ZEFSAII (Michael W. Deem and Ramdas Pophale) SiO2 
 PCOD9245159
Probable space group: P 21/C
;
_chemical_formula_sum "Si O2"
_cell_formula_units_Z 32
_cell_length_a 12.624084
_cell_length_b 16.003106
_cell_length_c 7.575240
_cell_angle_alpha 90.000000
_cell_angle_beta 59.198490
_cell_angle_gamma 90.000000
_cell_volume 1314.518248
_symmetry_space_group_name_H-M "P 21/C"
_symmetry_group_IT_number 14
_symmetry_cell_setting 'monoclinic'
loop_
_space_group_symop_operation_xyz
x,y,z
-x,1/2+y,1/2-z
-x,-y,-z
x,1/2-y,1/2+z
loop_
_atom_site_type_symbol
_atom_site_label
_atom_site_fract_x
_atom_site_fract_y
_atom_site_fract_z
Si Si1 0.743446 0.209719 0.029502
Si Si2 0.000220 0.187009 0.987538
Si Si3 0.704640 0.865165 0.922321
Si Si4 0.737685 0.673455 0.808794
Si Si5 0.485369 0.620106 0.127765
Si Si6 0.229550 0.612888 0.858950
Si Si7 0.032062 0.124284 0.360429
Si Si8 0.519840 0.052009 0.759254
O O1 0.746699 0.163774 0.840524
O O2 0.864407 0.173736 0.026636
O O3 0.611533 0.189230 0.229074
O O4 0.762142 0.309547 0.008156
O O5 0.118695 0.156262 0.772659
O O6 0.019524 0.287389 0.975608
O O7 0.015556 0.149287 0.168055
O O8 0.719696 0.856990 0.123013
O O9 0.569966 0.904719 0.022702
O O10 0.711940 0.772254 0.838713
O O11 0.828825 0.908668 0.746107
O O12 0.631292 0.637048 0.023616
O O13 0.458991 0.534733 0.253090
O O14 0.471234 0.603811 0.931343
O O15 0.340578 0.549987 0.794603
O O16 0.092065 0.576501 0.983140
#
# Coordination Sequence:
#
# PCOD9245159 Si02
#       8
#     4   4   4   4   4   4   4   4
#     4  11  21  34  54  79 105 134 171 211 255 306
#     4   9  16  29  50  76 103 128 162 208 256 303
#     4   9  18  32  53  79 102 130 168 210 256 305
#     4   9  18  32  53  79 102 130 168 210 256 305
#     4  10  21  37  54  74 104 140 176 214 257 305
#     4  11  21  34  54  79 105 134 171 211 255 306
#     4   9  16  29  50  76 103 128 162 208 256 303
#     4  10  21  37  54  74 104 140 176 214 257 305
#
# _framework density 24.343518
#
# number of rings (size 3 to 8) (size 9 to 14) (size 15 to 20)
#    0.000    2.250    0.000    5.250    0.000    4.500 
#    0.000    1.250    0.000    7.500    0.000    0.000 
#    0.000    0.000    0.000    0.000    0.000    0.000 
#
# Total GULP energy -178841.186353 kJ/mol
# GULP energy per Si atom -5588.787074 kJ/mol
# Density = 2.428811 g / cm^3
# Si number density = 24.343518 Si / 1000 Ang^3
#
#
#
# Elastic Constant Matrix: (Units=GPa)
#
#
# Indices 1 2 3 4 5 6 
#
# 1 78.1086 10.6883 34.0037 0.0000 -28.1007 0.0000
# 2 10.6883 27.1199 29.8410 0.0000 -20.6390 0.0000
# 3 34.0037 29.8410 120.7056 0.0000 -36.5145 0.0000
# 4 0.0000 0.0000 0.0000 -3.3766 0.0000 6.7960
# 5 -28.1007 -20.6390 -36.5145 0.0000 54.1955 0.0000
# 6 0.0000 0.0000 0.0000 6.7960 0.0000 20.3898
#
#
#
# Elastic Compliance Matrix: (Units=1/GPa)
#
#
# Indices 1 2 3 4 5 6 
#
# 1 0.016449 0.002487 -0.002992 0.000000 0.007460 0.000000
# 2 0.002487 0.060552 -0.010430 0.000000 0.017322 0.000000
# 3 -0.002992 -0.010430 0.012604 0.000000 0.002969 0.000000
# 4 0.000000 0.000000 0.000000 -0.177250 0.000000 0.059078
# 5 0.007460 0.017322 0.002969 0.000000 0.030917 0.000000
# 6 0.000000 0.000000 0.000000 0.059078 0.000000 0.029353
#
#
# Mechanical properties :
#
#
# Convention : Reuss Voigt Hill
#
# Bulk Modulus (GPa) = 14.76363 41.66667 28.21515
# Shear Modulus (GPa) = 292.83753 24.33513 158.58633
#
# Velocity S-wave (km/s) = 10.97975 3.16516 8.08001
# Velocity P-wave (km/s) = 12.91580 5.52367 9.93300
#
# Compressibility (1/GPa) = 0.06773402
#
# Stress axis : x y z
#
# Youngs Moduli (GPa) = 60.79508 16.51463 79.33942
#
# Poissons Ratio (x) = -0.04106 0.23736
# Poissons Ratio (y) = -0.15117 0.82754
# Poissons Ratio (z) = 0.18188 0.17225
#
# Static dielectric constant tensor:
#      x y z
#    x 1.971680 0.000000 -0.015890 
#    y 0.000000 1.905900 0.000000 
#    z -0.015890 0.000000 1.974710 
# 
# From -- ./inp_files/16565.got.cif
#   From: 2010.05.17/outbox.cif.g08.bks.cpg/sg14_9_cif.got.tgz:16565.got - 2010.06.03 17:49:19.
