data_PCOD9245541
_publ_section_title
;
Structure prediction by ZEFSAII (Michael W. Deem and Ramdas Pophale) SiO2 
 PCOD9245541
Probable space group: P 21/C
;
_chemical_formula_sum "Si O2"
_cell_formula_units_Z 20
_cell_length_a 8.370313
_cell_length_b 16.889894
_cell_length_c 5.497924
_cell_angle_alpha 90.000000
_cell_angle_beta 83.145735
_cell_angle_gamma 90.000000
_cell_volume 771.706703
_symmetry_space_group_name_H-M "P 21/C"
_symmetry_group_IT_number 14
_symmetry_cell_setting 'monoclinic'
loop_
_space_group_symop_operation_xyz
x,y,z
-x,1/2+y,1/2-z
-x,-y,-z
x,1/2-y,1/2+z
loop_
_atom_site_type_symbol
_atom_site_label
_atom_site_fract_x
_atom_site_fract_y
_atom_site_fract_z
Si Si1 0.909868 0.205272 0.225905
Si Si2 0.701253 0.799157 0.852424
Si Si3 0.913206 0.943463 0.323508
Si Si4 0.209671 0.570858 0.515473
Si Si5 0.387210 0.456411 0.826044
O O1 0.879588 0.239364 0.498238
O O2 0.102874 0.184147 0.183278
O O3 0.784316 0.133064 0.203305
O O4 0.670846 0.743315 0.620245
O O5 0.590548 0.878683 0.847823
O O6 0.755784 0.916538 0.487191
O O7 0.060244 0.893156 0.197383
O O8 0.000000 0.000000 0.500000
O O9 0.848877 0.991697 0.107878
O O10 0.335698 0.531857 0.672131
O O11 0.500000 0.500000 0.000000
#
# Coordination Sequence:
#
# PCOD9245541 Si02
#       5
#     4   4   4   4   4
#     4  10  22  36  64  99 134 172 220 280 346 390
#     4  10  23  42  66  96 133 170 222 278 335 400
#     4   9  19  35  64  88 123 155 219 274 329 374
#     4  10  21  38  62  96 127 168 221 279 323 386
#     4  11  25  42  65  96 130 182 224 268 328 401
#
# _framework density 25.916581000000001
#
# number of rings (size 3 to 8) (size 9 to 14) (size 15 to 20)
#    0.000    2.000    0.000    3.600   16.800    0.800 
#    0.000    2.000    0.000    0.000    0.000    0.000 
#    0.000    0.000    0.000    0.000    0.000    0.000 
#
# Total GULP energy -111470.559600 kJ/mol
# GULP energy per Si atom -5573.527980 kJ/mol
# Density = 2.585759 g / cm^3
# Si number density = 25.916581 Si / 1000 Ang^3
#
#
#
# Elastic Constant Matrix: (Units=GPa)
#
#
# Indices 1 2 3 4 5 6 
#
# 1 58.2521 39.9774 56.4279 0.0000 28.6840 0.0000
# 2 39.9774 141.9783 86.4756 0.0000 42.2944 0.0000
# 3 56.4279 86.4756 188.4915 0.0000 62.7297 0.0000
# 4 0.0000 0.0000 0.0000 71.9473 0.0000 23.4819
# 5 28.6840 42.2944 62.7297 0.0000 71.9675 0.0000
# 6 0.0000 0.0000 0.0000 23.4819 0.0000 16.2401
#
#
#
# Elastic Compliance Matrix: (Units=1/GPa)
#
#
# Indices 1 2 3 4 5 6 
#
# 1 0.026242 -0.003049 -0.005033 0.000000 -0.004281 0.000000
# 2 -0.003049 0.010483 -0.003170 0.000000 -0.002182 0.000000
# 3 -0.005033 -0.003170 0.009830 0.000000 -0.004699 0.000000
# 4 0.000000 0.000000 0.000000 0.026320 0.000000 -0.038056
# 5 -0.004281 -0.002182 -0.004699 0.000000 0.020980 0.000000
# 6 0.000000 0.000000 0.000000 -0.038056 0.000000 0.116601
#
#
# Mechanical properties :
#
#
# Convention : Reuss Voigt Hill
#
# Bulk Modulus (GPa) = 41.57673 83.83151 62.70412
# Shear Modulus (GPa) = 20.74889 45.75372 33.25130
#
# Velocity S-wave (km/s) = 2.83256 4.20625 3.58580
# Velocity P-wave (km/s) = 5.17448 7.48378 6.43359
#
# Compressibility (1/GPa) = 0.02405191
#
# Stress axis : x y z
#
# Youngs Moduli (GPa) = 38.10690 95.39447 101.72539
#
# Poissons Ratio (x) = 0.29081 0.51195
# Poissons Ratio (y) = 0.11617 0.32252
# Poissons Ratio (z) = 0.19178 0.30244
#
# Static dielectric constant tensor:
#      x y z
#    x 2.239060 0.000000 -0.098170 
#    y 0.000000 1.789430 0.000000 
#    z -0.098170 0.000000 2.109760 
# 
# From -- ./inp_files/1159.got.cif
#   From: 2010.05.17/outbox.cif.g08.bks.cpg/sg14_1_cif.got.tgz:1159.got - 2010.06.03 17:49:19.
