data_PCOD9245774
_publ_section_title
;
Structure prediction by ZEFSAII (Michael W. Deem and Ramdas Pophale) SiO2 
 PCOD9245774
Probable space group: P 21/C
;
_chemical_formula_sum "Si O2"
_cell_formula_units_Z 20
_cell_length_a 7.119917
_cell_length_b 8.824931
_cell_length_c 17.068349
_cell_angle_alpha 90.000000
_cell_angle_beta 129.135194
_cell_angle_gamma 90.000000
_cell_volume 831.856713
_symmetry_space_group_name_H-M "P 21/C"
_symmetry_group_IT_number 14
_symmetry_cell_setting 'monoclinic'
loop_
_space_group_symop_operation_xyz
x,y,z
-x,1/2+y,1/2-z
-x,-y,-z
x,1/2-y,1/2+z
loop_
_atom_site_type_symbol
_atom_site_label
_atom_site_fract_x
_atom_site_fract_y
_atom_site_fract_z
Si Si1 0.798083 0.054633 0.711025
Si Si2 0.679066 0.031548 0.346051
Si Si3 0.948953 0.749035 0.471110
Si Si4 0.729035 0.101648 0.191283
Si Si5 0.820568 0.975962 0.060719
O O1 0.547281 0.969624 0.655017
O O2 0.996919 0.958850 0.716748
O O3 0.753775 0.225097 0.671806
O O4 0.922764 0.069278 0.829529
O O5 0.594704 0.076173 0.237007
O O6 0.878312 0.145554 0.431232
O O7 0.790641 0.862333 0.376838
O O8 0.779286 0.652462 0.485388
O O9 0.112868 0.631903 0.465533
O O10 0.663031 0.999869 0.098522
#
# Coordination Sequence:
#
# PCOD9245774 Si02
#       5
#     4   4   4   4   4
#     4  10  23  39  68  88 119 168 212 245 303 369
#     4  11  22  39  69  89 124 162 206 250 315 356
#     4  10  21  39  61  98 128 155 196 269 307 357
#     4  10  21  42  63  92 116 165 214 252 281 388
#     4   9  21  41  64  83 133 160 200 253 307 353
#
# _framework density 24.042604000000001
#
# number of rings (size 3 to 8) (size 9 to 14) (size 15 to 20)
#    1.200    0.800    2.000    1.200    2.800    0.000 
#    0.000   10.000    4.400    0.000    0.000    0.000 
#    0.000    0.000    0.000    0.000    0.000    0.000 
#
# Total GULP energy -111740.122620 kJ/mol
# GULP energy per Si atom -5587.006131 kJ/mol
# Density = 2.398788 g / cm^3
# Si number density = 24.042604 Si / 1000 Ang^3
#
#
#
# Elastic Constant Matrix: (Units=GPa)
#
#
# Indices 1 2 3 4 5 6 
#
# 1 49.3215 18.3674 -5.8054 0.0000 -16.2227 0.0000
# 2 18.3674 85.5758 16.7981 0.0000 -5.1406 0.0000
# 3 -5.8054 16.7981 78.7782 0.0000 -10.7815 0.0000
# 4 0.0000 0.0000 0.0000 31.2390 0.0000 -0.8209
# 5 -16.2227 -5.1406 -10.7815 0.0000 22.0081 0.0000
# 6 0.0000 0.0000 0.0000 -0.8209 0.0000 38.1884
#
#
#
# Elastic Compliance Matrix: (Units=1/GPa)
#
#
# Indices 1 2 3 4 5 6 
#
# 1 0.032110 -0.006788 0.007327 0.000000 0.025673 0.000000
# 2 -0.006788 0.013690 -0.003930 0.000000 -0.003731 0.000000
# 3 0.007327 -0.003930 0.015741 0.000000 0.012194 0.000000
# 4 0.000000 0.000000 0.000000 0.032029 0.000000 0.000688
# 5 0.025673 -0.003731 0.012194 0.000000 0.069464 0.000000
# 6 0.000000 0.000000 0.000000 0.000688 0.000000 0.026201
#
#
# Mechanical properties :
#
#
# Convention : Reuss Voigt Hill
#
# Bulk Modulus (GPa) = 18.26186 30.26617 24.26401
# Shear Modulus (GPa) = 23.33516 30.57478 26.95497
#
# Velocity S-wave (km/s) = 3.11879 3.56995 3.35197
# Velocity P-wave (km/s) = 4.53665 5.44138 5.00948
#
# Compressibility (1/GPa) = 0.05475894
#
# Stress axis : x y z
#
# Youngs Moduli (GPa) = 31.14323 73.04735 63.52946
#
# Poissons Ratio (x) = 0.49584 -0.46550
# Poissons Ratio (y) = 0.21140 0.24967
# Poissons Ratio (z) = -0.22819 0.28707
#
# Static dielectric constant tensor:
#      x y z
#    x 1.956770 0.000000 0.062130 
#    y 0.000000 1.871310 0.000000 
#    z 0.062130 0.000000 1.890540 
# 
# From -- ./inp_files/54719.got.cif
#   From: 2010.05.17/outbox.cif.g08.bks.cpg/sg14_28_cif.got.tgz:54719.got - 2010.06.03 17:49:19.
