data_PCOD9245294
_publ_section_title
;
Structure prediction by ZEFSAII (Michael W. Deem and Ramdas Pophale) SiO2 
 PCOD9245294
Probable space group: P 21/C
;
_chemical_formula_sum "Si O2"
_cell_formula_units_Z 26
_cell_length_a 5.173003
_cell_length_b 25.166989
_cell_length_c 8.018305
_cell_angle_alpha 90.000000
_cell_angle_beta 60.110172
_cell_angle_gamma 90.000000
_cell_volume 905.041018
_symmetry_space_group_name_H-M "P 21/C"
_symmetry_group_IT_number 14
_symmetry_cell_setting 'monoclinic'
loop_
_space_group_symop_operation_xyz
x,y,z
-x,1/2+y,1/2-z
-x,-y,-z
x,1/2-y,1/2+z
loop_
_atom_site_type_symbol
_atom_site_label
_atom_site_fract_x
_atom_site_fract_y
_atom_site_fract_z
Si Si1 0.876493 0.954453 0.821238
Si Si2 0.114718 0.683480 0.845563
Si Si3 0.070743 0.113342 0.898797
Si Si4 0.700162 0.714518 0.499999
Si Si5 0.486375 0.579818 0.999287
Si Si6 0.000000 0.500000 0.000000
Si Si7 0.331123 0.145388 0.274050
O O1 0.161362 0.948044 0.593635
O O2 0.660260 0.906263 0.846608
O O3 0.788667 0.007645 0.757213
O O4 0.004344 0.937771 0.959333
O O5 0.429822 0.711084 0.716765
O O6 0.086550 0.637903 0.713893
O O7 0.871971 0.731166 0.914012
O O8 0.003552 0.656920 0.052298
O O9 0.388426 0.097084 0.717504
O O10 0.089934 0.165880 0.007957
O O11 0.573341 0.694705 0.364636
O O12 0.727601 0.541571 0.010937
O O13 0.484255 0.629996 0.123457
#
# Coordination Sequence:
#
# PCOD9245294 Si02
#       7
#     4   4   4   4   4   2   4
#     4   9  19  37  56  85 113 150 192 242 290 347
#     4  11  24  39  59  90 119 159 204 245 292 353
#     4  10  21  37  62  80 120 160 190 243 297 352
#     4  11  24  39  59  90 119 159 204 245 292 353
#     4   9  19  37  56  85 113 150 192 242 290 347
#     4   8  20  36  60  86 114 148 192 250 290 348
#     4  10  21  37  62  80 120 160 190 243 297 352
#
# _framework density 28.727978
#
# number of rings (size 3 to 8) (size 9 to 14) (size 15 to 20)
#    0.923    1.231    0.000    2.769    0.000   11.077 
#    0.000    0.000    0.000    3.692    0.000    0.000 
#    0.000    0.000    0.000    0.000    0.000    0.000 
#
# Total GULP energy -144969.162550 kJ/mol
# GULP energy per Si atom -5575.737021 kJ/mol
# Density = 2.866259 g / cm^3
# Si number density = 28.727978 Si / 1000 Ang^3
#
#
#
# Elastic Constant Matrix: (Units=GPa)
#
#
# Indices 1 2 3 4 5 6 
#
# 1 118.5751 42.1928 27.5304 0.0000 11.9442 0.0000
# 2 42.1928 129.1777 24.7058 0.0000 10.7791 0.0000
# 3 27.5304 24.7058 128.2857 0.0000 1.9501 0.0000
# 4 0.0000 0.0000 0.0000 45.4912 0.0000 5.3318
# 5 11.9442 10.7791 1.9501 0.0000 50.7256 0.0000
# 6 0.0000 0.0000 0.0000 5.3318 0.0000 48.8991
#
#
#
# Elastic Compliance Matrix: (Units=1/GPa)
#
#
# Indices 1 2 3 4 5 6 
#
# 1 0.009970 -0.002815 -0.001572 0.000000 -0.001689 0.000000
# 2 -0.002815 0.008972 -0.001106 0.000000 -0.001201 0.000000
# 3 -0.001572 -0.001106 0.008341 0.000000 0.000284 0.000000
# 4 0.000000 0.000000 0.000000 0.022267 0.000000 -0.002428
# 5 -0.001689 -0.001201 0.000284 0.000000 0.020356 0.000000
# 6 0.000000 0.000000 0.000000 -0.002428 0.000000 0.020715
#
#
# Mechanical properties :
#
#
# Convention : Reuss Voigt Hill
#
# Bulk Modulus (GPa) = 61.35398 62.76625 62.06011
# Shear Modulus (GPa) = 46.71187 47.79714 47.25451
#
# Velocity S-wave (km/s) = 4.03675 4.08338 4.06013
# Velocity P-wave (km/s) = 6.56737 6.64288 6.60523
#
# Compressibility (1/GPa) = 0.01629886
#
# Stress axis : x y z
#
# Youngs Moduli (GPa) = 100.29875 111.45283 119.88946
#
# Poissons Ratio (x) = 0.31374 0.18845
# Poissons Ratio (y) = 0.28234 0.13255
# Poissons Ratio (z) = 0.15765 0.12322
#
# Static dielectric constant tensor:
#      x y z
#    x 2.313490 0.000000 0.007620 
#    y 0.000000 2.297160 0.000000 
#    z 0.007620 0.000000 2.435910 
# 
# From -- ./inp_files/6745.got.cif
#   From: 2010.05.17/outbox.cif.g08.bks.cpg/sg14_4_cif.got.tgz:6745.got - 2010.06.03 17:49:19.
