data_PCOD9245888
_publ_section_title
;
Structure prediction by ZEFSAII (Michael W. Deem and Ramdas Pophale) SiO2 
 PCOD9245888
Probable space group: P 21/C
;
_chemical_formula_sum "Si O2"
_cell_formula_units_Z 28
_cell_length_a 8.483701
_cell_length_b 27.613283
_cell_length_c 5.171924
_cell_angle_alpha 90.000000
_cell_angle_beta 83.531954
_cell_angle_gamma 90.000000
_cell_volume 1203.877619
_symmetry_space_group_name_H-M "P 21/C"
_symmetry_group_IT_number 14
_symmetry_cell_setting 'monoclinic'
loop_
_space_group_symop_operation_xyz
x,y,z
-x,1/2+y,1/2-z
-x,-y,-z
x,1/2-y,1/2+z
loop_
_atom_site_type_symbol
_atom_site_label
_atom_site_fract_x
_atom_site_fract_y
_atom_site_fract_z
Si Si1 0.752011 0.618667 0.882456
Si Si2 0.945798 0.543494 0.186822
Si Si3 0.378734 0.455447 0.484322
Si Si4 0.508084 0.138823 0.243421
Si Si5 0.833020 0.118234 0.431259
Si Si6 0.664697 0.278871 0.378887
Si Si7 0.953572 0.161830 0.917935
O O1 0.649407 0.575183 0.772899
O O2 0.863169 0.649024 0.667596
O O3 0.868155 0.588107 0.045046
O O4 0.643516 0.654935 0.063965
O O5 0.803482 0.529856 0.405307
O O6 0.112456 0.568761 0.223721
O O7 0.000000 0.500000 0.000000
O O8 0.500000 0.500000 0.500000
O O9 0.450269 0.412487 0.644020
O O10 0.651206 0.128247 0.410366
O O11 0.569492 0.175070 0.011481
O O12 0.867963 0.124058 0.729314
O O13 0.921361 0.156546 0.228323
O O14 0.628668 0.237156 0.595453
O O15 0.853317 0.290982 0.358505
#
# Coordination Sequence:
#
# PCOD9245888 Si02
#       7
#     4   4   4   4   4   4   4
#     4  10  23  42  62  93 137 182 223 275 348 398
#     4  10  23  38  57  90 130 179 235 282 321 393
#     4  11  25  40  63  98 139 186 235 280 341 412
#     4  10  25  41  67  97 138 179 217 291 348 412
#     4  10  21  39  64  93 124 183 221 267 337 397
#     4  11  24  44  72 105 129 170 230 284 344 420
#     4  10  21  43  67  93 131 170 219 275 334 405
#
# _framework density 23.258178999999998
#
# number of rings (size 3 to 8) (size 9 to 14) (size 15 to 20)
#    0.000    1.714    1.429    1.714   10.000    4.000 
#    0.000    1.429    0.000    0.000    0.000    0.000 
#    0.000    0.000    0.000    0.000    0.000    0.000 
#
# Total GULP energy -155967.827711 kJ/mol
# GULP energy per Si atom -5570.279561 kJ/mol
# Density = 2.320524 g / cm^3
# Si number density = 23.258179 Si / 1000 Ang^3
#
#
#
# Elastic Constant Matrix: (Units=GPa)
#
#
# Indices 1 2 3 4 5 6 
#
# 1 60.8182 29.7688 24.1355 0.0000 -24.8934 0.0000
# 2 29.7688 67.4311 12.4659 0.0000 -16.3536 0.0000
# 3 24.1355 12.4659 76.5249 0.0000 -5.6203 0.0000
# 4 0.0000 0.0000 0.0000 33.9949 0.0000 -1.0448
# 5 -24.8934 -16.3536 -5.6203 0.0000 39.9703 0.0000
# 6 0.0000 0.0000 0.0000 -1.0448 0.0000 34.4671
#
#
#
# Elastic Compliance Matrix: (Units=1/GPa)
#
#
# Indices 1 2 3 4 5 6 
#
# 1 0.028628 -0.008107 -0.006712 0.000000 0.013569 0.000000
# 2 -0.008107 0.019138 -0.000360 0.000000 0.002731 0.000000
# 3 -0.006712 -0.000360 0.015081 0.000000 -0.002207 0.000000
# 4 0.000000 0.000000 0.000000 0.029444 0.000000 0.000892
# 5 0.013569 0.002731 -0.002207 0.000000 0.034276 0.000000
# 6 0.000000 0.000000 0.000000 0.000892 0.000000 0.029040
#
#
# Mechanical properties :
#
#
# Convention : Reuss Voigt Hill
#
# Bulk Modulus (GPa) = 30.77972 37.50161 34.14067
# Shear Modulus (GPa) = 25.40731 30.91342 28.16037
#
# Velocity S-wave (km/s) = 3.30874 3.64970 3.48339
# Velocity P-wave (km/s) = 5.27823 5.82404 5.55784
#
# Compressibility (1/GPa) = 0.03248892
#
# Stress axis : x y z
#
# Youngs Moduli (GPa) = 34.93099 52.25302 66.30808
#
# Poissons Ratio (x) = 0.42360 0.44505
# Poissons Ratio (y) = 0.28318 0.02388
# Poissons Ratio (z) = 0.23445 0.01882
#
# Static dielectric constant tensor:
#      x y z
#    x 2.056930 0.000000 -0.003820 
#    y 0.000000 1.937420 0.000000 
#    z -0.003820 0.000000 1.943140 
# 
# From -- ./inp_files/1878.got.cif
#   From: 2010.05.17/outbox.cif.g08.bks.cpg/sg14_1_cif.got.tgz:1878.got - 2010.06.03 17:49:19.
