data_PCOD9245506
_publ_section_title
;
Structure prediction by ZEFSAII (Michael W. Deem and Ramdas Pophale) SiO2 
 PCOD9245506
Probable space group: P 21/C
;
_chemical_formula_sum "Si O2"
_cell_formula_units_Z 20
_cell_length_a 9.228465
_cell_length_b 5.309556
_cell_length_c 15.608976
_cell_angle_alpha 90.000000
_cell_angle_beta 102.911249
_cell_angle_gamma 90.000000
_cell_volume 745.488214
_symmetry_space_group_name_H-M "P 21/C"
_symmetry_group_IT_number 14
_symmetry_cell_setting 'monoclinic'
loop_
_space_group_symop_operation_xyz
x,y,z
-x,1/2+y,1/2-z
-x,-y,-z
x,1/2-y,1/2+z
loop_
_atom_site_type_symbol
_atom_site_label
_atom_site_fract_x
_atom_site_fract_y
_atom_site_fract_z
Si Si1 0.389346 0.186724 0.153151
Si Si2 0.524425 0.819570 0.640258
Si Si3 0.194111 0.875833 0.353381
Si Si4 0.148655 0.522939 0.195268
Si Si5 0.099059 0.746606 0.519063
O O1 0.475012 0.173292 0.255435
O O2 0.444350 0.941784 0.109168
O O3 0.227131 0.273588 0.167126
O O4 0.436177 0.428351 0.103412
O O5 0.692544 0.891169 0.636858
O O6 0.220416 0.654868 0.287523
O O7 0.199398 0.759629 0.448508
O O8 0.025443 0.969776 0.313216
O O9 0.165990 0.728575 0.122147
O O10 0.000000 0.500000 0.500000
O O11 0.000000 0.000000 0.500000
#
# Coordination Sequence:
#
# PCOD9245506 Si02
#       5
#     4   4   4   4   4
#     4  10  21  38  61  94 134 177 224 278 343 412
#     4  10  21  38  61  94 134 177 224 278 343 412
#     4  11  22  40  71 104 137 184 238 292 352 424
#     4  11  22  40  71 104 137 184 238 292 352 424
#     4  10  24  42  62 100 147 180 224 298 363 410
#
# _framework density 26.828054999999999
#
# number of rings (size 3 to 8) (size 9 to 14) (size 15 to 20)
#    0.000    1.600    0.000    6.000    0.000    9.600 
#    0.000    2.000    0.000    0.000    0.000   19.600 
#    0.000    0.000    0.000    0.000    0.000    0.000 
#
# Total GULP energy -111893.194127 kJ/mol
# GULP energy per Si atom -5594.659706 kJ/mol
# Density = 2.676699 g / cm^3
# Si number density = 26.828055 Si / 1000 Ang^3
#
#
#
# Elastic Constant Matrix: (Units=GPa)
#
#
# Indices 1 2 3 4 5 6 
#
# 1 185.7735 93.1574 16.0881 0.0000 -30.2544 0.0000
# 2 93.1574 265.2155 55.4086 0.0000 -16.6194 0.0000
# 3 16.0881 55.4086 135.4913 0.0000 -11.1219 0.0000
# 4 0.0000 0.0000 0.0000 32.2183 0.0000 -5.9473
# 5 -30.2544 -16.6194 -11.1219 0.0000 26.8827 0.0000
# 6 0.0000 0.0000 0.0000 -5.9473 0.0000 55.0776
#
#
#
# Elastic Compliance Matrix: (Units=1/GPa)
#
#
# Indices 1 2 3 4 5 6 
#
# 1 0.007749 -0.002391 0.000675 0.000000 0.007521 0.000000
# 2 -0.002391 0.004958 -0.001773 0.000000 -0.000360 0.000000
# 3 0.000675 -0.001773 0.008279 0.000000 0.003089 0.000000
# 4 0.000000 0.000000 0.000000 0.031670 0.000000 0.003420
# 5 0.007521 -0.000360 0.003089 0.000000 0.046719 0.000000
# 6 0.000000 0.000000 0.000000 0.003420 0.000000 0.018525
#
#
# Mechanical properties :
#
#
# Convention : Reuss Voigt Hill
#
# Bulk Modulus (GPa) = 71.39187 101.75427 86.57307
# Shear Modulus (GPa) = 38.59577 50.95746 44.77662
#
# Velocity S-wave (km/s) = 3.79705 4.36295 4.08980
# Velocity P-wave (km/s) = 6.77437 7.96185 7.39200
#
# Compressibility (1/GPa) = 0.01400720
#
# Stress axis : x y z
#
# Youngs Moduli (GPa) = 129.05702 201.67544 120.78600
#
# Poissons Ratio (x) = 0.48230 -0.08157
# Poissons Ratio (y) = 0.30863 0.21419
# Poissons Ratio (z) = -0.08715 0.35763
#
# Static dielectric constant tensor:
#      x y z
#    x 2.210530 0.000000 0.050690 
#    y 0.000000 2.648220 0.000000 
#    z 0.050690 0.000000 2.079420 
# 
# From -- ./inp_files/54001.got.cif
#   From: 2010.05.17/outbox.cif.g08.bks.cpg/sg14_28_cif.got.tgz:54001.got - 2010.06.03 17:49:19.
