data_PCOD9245095
_publ_section_title
;
Structure prediction by ZEFSAII (Michael W. Deem and Ramdas Pophale) SiO2 
 PCOD9245095
Probable space group: P 21/C
;
_chemical_formula_sum "Si O2"
_cell_formula_units_Z 32
_cell_length_a 14.829653
_cell_length_b 21.903634
_cell_length_c 8.886579
_cell_angle_alpha 90.000000
_cell_angle_beta 36.363253
_cell_angle_gamma 90.000000
_cell_volume 1711.453409
_symmetry_space_group_name_H-M "P 21/C"
_symmetry_group_IT_number 14
_symmetry_cell_setting 'monoclinic'
loop_
_space_group_symop_operation_xyz
x,y,z
-x,1/2+y,1/2-z
-x,-y,-z
x,1/2-y,1/2+z
loop_
_atom_site_type_symbol
_atom_site_label
_atom_site_fract_x
_atom_site_fract_y
_atom_site_fract_z
Si Si1 0.603835 0.680173 0.773777
Si Si2 0.414273 0.935673 0.613109
Si Si3 0.728957 0.348535 0.465313
Si Si4 0.910466 0.437243 0.615279
Si Si5 0.007095 0.176044 0.813260
Si Si6 0.911496 0.775474 0.977159
Si Si7 0.821240 0.351585 0.007288
Si Si8 0.548754 0.265717 0.279595
O O1 0.768216 0.682913 0.628307
O O2 0.593230 0.707026 0.620801
O O3 0.522656 0.614879 0.890187
O O4 0.505010 0.727033 0.006219
O O5 0.253811 0.943154 0.743288
O O6 0.500000 0.000000 0.500000
O O7 0.370946 0.903567 0.831030
O O8 0.633913 0.286639 0.568279
O O9 0.848164 0.329205 0.435948
O O10 0.804413 0.366549 0.205810
O O11 0.873868 0.406087 0.825980
O O12 0.000000 0.500000 0.500000
O O13 0.014650 0.390794 0.377080
O O14 0.116978 0.206489 0.541773
O O15 0.032952 0.217182 0.927326
O O16 0.051671 0.800216 0.690237
O O17 0.664948 0.320309 0.159813
#
# Coordination Sequence:
#
# PCOD9245095 Si02
#       8
#     4   4   4   4   4   4   4   4
#     4  11  23  38  59  93 128 158 200 257 316 382
#     4  10  23  41  64  84 123 172 213 251 312 376
#     4  10  21  38  64  94 119 162 209 258 313 378
#     4  10  23  42  64  88 120 168 221 254 308 375
#     4  10  21  36  60  91 121 160 201 256 312 369
#     4  11  22  34  59  93 128 154 200 256 325 365
#     4  11  21  37  67  91 123 159 208 261 311 372
#     4  11  20  36  60  90 122 157 200 247 317 381
#
# _framework density 18.697558000000001
#
# number of rings (size 3 to 8) (size 9 to 14) (size 15 to 20)
#    0.000    1.500    3.750    1.500    7.000    0.000 
#    0.000    3.125    5.500    0.000    0.000    0.000 
#    0.000    0.000    0.000    0.000    0.000    0.000 
#
# Total GULP energy -178278.026528 kJ/mol
# GULP energy per Si atom -5571.188329 kJ/mol
# Density = 1.865500 g / cm^3
# Si number density = 18.697558 Si / 1000 Ang^3
#
#
#
# Elastic Constant Matrix: (Units=GPa)
#
#
# Indices 1 2 3 4 5 6 
#
# 1 108.1036 60.8860 33.9887 0.0000 6.0344 0.0000
# 2 60.8860 129.0166 39.2991 0.0000 18.1108 0.0000
# 3 33.9887 39.2991 43.0385 0.0000 4.3779 0.0000
# 4 0.0000 0.0000 0.0000 35.9095 0.0000 -9.5589
# 5 6.0344 18.1108 4.3779 0.0000 23.9886 0.0000
# 6 0.0000 0.0000 0.0000 -9.5589 0.0000 23.3720
#
#
#
# Elastic Compliance Matrix: (Units=1/GPa)
#
#
# Indices 1 2 3 4 5 6 
#
# 1 0.013983 -0.004674 -0.006904 0.000000 0.001272 0.000000
# 2 -0.004674 0.013373 -0.007756 0.000000 -0.007505 0.000000
# 3 -0.006904 -0.007756 0.035659 0.000000 0.001085 0.000000
# 4 0.000000 0.000000 0.000000 0.031250 0.000000 0.012781
# 5 0.001272 -0.007505 0.001085 0.000000 0.046835 0.000000
# 6 0.000000 0.000000 0.000000 0.012781 0.000000 0.048013
#
#
# Mechanical properties :
#
#
# Convention : Reuss Voigt Hill
#
# Bulk Modulus (GPa) = 41.07409 60.94513 51.00961
# Shear Modulus (GPa) = 21.19576 26.38635 23.79105
#
# Velocity S-wave (km/s) = 3.37057 3.76070 3.57096
# Velocity P-wave (km/s) = 6.09614 7.17796 6.65906
#
# Compressibility (1/GPa) = 0.02434625
#
# Stress axis : x y z
#
# Youngs Moduli (GPa) = 71.51724 74.77772 28.04353
#
# Poissons Ratio (x) = 0.34954 0.19360
# Poissons Ratio (y) = 0.33430 0.21751
# Poissons Ratio (z) = 0.49372 0.57999
#
# Static dielectric constant tensor:
#      x y z
#    x 1.667390 0.000000 0.011820 
#    y 0.000000 1.654160 0.000000 
#    z 0.011820 0.000000 1.682710 
# 
# From -- ./inp_files/10716.got.cif
#   From: 2010.05.17/outbox.cif.g08.bks.cpg/sg14_6_cif.got.tgz:10716.got - 2010.06.03 17:49:19.
