data_PCOD9245648
_publ_section_title
;
Structure prediction by ZEFSAII (Michael W. Deem and Ramdas Pophale) SiO2 
 PCOD9245648
Probable space group: P 21/C
;
_chemical_formula_sum "Si O2"
_cell_formula_units_Z 32
_cell_length_a 20.164238
_cell_length_b 8.950740
_cell_length_c 9.582799
_cell_angle_alpha 90.000000
_cell_angle_beta 108.726819
_cell_angle_gamma 90.000000
_cell_volume 1637.987851
_symmetry_space_group_name_H-M "P 21/C"
_symmetry_group_IT_number 14
_symmetry_cell_setting 'monoclinic'
loop_
_space_group_symop_operation_xyz
x,y,z
-x,1/2+y,1/2-z
-x,-y,-z
x,1/2-y,1/2+z
loop_
_atom_site_type_symbol
_atom_site_label
_atom_site_fract_x
_atom_site_fract_y
_atom_site_fract_z
Si Si1 0.874058 0.426530 0.444183
Si Si2 0.255128 0.788506 0.586528
Si Si3 0.348203 0.832559 0.911256
Si Si4 0.079160 0.216754 0.883301
Si Si5 0.446503 0.439241 0.579084
Si Si6 0.139409 0.979402 0.385581
Si Si7 0.018000 0.808720 0.435927
Si Si8 0.477137 0.631698 0.878306
O O1 0.803510 0.341480 0.440645
O O2 0.879689 0.594112 0.500951
O O3 0.878663 0.415382 0.279599
O O4 0.942321 0.348922 0.557810
O O5 0.286312 0.830334 0.756808
O O6 0.318490 0.738348 0.532055
O O7 0.214270 0.923462 0.485657
O O8 0.411057 0.726872 0.894393
O O9 0.373752 0.000090 0.965781
O O10 0.131496 0.344939 0.870896
O O11 0.038671 0.157584 0.720524
O O12 0.020177 0.289849 0.943265
O O13 0.500000 0.500000 0.500000
O O14 0.458876 0.539073 0.726018
O O15 0.535687 0.737061 0.390927
O O16 0.082816 0.920194 0.460076
O O17 0.500000 0.500000 0.000000
#
# Coordination Sequence:
#
# PCOD9245648 Si02
#       8
#     4   4   4   4   4   4   4   4
#     4  11  23  41  60  87 126 156 208 273 315 384
#     4  11  24  43  67  86 124 177 217 251 313 380
#     4  11  22  43  68  93 128 174 218 260 312 383
#     4  12  22  38  61  86 124 153 205 266 334 383
#     4  10  21  38  66  99 136 168 208 261 319 364
#     4  11  23  40  60  89 119 162 209 265 318 384
#     4  11  22  37  63  87 115 159 200 263 336 394
#     4  11  23  41  68 105 138 168 211 266 318 367
#
# _framework density 19.536163999999999
#
# number of rings (size 3 to 8) (size 9 to 14) (size 15 to 20)
#    0.000    1.000    5.000    3.000    1.750    1.000 
#    0.000    2.500    0.000    0.000    0.000    0.000 
#    0.000    0.000    0.000    0.000    0.000    0.000 
#
# Total GULP energy -178513.204327 kJ/mol
# GULP energy per Si atom -5578.537635 kJ/mol
# Density = 1.949170 g / cm^3
# Si number density = 19.536164 Si / 1000 Ang^3
#
#
#
# Elastic Constant Matrix: (Units=GPa)
#
#
# Indices 1 2 3 4 5 6 
#
# 1 57.2928 30.2288 7.5415 0.0000 0.9310 0.0000
# 2 30.2288 87.8037 15.9010 0.0000 4.1403 0.0000
# 3 7.5415 15.9010 89.2091 0.0000 5.1259 0.0000
# 4 0.0000 0.0000 0.0000 29.9306 0.0000 -6.7709
# 5 0.9310 4.1403 5.1259 0.0000 27.8829 0.0000
# 6 0.0000 0.0000 0.0000 -6.7709 0.0000 -15.5299
#
#
#
# Elastic Compliance Matrix: (Units=1/GPa)
#
#
# Indices 1 2 3 4 5 6 
#
# 1 0.021357 -0.007278 -0.000535 0.000000 0.000466 0.000000
# 2 -0.007278 0.014301 -0.001845 0.000000 -0.001541 0.000000
# 3 -0.000535 -0.001845 0.011690 0.000000 -0.001857 0.000000
# 4 0.000000 0.000000 0.000000 0.030411 0.000000 -0.013259
# 5 0.000466 -0.001541 -0.001857 0.000000 0.036419 0.000000
# 6 0.000000 0.000000 0.000000 -0.013259 0.000000 -0.058611
#
#
# Mechanical properties :
#
#
# Convention : Reuss Voigt Hill
#
# Bulk Modulus (GPa) = 35.67268 37.96088 36.81678
# Shear Modulus (GPa) = 59.36241 20.49902 39.93071
#
# Velocity S-wave (km/s) = 5.51832 3.24278 4.52590
# Velocity P-wave (km/s) = 7.67476 5.78741 6.79691
#
# Compressibility (1/GPa) = 0.02803266
#
# Stress axis : x y z
#
# Youngs Moduli (GPa) = 46.82319 69.92281 85.53960
#
# Poissons Ratio (x) = 0.50888 0.04576
# Poissons Ratio (y) = 0.34077 0.15785
# Poissons Ratio (z) = 0.02505 0.12903
#
# Static dielectric constant tensor:
#      x y z
#    x 1.694270 0.000000 0.001660 
#    y 0.000000 1.718570 0.000000 
#    z 0.001660 0.000000 1.682110 
# 
# From -- ./inp_files/18634.got.cif
#   From: 2010.05.17/outbox.cif.g08.bks.cpg/sg14_10_cif.got.tgz:18634.got - 2010.06.03 17:49:19.
