data_PCOD9245245
_publ_section_title
;
Structure prediction by ZEFSAII (Michael W. Deem and Ramdas Pophale) SiO2 
 PCOD9245245
Probable space group: P 21/C
;
_chemical_formula_sum "Si O2"
_cell_formula_units_Z 20
_cell_length_a 22.020451
_cell_length_b 5.193031
_cell_length_c 9.708081
_cell_angle_alpha 90.000000
_cell_angle_beta 142.556829
_cell_angle_gamma 90.000000
_cell_volume 674.940819
_symmetry_space_group_name_H-M "P 21/C"
_symmetry_group_IT_number 14
_symmetry_cell_setting 'monoclinic'
loop_
_space_group_symop_operation_xyz
x,y,z
-x,1/2+y,1/2-z
-x,-y,-z
x,1/2-y,1/2+z
loop_
_atom_site_type_symbol
_atom_site_label
_atom_site_fract_x
_atom_site_fract_y
_atom_site_fract_z
Si Si1 0.179525 0.731024 0.132988
Si Si2 0.022556 0.250099 0.133813
Si Si3 0.775888 0.766750 0.603709
Si Si4 0.621196 0.302683 0.148931
Si Si5 0.423645 0.026291 0.703560
O O1 0.204030 0.481487 0.267487
O O2 0.261853 0.739991 0.161848
O O3 0.199601 0.980687 0.263112
O O4 0.059798 0.737767 0.892781
O O5 0.142212 0.247026 0.371770
O O6 0.000000 0.500000 0.000000
O O7 0.000000 0.000000 0.000000
O O8 0.657760 0.792337 0.365150
O O9 0.535648 0.110504 0.934112
O O10 0.602071 0.528776 0.004148
O O11 0.598457 0.252558 0.267830
#
# Coordination Sequence:
#
# PCOD9245245 Si02
#       5
#     4   4   4   4   4
#     4   9  17  32  55  84 118 155 203 254 306 366
#     4   8  14  26  50  80 111 150 196 247 300 358
#     4   9  17  32  55  84 117 156 201 253 308 366
#     4  10  21  37  59  90 125 168 213 264 321 381
#     4  10  21  37  59  90 129 169 215 266 322 384
#
# _framework density 29.632225999999999
#
# number of rings (size 3 to 8) (size 9 to 14) (size 15 to 20)
#    0.000    2.800    0.000    1.200    0.000    0.800 
#    0.000   12.000    0.000   21.600    0.000    0.000 
#    0.000    0.000    0.000    6.000    0.000    0.000 
#
# Total GULP energy -111995.336454 kJ/mol
# GULP energy per Si atom -5599.766823 kJ/mol
# Density = 2.956478 g / cm^3
# Si number density = 29.632226 Si / 1000 Ang^3
#
#
#
# Elastic Constant Matrix: (Units=GPa)
#
#
# Indices 1 2 3 4 5 6 
#
# 1 205.4025 30.4473 89.5133 0.0000 51.7820 0.0000
# 2 30.4473 143.0060 58.0234 0.0000 2.4097 0.0000
# 3 89.5133 58.0234 156.2351 0.0000 32.5078 0.0000
# 4 0.0000 0.0000 0.0000 46.8989 0.0000 14.6016
# 5 51.7820 2.4097 32.5078 0.0000 79.3133 0.0000
# 6 0.0000 0.0000 0.0000 14.6016 0.0000 35.7870
#
#
#
# Elastic Compliance Matrix: (Units=1/GPa)
#
#
# Indices 1 2 3 4 5 6 
#
# 1 0.007197 -0.000097 -0.003400 0.000000 -0.003302 0.000000
# 2 -0.000097 0.008323 -0.003275 0.000000 0.001153 0.000000
# 3 -0.003400 -0.003275 0.009929 0.000000 -0.001750 0.000000
# 4 0.000000 0.000000 0.000000 0.024425 0.000000 -0.009966
# 5 -0.003302 0.001153 -0.001750 0.000000 0.015447 0.000000
# 6 0.000000 0.000000 0.000000 -0.009966 0.000000 0.032009
#
#
# Mechanical properties :
#
#
# Convention : Reuss Voigt Hill
#
# Bulk Modulus (GPa) = 84.00531 95.62351 89.81441
# Shear Modulus (GPa) = 43.53727 54.17715 48.85721
#
# Velocity S-wave (km/s) = 3.83724 4.28052 4.06493
# Velocity P-wave (km/s) = 6.93134 7.53463 7.23927
#
# Compressibility (1/GPa) = 0.01190401
#
# Stress axis : x y z
#
# Youngs Moduli (GPa) = 138.94121 120.15099 100.71083
#
# Poissons Ratio (x) = 0.01166 0.34247
# Poissons Ratio (y) = 0.01348 0.32986
# Poissons Ratio (z) = 0.47247 0.39353
#
# Static dielectric constant tensor:
#      x y z
#    x 2.307190 0.000000 0.117340 
#    y 0.000000 2.364130 0.000000 
#    z 0.117340 0.000000 2.293140 
# 
# From -- ./inp_files/34623.got.cif
#   From: 2010.05.17/outbox.cif.g08.bks.cpg/sg14_18_cif.got.tgz:34623.got - 2010.06.03 17:49:19.
