data_PCOD9245468
_publ_section_title
;
Structure prediction by ZEFSAII (Michael W. Deem and Ramdas Pophale) SiO2 
 PCOD9245468
Probable space group: P 21/C
;
_chemical_formula_sum "Si O2"
_cell_formula_units_Z 28
_cell_length_a 9.657568
_cell_length_b 7.338260
_cell_length_c 18.600219
_cell_angle_alpha 90.000000
_cell_angle_beta 90.950412
_cell_angle_gamma 90.000000
_cell_volume 1318.011427
_symmetry_space_group_name_H-M "P 21/C"
_symmetry_group_IT_number 14
_symmetry_cell_setting 'monoclinic'
loop_
_space_group_symop_operation_xyz
x,y,z
-x,1/2+y,1/2-z
-x,-y,-z
x,1/2-y,1/2+z
loop_
_atom_site_type_symbol
_atom_site_label
_atom_site_fract_x
_atom_site_fract_y
_atom_site_fract_z
Si Si1 0.516781 0.392047 0.587868
Si Si2 0.834865 0.350447 0.564889
Si Si3 0.111917 0.448444 0.942114
Si Si4 0.480214 0.510313 0.828112
Si Si5 0.399808 0.158374 0.469412
Si Si6 0.932396 0.369237 0.399267
Si Si7 0.653825 0.338831 0.315134
O O1 0.682880 0.419539 0.585877
O O2 0.434919 0.554430 0.624946
O O3 0.458642 0.332298 0.509665
O O4 0.487189 0.205472 0.634658
O O5 0.858180 0.359497 0.478068
O O6 0.964444 0.459116 0.598325
O O7 0.839169 0.140040 0.589020
O O8 0.239632 0.361253 0.986477
O O9 0.035882 0.302298 0.892397
O O10 0.000000 0.500000 0.000000
O O11 0.390682 0.561727 0.758307
O O12 0.608999 0.375118 0.811313
O O13 0.399894 0.116740 0.384772
O O14 0.500000 0.000000 0.500000
O O15 0.812271 0.362919 0.339708
#
# Coordination Sequence:
#
# PCOD9245468 Si02
#       7
#     4   4   4   4   4   4   4
#     4  11  24  41  72  99 127 171 227 276 328 384
#     4  10  21  42  62  99 132 165 215 278 311 395
#     4  10  21  38  60  94 137 165 204 271 325 380
#     4  11  24  44  66  95 132 169 228 275 327 391
#     4  10  21  40  70  98 127 169 228 270 324 388
#     4  10  25  38  62  98 134 169 214 258 342 387
#     4  12  26  44  67  95 133 178 218 277 337 400
#
# _framework density 21.244123999999999
#
# number of rings (size 3 to 8) (size 9 to 14) (size 15 to 20)
#    0.000    1.429    4.286    0.857   14.000    1.143 
#    0.000    1.429    0.000    0.000    0.000    0.000 
#    0.000    0.000    0.000    0.000    0.000    0.000 
#
# Total GULP energy -156292.134019 kJ/mol
# GULP energy per Si atom -5581.861929 kJ/mol
# Density = 2.119577 g / cm^3
# Si number density = 21.244124 Si / 1000 Ang^3
#
#
#
# Elastic Constant Matrix: (Units=GPa)
#
#
# Indices 1 2 3 4 5 6 
#
# 1 147.0734 48.5597 38.1708 0.0000 38.3989 0.0000
# 2 48.5597 128.8075 25.5588 0.0000 25.1400 0.0000
# 3 38.1708 25.5588 92.5269 0.0000 25.0907 0.0000
# 4 0.0000 0.0000 0.0000 27.5953 0.0000 0.1720
# 5 38.3989 25.1400 25.0907 0.0000 32.4449 0.0000
# 6 0.0000 0.0000 0.0000 0.1720 0.0000 36.0937
#
#
#
# Elastic Compliance Matrix: (Units=1/GPa)
#
#
# Indices 1 2 3 4 5 6 
#
# 1 0.010242 -0.001703 -0.001045 0.000000 -0.009994 0.000000
# 2 -0.001703 0.009473 -0.000595 0.000000 -0.004864 0.000000
# 3 -0.001045 -0.000595 0.013846 0.000000 -0.009010 0.000000
# 4 0.000000 0.000000 0.000000 0.036239 0.000000 -0.000173
# 5 -0.009994 -0.004864 -0.009010 0.000000 0.053386 0.000000
# 6 0.000000 0.000000 0.000000 -0.000173 0.000000 0.027707
#
#
# Mechanical properties :
#
#
# Convention : Reuss Voigt Hill
#
# Bulk Modulus (GPa) = 37.20868 65.88736 51.54802
# Shear Modulus (GPa) = 30.02314 36.30135 33.16225
#
# Velocity S-wave (km/s) = 3.76339 4.13821 3.95525
# Velocity P-wave (km/s) = 6.03631 7.34267 6.72130
#
# Compressibility (1/GPa) = 0.02687545
#
# Stress axis : x y z
#
# Youngs Moduli (GPa) = 97.63586 105.56186 72.22112
#
# Poissons Ratio (x) = 0.17981 0.07545
# Poissons Ratio (y) = 0.16631 0.04297
# Poissons Ratio (z) = 0.10200 0.06281
#
# Static dielectric constant tensor:
#      x y z
#    x 1.720580 0.000000 -0.045190 
#    y 0.000000 1.869750 0.000000 
#    z -0.045190 0.000000 1.824580 
# 
# From -- ./inp_files/54919.got.cif
#   From: 2010.05.17/outbox.cif.g08.bks.cpg/sg14_28_cif.got.tgz:54919.got - 2010.06.03 17:49:19.
