data_PCOD9245807
_publ_section_title
;
Structure prediction by ZEFSAII (Michael W. Deem and Ramdas Pophale) SiO2 
 PCOD9245807
Probable space group: P 21/C
;
_chemical_formula_sum "Si O2"
_cell_formula_units_Z 28
_cell_length_a 19.008855
_cell_length_b 7.537702
_cell_length_c 10.866944
_cell_angle_alpha 90.000000
_cell_angle_beta 48.751806
_cell_angle_gamma 90.000000
_cell_volume 1170.683971
_symmetry_space_group_name_H-M "P 21/C"
_symmetry_group_IT_number 14
_symmetry_cell_setting 'monoclinic'
loop_
_space_group_symop_operation_xyz
x,y,z
-x,1/2+y,1/2-z
-x,-y,-z
x,1/2-y,1/2+z
loop_
_atom_site_type_symbol
_atom_site_label
_atom_site_fract_x
_atom_site_fract_y
_atom_site_fract_z
Si Si1 0.786226 0.074190 0.532951
Si Si2 0.415584 0.698480 0.708862
Si Si3 0.147014 0.422850 0.786452
Si Si4 0.051609 0.820937 0.210447
Si Si5 0.717275 0.687372 0.564211
Si Si6 0.514674 0.708028 0.344461
Si Si7 0.890680 0.613678 0.516427
O O1 0.696661 0.199565 0.656330
O O2 0.869315 0.170812 0.366235
O O3 0.829649 0.017646 0.613266
O O4 0.746195 0.894737 0.519034
O O5 0.456176 0.766186 0.531952
O O6 0.448953 0.492382 0.676433
O O7 0.457401 0.783930 0.783870
O O8 0.075637 0.535205 0.787665
O O9 0.244952 0.407813 0.600588
O O10 0.109449 0.225346 0.859025
O O11 0.951748 0.739080 0.354553
O O12 0.068422 0.920436 0.060691
O O13 0.608837 0.677119 0.718252
O O14 0.783413 0.613729 0.596010
#
# Coordination Sequence:
#
# PCOD9245807 Si02
#       7
#     4   4   4   4   4   4   4
#     4  10  23  42  63  96 130 170 222 272 333 398
#     4  10  24  42  67  98 134 176 224 277 333 396
#     4  10  22  40  66  90 132 173 216 269 332 389
#     4  11  23  41  66  94 132 168 215 273 325 400
#     4   9  21  39  62  89 129 169 215 271 325 394
#     4  10  23  41  67  97 134 176 221 276 334 393
#     4  10  21  39  62  95 125 171 213 262 329 390
#
# _framework density 23.917642000000001
#
# number of rings (size 3 to 8) (size 9 to 14) (size 15 to 20)
#    0.000    2.000    0.000    2.143   10.000    4.000 
#    2.571    4.286    0.000    0.000    0.000    0.000 
#    0.000    0.000    0.000    0.000    0.000    0.000 
#
# Total GULP energy -156613.953235 kJ/mol
# GULP energy per Si atom -5593.355473 kJ/mol
# Density = 2.386320 g / cm^3
# Si number density = 23.917642 Si / 1000 Ang^3
#
#
#
# Elastic Constant Matrix: (Units=GPa)
#
#
# Indices 1 2 3 4 5 6 
#
# 1 94.0602 22.4063 42.3095 0.0000 -8.7930 0.0000
# 2 22.4063 36.8418 12.3439 0.0000 -6.6790 0.0000
# 3 42.3095 12.3439 67.4317 0.0000 1.3644 0.0000
# 4 0.0000 0.0000 0.0000 39.7309 0.0000 6.5543
# 5 -8.7930 -6.6790 1.3644 0.0000 33.6003 0.0000
# 6 0.0000 0.0000 0.0000 6.5543 0.0000 35.9062
#
#
#
# Elastic Compliance Matrix: (Units=1/GPa)
#
#
# Indices 1 2 3 4 5 6 
#
# 1 0.016695 -0.006380 -0.009378 0.000000 0.003482 0.000000
# 2 -0.006380 0.032602 -0.002064 0.000000 0.004895 0.000000
# 3 -0.009378 -0.002064 0.021167 0.000000 -0.003724 0.000000
# 4 0.000000 0.000000 0.000000 0.025951 0.000000 -0.004737
# 5 0.003482 0.004895 -0.003724 0.000000 0.031797 0.000000
# 6 0.000000 0.000000 0.000000 -0.004737 0.000000 0.028715
#
#
# Mechanical properties :
#
#
# Convention : Reuss Voigt Hill
#
# Bulk Modulus (GPa) = 28.71864 39.16146 33.94005
# Shear Modulus (GPa) = 24.48849 29.93241 27.21045
#
# Velocity S-wave (km/s) = 3.20326 3.54146 3.37660
# Velocity P-wave (km/s) = 5.07095 5.75601 5.42431
#
# Compressibility (1/GPa) = 0.03482059
#
# Stress axis : x y z
#
# Youngs Moduli (GPa) = 59.89818 30.67262 47.24361
#
# Poissons Ratio (x) = 0.19570 0.44303
# Poissons Ratio (y) = 0.38217 0.09750
# Poissons Ratio (z) = 0.56170 0.06330
#
# Static dielectric constant tensor:
#      x y z
#    x 1.871350 0.000000 0.024450 
#    y 0.000000 1.969240 0.000000 
#    z 0.024450 0.000000 1.881390 
# 
# From -- ./inp_files/34949.got.cif
#   From: 2010.05.17/outbox.cif.g08.bks.cpg/sg14_18_cif.got.tgz:34949.got - 2010.06.03 17:49:19.
