data_PCOD9245597
_publ_section_title
;
Structure prediction by ZEFSAII (Michael W. Deem and Ramdas Pophale) SiO2 
 PCOD9245597
Probable space group: P 21/C
;
_chemical_formula_sum "Si O2"
_cell_formula_units_Z 32
_cell_length_a 11.770343
_cell_length_b 18.548604
_cell_length_c 9.647456
_cell_angle_alpha 90.000000
_cell_angle_beta 51.949209
_cell_angle_gamma 90.000000
_cell_volume 1658.609840
_symmetry_space_group_name_H-M "P 21/C"
_symmetry_group_IT_number 14
_symmetry_cell_setting 'monoclinic'
loop_
_space_group_symop_operation_xyz
x,y,z
-x,1/2+y,1/2-z
-x,-y,-z
x,1/2-y,1/2+z
loop_
_atom_site_type_symbol
_atom_site_label
_atom_site_fract_x
_atom_site_fract_y
_atom_site_fract_z
Si Si1 0.614518 0.484700 0.533471
Si Si2 0.313238 0.671875 0.423753
Si Si3 0.963711 0.691901 0.366906
Si Si4 0.107465 0.437145 0.773371
Si Si5 0.688120 0.187330 0.397846
Si Si6 0.965282 0.668111 0.686914
Si Si7 0.445104 0.961973 0.402743
Si Si8 0.156926 0.456578 0.043170
O O1 0.500000 0.500000 0.500000
O O2 0.613587 0.401881 0.582271
O O3 0.771407 0.505415 0.360027
O O4 0.571508 0.534445 0.695387
O O5 0.349061 0.689051 0.237104
O O6 0.350646 0.739308 0.493209
O O7 0.139527 0.659694 0.561447
O O8 0.890929 0.629211 0.332172
O O9 0.927477 0.687407 0.556752
O O10 0.928801 0.767381 0.319811
O O11 0.137569 0.681025 0.224045
O O12 0.953900 0.476633 0.878592
O O13 0.136398 0.416726 0.911280
O O14 0.614055 0.117512 0.520859
O O15 0.888018 0.596259 0.799075
O O16 0.500000 0.000000 0.500000
O O17 0.314683 0.010689 0.442075
#
# Coordination Sequence:
#
# PCOD9245597 Si02
#       8
#     4   4   4   4   4   4   4   4
#     4  12  25  43  63  97 134 172 211 265 325 384
#     4  10  22  40  64  94 128 168 216 262 319 388
#     4  10  21  38  64  95 127 162 212 268 323 374
#     4  11  23  40  65  93 126 164 216 260 315 376
#     4  10  22  40  64  95 126 170 216 262 320 386
#     4  10  21  38  64  95 126 162 211 271 318 377
#     4  12  25  43  65  95 135 171 215 265 321 385
#     4  11  23  40  65  94 124 166 215 262 312 377
#
# _framework density 19.293267
#
# number of rings (size 3 to 8) (size 9 to 14) (size 15 to 20)
#    0.000    1.250    5.000    0.750    3.500    1.500 
#    0.000    2.500    0.000    0.000    0.000    0.000 
#    0.000    0.000    0.000    0.000    0.000    0.000 
#
# Total GULP energy -178813.491181 kJ/mol
# GULP energy per Si atom -5587.921599 kJ/mol
# Density = 1.924935 g / cm^3
# Si number density = 19.293267 Si / 1000 Ang^3
#
#
#
# Elastic Constant Matrix: (Units=GPa)
#
#
# Indices 1 2 3 4 5 6 
#
# 1 67.3984 19.8268 13.4581 0.0000 18.0877 0.0000
# 2 19.8268 99.7523 32.1172 0.0000 18.3126 0.0000
# 3 13.4581 32.1172 96.4133 0.0000 28.3849 0.0000
# 4 0.0000 0.0000 0.0000 36.0792 0.0000 4.1574
# 5 18.0877 18.3126 28.3849 0.0000 29.2338 0.0000
# 6 0.0000 0.0000 0.0000 4.1574 0.0000 30.7994
#
#
#
# Elastic Compliance Matrix: (Units=1/GPa)
#
#
# Indices 1 2 3 4 5 6 
#
# 1 0.018203 -0.001996 0.001501 0.000000 -0.011469 0.000000
# 2 -0.001996 0.011943 -0.002606 0.000000 -0.003716 0.000000
# 3 0.001501 -0.002606 0.015156 0.000000 -0.014012 0.000000
# 4 0.000000 0.000000 0.000000 0.028155 0.000000 -0.003800
# 5 -0.011469 -0.003716 -0.014012 0.000000 0.057236 0.000000
# 6 0.000000 0.000000 0.000000 -0.003800 0.000000 0.032981
#
#
# Mechanical properties :
#
#
# Convention : Reuss Voigt Hill
#
# Bulk Modulus (GPa) = 25.57557 43.81869 34.69713
# Shear Modulus (GPa) = 27.33616 32.43325 29.88471
#
# Velocity S-wave (km/s) = 3.76822 4.10453 3.93997
# Velocity P-wave (km/s) = 5.67606 6.72489 6.22261
#
# Compressibility (1/GPa) = 0.03909981
#
# Stress axis : x y z
#
# Youngs Moduli (GPa) = 54.93732 83.73339 65.98143
#
# Poissons Ratio (x) = 0.16709 -0.09901
# Poissons Ratio (y) = 0.10963 0.17192
# Poissons Ratio (z) = -0.08244 0.21818
#
# Static dielectric constant tensor:
#      x y z
#    x 1.640080 0.000000 -0.033740 
#    y 0.000000 1.634670 0.000000 
#    z -0.033740 0.000000 1.513110 
# 
# From -- ./inp_files/13872.got.cif
#   From: 2010.05.17/outbox.cif.g08.bks.cpg/sg14_7_cif.got.tgz:13872.got - 2010.06.03 17:49:19.
