data_PCOD9245642
_publ_section_title
;
Structure prediction by ZEFSAII (Michael W. Deem and Ramdas Pophale) SiO2 
 PCOD9245642
Probable space group: P 21/C
;
_chemical_formula_sum "Si O2"
_cell_formula_units_Z 30
_cell_length_a 10.872749
_cell_length_b 14.490109
_cell_length_c 15.327499
_cell_angle_alpha 90.000000
_cell_angle_beta 33.017339
_cell_angle_gamma 90.000000
_cell_volume 1315.810626
_symmetry_space_group_name_H-M "P 21/C"
_symmetry_group_IT_number 14
_symmetry_cell_setting 'monoclinic'
loop_
_space_group_symop_operation_xyz
x,y,z
-x,1/2+y,1/2-z
-x,-y,-z
x,1/2-y,1/2+z
loop_
_atom_site_type_symbol
_atom_site_label
_atom_site_fract_x
_atom_site_fract_y
_atom_site_fract_z
Si Si1 0.065883 0.387392 0.717047
Si Si2 0.341894 0.060507 0.832377
Si Si3 0.744064 0.511853 0.816347
Si Si4 0.065957 0.199284 0.777192
Si Si5 0.500000 0.000000 0.000000
Si Si6 0.197906 0.242972 0.387706
Si Si7 0.119147 0.588679 0.973707
Si Si8 0.395704 0.622663 0.397412
O O1 0.887234 0.422815 0.753799
O O2 0.107408 0.279074 0.684244
O O3 0.289743 0.447561 0.577508
O O4 0.960830 0.403236 0.877627
O O5 0.282277 0.036396 0.768381
O O6 0.223213 0.159339 0.921549
O O7 0.610820 0.077149 0.688024
O O8 0.286815 0.963823 0.911779
O O9 0.862687 0.598080 0.793954
O O10 0.500000 0.500000 0.000000
O O11 0.203167 0.227126 0.782188
O O12 0.802912 0.192582 0.958909
O O13 0.504457 0.920613 0.919322
O O14 0.412913 0.175673 0.271649
O O15 0.975392 0.178196 0.522924
O O16 0.000000 0.500000 0.000000
#
# Coordination Sequence:
#
# PCOD9245642 Si02
#       8
#     4   4   4   4   2   4   4   4
#     4  11  22  42  68  96 131 177 222 273 340 410
#     4  11  24  42  69  97 138 179 229 282 341 414
#     4  11  23  40  68  99 132 178 222 275 344 408
#     4  10  23  40  67  94 130 175 225 271 344 407
#     4  12  22  42  70 100 132 172 234 280 338 402
#     4  10  21  38  66  96 126 182 220 264 349 404
#     4  11  19  39  67  92 129 179 220 275 339 402
#     4  12  23  43  70  97 135 178 225 283 339 406
#
# _framework density 22.799631999999999
#
# number of rings (size 3 to 8) (size 9 to 14) (size 15 to 20)
#    0.000    1.067    6.667    1.600    1.867    2.133 
#    0.000    4.000    2.933    0.000    0.000    0.000 
#    0.000    0.000    0.000    0.000    0.000    0.000 
#
# Total GULP energy -167187.676133 kJ/mol
# GULP energy per Si atom -5572.922538 kJ/mol
# Density = 2.274774 g / cm^3
# Si number density = 22.799632 Si / 1000 Ang^3
#
#
#
# Elastic Constant Matrix: (Units=GPa)
#
#
# Indices 1 2 3 4 5 6 
#
# 1 85.8818 44.4258 13.3134 0.0000 -14.5225 0.0000
# 2 44.4258 93.5191 13.3822 0.0000 0.5914 0.0000
# 3 13.3134 13.3822 50.1350 0.0000 -13.4022 0.0000
# 4 0.0000 0.0000 0.0000 37.3568 0.0000 -3.5594
# 5 -14.5225 0.5914 -13.4022 0.0000 30.5047 0.0000
# 6 0.0000 0.0000 0.0000 -3.5594 0.0000 41.4209
#
#
#
# Elastic Compliance Matrix: (Units=1/GPa)
#
#
# Indices 1 2 3 4 5 6 
#
# 1 0.017364 -0.008278 -0.000169 0.000000 0.008353 0.000000
# 2 -0.008278 0.015144 -0.003372 0.000000 -0.005716 0.000000
# 3 -0.000169 -0.003372 0.023667 0.000000 0.010383 0.000000
# 4 0.000000 0.000000 0.000000 0.026990 0.000000 0.002319
# 5 0.008353 -0.005716 0.010383 0.000000 0.041431 0.000000
# 6 0.000000 0.000000 0.000000 0.002319 0.000000 0.024342
#
#
# Mechanical properties :
#
#
# Convention : Reuss Voigt Hill
#
# Bulk Modulus (GPa) = 30.73309 41.30873 36.02091
# Shear Modulus (GPa) = 27.25974 32.41744 29.83859
#
# Velocity S-wave (km/s) = 3.46153 3.77482 3.62156
# Velocity P-wave (km/s) = 5.43002 6.09561 5.77242
#
# Compressibility (1/GPa) = 0.03253821
#
# Stress axis : x y z
#
# Youngs Moduli (GPa) = 57.58882 66.03309 42.25361
#
# Poissons Ratio (x) = 0.54660 0.00713
# Poissons Ratio (y) = 0.47670 0.14248
# Poissons Ratio (z) = 0.00971 0.22267
#
# Static dielectric constant tensor:
#      x y z
#    x 1.630280 0.000000 0.166070 
#    y 0.000000 2.053730 0.000000 
#    z 0.166070 0.000000 1.764860 
# 
# From -- ./inp_files/57917.got.cif
#   From: 2010.05.17/outbox.cif.g08.bks.cpg/sg14_29_cif.got.tgz:57917.got - 2010.06.03 17:49:19.
