data_PCOD9245096
_publ_section_title
;
Structure prediction by ZEFSAII (Michael W. Deem and Ramdas Pophale) SiO2 
 PCOD9245096
Probable space group: P 21/C
;
_chemical_formula_sum "Si O2"
_cell_formula_units_Z 28
_cell_length_a 5.256375
_cell_length_b 22.349326
_cell_length_c 11.945542
_cell_angle_alpha 90.000000
_cell_angle_beta 75.234181
_cell_angle_gamma 90.000000
_cell_volume 1356.975949
_symmetry_space_group_name_H-M "P 21/C"
_symmetry_group_IT_number 14
_symmetry_cell_setting 'monoclinic'
loop_
_space_group_symop_operation_xyz
x,y,z
-x,1/2+y,1/2-z
-x,-y,-z
x,1/2-y,1/2+z
loop_
_atom_site_type_symbol
_atom_site_label
_atom_site_fract_x
_atom_site_fract_y
_atom_site_fract_z
Si Si1 0.819676 0.833568 0.981724
Si Si2 0.798607 0.797874 0.510868
Si Si3 0.386392 0.700644 0.855212
Si Si4 0.114497 0.520527 0.638559
Si Si5 0.778595 0.421408 0.599894
Si Si6 0.431154 0.090169 0.817943
Si Si7 0.397122 0.329417 0.733968
O O1 0.797579 0.771637 0.046386
O O2 0.613609 0.880427 0.054597
O O3 0.098757 0.862938 0.971992
O O4 0.788501 0.823325 0.853696
O O5 0.080975 0.692021 0.921833
O O6 0.564957 0.803546 0.447084
O O7 0.744664 0.832485 0.631178
O O8 0.481636 0.645702 0.767807
O O9 0.432799 0.766977 0.795088
O O10 0.240107 0.531980 0.500364
O O11 0.850402 0.561190 0.682611
O O12 0.999861 0.453587 0.651814
O O13 0.339874 0.540817 0.698418
O O14 0.550574 0.391787 0.696579
#
# Coordination Sequence:
#
# PCOD9245096 Si02
#       7
#     4   4   4   4   4   4   4
#     4  10  21  36  60  91 123 155 196 248 308 358
#     4  11  24  38  59  92 122 164 196 240 307 366
#     4  11  24  40  61  88 126 164 201 244 305 366
#     4  10  23  36  65  88 125 157 203 250 312 349
#     4  10  21  37  58  95 123 155 200 258 305 362
#     4  11  21  41  61  89 123 160 199 251 298 371
#     4  11  22  38  62  89 128 157 198 256 302 364
#
# _framework density 20.634118999999998
#
# number of rings (size 3 to 8) (size 9 to 14) (size 15 to 20)
#    0.000    1.429    4.286    0.857    4.000    1.714 
#    0.000    0.000    0.000    5.143    0.000    0.000 
#    0.000    0.000    0.000    0.000    0.000    0.000 
#
# Total GULP energy -156159.984417 kJ/mol
# GULP energy per Si atom -5577.142301 kJ/mol
# Density = 2.058715 g / cm^3
# Si number density = 20.634119 Si / 1000 Ang^3
#
#
#
# Elastic Constant Matrix: (Units=GPa)
#
#
# Indices 1 2 3 4 5 6 
#
# 1 93.7831 25.6745 13.7424 0.0000 -13.3525 0.0000
# 2 25.6745 76.3950 17.2587 0.0000 -12.6375 0.0000
# 3 13.7424 17.2587 57.7014 0.0000 -15.0465 0.0000
# 4 0.0000 0.0000 0.0000 25.8406 0.0000 -8.5906
# 5 -13.3525 -12.6375 -15.0465 0.0000 20.6444 0.0000
# 6 0.0000 0.0000 0.0000 -8.5906 0.0000 39.2009
#
#
#
# Elastic Compliance Matrix: (Units=1/GPa)
#
#
# Indices 1 2 3 4 5 6 
#
# 1 0.012407 -0.003100 -0.000531 0.000000 0.005740 0.000000
# 2 -0.003100 0.015639 -0.002427 0.000000 0.005800 0.000000
# 3 -0.000531 -0.002427 0.021861 0.000000 0.014104 0.000000
# 4 0.000000 0.000000 0.000000 0.041740 0.000000 0.009147
# 5 0.005740 0.005800 0.014104 0.000000 0.065982 0.000000
# 6 0.000000 0.000000 0.000000 0.009147 0.000000 0.027514
#
#
# Mechanical properties :
#
#
# Convention : Reuss Voigt Hill
#
# Bulk Modulus (GPa) = 26.46158 37.91453 32.18806
# Shear Modulus (GPa) = 23.82594 28.55076 26.18835
#
# Velocity S-wave (km/s) = 3.40175 3.72380 3.56642
# Velocity P-wave (km/s) = 5.31801 6.07483 5.70898
#
# Compressibility (1/GPa) = 0.03779063
#
# Stress axis : x y z
#
# Youngs Moduli (GPa) = 80.60217 63.94082 45.74399
#
# Poissons Ratio (x) = 0.19823 0.02428
# Poissons Ratio (y) = 0.24988 0.11103
# Poissons Ratio (z) = 0.04278 0.15520
#
# Static dielectric constant tensor:
#      x y z
#    x 1.811760 0.000000 -0.002510 
#    y 0.000000 1.803350 0.000000 
#    z -0.002510 0.000000 1.714680 
# 
# From -- ./inp_files/21980.got.cif
#   From: 2010.05.17/outbox.cif.g08.bks.cpg/sg14_11_cif.got.tgz:21980.got - 2010.06.03 17:49:19.
