data_PCOD9245850
_publ_section_title
;
Structure prediction by ZEFSAII (Michael W. Deem and Ramdas Pophale) SiO2 
 PCOD9245850
Probable space group: P 21/C
;
_chemical_formula_sum "Si O2"
_cell_formula_units_Z 32
_cell_length_a 29.140661
_cell_length_b 9.841271
_cell_length_c 17.157221
_cell_angle_alpha 90.000000
_cell_angle_beta 19.504437
_cell_angle_gamma 90.000000
_cell_volume 1642.811573
_symmetry_space_group_name_H-M "P 21/C"
_symmetry_group_IT_number 14
_symmetry_cell_setting 'monoclinic'
loop_
_space_group_symop_operation_xyz
x,y,z
-x,1/2+y,1/2-z
-x,-y,-z
x,1/2-y,1/2+z
loop_
_atom_site_type_symbol
_atom_site_label
_atom_site_fract_x
_atom_site_fract_y
_atom_site_fract_z
Si Si1 0.168002 0.364408 0.440972
Si Si2 0.868626 0.481786 0.898376
Si Si3 0.205625 0.277296 0.544378
Si Si4 0.875380 0.103772 0.223468
Si Si5 0.636647 0.507403 0.001697
Si Si6 0.761509 0.925759 0.724804
Si Si7 0.588477 0.706431 0.636839
Si Si8 0.941180 0.112502 0.537850
O O1 0.252064 0.337744 0.386645
O O2 0.146242 0.210114 0.441639
O O3 0.023807 0.446637 0.679237
O O4 0.263909 0.442697 0.226587
O O5 0.843755 0.623853 0.893021
O O6 0.854046 0.378666 0.849962
O O7 0.761247 0.497354 0.141496
O O8 0.300315 0.289895 0.469835
O O9 0.065213 0.355836 0.782450
O O10 0.737728 0.044905 0.406854
O O11 0.905485 0.248946 0.137888
O O12 0.000000 0.000000 0.000000
O O13 0.537250 0.386550 0.135791
O O14 0.557531 0.638539 0.162632
O O15 0.819892 0.041539 0.686735
O O16 0.642148 0.861012 0.969460
O O17 0.000000 0.000000 0.500000
#
# Coordination Sequence:
#
# PCOD9245850 Si02
#       8
#     4   4   4   4   4   4   4   4
#     4  10  21  39  63  95 129 167 209 268 330 383
#     4  11  20  39  65  96 128 165 207 263 334 385
#     4  11  21  37  63  95 132 165 205 269 326 378
#     4  12  22  39  67  96 124 167 217 268 328 392
#     4  11  24  43  66  89 126 177 224 264 323 393
#     4  10  23  38  60  94 134 166 203 272 325 375
#     4  11  24  44  64  87 128 177 220 264 321 391
#     4  12  21  34  62  96 131 160 209 265 320 381
#
# _framework density 19.478801000000001
#
# number of rings (size 3 to 8) (size 9 to 14) (size 15 to 20)
#    0.000    1.000    6.250    0.750    1.750    0.500 
#    0.000    0.625    0.000    0.000    0.000    0.000 
#    0.000    0.000    0.000    0.000    0.000    0.000 
#
# Total GULP energy -178164.188458 kJ/mol
# GULP energy per Si atom -5567.630889 kJ/mol
# Density = 1.943447 g / cm^3
# Si number density = 19.478801 Si / 1000 Ang^3
#
#
#
# Elastic Constant Matrix: (Units=GPa)
#
#
# Indices 1 2 3 4 5 6 
#
# 1 88.9621 33.6107 27.8921 0.0000 22.8107 0.0000
# 2 33.6107 106.3424 28.9777 0.0000 -2.9293 0.0000
# 3 27.8921 28.9777 28.3353 0.0000 -0.9272 0.0000
# 4 0.0000 0.0000 0.0000 30.6862 0.0000 0.7370
# 5 22.8107 -2.9293 -0.9272 0.0000 26.5976 0.0000
# 6 0.0000 0.0000 0.0000 0.7370 0.0000 34.2760
#
#
#
# Elastic Compliance Matrix: (Units=1/GPa)
#
#
# Indices 1 2 3 4 5 6 
#
# 1 0.025184 -0.002255 -0.023225 0.000000 -0.022656 0.000000
# 2 -0.002255 0.013264 -0.011246 0.000000 0.003003 0.000000
# 3 -0.023225 -0.011246 0.070346 0.000000 0.021132 0.000000
# 4 0.000000 0.000000 0.000000 0.032605 0.000000 -0.000701
# 5 -0.022656 0.003003 0.021132 0.000000 0.058095 0.000000
# 6 0.000000 0.000000 0.000000 -0.000701 0.000000 0.029190
#
#
# Mechanical properties :
#
#
# Convention : Reuss Voigt Hill
#
# Bulk Modulus (GPa) = 28.29591 44.95562 36.62577
# Shear Modulus (GPa) = 15.92785 27.18924 21.55855
#
# Velocity S-wave (km/s) = 2.86265 3.74014 3.33042
# Velocity P-wave (km/s) = 5.04821 6.46382 5.79937
#
# Compressibility (1/GPa) = 0.03534079
#
# Stress axis : x y z
#
# Youngs Moduli (GPa) = 39.70845 75.39461 14.21544
#
# Poissons Ratio (x) = 0.17001 0.33015
# Poissons Ratio (y) = 0.08954 0.15987
# Poissons Ratio (z) = 0.92223 0.84791
#
# Static dielectric constant tensor:
#      x y z
#    x 1.712870 0.000000 0.031490 
#    y 0.000000 1.687490 0.000000 
#    z 0.031490 0.000000 1.692670 
# 
# From -- ./inp_files/62653.got.cif
#   From: 2010.05.17/outbox.cif.g08.bks.cpg/sg14_32_cif.got.tgz:62653.got - 2010.06.03 17:49:19.
