data_PCOD9245248
_publ_section_title
;
Structure prediction by ZEFSAII (Michael W. Deem and Ramdas Pophale) SiO2 
 PCOD9245248
Probable space group: P 21/C
;
_chemical_formula_sum "Si O2"
_cell_formula_units_Z 32
_cell_length_a 12.932134
_cell_length_b 10.853971
_cell_length_c 11.910314
_cell_angle_alpha 90.000000
_cell_angle_beta 102.311351
_cell_angle_gamma 90.000000
_cell_volume 1633.345715
_symmetry_space_group_name_H-M "P 21/C"
_symmetry_group_IT_number 14
_symmetry_cell_setting 'monoclinic'
loop_
_space_group_symop_operation_xyz
x,y,z
-x,1/2+y,1/2-z
-x,-y,-z
x,1/2-y,1/2+z
loop_
_atom_site_type_symbol
_atom_site_label
_atom_site_fract_x
_atom_site_fract_y
_atom_site_fract_z
Si Si1 0.031201 0.078737 0.116687
Si Si2 0.394350 0.845709 0.936636
Si Si3 0.183815 0.996160 0.844096
Si Si4 0.595574 0.444608 0.095732
Si Si5 0.292474 0.177497 0.715633
Si Si6 0.488766 0.955464 0.180069
Si Si7 0.839158 0.765872 0.003312
Si Si8 0.794730 0.590515 0.172418
O O1 0.073752 0.205859 0.072169
O O2 0.130965 0.033222 0.213786
O O3 0.927714 0.072630 0.169982
O O4 0.000000 0.000000 0.000000
O O5 0.401960 0.701531 0.918861
O O6 0.278601 0.901827 0.887798
O O7 0.472661 0.919175 0.870732
O O8 0.426469 0.880819 0.070603
O O9 0.210601 0.071084 0.737030
O O10 0.184136 0.106121 0.937611
O O11 0.575527 0.476055 0.221743
O O12 0.711007 0.500118 0.096493
O O13 0.500000 0.500000 0.000000
O O14 0.407390 0.122074 0.761731
O O15 0.265701 0.219909 0.584433
O O16 0.271730 0.297155 0.787449
O O17 0.867721 0.661494 0.099185
#
# Coordination Sequence:
#
# PCOD9245248 Si02
#       8
#     4   4   4   4   4   4   4   4
#     4   9  19  37  63  86 115 160 199 249 302 364
#     4  10  24  42  60  93 122 172 203 259 314 371
#     4   9  19  39  60  88 120 152 213 251 306 373
#     4  12  26  40  62  94 129 165 208 261 314 371
#     4   9  18  35  61  87 114 157 198 259 300 367
#     4  10  23  40  64  86 126 163 215 250 315 374
#     4   9  18  36  63  88 117 155 204 249 309 366
#     4  10  21  37  59  93 119 156 208 251 304 372
#
# _framework density 19.591687
#
# number of rings (size 3 to 8) (size 9 to 14) (size 15 to 20)
#    0.000    2.250    0.000    1.500    8.750    3.000 
#    9.000    0.625    0.000    0.000    0.000    0.000 
#    0.000    0.000    0.000    0.000    0.000    0.000 
#
# Total GULP energy -178476.272725 kJ/mol
# GULP energy per Si atom -5577.383523 kJ/mol
# Density = 1.954709 g / cm^3
# Si number density = 19.591687 Si / 1000 Ang^3
#
#
#
# Elastic Constant Matrix: (Units=GPa)
#
#
# Indices 1 2 3 4 5 6 
#
# 1 72.7271 37.4167 14.7633 0.0000 7.4600 0.0000
# 2 37.4167 95.8110 39.1032 0.0000 12.9296 0.0000
# 3 14.7633 39.1032 75.5306 0.0000 14.2265 0.0000
# 4 0.0000 0.0000 0.0000 16.2659 0.0000 7.0061
# 5 7.4600 12.9296 14.2265 0.0000 26.8603 0.0000
# 6 0.0000 0.0000 0.0000 7.0061 0.0000 17.9518
#
#
#
# Elastic Compliance Matrix: (Units=1/GPa)
#
#
# Indices 1 2 3 4 5 6 
#
# 1 0.017286 -0.006678 0.000419 0.000000 -0.001808 0.000000
# 2 -0.006678 0.016041 -0.006548 0.000000 -0.002399 0.000000
# 3 0.000419 -0.006548 0.017746 0.000000 -0.006364 0.000000
# 4 0.000000 0.000000 0.000000 0.073901 0.000000 -0.028841
# 5 -0.001808 -0.002399 -0.006364 0.000000 0.042257 0.000000
# 6 0.000000 0.000000 0.000000 -0.028841 0.000000 0.066961
#
#
# Mechanical properties :
#
#
# Convention : Reuss Voigt Hill
#
# Bulk Modulus (GPa) = 39.27605 47.40391 43.33998
# Shear Modulus (GPa) = 18.63647 22.40130 20.51889
#
# Velocity S-wave (km/s) = 3.08757 3.38510 3.23975
# Velocity P-wave (km/s) = 5.72727 6.28705 6.01368
#
# Compressibility (1/GPa) = 0.02546081
#
# Stress axis : x y z
#
# Youngs Moduli (GPa) = 57.85042 62.34038 56.35014
#
# Poissons Ratio (x) = 0.41628 -0.02361
# Poissons Ratio (y) = 0.38630 0.36896
# Poissons Ratio (z) = -0.02424 0.40818
#
# Static dielectric constant tensor:
#      x y z
#    x 1.713550 0.000000 -0.030280 
#    y 0.000000 1.674660 0.000000 
#    z -0.030280 0.000000 1.716370 
# 
# From -- ./inp_files/29054.got.cif
#   From: 2010.05.17/outbox.cif.g08.bks.cpg/sg14_15_cif.got.tgz:29054.got - 2010.06.03 17:49:19.
