data_PCOD9245406
_publ_section_title
;
Structure prediction by ZEFSAII (Michael W. Deem and Ramdas Pophale) SiO2 
 PCOD9245406
Probable space group: P 21/C
;
_chemical_formula_sum "Si O2"
_cell_formula_units_Z 28
_cell_length_a 21.675843
_cell_length_b 10.612668
_cell_length_c 19.219322
_cell_angle_alpha 90.000000
_cell_angle_beta 160.120346
_cell_angle_gamma 90.000000
_cell_volume 1503.404457
_symmetry_space_group_name_H-M "P 21/C"
_symmetry_group_IT_number 14
_symmetry_cell_setting 'monoclinic'
loop_
_space_group_symop_operation_xyz
x,y,z
-x,1/2+y,1/2-z
-x,-y,-z
x,1/2-y,1/2+z
loop_
_atom_site_type_symbol
_atom_site_label
_atom_site_fract_x
_atom_site_fract_y
_atom_site_fract_z
Si Si1 0.703078 0.795028 0.081839
Si Si2 0.402890 0.801171 0.179966
Si Si3 0.528385 0.150219 0.027082
Si Si4 0.792237 0.559997 0.537182
Si Si5 0.606772 0.709955 0.766298
Si Si6 0.069036 0.885195 0.524704
Si Si7 0.194547 0.550243 0.005384
O O1 0.566867 0.809141 0.002321
O O2 0.902585 0.792277 0.328408
O O3 0.601474 0.690586 0.927219
O O4 0.726601 0.904304 0.047010
O O5 0.428047 0.780355 0.124349
O O6 0.294000 0.928227 0.076180
O O7 0.306233 0.676021 0.106364
O O8 0.432418 0.204500 0.856851
O O9 0.744192 0.175591 0.249769
O O10 0.500000 0.000000 0.000000
O O11 0.728434 0.673211 0.419981
O O12 0.008341 0.549597 0.765534
O O13 0.693472 0.577323 0.881723
O O14 0.133548 0.943994 0.520607
O O15 0.000000 0.000000 0.500000
#
# Coordination Sequence:
#
# PCOD9245406 Si02
#       7
#     4   4   4   4   4   4   4
#     4  10  21  38  58  86 119 160 198 247 309 360
#     4  11  21  39  61  83 128 165 196 247 316 368
#     4  12  19  36  60  89 124 151 201 258 309 343
#     4  10  23  38  60  91 121 163 204 250 302 376
#     4  11  22  37  61  92 118 158 208 256 301 358
#     4  11  21  33  62  96 117 151 201 259 305 354
#     4  11  21  38  62  91 122 158 206 253 307 360
#
# _framework density 18.624396000000001
#
# number of rings (size 3 to 8) (size 9 to 14) (size 15 to 20)
#    0.000    1.143    4.286    3.429    2.000    0.000 
#    2.571    0.714    0.000    0.857    0.000    0.000 
#    0.000    0.000    0.000    0.000    0.000    0.000 
#
# Total GULP energy -156035.664348 kJ/mol
# GULP energy per Si atom -5572.702298 kJ/mol
# Density = 1.858201 g / cm^3
# Si number density = 18.624396 Si / 1000 Ang^3
#
#
#
# Elastic Constant Matrix: (Units=GPa)
#
#
# Indices 1 2 3 4 5 6 
#
# 1 112.7818 24.1132 28.2406 0.0000 -1.1463 0.0000
# 2 24.1132 86.1547 52.1592 0.0000 -1.0358 0.0000
# 3 28.2406 52.1592 147.5003 0.0000 -0.2355 0.0000
# 4 0.0000 0.0000 0.0000 13.1387 0.0000 -2.7882
# 5 -1.1463 -1.0358 -0.2355 0.0000 27.9973 0.0000
# 6 0.0000 0.0000 0.0000 -2.7882 0.0000 12.6742
#
#
#
# Elastic Compliance Matrix: (Units=1/GPa)
#
#
# Indices 1 2 3 4 5 6 
#
# 1 0.009579 -0.001994 -0.001128 0.000000 0.000309 0.000000
# 2 -0.001994 0.015191 -0.004989 0.000000 0.000438 0.000000
# 3 -0.001128 -0.004989 0.008760 0.000000 -0.000157 0.000000
# 4 0.000000 0.000000 0.000000 0.079838 0.000000 0.017564
# 5 0.000309 0.000438 -0.000157 0.000000 0.035745 0.000000
# 6 0.000000 0.000000 0.000000 0.017564 0.000000 0.082764
#
#
# Mechanical properties :
#
#
# Convention : Reuss Voigt Hill
#
# Bulk Modulus (GPa) = 57.78364 61.71811 59.75088
# Shear Modulus (GPa) = 19.69520 26.89031 23.29276
#
# Velocity S-wave (km/s) = 3.25544 3.80389 3.54030
# Velocity P-wave (km/s) = 6.72485 7.24590 6.99023
#
# Compressibility (1/GPa) = 0.01730594
#
# Stress axis : x y z
#
# Youngs Moduli (GPa) = 104.39839 65.82825 114.15828
#
# Poissons Ratio (x) = 0.13127 0.12880
# Poissons Ratio (y) = 0.20818 0.56958
# Poissons Ratio (z) = 0.11779 0.32844
#
# Static dielectric constant tensor:
#      x y z
#    x 1.683820 0.000000 0.022400 
#    y 0.000000 1.631930 0.000000 
#    z 0.022400 0.000000 2.003810 
# 
# From -- ./inp_files/61310.got.cif
#   From: 2010.05.17/outbox.cif.g08.bks.cpg/sg14_31_cif.got.tgz:61310.got - 2010.06.03 17:49:19.
