data_PCOD9245607
_publ_section_title
;
Structure prediction by ZEFSAII (Michael W. Deem and Ramdas Pophale) SiO2 
 PCOD9245607
Probable space group: P 21/C
;
_chemical_formula_sum "Si O2"
_cell_formula_units_Z 24
_cell_length_a 16.528621
_cell_length_b 7.107507
_cell_length_c 23.178538
_cell_angle_alpha 90.000000
_cell_angle_beta 21.353735
_cell_angle_gamma 90.000000
_cell_volume 991.494449
_symmetry_space_group_name_H-M "P 21/C"
_symmetry_group_IT_number 14
_symmetry_cell_setting 'monoclinic'
loop_
_space_group_symop_operation_xyz
x,y,z
-x,1/2+y,1/2-z
-x,-y,-z
x,1/2-y,1/2+z
loop_
_atom_site_type_symbol
_atom_site_label
_atom_site_fract_x
_atom_site_fract_y
_atom_site_fract_z
Si Si1 0.268377 0.450845 0.392884
Si Si2 0.765471 0.912312 0.953653
Si Si3 0.010321 0.875787 0.436645
Si Si4 0.413800 0.409330 0.615381
Si Si5 0.867134 0.683783 0.776601
Si Si6 0.270803 0.852546 0.444747
O O1 0.324682 0.387469 0.421993
O O2 0.045229 0.343162 0.521995
O O3 0.245537 0.673697 0.418057
O O4 0.468168 0.385261 0.218627
O O5 0.019537 0.980980 0.793834
O O6 0.616912 0.080365 0.024655
O O7 0.767121 0.749657 0.904367
O O8 0.808678 0.959490 0.533422
O O9 0.000000 0.000000 0.500000
O O10 0.235362 0.941900 0.257797
O O11 0.500000 0.500000 0.500000
O O12 0.295813 0.220434 0.669757
O O13 0.080350 0.816056 0.618921
#
# Coordination Sequence:
#
# PCOD9245607 Si02
#       6
#     4   4   4   4   4   4
#     4  11  22  37  63  92 123 167 216 253 320 387
#     4  10  21  38  65  87 123 170 209 262 326 379
#     4  11  23  39  63  88 128 167 207 271 321 372
#     4   9  20  39  61  88 127 162 209 262 324 378
#     4   9  21  36  61  91 121 163 210 263 316 384
#     4  10  21  39  60  91 123 161 210 262 311 386
#
# _framework density 24.205883
#
# number of rings (size 3 to 8) (size 9 to 14) (size 15 to 20)
#    0.000    2.000    1.667    1.000    9.333    0.667 
#    0.000    0.833   11.000    0.000    0.000    0.000 
#    0.000    0.000    0.000    0.000    0.000    0.000 
#
# Total GULP energy -133816.503026 kJ/mol
# GULP energy per Si atom -5575.687626 kJ/mol
# Density = 2.415079 g / cm^3
# Si number density = 24.205883 Si / 1000 Ang^3
#
#
#
# Elastic Constant Matrix: (Units=GPa)
#
#
# Indices 1 2 3 4 5 6 
#
# 1 68.0799 -0.3854 1.8103 0.0000 -1.7881 0.0000
# 2 -0.3854 65.8324 -19.7762 0.0000 -5.0387 0.0000
# 3 1.8103 -19.7762 74.7762 0.0000 26.7856 0.0000
# 4 0.0000 0.0000 0.0000 31.1633 0.0000 -7.7318
# 5 -1.7881 -5.0387 26.7856 0.0000 34.8061 0.0000
# 6 0.0000 0.0000 0.0000 -7.7318 0.0000 21.4942
#
#
#
# Elastic Compliance Matrix: (Units=1/GPa)
#
#
# Indices 1 2 3 4 5 6 
#
# 1 0.014749 -0.000071 -0.000889 0.000000 0.001431 0.000000
# 2 -0.000071 0.016547 0.004861 0.000000 -0.001349 0.000000
# 3 -0.000889 0.004861 0.019942 0.000000 -0.014689 0.000000
# 4 0.000000 0.000000 0.000000 0.035234 0.000000 0.012674
# 5 0.001431 -0.001349 -0.014689 0.000000 0.039913 0.000000
# 6 0.000000 0.000000 0.000000 0.012674 0.000000 0.051083
#
#
# Mechanical properties :
#
#
# Convention : Reuss Voigt Hill
#
# Bulk Modulus (GPa) = 16.93730 19.10956 18.02343
# Shear Modulus (GPa) = 26.40683 32.62871 29.51777
#
# Velocity S-wave (km/s) = 3.30650 3.67545 3.49585
# Velocity P-wave (km/s) = 4.64646 5.09153 4.87408
#
# Compressibility (1/GPa) = 0.05904129
#
# Stress axis : x y z
#
# Youngs Moduli (GPa) = 67.79914 60.43499 50.14542
#
# Poissons Ratio (x) = 0.00429 0.04456
# Poissons Ratio (y) = 0.00482 -0.24376
# Poissons Ratio (z) = 0.06024 -0.29378
#
# Static dielectric constant tensor:
#      x y z
#    x 1.985030 0.000000 -0.002020 
#    y 0.000000 4.704970 0.000000 
#    z -0.002020 0.000000 1.932320 
# 
# From -- ./inp_files/74229.got.cif
#   From: 2010.05.17/outbox.cif.g08.bks.cpg/sg14_38_cif.got.tgz:74229.got - 2010.06.03 17:49:19.
