data_PCOD9245650
_publ_section_title
;
Structure prediction by ZEFSAII (Michael W. Deem and Ramdas Pophale) SiO2 
 PCOD9245650
Probable space group: P 21/C
;
_chemical_formula_sum "Si O2"
_cell_formula_units_Z 22
_cell_length_a 11.031840
_cell_length_b 5.048273
_cell_length_c 13.980222
_cell_angle_alpha 90.000000
_cell_angle_beta 95.430200
_cell_angle_gamma 90.000000
_cell_volume 775.088782
_symmetry_space_group_name_H-M "P 21/C"
_symmetry_group_IT_number 14
_symmetry_cell_setting 'monoclinic'
loop_
_space_group_symop_operation_xyz
x,y,z
-x,1/2+y,1/2-z
-x,-y,-z
x,1/2-y,1/2+z
loop_
_atom_site_type_symbol
_atom_site_label
_atom_site_fract_x
_atom_site_fract_y
_atom_site_fract_z
Si Si1 0.484288 0.117307 0.682436
Si Si2 0.176567 0.319366 0.802204
Si Si3 0.650366 0.012372 0.084291
Si Si4 0.500000 0.000000 0.500000
Si Si5 0.939553 0.398223 0.351996
Si Si6 0.124927 0.785794 0.467477
O O1 0.476687 0.389763 0.740775
O O2 0.584581 0.206121 0.604137
O O3 0.399501 0.009428 0.592183
O O4 0.280135 0.100232 0.816578
O O5 0.179790 0.513010 0.713346
O O6 0.168898 0.483442 0.900396
O O7 0.043766 0.190510 0.786275
O O8 0.559856 0.784651 0.046642
O O9 0.762472 0.078117 0.024471
O O10 0.909915 0.170694 0.425969
O O11 0.010108 0.630679 0.413324
#
# Coordination Sequence:
#
# PCOD9245650 Si02
#       6
#     4   4   4   2   4   4
#     4  10  23  47  80 111 153 208 263 335 418 488
#     4  11  20  40  67 105 154 204 277 323 401 490
#     4   9  23  43  71 111 147 203 265 334 404 500
#     4   8  22  48  72 112 158 200 254 350 410 494
#     4  10  21  38  67 100 154 212 251 336 397 473
#     4  10  21  40  64 103 151 206 265 322 403 491
#
# _framework density 28.383846999999999
#
# number of rings (size 3 to 8) (size 9 to 14) (size 15 to 20)
#    1.091    1.091    1.818    0.545    2.545    0.727 
#    6.545    0.000    0.000    0.000    0.000    0.000 
#    0.000    4.364    0.000    0.000    0.000    0.000 
#
# Total GULP energy -122724.424754 kJ/mol
# GULP energy per Si atom -5578.382943 kJ/mol
# Density = 2.831924 g / cm^3
# Si number density = 28.383847 Si / 1000 Ang^3
#
#
#
# Elastic Constant Matrix: (Units=GPa)
#
#
# Indices 1 2 3 4 5 6 
#
# 1 84.0115 45.7324 15.1254 0.0000 6.4826 0.0000
# 2 45.7324 197.7099 56.2668 0.0000 15.0514 0.0000
# 3 15.1254 56.2668 163.5673 0.0000 2.9091 0.0000
# 4 0.0000 0.0000 0.0000 53.5484 0.0000 -0.0038
# 5 6.4826 15.0514 2.9091 0.0000 18.2896 0.0000
# 6 0.0000 0.0000 0.0000 -0.0038 0.0000 48.4231
#
#
#
# Elastic Compliance Matrix: (Units=1/GPa)
#
#
# Indices 1 2 3 4 5 6 
#
# 1 0.013723 -0.002928 -0.000219 0.000000 -0.002420 0.000000
# 2 -0.002928 0.006594 -0.001925 0.000000 -0.004082 0.000000
# 3 -0.000219 -0.001925 0.006786 0.000000 0.000582 0.000000
# 4 0.000000 0.000000 0.000000 0.018675 0.000000 0.000001
# 5 -0.002420 -0.004082 0.000582 0.000000 0.058800 0.000000
# 6 0.000000 0.000000 0.000000 0.000001 0.000000 0.020651
#
#
# Mechanical properties :
#
#
# Convention : Reuss Voigt Hill
#
# Bulk Modulus (GPa) = 58.96398 75.50422 67.23410
# Shear Modulus (GPa) = 35.45468 45.92983 40.69225
#
# Velocity S-wave (km/s) = 3.53812 4.02701 3.79045
# Velocity P-wave (km/s) = 6.12453 6.94847 6.54947
#
# Compressibility (1/GPa) = 0.01695951
#
# Stress axis : x y z
#
# Youngs Moduli (GPa) = 72.87031 151.65880 147.36818
#
# Poissons Ratio (x) = 0.44403 0.03224
# Poissons Ratio (y) = 0.21335 0.28367
# Poissons Ratio (z) = 0.01594 0.29193
#
# Static dielectric constant tensor:
#      x y z
#    x 2.286790 0.000000 0.019540 
#    y 0.000000 2.297560 0.000000 
#    z 0.019540 0.000000 2.526960 
# 
# From -- ./inp_files/42664.got.cif
#   From: 2010.05.17/outbox.cif.g08.bks.cpg/sg14_22_cif.got.tgz:42664.got - 2010.06.03 17:49:19.
