data_PCOD9245485
_publ_section_title
;
Structure prediction by ZEFSAII (Michael W. Deem and Ramdas Pophale) SiO2 
 PCOD9245485
Probable space group: P 21/C
;
_chemical_formula_sum "Si O2"
_cell_formula_units_Z 28
_cell_length_a 8.824318
_cell_length_b 14.117306
_cell_length_c 13.876833
_cell_angle_alpha 90.000000
_cell_angle_beta 56.226689
_cell_angle_gamma 90.000000
_cell_volume 1436.982922
_symmetry_space_group_name_H-M "P 21/C"
_symmetry_group_IT_number 14
_symmetry_cell_setting 'monoclinic'
loop_
_space_group_symop_operation_xyz
x,y,z
-x,1/2+y,1/2-z
-x,-y,-z
x,1/2-y,1/2+z
loop_
_atom_site_type_symbol
_atom_site_label
_atom_site_fract_x
_atom_site_fract_y
_atom_site_fract_z
Si Si1 0.166797 0.074173 0.180429
Si Si2 0.915048 0.657028 0.861313
Si Si3 0.686943 0.812317 0.044833
Si Si4 0.769712 0.035373 0.365947
Si Si5 0.463564 0.903274 0.386276
Si Si6 0.696928 0.112527 0.760545
Si Si7 0.766396 0.764714 0.232153
O O1 0.214102 0.155507 0.243408
O O2 0.243768 0.974180 0.191134
O O3 0.247466 0.103022 0.048228
O O4 0.946452 0.074453 0.249958
O O5 0.855696 0.549709 0.899369
O O6 0.907990 0.678833 0.749691
O O7 0.120071 0.673028 0.822178
O O8 0.759443 0.721393 0.962008
O O9 0.472131 0.827872 0.137694
O O10 0.777991 0.796842 0.117548
O O11 0.614555 0.984026 0.357192
O O12 0.670887 0.103445 0.475856
O O13 0.366701 0.926595 0.320408
O O14 0.570152 0.805299 0.333750
#
# Coordination Sequence:
#
# PCOD9245485 Si02
#       7
#     4   4   4   4   4   4   4
#     4  10  21  38  61  87 116 159 197 242 293 348
#     4   9  20  38  57  89 114 156 197 245 292 349
#     4  10  21  40  57  86 125 151 195 245 294 352
#     4   9  19  37  61  84 118 147 205 243 289 347
#     4   9  19  37  58  89 115 153 193 250 291 343
#     4  10  21  38  63  86 117 157 199 242 295 349
#     4   9  20  39  55  83 125 151 195 242 292 352
#
# _framework density 19.48527
#
# number of rings (size 3 to 8) (size 9 to 14) (size 15 to 20)
#    0.000    2.571    0.000    0.429    4.000    1.143 
#   20.571   12.857    0.000    0.000    0.000    0.000 
#    0.000    0.000    0.000    0.000    0.000    0.000 
#
# Total GULP energy -155927.672929 kJ/mol
# GULP energy per Si atom -5568.845462 kJ/mol
# Density = 1.944092 g / cm^3
# Si number density = 19.485270 Si / 1000 Ang^3
#
#
#
# Elastic Constant Matrix: (Units=GPa)
#
#
# Indices 1 2 3 4 5 6 
#
# 1 101.4285 2.1374 52.3444 0.0000 -1.5894 0.0000
# 2 2.1374 40.0385 7.3427 0.0000 -2.8515 0.0000
# 3 52.3444 7.3427 81.3803 0.0000 -2.3664 0.0000
# 4 0.0000 0.0000 0.0000 21.9826 0.0000 0.8315
# 5 -1.5894 -2.8515 -2.3664 0.0000 27.0897 0.0000
# 6 0.0000 0.0000 0.0000 0.8315 0.0000 11.2406
#
#
#
# Elastic Compliance Matrix: (Units=1/GPa)
#
#
# Indices 1 2 3 4 5 6 
#
# 1 0.014795 0.000980 -0.009601 0.000000 0.000133 0.000000
# 2 0.000980 0.025628 -0.002870 0.000000 0.002504 0.000000
# 3 -0.009601 -0.002870 0.018745 0.000000 0.000772 0.000000
# 4 0.000000 0.000000 0.000000 0.045618 0.000000 -0.003375
# 5 0.000133 0.002504 0.000772 0.000000 0.037253 0.000000
# 6 0.000000 0.000000 0.000000 -0.003375 0.000000 0.089213
#
#
# Mechanical properties :
#
#
# Convention : Reuss Voigt Hill
#
# Bulk Modulus (GPa) = 27.63429 38.49960 33.06695
# Shear Modulus (GPa) = 18.77603 22.79744 20.78674
#
# Velocity S-wave (km/s) = 3.10756 3.42421 3.26972
# Velocity P-wave (km/s) = 5.20469 5.95272 5.59123
#
# Compressibility (1/GPa) = 0.03618692
#
# Stress axis : x y z
#
# Youngs Moduli (GPa) = 67.58828 39.01931 53.34780
#
# Poissons Ratio (x) = -0.03825 0.51220
# Poissons Ratio (y) = -0.06626 0.15311
# Poissons Ratio (z) = 0.64893 0.11199
#
# Static dielectric constant tensor:
#      x y z
#    x 1.718870 0.000000 0.009550 
#    y 0.000000 1.722570 0.000000 
#    z 0.009550 0.000000 1.719470 
# 
# From -- ./inp_files/41129.got.cif
#   From: 2010.05.17/outbox.cif.g08.bks.cpg/sg14_21_cif.got.tgz:41129.got - 2010.06.03 17:49:19.
