data_PCOD9245615
_publ_section_title
;
Structure prediction by ZEFSAII (Michael W. Deem and Ramdas Pophale) SiO2 
 PCOD9245615
Probable space group: P 21/C
;
_chemical_formula_sum "Si O2"
_cell_formula_units_Z 24
_cell_length_a 8.539249
_cell_length_b 14.427938
_cell_length_c 8.622236
_cell_angle_alpha 90.000000
_cell_angle_beta 89.631662
_cell_angle_gamma 90.000000
_cell_volume 1062.269902
_symmetry_space_group_name_H-M "P 21/C"
_symmetry_group_IT_number 14
_symmetry_cell_setting 'monoclinic'
loop_
_space_group_symop_operation_xyz
x,y,z
-x,1/2+y,1/2-z
-x,-y,-z
x,1/2-y,1/2+z
loop_
_atom_site_type_symbol
_atom_site_label
_atom_site_fract_x
_atom_site_fract_y
_atom_site_fract_z
Si Si1 0.440462 0.281394 0.853193
Si Si2 0.761993 0.677886 0.417087
Si Si3 0.275997 0.509536 0.405520
Si Si4 0.745242 0.165217 0.545189
Si Si5 0.436460 0.922424 0.216091
Si Si6 0.907348 0.172803 0.232587
O O1 0.373787 0.339317 0.709941
O O2 0.492056 0.180978 0.787727
O O3 0.301455 0.260424 0.975372
O O4 0.589440 0.318087 0.944379
O O5 0.781642 0.588169 0.525472
O O6 0.919695 0.697710 0.323929
O O7 0.412037 0.488089 0.279192
O O8 0.356837 0.560672 0.550473
O O9 0.143831 0.574898 0.339282
O O10 0.696961 0.077897 0.652105
O O11 0.881442 0.163142 0.416288
O O12 0.792748 0.248807 0.660667
#
# Coordination Sequence:
#
# PCOD9245615 Si02
#       6
#     4   4   4   4   4   4
#     4  11  20  40  63  93 118 161 217 253 298 369
#     4  11  24  40  64  91 130 164 205 259 321 370
#     4  10  23  42  62  93 129 165 206 255 322 365
#     4  12  22  39  68  94 121 166 219 256 303 368
#     4  10  21  38  65  92 117 162 209 265 289 365
#     4  12  23  41  63  94 129 165 204 261 317 374
#
# _framework density 22.593126999999999
#
# number of rings (size 3 to 8) (size 9 to 14) (size 15 to 20)
#    0.000    1.000    5.000    1.500    4.667    0.667 
#    0.000    0.833    0.000    0.000    0.000    0.000 
#    0.000    0.000    0.000    0.000    0.000    0.000 
#
# Total GULP energy -134162.923360 kJ/mol
# GULP energy per Si atom -5590.121807 kJ/mol
# Density = 2.254170 g / cm^3
# Si number density = 22.593127 Si / 1000 Ang^3
#
#
#
# Elastic Constant Matrix: (Units=GPa)
#
#
# Indices 1 2 3 4 5 6 
#
# 1 76.6895 2.6131 15.2423 0.0000 -35.4422 0.0000
# 2 2.6131 23.8290 7.7807 0.0000 -2.9608 0.0000
# 3 15.2423 7.7807 76.5281 0.0000 -30.1146 0.0000
# 4 0.0000 0.0000 0.0000 36.0755 0.0000 -8.1313
# 5 -35.4422 -2.9608 -30.1146 0.0000 47.9896 0.0000
# 6 0.0000 0.0000 0.0000 -8.1313 0.0000 22.1563
#
#
#
# Elastic Compliance Matrix: (Units=1/GPa)
#
#
# Indices 1 2 3 4 5 6 
#
# 1 0.020158 -0.001003 0.002551 0.000000 0.016427 0.000000
# 2 -0.001003 0.043457 -0.004588 0.000000 -0.000938 0.000000
# 3 0.002551 -0.004588 0.018133 0.000000 0.012980 0.000000
# 4 0.000000 0.000000 0.000000 0.030219 0.000000 0.011090
# 5 0.016427 -0.000938 0.012980 0.000000 0.041057 0.000000
# 6 0.000000 0.000000 0.000000 0.011090 0.000000 0.049204
#
#
# Mechanical properties :
#
#
# Convention : Reuss Voigt Hill
#
# Bulk Modulus (GPa) = 13.21530 25.36875 19.29203
# Shear Modulus (GPa) = 21.41044 31.33833 26.37438
#
# Velocity S-wave (km/s) = 3.08174 3.72838 3.42038
# Velocity P-wave (km/s) = 4.30404 5.45778 4.91488
#
# Compressibility (1/GPa) = 0.07566989
#
# Stress axis : x y z
#
# Youngs Moduli (GPa) = 49.60719 23.01122 55.14749
#
# Poissons Ratio (x) = 0.02307 -0.14068
# Poissons Ratio (y) = 0.04973 0.25301
# Poissons Ratio (z) = -0.12655 0.10557
#
# Static dielectric constant tensor:
#      x y z
#    x 1.866250 0.000000 -0.048160 
#    y 0.000000 1.844960 0.000000 
#    z -0.048160 0.000000 1.864890 
# 
# From -- ./inp_files/8508.got.cif
#   From: 2010.05.17/outbox.cif.g08.bks.cpg/sg14_5_cif.got.tgz:8508.got - 2010.06.03 17:49:19.
