data_PCOD9245497
_publ_section_title
;
Structure prediction by ZEFSAII (Michael W. Deem and Ramdas Pophale) SiO2 
 PCOD9245497
Probable space group: P 21/C
;
_chemical_formula_sum "Si O2"
_cell_formula_units_Z 20
_cell_length_a 16.782156
_cell_length_b 5.534127
_cell_length_c 10.076133
_cell_angle_alpha 90.000000
_cell_angle_beta 132.126624
_cell_angle_gamma 90.000000
_cell_volume 694.061732
_symmetry_space_group_name_H-M "P 21/C"
_symmetry_group_IT_number 14
_symmetry_cell_setting 'monoclinic'
loop_
_space_group_symop_operation_xyz
x,y,z
-x,1/2+y,1/2-z
-x,-y,-z
x,1/2-y,1/2+z
loop_
_atom_site_type_symbol
_atom_site_label
_atom_site_fract_x
_atom_site_fract_y
_atom_site_fract_z
Si Si1 0.333703 0.739359 0.792679
Si Si2 0.265742 0.492231 0.965470
Si Si3 0.533184 0.738079 0.358133
Si Si4 0.135141 0.506430 0.487192
Si Si5 0.932208 0.259848 0.337233
O O1 0.307720 0.714866 0.918204
O O2 0.291201 0.948438 0.646584
O O3 0.460616 0.742110 0.909093
O O4 0.262112 0.513298 0.655836
O O5 0.139286 0.510178 0.796845
O O6 0.338970 0.275751 0.993626
O O7 0.496652 0.982991 0.240366
O O8 0.109640 0.553641 0.306153
O O9 0.094450 0.729071 0.537230
O O10 0.057400 0.298731 0.451868
#
# Coordination Sequence:
#
# PCOD9245497 Si02
#       5
#     4   4   4   4   4
#     4   9  18  35  56  80 112 152 197 245 297 353
#     4   9  18  35  56  80 112 152 197 245 297 353
#     4  10  21  38  61  90 121 156 199 246 297 352
#     4   9  18  32  51  76 108 145 188 237 289 348
#     4   9  18  32  51  76 108 145 188 237 289 348
#
# _framework density 28.815884
#
# number of rings (size 3 to 8) (size 9 to 14) (size 15 to 20)
#    0.000    2.800    0.000    0.600    0.000    2.400 
#    0.000   25.000    0.000    9.600    0.000    0.000 
#    0.000    0.000    0.000    0.000    0.000    0.000 
#
# Total GULP energy -111664.749422 kJ/mol
# GULP energy per Si atom -5583.237471 kJ/mol
# Density = 2.875030 g / cm^3
# Si number density = 28.815884 Si / 1000 Ang^3
#
#
#
# Elastic Constant Matrix: (Units=GPa)
#
#
# Indices 1 2 3 4 5 6 
#
# 1 152.5413 42.2704 2.0196 0.0000 -15.2555 0.0000
# 2 42.2704 111.7127 56.8232 0.0000 -4.4523 0.0000
# 3 2.0196 56.8232 90.4750 0.0000 2.4024 0.0000
# 4 0.0000 0.0000 0.0000 23.4621 0.0000 -1.6261
# 5 -15.2555 -4.4523 2.4024 0.0000 56.0880 0.0000
# 6 0.0000 0.0000 0.0000 -1.6261 0.0000 22.8111
#
#
#
# Elastic Compliance Matrix: (Units=1/GPa)
#
#
# Indices 1 2 3 4 5 6 
#
# 1 0.007828 -0.004088 0.002348 0.000000 0.001704 0.000000
# 2 -0.004088 0.015399 -0.009594 0.000000 0.000521 0.000000
# 3 0.002348 -0.009594 0.017049 0.000000 -0.000853 0.000000
# 4 0.000000 0.000000 0.000000 0.042834 0.000000 0.003053
# 5 0.001704 0.000521 -0.000853 0.000000 0.018371 0.000000
# 6 0.000000 0.000000 0.000000 0.003053 0.000000 0.044056
#
#
# Mechanical properties :
#
#
# Convention : Reuss Voigt Hill
#
# Bulk Modulus (GPa) = 56.79769 61.88392 59.34081
# Shear Modulus (GPa) = 28.72338 37.37995 33.05167
#
# Velocity S-wave (km/s) = 3.16062 3.60557 3.39041
# Velocity P-wave (km/s) = 5.75089 6.23344 5.99702
#
# Compressibility (1/GPa) = 0.01760635
#
# Stress axis : x y z
#
# Youngs Moduli (GPa) = 127.75013 64.93789 58.65546
#
# Poissons Ratio (x) = 0.26547 -0.13770
# Poissons Ratio (y) = 0.52226 0.56275
# Poissons Ratio (z) = -0.29990 0.62303
#
# Static dielectric constant tensor:
#      x y z
#    x 2.249900 0.000000 0.063380 
#    y 0.000000 2.222590 0.000000 
#    z 0.063380 0.000000 2.291200 
# 
# From -- ./inp_files/31109.got.cif
#   From: 2010.05.17/outbox.cif.g08.bks.cpg/sg14_16_cif.got.tgz:31109.got - 2010.06.03 17:49:19.
