data_PCOD9245217
_publ_section_title
;
Structure prediction by ZEFSAII (Michael W. Deem and Ramdas Pophale) SiO2 
 PCOD9245217
Probable space group: P 21/C
;
_chemical_formula_sum "Si O2"
_cell_formula_units_Z 32
_cell_length_a 17.223658
_cell_length_b 12.745288
_cell_length_c 14.521448
_cell_angle_alpha 90.000000
_cell_angle_beta 154.489268
_cell_angle_gamma 90.000000
_cell_volume 1372.902917
_symmetry_space_group_name_H-M "P 21/C"
_symmetry_group_IT_number 14
_symmetry_cell_setting 'monoclinic'
loop_
_space_group_symop_operation_xyz
x,y,z
-x,1/2+y,1/2-z
-x,-y,-z
x,1/2-y,1/2+z
loop_
_atom_site_type_symbol
_atom_site_label
_atom_site_fract_x
_atom_site_fract_y
_atom_site_fract_z
Si Si1 0.518312 0.352972 0.606646
Si Si2 0.171286 0.849295 0.337016
Si Si3 0.099002 0.597925 0.560157
Si Si4 0.164568 0.478364 0.465515
Si Si5 0.370783 0.405221 0.251384
Si Si6 0.421521 0.296631 0.690133
Si Si7 0.012586 0.505043 0.124662
Si Si8 0.088231 0.772672 0.430895
O O1 0.440107 0.355169 0.421129
O O2 0.550213 0.476156 0.667191
O O3 0.393700 0.303160 0.551073
O O4 0.705868 0.289277 0.813234
O O5 0.157457 0.836897 0.212944
O O6 0.383129 0.850996 0.584869
O O7 0.097434 0.763586 0.330566
O O8 0.044619 0.948009 0.231782
O O9 0.229808 0.548947 0.621443
O O10 0.993990 0.679078 0.383025
O O11 0.000000 0.500000 0.500000
O O12 0.276413 0.370949 0.583791
O O13 0.167905 0.530951 0.367158
O O14 0.418525 0.321302 0.224531
O O15 0.158066 0.425356 0.030134
O O16 0.993556 0.383181 0.129856
O O17 0.000000 0.500000 0.000000
#
# Coordination Sequence:
#
# PCOD9245217 Si02
#       8
#     4   4   4   4   4   4   4   4
#     4   9  20  40  62  92 127 163 212 265 319 379
#     4   9  21  41  58  85 126 164 200 253 319 368
#     4  10  21  38  61  90 125 165 209 262 315 375
#     4  10  23  40  59  92 128 163 216 261 312 388
#     4  10  21  39  64  93 126 167 219 263 311 390
#     4  11  22  39  66  95 126 166 212 266 321 375
#     4  10  21  37  58  86 122 164 208 262 317 369
#     4   9  19  36  58  83 120 163 203 252 317 382
#
# _framework density 23.308277
#
# number of rings (size 3 to 8) (size 9 to 14) (size 15 to 20)
#    0.000    2.250    0.000    2.250    0.000    7.500 
#    0.000    7.500    0.000    0.000    0.000    0.000 
#    0.000    0.000    0.000    0.000    0.000    0.000 
#
# Total GULP energy -178216.175609 kJ/mol
# GULP energy per Si atom -5569.255488 kJ/mol
# Density = 2.325523 g / cm^3
# Si number density = 23.308277 Si / 1000 Ang^3
#
#
#
# Elastic Constant Matrix: (Units=GPa)
#
#
# Indices 1 2 3 4 5 6 
#
# 1 145.3887 49.7696 44.8935 0.0000 -45.0270 0.0000
# 2 49.7696 107.9896 20.9971 0.0000 -13.3306 0.0000
# 3 44.8935 20.9971 67.2991 0.0000 -0.5269 0.0000
# 4 0.0000 0.0000 0.0000 21.4409 0.0000 -9.0354
# 5 -45.0270 -13.3306 -0.5269 0.0000 42.8090 0.0000
# 6 0.0000 0.0000 0.0000 -9.0354 0.0000 34.6165
#
#
#
# Elastic Compliance Matrix: (Units=1/GPa)
#
#
# Indices 1 2 3 4 5 6 
#
# 1 0.015666 -0.003542 -0.009225 0.000000 0.015261 0.000000
# 2 -0.003542 0.011069 -0.001093 0.000000 -0.000292 0.000000
# 3 -0.009225 -0.001093 0.021277 0.000000 -0.009782 0.000000
# 4 0.000000 0.000000 0.000000 0.052404 0.000000 0.013678
# 5 0.015261 -0.000292 -0.009782 0.000000 0.039199 0.000000
# 6 0.000000 0.000000 0.000000 0.013678 0.000000 0.032458
#
#
# Mechanical properties :
#
#
# Convention : Reuss Voigt Hill
#
# Bulk Modulus (GPa) = 49.28290 61.33309 55.30800
# Shear Modulus (GPa) = 24.20620 33.44109 28.82364
#
# Velocity S-wave (km/s) = 3.22611 3.79189 3.52039
# Velocity P-wave (km/s) = 5.92173 6.74850 6.34859
#
# Compressibility (1/GPa) = 0.02029101
#
# Stress axis : x y z
#
# Youngs Moduli (GPa) = 63.83408 90.34162 46.99807
#
# Poissons Ratio (x) = 0.32002 0.43358
# Poissons Ratio (y) = 0.22612 0.05136
# Poissons Ratio (z) = 0.58890 0.09873
#
# Static dielectric constant tensor:
#      x y z
#    x 1.969850 0.000000 -0.018780 
#    y 0.000000 1.926690 0.000000 
#    z -0.018780 0.000000 2.130760 
# 
# From -- ./inp_files/49020.got.cif
#   From: 2010.05.17/outbox.cif.g08.bks.cpg/sg14_25_cif.got.tgz:49020.got - 2010.06.03 17:49:19.
