data_PCOD9245887
_publ_section_title
;
Structure prediction by ZEFSAII (Michael W. Deem and Ramdas Pophale) SiO2 
 PCOD9245887
Probable space group: P 21/C
;
_chemical_formula_sum "Si O2"
_cell_formula_units_Z 24
_cell_length_a 10.550828
_cell_length_b 13.254526
_cell_length_c 8.572147
_cell_angle_alpha 90.000000
_cell_angle_beta 101.673546
_cell_angle_gamma 90.000000
_cell_volume 1173.987177
_symmetry_space_group_name_H-M "P 21/C"
_symmetry_group_IT_number 14
_symmetry_cell_setting 'monoclinic'
loop_
_space_group_symop_operation_xyz
x,y,z
-x,1/2+y,1/2-z
-x,-y,-z
x,1/2-y,1/2+z
loop_
_atom_site_type_symbol
_atom_site_label
_atom_site_fract_x
_atom_site_fract_y
_atom_site_fract_z
Si Si1 0.957261 0.885209 0.519944
Si Si2 0.900904 0.273440 0.668165
Si Si3 0.657737 0.879616 0.378456
Si Si4 0.718707 0.159042 0.862238
Si Si5 0.469888 0.480827 0.673746
Si Si6 0.542274 0.781527 0.653022
O O1 0.802820 0.885288 0.472320
O O2 0.013542 0.841651 0.695709
O O3 0.013985 0.807305 0.405956
O O4 0.000000 0.000000 0.500000
O O5 0.796823 0.208940 0.740771
O O6 0.819507 0.342850 0.529495
O O7 0.592448 0.983295 0.307140
O O8 0.572578 0.832785 0.496499
O O9 0.641723 0.806404 0.225236
O O10 0.651371 0.052063 0.812196
O O11 0.599002 0.231679 0.877589
O O12 0.500000 0.500000 0.500000
O O13 0.445650 0.366209 0.710867
#
# Coordination Sequence:
#
# PCOD9245887 Si02
#       6
#     4   4   4   4   4   4
#     4  11  26  44  69  93 134 183 223 267 329 381
#     4  10  23  44  64  93 129 172 221 271 313 406
#     4  11  24  41  62  94 128 166 217 269 323 400
#     4  10  21  39  64  93 124 163 214 267 334 387
#     4  11  23  36  64  96 125 166 207 268 338 393
#     4  11  22  40  66  93 132 162 209 281 339 383
#
# _framework density 20.443152999999999
#
# number of rings (size 3 to 8) (size 9 to 14) (size 15 to 20)
#    0.000    1.333    0.000    6.500    9.333    0.000 
#    0.000    1.667    0.000    0.000    0.000    0.000 
#    0.000    0.000    0.000    0.000    0.000    0.000 
#
# Total GULP energy -134237.039093 kJ/mol
# GULP energy per Si atom -5593.209962 kJ/mol
# Density = 2.039662 g / cm^3
# Si number density = 20.443153 Si / 1000 Ang^3
#
#
#
# Elastic Constant Matrix: (Units=GPa)
#
#
# Indices 1 2 3 4 5 6 
#
# 1 87.8067 25.1541 16.9068 0.0000 24.8696 0.0000
# 2 25.1541 94.2396 13.3864 0.0000 19.8381 0.0000
# 3 16.9068 13.3864 76.7935 0.0000 14.0799 0.0000
# 4 0.0000 0.0000 0.0000 28.6734 0.0000 1.7105
# 5 24.8696 19.8381 14.0799 0.0000 31.0094 0.0000
# 6 0.0000 0.0000 0.0000 1.7105 0.0000 11.0326
#
#
#
# Elastic Compliance Matrix: (Units=1/GPa)
#
#
# Indices 1 2 3 4 5 6 
#
# 1 0.015051 -0.001647 -0.001098 0.000000 -0.010519 0.000000
# 2 -0.001647 0.012484 -0.000645 0.000000 -0.006373 0.000000
# 3 -0.001098 -0.000645 0.014332 0.000000 -0.005214 0.000000
# 4 0.000000 0.000000 0.000000 0.035201 0.000000 -0.005457
# 5 -0.010519 -0.006373 -0.005214 0.000000 0.047129 0.000000
# 6 0.000000 0.000000 0.000000 -0.005457 0.000000 0.091486
#
#
# Mechanical properties :
#
#
# Convention : Reuss Voigt Hill
#
# Bulk Modulus (GPa) = 28.50070 41.08161 34.79115
# Shear Modulus (GPa) = 21.35295 27.70258 24.52777
#
# Velocity S-wave (km/s) = 3.23538 3.68517 3.46758
# Velocity P-wave (km/s) = 5.28476 6.18437 5.75218
#
# Compressibility (1/GPa) = 0.03508686
#
# Stress axis : x y z
#
# Youngs Moduli (GPa) = 66.44001 80.10235 69.77332
#
# Poissons Ratio (x) = 0.13194 0.07661
# Poissons Ratio (y) = 0.10944 0.04501
# Poissons Ratio (z) = 0.07295 0.05168
#
# Static dielectric constant tensor:
#      x y z
#    x 1.702390 0.000000 -0.007960 
#    y 0.000000 1.701120 0.000000 
#    z -0.007960 0.000000 1.762800 
# 
# From -- ./inp_files/8619.got.cif
#   From: 2010.05.17/outbox.cif.g08.bks.cpg/sg14_5_cif.got.tgz:8619.got - 2010.06.03 17:49:19.
