data_PCOD9245592
_publ_section_title
;
Structure prediction by ZEFSAII (Michael W. Deem and Ramdas Pophale) SiO2 
 PCOD9245592
Probable space group: P 21/C
;
_chemical_formula_sum "Si O2"
_cell_formula_units_Z 32
_cell_length_a 5.167673
_cell_length_b 12.930194
_cell_length_c 21.921564
_cell_angle_alpha 90.000000
_cell_angle_beta 102.998732
_cell_angle_gamma 90.000000
_cell_volume 1427.242445
_symmetry_space_group_name_H-M "P 21/C"
_symmetry_group_IT_number 14
_symmetry_cell_setting 'monoclinic'
loop_
_space_group_symop_operation_xyz
x,y,z
-x,1/2+y,1/2-z
-x,-y,-z
x,1/2-y,1/2+z
loop_
_atom_site_type_symbol
_atom_site_label
_atom_site_fract_x
_atom_site_fract_y
_atom_site_fract_z
Si Si1 0.232086 0.094203 0.704103
Si Si2 0.366502 0.822574 0.454418
Si Si3 0.894577 0.144252 0.947445
Si Si4 0.263505 0.291755 0.912908
Si Si5 0.329978 0.994244 0.358606
Si Si6 0.428562 0.084556 0.851446
Si Si7 0.823532 0.051880 0.064656
Si Si8 0.198020 0.232933 0.109759
O O1 0.341246 0.081814 0.777611
O O2 0.256149 0.210224 0.676943
O O3 0.412651 0.022076 0.669873
O O4 0.923699 0.062767 0.684547
O O5 0.501619 0.816765 0.527231
O O6 0.054592 0.796759 0.430914
O O7 0.544850 0.749188 0.418991
O O8 0.393591 0.935228 0.425110
O O9 0.737300 0.104443 0.880342
O O10 0.011099 0.256252 0.939846
O O11 0.733901 0.121615 0.001540
O O12 0.127545 0.059651 0.964677
O O13 0.243529 0.389753 0.868566
O O14 0.314138 0.189444 0.875856
O O15 0.343869 0.983702 0.885804
O O16 0.076716 0.117843 0.102446
#
# Coordination Sequence:
#
# PCOD9245592 Si02
#       8
#     4   4   4   4   4   4   4   4
#     4  10  25  46  63  92 134 173 231 271 319 406
#     4  10  21  40  66 101 131 162 214 275 334 401
#     4  10  22  39  61  98 132 161 228 276 334 399
#     4  11  23  39  68 100 131 168 220 277 347 393
#     4  10  24  44  69  95 134 176 217 274 338 400
#     4  11  25  40  63  92 136 178 222 281 322 397
#     4  10  21  38  64  93 129 173 217 273 343 384
#     4  10  21  40  66  92 127 173 214 267 328 396
#
# _framework density 22.420860000000001
#
# number of rings (size 3 to 8) (size 9 to 14) (size 15 to 20)
#    0.000    1.750    1.250    1.500    7.000    1.000 
#    0.000    3.750    0.000    0.000    0.000    0.000 
#    0.000    0.000    0.000    0.000    0.000    0.000 
#
# Total GULP energy -178535.217631 kJ/mol
# GULP energy per Si atom -5579.225551 kJ/mol
# Density = 2.236983 g / cm^3
# Si number density = 22.420860 Si / 1000 Ang^3
#
#
#
# Elastic Constant Matrix: (Units=GPa)
#
#
# Indices 1 2 3 4 5 6 
#
# 1 67.8865 6.2270 6.3449 0.0000 6.3193 0.0000
# 2 6.2270 105.4033 13.9749 0.0000 -5.3541 0.0000
# 3 6.3449 13.9749 110.1946 0.0000 5.6423 0.0000
# 4 0.0000 0.0000 0.0000 24.2529 0.0000 -2.7488
# 5 6.3193 -5.3541 5.6423 0.0000 21.9552 0.0000
# 6 0.0000 0.0000 0.0000 -2.7488 0.0000 31.7375
#
#
#
# Elastic Compliance Matrix: (Units=1/GPa)
#
#
# Indices 1 2 3 4 5 6 
#
# 1 0.015298 -0.001066 -0.000514 0.000000 -0.004531 0.000000
# 2 -0.001066 0.009885 -0.001349 0.000000 0.003064 0.000000
# 3 -0.000514 -0.001349 0.009409 0.000000 -0.002599 0.000000
# 4 0.000000 0.000000 0.000000 0.041641 0.000000 0.003607
# 5 -0.004531 0.003064 -0.002599 0.000000 0.048267 0.000000
# 6 0.000000 0.000000 0.000000 0.003607 0.000000 0.031821
#
#
# Mechanical properties :
#
#
# Convention : Reuss Voigt Hill
#
# Bulk Modulus (GPa) = 34.80166 37.39754 36.09960
# Shear Modulus (GPa) = 29.11119 32.71830 30.91474
#
# Velocity S-wave (km/s) = 3.60724 3.82420 3.71730
# Velocity P-wave (km/s) = 5.73631 6.01792 5.87880
#
# Compressibility (1/GPa) = 0.02873426
#
# Stress axis : x y z
#
# Youngs Moduli (GPa) = 65.36792 101.16485 106.28562
#
# Poissons Ratio (x) = 0.10782 0.05460
# Poissons Ratio (y) = 0.06967 0.14339
# Poissons Ratio (z) = 0.03358 0.13648
#
# Static dielectric constant tensor:
#      x y z
#    x 1.935270 0.000000 -0.016310 
#    y 0.000000 1.884370 0.000000 
#    z -0.016310 0.000000 1.801370 
# 
# From -- ./inp_files/71313.got.cif
#   From: 2010.05.17/outbox.cif.g08.bks.cpg/sg14_36_cif.got.tgz:71313.got - 2010.06.03 17:49:19.
