data_PCOD9245438
_publ_section_title
;
Structure prediction by ZEFSAII (Michael W. Deem and Ramdas Pophale) SiO2 
 PCOD9245438
Probable space group: P 21/C
;
_chemical_formula_sum "Si O2"
_cell_formula_units_Z 30
_cell_length_a 16.170575
_cell_length_b 12.815232
_cell_length_c 9.042479
_cell_angle_alpha 90.000000
_cell_angle_beta 145.320356
_cell_angle_gamma 90.000000
_cell_volume 1066.208380
_symmetry_space_group_name_H-M "P 21/C"
_symmetry_group_IT_number 14
_symmetry_cell_setting 'monoclinic'
loop_
_space_group_symop_operation_xyz
x,y,z
-x,1/2+y,1/2-z
-x,-y,-z
x,1/2-y,1/2+z
loop_
_atom_site_type_symbol
_atom_site_label
_atom_site_fract_x
_atom_site_fract_y
_atom_site_fract_z
Si Si1 0.404854 0.329958 0.443080
Si Si2 0.143205 0.332226 0.497646
Si Si3 0.008185 0.299276 0.591762
Si Si4 0.459811 0.688348 0.652844
Si Si5 0.000000 0.500000 0.000000
Si Si6 0.799726 0.512357 0.981165
Si Si7 0.663869 0.000398 0.573255
Si Si8 0.767589 0.368496 0.459365
O O1 0.275220 0.248958 0.215735
O O2 0.455807 0.294065 0.676869
O O3 0.531844 0.319295 0.509706
O O4 0.332366 0.440714 0.310404
O O5 0.208431 0.438317 0.652158
O O6 0.015453 0.305612 0.426613
O O7 0.090507 0.309333 0.254503
O O8 0.863996 0.311973 0.474961
O O9 0.112733 0.392001 0.808574
O O10 0.312714 0.690789 0.526622
O O11 0.551251 0.587014 0.848823
O O12 0.094366 0.529356 0.986180
O O13 0.123082 0.557992 0.286753
O O14 0.732637 0.453423 0.023386
O O15 0.637154 0.081626 0.665195
#
# Coordination Sequence:
#
# PCOD9245438 Si02
#       8
#     4   4   4   4   2   4   4   4
#     4   9  18  36  59  83 112 149 196 245 286 346
#     4   9  17  33  56  80 104 145 194 234 281 346
#     4   9  19  32  53  82 112 142 184 239 288 344
#     4  10  21  38  60  85 116 154 200 247 296 354
#     4  10  22  36  56  84 118 154 188 242 300 354
#     4   8  17  35  56  84 114 144 192 241 292 355
#     4   9  19  37  60  81 112 157 200 240 293 359
#     4  11  23  38  54  85 124 155 194 246 303 356
#
# _framework density 28.137091999999999
#
# number of rings (size 3 to 8) (size 9 to 14) (size 15 to 20)
#    0.000    2.667    0.000    2.800    0.000   11.200 
#    0.000    4.000    0.000    0.000    0.000    0.000 
#    0.000    0.000    0.000    0.000    0.000    0.000 
#
# Total GULP energy -167310.625691 kJ/mol
# GULP energy per Si atom -5577.020856 kJ/mol
# Density = 2.807305 g / cm^3
# Si number density = 28.137092 Si / 1000 Ang^3
#
#
#
# Elastic Constant Matrix: (Units=GPa)
#
#
# Indices 1 2 3 4 5 6 
#
# 1 170.5549 20.9757 15.0376 0.0000 -3.0456 0.0000
# 2 20.9757 52.0346 38.4378 0.0000 -6.9121 0.0000
# 3 15.0376 38.4378 93.5199 0.0000 -24.5505 0.0000
# 4 0.0000 0.0000 0.0000 44.2750 0.0000 1.9856
# 5 -3.0456 -6.9121 -24.5505 0.0000 47.3518 0.0000
# 6 0.0000 0.0000 0.0000 1.9856 0.0000 28.0923
#
#
#
# Elastic Compliance Matrix: (Units=1/GPa)
#
#
# Indices 1 2 3 4 5 6 
#
# 1 0.006169 -0.002524 0.000061 0.000000 0.000060 0.000000
# 2 -0.002524 0.028819 -0.012012 0.000000 -0.002184 0.000000
# 3 0.000061 -0.012012 0.017550 0.000000 0.007349 0.000000
# 4 0.000000 0.000000 0.000000 0.022658 0.000000 -0.001601
# 5 0.000060 -0.002184 0.007349 0.000000 0.024614 0.000000
# 6 0.000000 0.000000 0.000000 -0.001601 0.000000 0.035710
#
#
# Mechanical properties :
#
#
# Convention : Reuss Voigt Hill
#
# Bulk Modulus (GPa) = 42.39554 51.66797 47.03176
# Shear Modulus (GPa) = 29.01366 40.05438 34.53402
#
# Velocity S-wave (km/s) = 3.21464 3.77708 3.50715
# Velocity P-wave (km/s) = 5.37390 6.11756 5.75775
#
# Compressibility (1/GPa) = 0.02358738
#
# Stress axis : x y z
#
# Youngs Moduli (GPa) = 162.09226 34.69953 56.98144
#
# Poissons Ratio (x) = 0.08759 -0.00349
# Poissons Ratio (y) = 0.40915 0.68447
# Poissons Ratio (z) = -0.00993 0.41682
#
# Static dielectric constant tensor:
#      x y z
#    x 2.055820 0.000000 0.037170 
#    y 0.000000 2.339250 0.000000 
#    z 0.037170 0.000000 2.115760 
# 
# From -- ./inp_files/16808.got.cif
#   From: 2010.05.17/outbox.cif.g08.bks.cpg/sg14_9_cif.got.tgz:16808.got - 2010.06.03 17:49:19.
