data_PCOD9245723
_publ_section_title
;
Structure prediction by ZEFSAII (Michael W. Deem and Ramdas Pophale) SiO2 
 PCOD9245723
Probable space group: P 21/C
;
_chemical_formula_sum "Si O2"
_cell_formula_units_Z 20
_cell_length_a 10.566092
_cell_length_b 7.694611
_cell_length_c 11.335091
_cell_angle_alpha 90.000000
_cell_angle_beta 114.966012
_cell_angle_gamma 90.000000
_cell_volume 835.452607
_symmetry_space_group_name_H-M "P 21/C"
_symmetry_group_IT_number 14
_symmetry_cell_setting 'monoclinic'
loop_
_space_group_symop_operation_xyz
x,y,z
-x,1/2+y,1/2-z
-x,-y,-z
x,1/2-y,1/2+z
loop_
_atom_site_type_symbol
_atom_site_label
_atom_site_fract_x
_atom_site_fract_y
_atom_site_fract_z
Si Si1 0.932378 0.850280 0.223358
Si Si2 0.843871 0.154434 0.048116
Si Si3 0.694812 0.601820 0.064411
Si Si4 0.234976 0.922671 0.654049
Si Si5 0.415452 0.736941 0.414344
O O1 0.835250 0.682142 0.169994
O O2 0.079777 0.783744 0.328407
O O3 0.913618 0.969093 0.099590
O O4 0.863125 0.966177 0.299476
O O5 0.681823 0.152727 0.022958
O O6 0.846568 0.252465 0.925399
O O7 0.633608 0.439064 0.112777
O O8 0.722884 0.532160 0.943787
O O9 0.576424 0.750235 0.011127
O O10 0.371172 0.861595 0.778978
#
# Coordination Sequence:
#
# PCOD9245723 Si02
#       5
#     4   4   4   4   4
#     4  11  23  40  62  87 120 155 197 246 293 349
#     4  10  21  39  60  86 119 155 197 245 293 348
#     4  10  22  40  62  89 120 155 197 243 294 348
#     4  10  22  38  61  88 119 157 199 241 293 350
#     4   9  21  40  60  85 119 154 195 243 289 349
#
# _framework density 23.939119000000002
#
# number of rings (size 3 to 8) (size 9 to 14) (size 15 to 20)
#    0.000    2.000    0.000    3.000    0.000   12.800 
#    0.000    6.000    0.000    0.000    0.000    0.000 
#    0.000    0.000    0.000    0.000    0.000    0.000 
#
# Total GULP energy -111900.185091 kJ/mol
# GULP energy per Si atom -5595.009255 kJ/mol
# Density = 2.388463 g / cm^3
# Si number density = 23.939119 Si / 1000 Ang^3
#
#
#
# Elastic Constant Matrix: (Units=GPa)
#
#
# Indices 1 2 3 4 5 6 
#
# 1 69.7774 8.2874 19.8524 0.0000 8.8036 0.0000
# 2 8.2874 61.8435 -5.1584 0.0000 -2.3147 0.0000
# 3 19.8524 -5.1584 53.5132 0.0000 -0.8945 0.0000
# 4 0.0000 0.0000 0.0000 66.8017 0.0000 3.9819
# 5 8.8036 -2.3147 -0.8945 0.0000 36.7577 0.0000
# 6 0.0000 0.0000 0.0000 3.9819 0.0000 38.5961
#
#
#
# Elastic Compliance Matrix: (Units=1/GPa)
#
#
# Indices 1 2 3 4 5 6 
#
# 1 0.017172 -0.003030 -0.006737 0.000000 -0.004467 0.000000
# 2 -0.003030 0.016877 0.002782 0.000000 0.001856 0.000000
# 3 -0.006737 0.002782 0.021493 0.000000 0.002312 0.000000
# 4 0.000000 0.000000 0.000000 0.015062 0.000000 -0.001554
# 5 -0.004467 0.001856 0.002312 0.000000 0.028448 0.000000
# 6 0.000000 0.000000 0.000000 -0.001554 0.000000 0.026070
#
#
# Mechanical properties :
#
#
# Convention : Reuss Voigt Hill
#
# Bulk Modulus (GPa) = 24.05486 25.67742 24.86614
# Shear Modulus (GPa) = 32.69038 39.24128 35.96583
#
# Velocity S-wave (km/s) = 3.69936 4.05311 3.88027
# Velocity P-wave (km/s) = 5.32139 5.71428 5.52133
#
# Compressibility (1/GPa) = 0.04157165
#
# Stress axis : x y z
#
# Youngs Moduli (GPa) = 58.23567 59.25072 46.52651
#
# Poissons Ratio (x) = 0.17954 0.31345
# Poissons Ratio (y) = 0.17647 -0.12944
# Poissons Ratio (z) = 0.39234 -0.16484
#
# Static dielectric constant tensor:
#      x y z
#    x 1.891270 0.000000 -0.024200 
#    y 0.000000 1.961520 0.000000 
#    z -0.024200 0.000000 1.861520 
# 
# From -- ./inp_files/27557.got.cif
#   From: 2010.05.17/outbox.cif.g08.bks.cpg/sg14_14_cif.got.tgz:27557.got - 2010.06.03 17:49:19.
