data_PCOD9245168
_publ_section_title
;
Structure prediction by ZEFSAII (Michael W. Deem and Ramdas Pophale) SiO2 
 PCOD9245168
Probable space group: P 21/C
;
_chemical_formula_sum "Si O2"
_cell_formula_units_Z 16
_cell_length_a 6.763638
_cell_length_b 4.781362
_cell_length_c 19.017156
_cell_angle_alpha 90.000000
_cell_angle_beta 63.421062
_cell_angle_gamma 90.000000
_cell_volume 550.009129
_symmetry_space_group_name_H-M "P 21/C"
_symmetry_group_IT_number 14
_symmetry_cell_setting 'monoclinic'
loop_
_space_group_symop_operation_xyz
x,y,z
-x,1/2+y,1/2-z
-x,-y,-z
x,1/2-y,1/2+z
loop_
_atom_site_type_symbol
_atom_site_label
_atom_site_fract_x
_atom_site_fract_y
_atom_site_fract_z
Si Si1 0.653268 0.133688 0.651253
Si Si2 0.735779 0.735401 0.009523
Si Si3 0.230840 0.713797 0.591823
Si Si4 0.791117 0.642017 0.719337
O O1 0.770676 0.982910 0.567507
O O2 0.736299 0.953680 0.703745
O O3 0.387249 0.089401 0.691319
O O4 0.717401 0.442968 0.665495
O O5 0.486500 0.847957 0.065938
O O6 0.759571 0.530156 0.938292
O O7 0.843242 0.018287 0.962842
O O8 0.055640 0.638905 0.680392
#
# Coordination Sequence:
#
# PCOD9245168 Si02
#       4
#     4   4   4   4
#     4  10  21  37  56  81 112 145 186 232 277 332
#     4  10  21  37  56  81 112 144 183 229 276 331
#     4  10  21  37  56  81 112 144 183 229 276 331
#     4  10  21  37  56  81 112 145 186 232 277 332
#
# _framework density 29.090425
#
# number of rings (size 3 to 8) (size 9 to 14) (size 15 to 20)
#    0.000    2.000    0.000    3.000    0.000    6.000 
#    0.000   15.000    0.000    0.000    0.000    0.000 
#    0.000    0.000    0.000    0.000    0.000    0.000 
#
# Total GULP energy -89440.398620 kJ/mol
# GULP energy per Si atom -5590.024914 kJ/mol
# Density = 2.902421 g / cm^3
# Si number density = 29.090425 Si / 1000 Ang^3
#
#
#
# Elastic Constant Matrix: (Units=GPa)
#
#
# Indices 1 2 3 4 5 6 
#
# 1 71.9130 11.3445 55.7195 0.0000 -10.1376 0.0000
# 2 11.3445 129.9657 39.8623 0.0000 1.5873 0.0000
# 3 55.7195 39.8623 200.2941 0.0000 -49.6296 0.0000
# 4 0.0000 0.0000 0.0000 43.4708 0.0000 1.0325
# 5 -10.1376 1.5873 -49.6296 0.0000 65.6653 0.0000
# 6 0.0000 0.0000 0.0000 1.0325 0.0000 20.9626
#
#
#
# Elastic Compliance Matrix: (Units=1/GPa)
#
#
# Indices 1 2 3 4 5 6 
#
# 1 0.017807 0.000079 -0.005277 0.000000 -0.001241 0.000000
# 2 0.000079 0.008364 -0.002133 0.000000 -0.001802 0.000000
# 3 -0.005277 -0.002133 0.008239 0.000000 0.005464 0.000000
# 4 0.000000 0.000000 0.000000 0.023031 0.000000 -0.001134
# 5 -0.001241 -0.001802 0.005464 0.000000 0.019210 0.000000
# 6 0.000000 0.000000 0.000000 -0.001134 0.000000 0.047760
#
#
# Mechanical properties :
#
#
# Convention : Reuss Voigt Hill
#
# Bulk Modulus (GPa) = 50.63788 68.44727 59.54257
# Shear Modulus (GPa) = 34.32765 45.70284 40.01524
#
# Velocity S-wave (km/s) = 3.43889 3.96796 3.71286
# Velocity P-wave (km/s) = 5.76305 6.67631 6.23642
#
# Compressibility (1/GPa) = 0.01974806
#
# Stress axis : x y z
#
# Youngs Moduli (GPa) = 56.15790 119.56448 121.37286
#
# Poissons Ratio (x) = -0.00949 0.64049
# Poissons Ratio (y) = -0.00446 0.25891
# Poissons Ratio (z) = 0.29635 0.25505
#
# Static dielectric constant tensor:
#      x y z
#    x 2.356200 0.000000 -0.005030 
#    y 0.000000 2.121310 0.000000 
#    z -0.005030 0.000000 2.307980 
# 
# From -- ./inp_files/53760.got.cif
#   From: 2010.05.17/outbox.cif.g08.bks.cpg/sg14_27_cif.got.tgz:53760.got - 2010.06.03 17:49:19.
