data_PCOD9245034
_publ_section_title
;
Structure prediction by ZEFSAII (Michael W. Deem and Ramdas Pophale) SiO2 
 PCOD9245034
Probable space group: P 21/C
;
_chemical_formula_sum "Si O2"
_cell_formula_units_Z 32
_cell_length_a 25.191409
_cell_length_b 5.219753
_cell_length_c 11.424853
_cell_angle_alpha 90.000000
_cell_angle_beta 69.701986
_cell_angle_gamma 90.000000
_cell_volume 1408.996819
_symmetry_space_group_name_H-M "P 21/C"
_symmetry_group_IT_number 14
_symmetry_cell_setting 'monoclinic'
loop_
_space_group_symop_operation_xyz
x,y,z
-x,1/2+y,1/2-z
-x,-y,-z
x,1/2-y,1/2+z
loop_
_atom_site_type_symbol
_atom_site_label
_atom_site_fract_x
_atom_site_fract_y
_atom_site_fract_z
Si Si1 0.837132 0.113602 0.992798
Si Si2 0.473505 0.117637 0.634413
Si Si3 0.574165 0.382264 0.245497
Si Si4 0.036776 0.382002 0.210877
Si Si5 0.938460 0.870260 0.048354
Si Si6 0.692191 0.918126 0.688290
Si Si7 0.796513 0.892834 0.427347
Si Si8 0.267484 0.916460 0.751178
O O1 0.888974 0.052235 0.037957
O O2 0.780321 0.114710 0.113318
O O3 0.826075 0.882265 0.910716
O O4 0.840504 0.384309 0.926879
O O5 0.447773 0.401583 0.646099
O O6 0.526303 0.114574 0.683150
O O7 0.500000 0.000000 0.500000
O O8 0.427492 0.908849 0.710715
O O9 0.636362 0.481728 0.165008
O O10 0.070837 0.312818 0.306065
O O11 0.014539 0.672631 0.240073
O O12 0.058449 0.337948 0.060336
O O13 0.000000 0.000000 0.000000
O O14 0.688799 0.638203 0.746745
O O15 0.745888 0.897042 0.561521
O O16 0.704488 0.136622 0.776743
O O17 0.766215 0.976440 0.332888
#
# Coordination Sequence:
#
# PCOD9245034 Si02
#       8
#     4   4   4   4   4   4   4   4
#     4  10  23  39  61  89 116 159 193 248 303 366
#     4  10  21  38  56  83 122 160 195 235 294 348
#     4  10  21  36  57  85 119 152 199 246 283 353
#     4  10  22  40  62  88 126 158 202 252 299 357
#     4  10  23  43  63  95 126 164 208 254 308 376
#     4  10  21  37  59  89 113 151 198 247 297 348
#     4  10  22  41  61  85 119 150 199 244 307 359
#     4  10  21  40  60  84 119 150 196 249 302 363
#
# _framework density 22.711196000000001
#
# number of rings (size 3 to 8) (size 9 to 14) (size 15 to 20)
#    0.000    2.000    0.000    2.250    1.750    6.000 
#    4.500    0.000    0.000    0.000    0.000    0.000 
#    0.000    0.000    0.000    0.000    0.000    0.000 
#
# Total GULP energy -178541.345351 kJ/mol
# GULP energy per Si atom -5579.417042 kJ/mol
# Density = 2.265950 g / cm^3
# Si number density = 22.711196 Si / 1000 Ang^3
#
#
#
# Elastic Constant Matrix: (Units=GPa)
#
#
# Indices 1 2 3 4 5 6 
#
# 1 89.9570 36.9250 2.5651 0.0000 -13.2768 0.0000
# 2 36.9250 78.6811 6.9477 0.0000 2.5648 0.0000
# 3 2.5651 6.9477 57.0885 0.0000 23.9458 0.0000
# 4 0.0000 0.0000 0.0000 16.5495 0.0000 -2.2723
# 5 -13.2768 2.5648 23.9458 0.0000 19.1745 0.0000
# 6 0.0000 0.0000 0.0000 -2.2723 0.0000 37.6336
#
#
#
# Elastic Compliance Matrix: (Units=1/GPa)
#
#
# Indices 1 2 3 4 5 6 
#
# 1 0.019776 -0.009164 -0.012665 0.000000 0.030736 0.000000
# 2 -0.009164 0.017097 0.004099 0.000000 -0.013752 0.000000
# 3 -0.012665 0.004099 0.045142 0.000000 -0.065692 0.000000
# 4 0.000000 0.000000 0.000000 0.060930 0.000000 0.003679
# 5 0.030736 -0.013752 -0.065692 0.000000 0.157313 0.000000
# 6 0.000000 0.000000 0.000000 0.003679 0.000000 0.026794
#
#
# Mechanical properties :
#
#
# Convention : Reuss Voigt Hill
#
# Bulk Modulus (GPa) = 21.48093 35.40024 28.44058
# Shear Modulus (GPa) = 13.22649 26.62411 19.92530
#
# Velocity S-wave (km/s) = 2.41587 3.42759 2.96520
# Velocity P-wave (km/s) = 4.15460 5.59334 4.92677
#
# Compressibility (1/GPa) = 0.04655293
#
# Stress axis : x y z
#
# Youngs Moduli (GPa) = 50.56750 58.49119 22.15255
#
# Poissons Ratio (x) = 0.53602 0.28057
# Poissons Ratio (y) = 0.46341 -0.09081
# Poissons Ratio (z) = 0.64046 -0.23977
#
# Static dielectric constant tensor:
#      x y z
#    x 1.842280 0.000000 -0.015000 
#    y 0.000000 1.757880 0.000000 
#    z -0.015000 0.000000 1.871100 
# 
# From -- ./inp_files/35531.got.cif
#   From: 2010.05.17/outbox.cif.g08.bks.cpg/sg14_18_cif.got.tgz:35531.got - 2010.06.03 17:49:19.
