data_PCOD9245500
_publ_section_title
;
Structure prediction by ZEFSAII (Michael W. Deem and Ramdas Pophale) SiO2 
 PCOD9245500
Probable space group: P 21/C
;
_chemical_formula_sum "Si O2"
_cell_formula_units_Z 32
_cell_length_a 4.956227
_cell_length_b 25.005508
_cell_length_c 11.845747
_cell_angle_alpha 90.000000
_cell_angle_beta 77.578379
_cell_angle_gamma 90.000000
_cell_volume 1433.712660
_symmetry_space_group_name_H-M "P 21/C"
_symmetry_group_IT_number 14
_symmetry_cell_setting 'monoclinic'
loop_
_space_group_symop_operation_xyz
x,y,z
-x,1/2+y,1/2-z
-x,-y,-z
x,1/2-y,1/2+z
loop_
_atom_site_type_symbol
_atom_site_label
_atom_site_fract_x
_atom_site_fract_y
_atom_site_fract_z
Si Si1 0.026405 0.443382 0.328304
Si Si2 0.294874 0.810682 0.689594
Si Si3 0.729307 0.772838 0.823179
Si Si4 0.268360 0.331117 0.307311
Si Si5 0.486711 0.924596 0.695664
Si Si6 0.014567 0.514315 0.128452
Si Si7 0.309904 0.961059 0.943963
Si Si8 0.296303 0.791323 0.059048
O O1 0.228826 0.394084 0.286518
O O2 0.908278 0.467447 0.222807
O O3 0.137236 0.496541 0.383715
O O4 0.822291 0.424876 0.446744
O O5 0.575803 0.792142 0.724177
O O6 0.354214 0.871587 0.657765
O O7 0.251570 0.771558 0.589149
O O8 0.032424 0.799350 0.794950
O O9 0.754910 0.708655 0.799107
O O10 0.520165 0.791690 0.939128
O O11 0.552148 0.318792 0.346861
O O12 0.013800 0.314095 0.412544
O O13 0.319079 0.971677 0.647028
O O14 0.437080 0.924913 0.835058
O O15 0.809212 0.935560 0.657822
O O16 0.000000 0.500000 0.000000
O O17 0.500000 0.000000 0.000000
#
# Coordination Sequence:
#
# PCOD9245500 Si02
#       8
#     4   4   4   4   4   4   4   4
#     4  10  23  39  59  93 124 159 205 251 309 368
#     4  10  22  39  60  89 120 153 203 251 296 367
#     4  10  21  39  58  87 120 155 196 250 297 361
#     4  10  23  38  60  89 118 160 201 243 309 365
#     4  11  23  40  63  92 119 162 207 245 317 360
#     4  11  24  43  62  88 125 162 208 255 297 369
#     4  10  21  38  61  90 129 155 198 265 299 366
#     4  10  22  39  59  88 123 154 202 251 298 363
#
# _framework density 22.319673999999999
#
# number of rings (size 3 to 8) (size 9 to 14) (size 15 to 20)
#    0.000    1.750    1.250    1.875    5.250    1.000 
#    0.000    3.750    0.000    0.000    0.000    0.000 
#    0.000    0.000    0.000    0.000    0.000    0.000 
#
# Total GULP energy -178372.245559 kJ/mol
# GULP energy per Si atom -5574.132674 kJ/mol
# Density = 2.226887 g / cm^3
# Si number density = 22.319674 Si / 1000 Ang^3
#
#
#
# Elastic Constant Matrix: (Units=GPa)
#
#
# Indices 1 2 3 4 5 6 
#
# 1 86.3450 -5.8519 6.4465 0.0000 -3.2690 0.0000
# 2 -5.8519 60.5787 7.7952 0.0000 -0.0368 0.0000
# 3 6.4465 7.7952 79.2000 0.0000 10.4120 0.0000
# 4 0.0000 0.0000 0.0000 8.0705 0.0000 -0.1928
# 5 -3.2690 -0.0368 10.4120 0.0000 27.1500 0.0000
# 6 0.0000 0.0000 0.0000 -0.1928 0.0000 24.8628
#
#
#
# Elastic Compliance Matrix: (Units=1/GPa)
#
#
# Indices 1 2 3 4 5 6 
#
# 1 0.011845 0.001319 -0.001350 0.000000 0.001946 0.000000
# 2 0.001319 0.016878 -0.001888 0.000000 0.000906 0.000000
# 3 -0.001350 -0.001888 0.013631 0.000000 -0.005393 0.000000
# 4 0.000000 0.000000 0.000000 0.123931 0.000000 0.000961
# 5 0.001946 0.000906 -0.005393 0.000000 0.039136 0.000000
# 6 0.000000 0.000000 0.000000 0.000961 0.000000 0.040228
#
#
# Mechanical properties :
#
#
# Convention : Reuss Voigt Hill
#
# Bulk Modulus (GPa) = 25.96199 26.98925 26.47562
# Shear Modulus (GPa) = 19.06033 26.53228 22.79630
#
# Velocity S-wave (km/s) = 2.92545 3.45155 3.19933
# Velocity P-wave (km/s) = 4.80293 5.29175 5.05326
#
# Compressibility (1/GPa) = 0.03851785
#
# Stress axis : x y z
#
# Youngs Moduli (GPa) = 84.42175 59.24753 73.36304
#
# Poissons Ratio (x) = -0.07816 0.09902
# Poissons Ratio (y) = -0.11136 0.13848
# Poissons Ratio (z) = 0.11395 0.11184
#
# Static dielectric constant tensor:
#      x y z
#    x 1.834630 0.000000 -0.065960 
#    y 0.000000 1.952820 0.000000 
#    z -0.065960 0.000000 1.845360 
# 
# From -- ./inp_files/22162.got.cif
#   From: 2010.05.17/outbox.cif.g08.bks.cpg/sg14_12_cif.got.tgz:22162.got - 2010.06.03 17:49:19.
