data_PCOD9245785
_publ_section_title
;
Structure prediction by ZEFSAII (Michael W. Deem and Ramdas Pophale) SiO2 
 PCOD9245785
Probable space group: P 21/C
;
_chemical_formula_sum "Si O2"
_cell_formula_units_Z 24
_cell_length_a 10.084026
_cell_length_b 19.672249
_cell_length_c 8.909271
_cell_angle_alpha 90.000000
_cell_angle_beta 46.381165
_cell_angle_gamma 90.000000
_cell_volume 1279.486727
_symmetry_space_group_name_H-M "P 21/C"
_symmetry_group_IT_number 14
_symmetry_cell_setting 'monoclinic'
loop_
_space_group_symop_operation_xyz
x,y,z
-x,1/2+y,1/2-z
-x,-y,-z
x,1/2-y,1/2+z
loop_
_atom_site_type_symbol
_atom_site_label
_atom_site_fract_x
_atom_site_fract_y
_atom_site_fract_z
Si Si1 0.889152 0.662619 0.085380
Si Si2 0.403089 0.345435 0.240523
Si Si3 0.790045 0.408272 0.020801
Si Si4 0.725237 0.729538 0.934243
Si Si5 0.918409 0.951630 0.936923
Si Si6 0.290841 0.022108 0.188598
O O1 0.847299 0.726504 0.224619
O O2 0.753976 0.601158 0.242906
O O3 0.844032 0.682587 0.951269
O O4 0.095271 0.639062 0.955441
O O5 0.589101 0.382998 0.138821
O O6 0.374493 0.283518 0.379556
O O7 0.403990 0.314892 0.072304
O O8 0.231765 0.397357 0.388333
O O9 0.779800 0.480065 0.113984
O O10 0.914179 0.413609 0.775891
O O11 0.818562 0.992501 0.879767
O O12 0.000000 0.000000 0.000000
O O13 0.500000 0.000000 0.000000
#
# Coordination Sequence:
#
# PCOD9245785 Si02
#       6
#     4   4   4   4   4   4
#     4  10  21  39  62  89 117 163 203 245 309 358
#     4  11  23  43  61  92 124 159 209 249 307 363
#     4  11  23  41  66  89 124 161 207 254 312 366
#     4  10  22  41  63  84 127 161 200 257 292 369
#     4  11  24  40  62  95 126 157 207 257 305 366
#     4  11  21  41  64  90 125 162 201 258 313 363
#
# _framework density 18.757522999999999
#
# number of rings (size 3 to 8) (size 9 to 14) (size 15 to 20)
#    0.000    1.333    5.000    2.000    4.667    3.333 
#    0.000    0.000    0.000    0.000    0.000    0.000 
#    0.000    0.000    0.000    0.000    0.000    0.000 
#
# Total GULP energy -133953.028875 kJ/mol
# GULP energy per Si atom -5581.376203 kJ/mol
# Density = 1.871483 g / cm^3
# Si number density = 18.757523 Si / 1000 Ang^3
#
#
#
# Elastic Constant Matrix: (Units=GPa)
#
#
# Indices 1 2 3 4 5 6 
#
# 1 137.6677 72.5615 59.5572 0.0000 11.9960 0.0000
# 2 72.5615 82.1511 28.8068 0.0000 0.6989 0.0000
# 3 59.5572 28.8068 65.6086 0.0000 -8.6274 0.0000
# 4 0.0000 0.0000 0.0000 20.6262 0.0000 10.2029
# 5 11.9960 0.6989 -8.6274 0.0000 35.3560 0.0000
# 6 0.0000 0.0000 0.0000 10.2029 0.0000 44.5626
#
#
#
# Elastic Compliance Matrix: (Units=1/GPa)
#
#
# Indices 1 2 3 4 5 6 
#
# 1 0.022592 -0.014363 -0.015676 0.000000 -0.011207 0.000000
# 2 -0.014363 0.023642 0.003344 0.000000 0.005222 0.000000
# 3 -0.015676 0.003344 0.029645 0.000000 0.012487 0.000000
# 4 0.000000 0.000000 0.000000 0.054674 0.000000 -0.012518
# 5 -0.011207 0.005222 0.012487 0.000000 0.035030 0.000000
# 6 0.000000 0.000000 0.000000 -0.012518 0.000000 0.025306
#
#
# Mechanical properties :
#
#
# Convention : Reuss Voigt Hill
#
# Bulk Modulus (GPa) = 44.46245 67.47537 55.96891
# Shear Modulus (GPa) = 19.85891 28.40910 24.13400
#
# Velocity S-wave (km/s) = 3.25732 3.89594 3.59085
# Velocity P-wave (km/s) = 6.15647 7.50255 6.86259
#
# Compressibility (1/GPa) = 0.02249089
#
# Stress axis : x y z
#
# Youngs Moduli (GPa) = 44.26248 42.29773 33.73197
#
# Poissons Ratio (x) = 0.60752 0.52878
# Poissons Ratio (y) = 0.63574 -0.11282
# Poissons Ratio (z) = 0.69386 -0.14146
#
# Static dielectric constant tensor:
#      x y z
#    x 1.636570 0.000000 0.009280 
#    y 0.000000 1.657620 0.000000 
#    z 0.009280 0.000000 1.657330 
# 
# From -- ./inp_files/10106.got.cif
#   From: 2010.05.17/outbox.cif.g08.bks.cpg/sg14_6_cif.got.tgz:10106.got - 2010.06.03 17:49:19.
