data_PCOD9245924
_publ_section_title
;
Structure prediction by ZEFSAII (Michael W. Deem and Ramdas Pophale) SiO2 
 PCOD9245924
Probable space group: P 21/C
;
_chemical_formula_sum "Si O2"
_cell_formula_units_Z 20
_cell_length_a 17.363950
_cell_length_b 7.888799
_cell_length_c 14.984147
_cell_angle_alpha 90.000000
_cell_angle_beta 21.494189
_cell_angle_gamma 90.000000
_cell_volume 752.064414
_symmetry_space_group_name_H-M "P 21/C"
_symmetry_group_IT_number 14
_symmetry_cell_setting 'monoclinic'
loop_
_space_group_symop_operation_xyz
x,y,z
-x,1/2+y,1/2-z
-x,-y,-z
x,1/2-y,1/2+z
loop_
_atom_site_type_symbol
_atom_site_label
_atom_site_fract_x
_atom_site_fract_y
_atom_site_fract_z
Si Si1 0.389332 0.657724 0.712700
Si Si2 0.117830 0.672161 0.845976
Si Si3 0.140041 0.174372 0.542054
Si Si4 0.191532 0.322135 0.189551
Si Si5 0.559528 0.980677 0.332661
O O1 0.261497 0.503037 0.891951
O O2 0.635795 0.675589 0.471121
O O3 0.324036 0.844629 0.818129
O O4 0.339001 0.660073 0.660028
O O5 0.067035 0.685077 0.796459
O O6 0.983588 0.812637 0.045716
O O7 0.000000 0.500000 0.000000
O O8 0.111175 0.204846 0.677355
O O9 0.299851 0.322148 0.339327
O O10 0.329245 0.495017 0.037879
O O11 0.500000 0.000000 0.500000
#
# Coordination Sequence:
#
# PCOD9245924 Si02
#       5
#     4   4   4   4   4
#     4   9  23  41  64  92 127 168 211 259 323 377
#     4  10  22  42  64  94 128 169 213 262 319 381
#     4  11  20  42  66  91 133 167 212 270 311 387
#     4  10  22  42  64  95 131 164 220 259 316 387
#     4  10  21  39  65  93 123 170 210 260 319 372
#
# _framework density 26.593467
#
# number of rings (size 3 to 8) (size 9 to 14) (size 15 to 20)
#    1.200    0.800    2.000    1.200    0.000    8.000 
#    7.200    4.000    0.000    0.000    0.000    0.000 
#    0.000    0.000    0.000    0.000    0.000    0.000 
#
# Total GULP energy -111776.512744 kJ/mol
# GULP energy per Si atom -5588.825637 kJ/mol
# Density = 2.653294 g / cm^3
# Si number density = 26.593467 Si / 1000 Ang^3
#
#
#
# Elastic Constant Matrix: (Units=GPa)
#
#
# Indices 1 2 3 4 5 6 
#
# 1 248.4441 10.3351 53.8343 0.0000 4.9364 0.0000
# 2 10.3351 172.2173 30.2075 0.0000 -5.6954 0.0000
# 3 53.8343 30.2075 85.8809 0.0000 -6.6562 0.0000
# 4 0.0000 0.0000 0.0000 25.7714 0.0000 -9.1572
# 5 4.9364 -5.6954 -6.6562 0.0000 26.5692 0.0000
# 6 0.0000 0.0000 0.0000 -9.1572 0.0000 35.1442
#
#
#
# Elastic Compliance Matrix: (Units=1/GPa)
#
#
# Indices 1 2 3 4 5 6 
#
# 1 0.004735 0.000218 -0.003171 0.000000 -0.001628 0.000000
# 2 0.000218 0.006215 -0.002267 0.000000 0.000724 0.000000
# 3 -0.003171 -0.002267 0.014723 0.000000 0.003792 0.000000
# 4 0.000000 0.000000 0.000000 0.042762 0.000000 0.011142
# 5 -0.001628 0.000724 0.003792 0.000000 0.039045 0.000000
# 6 0.000000 0.000000 0.000000 0.011142 0.000000 0.031357
#
#
# Mechanical properties :
#
#
# Convention : Reuss Voigt Hill
#
# Bulk Modulus (GPa) = 65.64268 77.25512 71.44890
# Shear Modulus (GPa) = 32.39274 44.97466 38.68370
#
# Velocity S-wave (km/s) = 3.49387 4.11687 3.81810
# Velocity P-wave (km/s) = 6.40418 7.19108 6.80901
#
# Compressibility (1/GPa) = 0.01523399
#
# Stress axis : x y z
#
# Youngs Moduli (GPa) = 211.17114 160.89951 67.92009
#
# Poissons Ratio (x) = -0.03512 0.21540
# Poissons Ratio (y) = -0.04609 0.15396
# Poissons Ratio (z) = 0.66970 0.36472
#
# Static dielectric constant tensor:
#      x y z
#    x 2.202830 0.000000 -0.070610 
#    y 0.000000 2.297770 0.000000 
#    z -0.070610 0.000000 2.042460 
# 
# From -- ./inp_files/48256.got.cif
#   From: 2010.05.17/outbox.cif.g08.bks.cpg/sg14_25_cif.got.tgz:48256.got - 2010.06.03 17:49:19.
