data_PCOD9245516
_publ_section_title
;
Structure prediction by ZEFSAII (Michael W. Deem and Ramdas Pophale) SiO2 
 PCOD9245516
Probable space group: P 21/C
;
_chemical_formula_sum "Si O2"
_cell_formula_units_Z 28
_cell_length_a 9.742222
_cell_length_b 11.459008
_cell_length_c 16.960106
_cell_angle_alpha 90.000000
_cell_angle_beta 42.884697
_cell_angle_gamma 90.000000
_cell_volume 1288.480390
_symmetry_space_group_name_H-M "P 21/C"
_symmetry_group_IT_number 14
_symmetry_cell_setting 'monoclinic'
loop_
_space_group_symop_operation_xyz
x,y,z
-x,1/2+y,1/2-z
-x,-y,-z
x,1/2-y,1/2+z
loop_
_atom_site_type_symbol
_atom_site_label
_atom_site_fract_x
_atom_site_fract_y
_atom_site_fract_z
Si Si1 0.865934 0.322711 0.302381
Si Si2 0.694412 0.806101 0.443411
Si Si3 0.800299 0.124612 0.206810
Si Si4 0.431384 0.887864 0.847598
Si Si5 0.656990 0.324195 0.016483
Si Si6 0.754085 0.541360 0.439036
Si Si7 0.371272 0.452220 0.886070
O O1 0.785962 0.244741 0.262816
O O2 0.829379 0.244267 0.395987
O O3 0.762656 0.445981 0.365649
O O4 0.100846 0.340159 0.186339
O O5 0.501068 0.862198 0.483879
O O6 0.668237 0.666618 0.451477
O O7 0.711949 0.846399 0.526719
O O8 0.755178 0.141249 0.133338
O O9 0.610640 0.042410 0.307388
O O10 0.014586 0.068288 0.134213
O O11 0.464895 0.768363 0.879358
O O12 0.612550 0.927369 0.713684
O O13 0.362147 0.985095 0.938480
O O14 0.727608 0.430278 0.040762
#
# Coordination Sequence:
#
# PCOD9245516 Si02
#       7
#     4   4   4   4   4   4   4
#     4  10  22  37  61  89 117 154 199 251 290 343
#     4  11  23  37  64  89 115 156 202 247 295 345
#     4   9  19  39  59  90 116 155 197 242 297 355
#     4   9  22  36  60  89 116 161 188 243 296 356
#     4  11  21  41  59  89 119 152 206 242 296 352
#     4  10  21  38  62  89 120 154 201 243 295 361
#     4  10  22  36  64  82 119 156 198 242 292 353
#
# _framework density 21.731026
#
# number of rings (size 3 to 8) (size 9 to 14) (size 15 to 20)
#    0.857    1.143    1.429    1.714    6.000    2.286 
#    2.571    0.000    0.000    4.286    0.000    0.000 
#    0.000    0.000    0.000    0.000    0.000    0.000 
#
# Total GULP energy -156172.753224 kJ/mol
# GULP energy per Si atom -5577.598329 kJ/mol
# Density = 2.168157 g / cm^3
# Si number density = 21.731026 Si / 1000 Ang^3
#
#
#
# Elastic Constant Matrix: (Units=GPa)
#
#
# Indices 1 2 3 4 5 6 
#
# 1 32.4999 -0.4979 9.2095 0.0000 16.1566 0.0000
# 2 -0.4979 111.8780 38.9969 0.0000 24.7195 0.0000
# 3 9.2095 38.9969 128.6464 0.0000 17.8239 0.0000
# 4 0.0000 0.0000 0.0000 20.6787 0.0000 9.5287
# 5 16.1566 24.7195 17.8239 0.0000 27.2126 0.0000
# 6 0.0000 0.0000 0.0000 9.5287 0.0000 20.3201
#
#
#
# Elastic Compliance Matrix: (Units=1/GPa)
#
#
# Indices 1 2 3 4 5 6 
#
# 1 0.049319 0.008651 -0.001108 0.000000 -0.036414 0.000000
# 2 0.008651 0.013286 -0.002489 0.000000 -0.015575 0.000000
# 3 -0.001108 -0.002489 0.009021 0.000000 -0.002990 0.000000
# 4 0.000000 0.000000 0.000000 0.061689 0.000000 -0.028928
# 5 -0.036414 -0.015575 -0.002990 0.000000 0.074474 0.000000
# 6 0.000000 0.000000 0.000000 -0.028928 0.000000 0.062778
#
#
# Mechanical properties :
#
#
# Convention : Reuss Voigt Hill
#
# Bulk Modulus (GPa) = 12.23465 40.93790 26.58628
# Shear Modulus (GPa) = 17.37914 28.66334 23.02124
#
# Velocity S-wave (km/s) = 2.83103 3.63575 3.25833
# Velocity P-wave (km/s) = 4.04086 6.04188 5.13969
#
# Compressibility (1/GPa) = 0.08173504
#
# Stress axis : x y z
#
# Youngs Moduli (GPa) = 20.27635 75.26971 110.84899
#
# Poissons Ratio (x) = -0.65119 0.12281
# Poissons Ratio (y) = -0.17542 0.27587
# Poissons Ratio (z) = 0.02246 0.18733
#
# Static dielectric constant tensor:
#      x y z
#    x 1.786980 0.000000 0.005890 
#    y 0.000000 1.795530 0.000000 
#    z 0.005890 0.000000 1.798670 
# 
# From -- ./inp_files/57523.got.cif
#   From: 2010.05.17/outbox.cif.g08.bks.cpg/sg14_29_cif.got.tgz:57523.got - 2010.06.03 17:49:19.
