data_PCOD9245772
_publ_section_title
;
Structure prediction by ZEFSAII (Michael W. Deem and Ramdas Pophale) SiO2 
 PCOD9245772
Probable space group: P 21/C
;
_chemical_formula_sum "Si O2"
_cell_formula_units_Z 28
_cell_length_a 14.329592
_cell_length_b 18.414098
_cell_length_c 5.041284
_cell_angle_alpha 90.000000
_cell_angle_beta 111.860275
_cell_angle_gamma 90.000000
_cell_volume 1234.575635
_symmetry_space_group_name_H-M "P 21/C"
_symmetry_group_IT_number 14
_symmetry_cell_setting 'monoclinic'
loop_
_space_group_symop_operation_xyz
x,y,z
-x,1/2+y,1/2-z
-x,-y,-z
x,1/2-y,1/2+z
loop_
_atom_site_type_symbol
_atom_site_label
_atom_site_fract_x
_atom_site_fract_y
_atom_site_fract_z
Si Si1 0.565513 0.449786 0.761125
Si Si2 0.405289 0.199124 0.617844
Si Si3 0.366863 0.428053 0.756190
Si Si4 0.236674 0.984224 0.730589
Si Si5 0.897937 0.044427 0.913827
Si Si6 0.146377 0.799609 0.032902
Si Si7 0.375820 0.795740 0.271210
O O1 0.500000 0.500000 0.500000
O O2 0.473556 0.399868 0.752004
O O3 0.668536 0.430262 0.723317
O O4 0.606097 0.498158 0.052628
O O5 0.390812 0.237022 0.884458
O O6 0.337689 0.132471 0.441361
O O7 0.521417 0.169974 0.729484
O O8 0.291885 0.447936 0.438328
O O9 0.178276 0.986513 0.390058
O O10 0.153388 0.963092 0.854276
O O11 0.913106 0.131312 0.916917
O O12 0.000000 0.000000 0.000000
O O13 0.130308 0.734263 0.225449
O O14 0.263396 0.826047 0.139010
O O15 0.378913 0.774792 0.583806
#
# Coordination Sequence:
#
# PCOD9245772 Si02
#       7
#     4   4   4   4   4   4   4
#     4   9  20  36  61  94 123 168 211 263 315 382
#     4  10  22  34  53  84 126 174 213 262 307 379
#     4  10  21  39  61  92 130 171 223 256 323 392
#     4  11  23  42  64  95 129 169 212 277 326 383
#     4  12  26  44  70 100 131 168 223 287 344 389
#     4  10  21  40  65  94 127 168 207 261 338 413
#     4   8  16  31  46  77 115 157 202 242 305 378
#
# _framework density 22.679857999999999
#
# number of rings (size 3 to 8) (size 9 to 14) (size 15 to 20)
#    0.000    2.000    1.429    1.286    6.000    0.000 
#    5.143    0.000    0.000    5.143    0.000    0.000 
#    0.000    0.000    0.000    0.000    0.000    0.000 
#
# Total GULP energy -156007.929272 kJ/mol
# GULP energy per Si atom -5571.711760 kJ/mol
# Density = 2.262824 g / cm^3
# Si number density = 22.679858 Si / 1000 Ang^3
#
#
#
# Elastic Constant Matrix: (Units=GPa)
#
#
# Indices 1 2 3 4 5 6 
#
# 1 82.2551 21.7211 31.1622 0.0000 -1.0473 0.0000
# 2 21.7211 64.9161 15.1512 0.0000 1.4607 0.0000
# 3 31.1622 15.1512 105.1893 0.0000 -16.0278 0.0000
# 4 0.0000 0.0000 0.0000 35.8622 0.0000 -1.8763
# 5 -1.0473 1.4607 -16.0278 0.0000 38.7054 0.0000
# 6 0.0000 0.0000 0.0000 -1.8763 0.0000 24.9335
#
#
#
# Elastic Compliance Matrix: (Units=1/GPa)
#
#
# Indices 1 2 3 4 5 6 
#
# 1 0.014686 -0.003969 -0.003945 0.000000 -0.001086 0.000000
# 2 -0.003969 0.017113 -0.001498 0.000000 -0.001374 0.000000
# 3 -0.003945 -0.001498 0.011616 0.000000 0.004760 0.000000
# 4 0.000000 0.000000 0.000000 0.027995 0.000000 0.002107
# 5 -0.001086 -0.001374 0.004760 0.000000 0.027830 0.000000
# 6 0.000000 0.000000 0.000000 0.002107 0.000000 0.040265
#
#
# Mechanical properties :
#
#
# Convention : Reuss Voigt Hill
#
# Bulk Modulus (GPa) = 40.66416 43.15883 41.91150
# Shear Modulus (GPa) = 30.02533 32.18863 31.10698
#
# Velocity S-wave (km/s) = 3.64246 3.77139 3.70749
# Velocity P-wave (km/s) = 5.97148 6.16729 6.07017
#
# Compressibility (1/GPa) = 0.02459168
#
# Stress axis : x y z
#
# Youngs Moduli (GPa) = 68.09246 58.43463 86.08537
#
# Poissons Ratio (x) = 0.23192 0.33957
# Poissons Ratio (y) = 0.27025 0.12900
# Poissons Ratio (z) = 0.26859 0.08756
#
# Static dielectric constant tensor:
#      x y z
#    x 1.859070 0.000000 -0.050820 
#    y 0.000000 1.954280 0.000000 
#    z -0.050820 0.000000 1.911990 
# 
# From -- ./inp_files/3823.got.cif
#   From: 2010.05.17/outbox.cif.g08.bks.cpg/sg14_2_cif.got.tgz:3823.got - 2010.06.03 17:49:19.
