data_PCOD9245429
_publ_section_title
;
Structure prediction by ZEFSAII (Michael W. Deem and Ramdas Pophale) SiO2 
 PCOD9245429
Probable space group: P 21/C
;
_chemical_formula_sum "Si O2"
_cell_formula_units_Z 28
_cell_length_a 11.778931
_cell_length_b 11.373416
_cell_length_c 8.692910
_cell_angle_alpha 90.000000
_cell_angle_beta 63.398295
_cell_angle_gamma 90.000000
_cell_volume 1041.281020
_symmetry_space_group_name_H-M "P 21/C"
_symmetry_group_IT_number 14
_symmetry_cell_setting 'monoclinic'
loop_
_space_group_symop_operation_xyz
x,y,z
-x,1/2+y,1/2-z
-x,-y,-z
x,1/2-y,1/2+z
loop_
_atom_site_type_symbol
_atom_site_label
_atom_site_fract_x
_atom_site_fract_y
_atom_site_fract_z
Si Si1 0.083922 0.364971 0.104183
Si Si2 0.217406 0.312048 0.347327
Si Si3 0.609481 0.392366 0.473212
Si Si4 0.704095 0.356746 0.974460
Si Si5 0.531280 0.551648 0.748973
Si Si6 0.876947 0.003546 0.852848
Si Si7 0.137477 0.797635 0.890055
O O1 0.155474 0.338374 0.220396
O O2 0.003265 0.487509 0.170572
O O3 0.970106 0.276318 0.128737
O O4 0.187528 0.324120 0.911885
O O5 0.362388 0.358470 0.257211
O O6 0.154437 0.391359 0.522775
O O7 0.627346 0.254705 0.461198
O O8 0.584308 0.425059 0.668267
O O9 0.507430 0.412133 0.401890
O O10 0.742553 0.459387 0.358640
O O11 0.598977 0.452031 0.078470
O O12 0.778141 0.300523 0.073699
O O13 0.797472 0.378927 0.778229
O O14 0.903226 0.110682 0.955861
#
# Coordination Sequence:
#
# PCOD9245429 Si02
#       7
#     4   4   4   4   4   4   4
#     4  12  21  39  63  88 117 168 205 249 302 372
#     4  11  26  39  63  88 131 167 196 246 323 364
#     4   9  19  37  63  86 114 162 202 242 305 345
#     4  11  19  36  63  92 113 155 204 262 291 359
#     4  10  21  38  59  89 128 158 193 247 311 370
#     4  10  21  43  65  89 123 161 211 257 302 358
#     4  11  20  36  67  89 114 155 216 254 299 347
#
# _framework density 26.889956999999999
#
# number of rings (size 3 to 8) (size 9 to 14) (size 15 to 20)
#    0.000    1.429    5.714    0.429    2.000    0.000 
#    0.000    8.571    3.143    0.000    0.000    0.000 
#    0.000    0.000    0.000    0.000    0.000    0.000 
#
# Total GULP energy -156485.058867 kJ/mol
# GULP energy per Si atom -5588.752102 kJ/mol
# Density = 2.682875 g / cm^3
# Si number density = 26.889957 Si / 1000 Ang^3
#
#
#
# Elastic Constant Matrix: (Units=GPa)
#
#
# Indices 1 2 3 4 5 6 
#
# 1 174.6982 12.1260 43.1409 0.0000 17.6731 0.0000
# 2 12.1260 49.9341 10.3570 0.0000 -3.9891 0.0000
# 3 43.1409 10.3570 105.8565 0.0000 1.6474 0.0000
# 4 0.0000 0.0000 0.0000 43.7062 0.0000 -2.1746
# 5 17.6731 -3.9891 1.6474 0.0000 25.7070 0.0000
# 6 0.0000 0.0000 0.0000 -2.1746 0.0000 31.6425
#
#
#
# Elastic Compliance Matrix: (Units=1/GPa)
#
#
# Indices 1 2 3 4 5 6 
#
# 1 0.006968 -0.001538 -0.002614 0.000000 -0.004862 0.000000
# 2 -0.001538 0.021065 -0.001503 0.000000 0.004423 0.000000
# 3 -0.002614 -0.001503 0.010645 0.000000 0.000881 0.000000
# 4 0.000000 0.000000 0.000000 0.022959 0.000000 0.001578
# 5 -0.004862 0.004423 0.000881 0.000000 0.042872 0.000000
# 6 0.000000 0.000000 0.000000 0.001578 0.000000 0.031711
#
#
# Mechanical properties :
#
#
# Convention : Reuss Voigt Hill
#
# Bulk Modulus (GPa) = 36.53827 51.30407 43.92117
# Shear Modulus (GPa) = 31.91760 37.86880 34.89320
#
# Velocity S-wave (km/s) = 3.44898 3.75679 3.60617
# Velocity P-wave (km/s) = 5.42938 6.15943 5.80589
#
# Compressibility (1/GPa) = 0.02736857
#
# Stress axis : x y z
#
# Youngs Moduli (GPa) = 143.50898 47.47205 93.93865
#
# Poissons Ratio (x) = 0.07303 0.24552
# Poissons Ratio (y) = 0.22078 0.14118
# Poissons Ratio (z) = 0.37508 0.07134
#
# Static dielectric constant tensor:
#      x y z
#    x 2.172900 0.000000 -0.163130 
#    y 0.000000 2.197020 0.000000 
#    z -0.163130 0.000000 2.265390 
# 
# From -- ./inp_files/13044.got.cif
#   From: 2010.05.17/outbox.cif.g08.bks.cpg/sg14_7_cif.got.tgz:13044.got - 2010.06.03 17:49:19.
