data_PCOD9245219
_publ_section_title
;
Structure prediction by ZEFSAII (Michael W. Deem and Ramdas Pophale) SiO2 
 PCOD9245219
Probable space group: P 21/C
;
_chemical_formula_sum "Si O2"
_cell_formula_units_Z 28
_cell_length_a 11.214888
_cell_length_b 14.102864
_cell_length_c 8.563055
_cell_angle_alpha 90.000000
_cell_angle_beta 116.501260
_cell_angle_gamma 90.000000
_cell_volume 1212.041286
_symmetry_space_group_name_H-M "P 21/C"
_symmetry_group_IT_number 14
_symmetry_cell_setting 'monoclinic'
loop_
_space_group_symop_operation_xyz
x,y,z
-x,1/2+y,1/2-z
-x,-y,-z
x,1/2-y,1/2+z
loop_
_atom_site_type_symbol
_atom_site_label
_atom_site_fract_x
_atom_site_fract_y
_atom_site_fract_z
Si Si1 0.645385 0.216465 0.565931
Si Si2 0.573361 0.035581 0.695586
Si Si3 0.104427 0.200030 0.493227
Si Si4 0.242528 0.139885 0.863610
Si Si5 0.530287 0.374525 0.680176
Si Si6 0.149485 0.515476 0.526617
Si Si7 0.909154 0.207141 0.129835
O O1 0.592186 0.147081 0.672462
O O2 0.629314 0.325051 0.615457
O O3 0.566912 0.179427 0.365336
O O4 0.804475 0.213722 0.626476
O O5 0.722785 0.990315 0.791269
O O6 0.500000 0.000000 0.500000
O O7 0.488009 0.986263 0.785473
O O8 0.996835 0.154259 0.313911
O O9 0.010709 0.248709 0.566609
O O10 0.214557 0.148597 0.663043
O O11 0.172885 0.277072 0.423096
O O12 0.391955 0.146509 0.012085
O O13 0.174319 0.044681 0.885979
O O14 0.167242 0.625449 0.504055
O O15 0.000000 0.500000 0.500000
#
# Coordination Sequence:
#
# PCOD9245219 Si02
#       7
#     4   4   4   4   4   4   4
#     4  11  21  39  64  90 121 162 212 258 307 371
#     4   9  21  39  61  90 122 168 208 252 313 376
#     4  10  21  37  58  87 121 157 206 245 307 367
#     4  10  21  38  59  84 124 158 198 252 312 370
#     4  10  21  38  62  90 123 162 211 253 317 366
#     4  11  21  38  61  89 121 160 202 255 314 367
#     4  11  22  38  63  92 119 163 207 256 307 368
#
# _framework density 23.101524000000001
#
# number of rings (size 3 to 8) (size 9 to 14) (size 15 to 20)
#    0.000    1.714    1.429    3.429    2.000    0.571 
#    0.000    7.857    0.000    0.000    0.000    0.000 
#    0.000    0.000    0.000    0.000    0.000    0.000 
#
# Total GULP energy -155961.922789 kJ/mol
# GULP energy per Si atom -5570.068671 kJ/mol
# Density = 2.304894 g / cm^3
# Si number density = 23.101524 Si / 1000 Ang^3
#
#
#
# Elastic Constant Matrix: (Units=GPa)
#
#
# Indices 1 2 3 4 5 6 
#
# 1 46.9983 2.9456 19.1000 0.0000 0.8441 0.0000
# 2 2.9456 43.4302 5.1374 0.0000 3.1368 0.0000
# 3 19.1000 5.1374 146.1048 0.0000 21.8394 0.0000
# 4 0.0000 0.0000 0.0000 40.2785 0.0000 -4.8823
# 5 0.8441 3.1368 21.8394 0.0000 26.1991 0.0000
# 6 0.0000 0.0000 0.0000 -4.8823 0.0000 28.5117
#
#
#
# Elastic Compliance Matrix: (Units=1/GPa)
#
#
# Indices 1 2 3 4 5 6 
#
# 1 0.022634 -0.001306 -0.003230 0.000000 0.002119 0.000000
# 2 -0.001306 0.023329 -0.000272 0.000000 -0.002524 0.000000
# 3 -0.003230 -0.000272 0.008289 0.000000 -0.006773 0.000000
# 4 0.000000 0.000000 0.000000 0.025353 0.000000 0.004341
# 5 0.002119 -0.002524 -0.006773 0.000000 0.044049 0.000000
# 6 0.000000 0.000000 0.000000 0.004341 0.000000 0.035817
#
#
# Mechanical properties :
#
#
# Convention : Reuss Voigt Hill
#
# Bulk Modulus (GPa) = 22.40416 32.32216 27.36316
# Shear Modulus (GPa) = 27.17919 32.95455 30.06687
#
# Velocity S-wave (km/s) = 3.43375 3.78101 3.61156
# Velocity P-wave (km/s) = 5.04381 5.75180 5.40940
#
# Compressibility (1/GPa) = 0.04463458
#
# Stress axis : x y z
#
# Youngs Moduli (GPa) = 44.18180 42.86589 120.64825
#
# Poissons Ratio (x) = 0.05599 0.38966
# Poissons Ratio (y) = 0.05771 0.03285
# Poissons Ratio (z) = 0.14270 0.01167
#
# Static dielectric constant tensor:
#      x y z
#    x 1.860830 0.000000 0.027450 
#    y 0.000000 1.920920 0.000000 
#    z 0.027450 0.000000 1.919330 
# 
# From -- ./inp_files/13410.got.cif
#   From: 2010.05.17/outbox.cif.g08.bks.cpg/sg14_7_cif.got.tgz:13410.got - 2010.06.03 17:49:19.
