data_PCOD9245193
_publ_section_title
;
Structure prediction by ZEFSAII (Michael W. Deem and Ramdas Pophale) SiO2 
 PCOD9245193
Probable space group: P 21/C
;
_chemical_formula_sum "Si O2"
_cell_formula_units_Z 32
_cell_length_a 13.588226
_cell_length_b 8.141562
_cell_length_c 13.138834
_cell_angle_alpha 90.000000
_cell_angle_beta 66.647475
_cell_angle_gamma 90.000000
_cell_volume 1334.471950
_symmetry_space_group_name_H-M "P 21/C"
_symmetry_group_IT_number 14
_symmetry_cell_setting 'monoclinic'
loop_
_space_group_symop_operation_xyz
x,y,z
-x,1/2+y,1/2-z
-x,-y,-z
x,1/2-y,1/2+z
loop_
_atom_site_type_symbol
_atom_site_label
_atom_site_fract_x
_atom_site_fract_y
_atom_site_fract_z
Si Si1 0.293784 0.248462 0.588162
Si Si2 0.003468 0.262773 0.949217
Si Si3 0.827620 0.270963 0.849022
Si Si4 0.355630 0.087591 0.367455
Si Si5 0.848761 0.442325 0.640698
Si Si6 0.825909 0.955145 0.712870
Si Si7 0.333162 0.584488 0.454956
Si Si8 0.474010 0.303817 0.174077
O O1 0.283317 0.131952 0.494713
O O2 0.195867 0.301464 0.701298
O O3 0.330632 0.423915 0.525973
O O4 0.387764 0.179872 0.620425
O O5 0.085630 0.412547 0.907435
O O6 0.924906 0.290959 0.886312
O O7 0.081866 0.105191 0.903976
O O8 0.926549 0.206821 0.072211
O O9 0.817069 0.412272 0.769977
O O10 0.850216 0.105422 0.775715
O O11 0.722029 0.230660 0.956842
O O12 0.283177 0.018197 0.305531
O O13 0.409382 0.254963 0.302360
O O14 0.449466 0.959964 0.351715
O O15 0.745989 0.441399 0.608857
O O16 0.449448 0.647392 0.377657
#
# Coordination Sequence:
#
# PCOD9245193 Si02
#       8
#     4   4   4   4   4   4   4   4
#     4  10  22  40  60  85 116 154 197 239 289 346
#     4  10  21  37  58  82 114 154 196 238 287 347
#     4  10  21  37  57  85 117 151 194 240 291 346
#     4  11  23  39  60  88 119 153 196 241 291 349
#     4  10  21  37  58  85 114 154 196 237 291 347
#     4  10  22  39  59  86 117 152 191 240 293 341
#     4  10  21  38  60  85 117 153 193 243 294 346
#     4  11  23  39  61  88 117 153 194 240 293 347
#
# _framework density 23.979520000000001
#
# number of rings (size 3 to 8) (size 9 to 14) (size 15 to 20)
#    0.000    1.750    0.000    3.750    0.000    8.500 
#    0.000    0.000    0.000    0.000    0.000    0.000 
#    0.000    0.000    0.000    0.000    0.000    0.000 
#
# Total GULP energy -179122.242836 kJ/mol
# GULP energy per Si atom -5597.570089 kJ/mol
# Density = 2.392494 g / cm^3
# Si number density = 23.979520 Si / 1000 Ang^3
#
#
#
# Elastic Constant Matrix: (Units=GPa)
#
#
# Indices 1 2 3 4 5 6 
#
# 1 46.6720 -4.0878 24.9760 0.0000 -4.2849 0.0000
# 2 -4.0878 49.0714 -0.3977 0.0000 0.7926 0.0000
# 3 24.9760 -0.3977 102.7713 0.0000 3.6189 0.0000
# 4 0.0000 0.0000 0.0000 41.6695 0.0000 -5.2470
# 5 -4.2849 0.7926 3.6189 0.0000 30.4019 0.0000
# 6 0.0000 0.0000 0.0000 -5.2470 0.0000 35.7703
#
#
#
# Elastic Compliance Matrix: (Units=1/GPa)
#
#
# Indices 1 2 3 4 5 6 
#
# 1 0.025369 0.001993 -0.006308 0.000000 0.004274 0.000000
# 2 0.001993 0.020545 -0.000398 0.000000 -0.000207 0.000000
# 3 -0.006308 -0.000398 0.011340 0.000000 -0.002229 0.000000
# 4 0.000000 0.000000 0.000000 0.024450 0.000000 0.003587
# 5 0.004274 -0.000207 -0.002229 0.000000 0.033766 0.000000
# 6 0.000000 0.000000 0.000000 0.003587 0.000000 0.028482
#
#
# Mechanical properties :
#
#
# Convention : Reuss Voigt Hill
#
# Bulk Modulus (GPa) = 20.90794 26.61064 23.75929
# Shear Modulus (GPa) = 29.52994 33.43662 31.48328
#
# Velocity S-wave (km/s) = 3.51303 3.73819 3.62736
# Velocity P-wave (km/s) = 5.01928 5.45467 5.24150
#
# Compressibility (1/GPa) = 0.04782873
#
# Stress axis : x y z
#
# Youngs Moduli (GPa) = 39.41849 48.67455 88.18105
#
# Poissons Ratio (x) = -0.09702 0.55625
# Poissons Ratio (y) = -0.07857 0.03506
# Poissons Ratio (z) = 0.24865 0.01935
#
# Static dielectric constant tensor:
#      x y z
#    x 1.815320 0.000000 -0.042650 
#    y 0.000000 1.978390 0.000000 
#    z -0.042650 0.000000 1.921210 
# 
# From -- ./inp_files/31814.got.cif
#   From: 2010.05.17/outbox.cif.g08.bks.cpg/sg14_16_cif.got.tgz:31814.got - 2010.06.03 17:49:19.
