data_PCOD9245664
_publ_section_title
;
Structure prediction by ZEFSAII (Michael W. Deem and Ramdas Pophale) SiO2 
 PCOD9245664
Probable space group: P 21/C
;
_chemical_formula_sum "Si O2"
_cell_formula_units_Z 30
_cell_length_a 12.575903
_cell_length_b 10.280044
_cell_length_c 8.980171
_cell_angle_alpha 90.000000
_cell_angle_beta 66.525293
_cell_angle_gamma 90.000000
_cell_volume 1064.878003
_symmetry_space_group_name_H-M "P 21/C"
_symmetry_group_IT_number 14
_symmetry_cell_setting 'monoclinic'
loop_
_space_group_symop_operation_xyz
x,y,z
-x,1/2+y,1/2-z
-x,-y,-z
x,1/2-y,1/2+z
loop_
_atom_site_type_symbol
_atom_site_label
_atom_site_fract_x
_atom_site_fract_y
_atom_site_fract_z
Si Si1 0.560774 0.203773 0.447842
Si Si2 0.500000 0.000000 0.000000
Si Si3 0.413038 0.193441 0.779157
Si Si4 0.781615 0.928685 0.969427
Si Si5 0.283170 0.058396 0.300105
Si Si6 0.050900 0.774205 0.605768
Si Si7 0.188596 0.872046 0.798125
Si Si8 0.901501 0.850405 0.410075
O O1 0.550165 0.351337 0.515330
O O2 0.482325 0.127097 0.609558
O O3 0.489473 0.214426 0.337472
O O4 0.688393 0.156196 0.343806
O O5 0.406611 0.997176 0.198293
O O6 0.310756 0.284864 0.770233
O O7 0.358705 0.093750 0.932021
O O8 0.790735 0.991118 0.801869
O O9 0.844342 0.791845 0.922325
O O10 0.814531 0.997263 0.103523
O O11 0.206164 0.053574 0.492217
O O12 0.091066 0.855246 0.726807
O O13 0.160420 0.730103 0.446468
O O14 0.971780 0.844305 0.526711
O O15 0.985197 0.650314 0.719492
#
# Coordination Sequence:
#
# PCOD9245664 Si02
#       8
#     4   2   4   4   4   4   4   4
#     4  11  23  41  65  94 140 182 219 276 335 415
#     4  10  22  40  64  98 136 182 214 260 346 410
#     4  10  21  39  65  96 131 174 226 265 328 409
#     4  11  22  41  70 100 127 179 221 279 343 412
#     4  10  21  38  68 100 126 172 222 270 330 397
#     4  10  23  44  66  93 132 173 223 291 333 396
#     4  11  26  42  67  96 140 175 224 287 357 385
#     4  10  21  45  70  93 130 171 232 280 335 396
#
# _framework density 28.172241
#
# number of rings (size 3 to 8) (size 9 to 14) (size 15 to 20)
#    0.000    1.600    4.000    0.800    5.600    2.667 
#    0.000    7.333    0.000    0.000    0.000    0.000 
#    0.000    0.000    0.000    0.000    0.000    0.000 
#
# Total GULP energy -167437.219866 kJ/mol
# GULP energy per Si atom -5581.240662 kJ/mol
# Density = 2.810812 g / cm^3
# Si number density = 28.172241 Si / 1000 Ang^3
#
#
#
# Elastic Constant Matrix: (Units=GPa)
#
#
# Indices 1 2 3 4 5 6 
#
# 1 102.2431 19.2404 37.8178 0.0000 8.0791 0.0000
# 2 19.2404 57.9586 21.3968 0.0000 13.1664 0.0000
# 3 37.8178 21.3968 177.7987 0.0000 -15.2720 0.0000
# 4 0.0000 0.0000 0.0000 48.1223 0.0000 4.2739
# 5 8.0791 13.1664 -15.2720 0.0000 57.7931 0.0000
# 6 0.0000 0.0000 0.0000 4.2739 0.0000 37.8467
#
#
#
# Elastic Compliance Matrix: (Units=1/GPa)
#
#
# Indices 1 2 3 4 5 6 
#
# 1 0.011202 -0.002546 -0.002211 0.000000 -0.001570 0.000000
# 2 -0.002546 0.020035 -0.002283 0.000000 -0.004812 0.000000
# 3 -0.002211 -0.002283 0.006590 0.000000 0.002571 0.000000
# 4 0.000000 0.000000 0.000000 0.020991 0.000000 -0.002370
# 5 -0.001570 -0.004812 0.002571 0.000000 0.019298 0.000000
# 6 0.000000 0.000000 0.000000 -0.002370 0.000000 0.026690
#
#
# Mechanical properties :
#
#
# Convention : Reuss Voigt Hill
#
# Bulk Modulus (GPa) = 42.11017 54.99004 48.55011
# Shear Modulus (GPa) = 39.43209 46.05544 42.74377
#
# Velocity S-wave (km/s) = 3.74529 4.04763 3.89939
# Velocity P-wave (km/s) = 5.80368 6.43475 6.12735
#
# Compressibility (1/GPa) = 0.02374723
#
# Stress axis : x y z
#
# Youngs Moduli (GPa) = 89.27317 49.91367 151.74108
#
# Poissons Ratio (x) = 0.12706 0.33552
# Poissons Ratio (y) = 0.22725 0.34640
# Poissons Ratio (z) = 0.19739 0.11395
#
# Static dielectric constant tensor:
#      x y z
#    x 1.996790 0.000000 -0.036180 
#    y 0.000000 2.236580 0.000000 
#    z -0.036180 0.000000 2.186770 
# 
# From -- ./inp_files/15707.got.cif
#   From: 2010.05.17/outbox.cif.g08.bks.cpg/sg14_8_cif.got.tgz:15707.got - 2010.06.03 17:49:19.
