data_PCOD9245775
_publ_section_title
;
Structure prediction by ZEFSAII (Michael W. Deem and Ramdas Pophale) SiO2 
 PCOD9245775
Probable space group: P 21/C
;
_chemical_formula_sum "Si O2"
_cell_formula_units_Z 32
_cell_length_a 14.302347
_cell_length_b 9.061113
_cell_length_c 21.611853
_cell_angle_alpha 90.000000
_cell_angle_beta 150.773576
_cell_angle_gamma 90.000000
_cell_volume 1367.520841
_symmetry_space_group_name_H-M "P 21/C"
_symmetry_group_IT_number 14
_symmetry_cell_setting 'monoclinic'
loop_
_space_group_symop_operation_xyz
x,y,z
-x,1/2+y,1/2-z
-x,-y,-z
x,1/2-y,1/2+z
loop_
_atom_site_type_symbol
_atom_site_label
_atom_site_fract_x
_atom_site_fract_y
_atom_site_fract_z
Si Si1 0.884145 0.938436 0.838082
Si Si2 0.252067 0.414868 0.599800
Si Si3 0.628048 0.126902 0.189185
Si Si4 0.236374 0.325605 0.407073
Si Si5 0.721126 0.496864 0.025214
Si Si6 0.123604 0.110488 0.708997
Si Si7 0.500155 0.857636 0.291680
Si Si8 0.786720 0.347453 0.181753
O O1 0.800650 0.923829 0.858346
O O2 0.930550 0.774545 0.842743
O O3 0.757178 0.017501 0.712484
O O4 0.068497 0.042209 0.954181
O O5 0.333822 0.254422 0.632559
O O6 0.404739 0.548612 0.682366
O O7 0.640622 0.245703 0.252187
O O8 0.714362 0.206787 0.177744
O O9 0.754114 0.981650 0.269734
O O10 0.402921 0.101109 0.044750
O O11 0.276422 0.152001 0.437285
O O12 0.248919 0.376387 0.343799
O O13 0.014411 0.345821 0.298088
O O14 0.687704 0.373862 0.058280
O O15 0.928731 0.470672 0.115191
O O16 0.581171 0.523881 0.887388
#
# Coordination Sequence:
#
# PCOD9245775 Si02
#       8
#     4   4   4   4   4   4   4   4
#     4  11  24  45  67  97 136 185 235 276 351 411
#     4  11  27  47  69  95 138 186 232 298 333 414
#     4  11  23  40  69  99 137 179 229 284 343 417
#     4  10  21  39  62 101 141 175 221 283 342 421
#     4  10  22  40  67 100 138 177 219 288 347 414
#     4  11  23  39  67 103 134 183 230 274 352 416
#     4  11  26  46  68 100 133 178 242 286 354 401
#     4  11  21  43  69  96 142 182 219 282 359 416
#
# _framework density 23.400009000000001
#
# number of rings (size 3 to 8) (size 9 to 14) (size 15 to 20)
#    0.000    1.250    3.750    1.875    3.500    3.000 
#    0.000    2.500    0.000    0.000    0.000    0.000 
#    0.000    0.000    0.000    0.000    0.000    0.000 
#
# Total GULP energy -178965.614201 kJ/mol
# GULP energy per Si atom -5592.675444 kJ/mol
# Density = 2.334675 g / cm^3
# Si number density = 23.400009 Si / 1000 Ang^3
#
#
#
# Elastic Constant Matrix: (Units=GPa)
#
#
# Indices 1 2 3 4 5 6 
#
# 1 53.9185 6.5909 23.6103 0.0000 3.6740 0.0000
# 2 6.5909 44.4067 14.4576 0.0000 -2.4964 0.0000
# 3 23.6103 14.4576 67.9003 0.0000 -2.9073 0.0000
# 4 0.0000 0.0000 0.0000 33.1837 0.0000 8.3041
# 5 3.6740 -2.4964 -2.9073 0.0000 27.2259 0.0000
# 6 0.0000 0.0000 0.0000 8.3041 0.0000 33.9833
#
#
#
# Elastic Compliance Matrix: (Units=1/GPa)
#
#
# Indices 1 2 3 4 5 6 
#
# 1 0.022315 -0.001023 -0.007710 0.000000 -0.003928 0.000000
# 2 -0.001023 0.024320 -0.004743 0.000000 0.001862 0.000000
# 3 -0.007710 -0.004743 0.018529 0.000000 0.002584 0.000000
# 4 0.000000 0.000000 0.000000 0.032098 0.000000 -0.007843
# 5 -0.003928 0.001862 0.002584 0.000000 0.037706 0.000000
# 6 0.000000 0.000000 0.000000 -0.007843 0.000000 0.031343
#
#
# Mechanical properties :
#
#
# Convention : Reuss Voigt Hill
#
# Bulk Modulus (GPa) = 26.16928 28.39368 27.28148
# Shear Modulus (GPa) = 24.27184 26.98303 25.62744
#
# Velocity S-wave (km/s) = 3.22414 3.39945 3.31295
# Velocity P-wave (km/s) = 5.00678 5.25059 5.13013
#
# Compressibility (1/GPa) = 0.03821275
#
# Stress axis : x y z
#
# Youngs Moduli (GPa) = 44.81237 41.11883 53.96979
#
# Poissons Ratio (x) = 0.04205 0.41610
# Poissons Ratio (y) = 0.04583 0.25597
# Poissons Ratio (z) = 0.34550 0.19502
#
# Static dielectric constant tensor:
#      x y z
#    x 1.916380 0.000000 0.037050 
#    y 0.000000 1.852760 0.000000 
#    z 0.037050 0.000000 1.893300 
# 
# From -- ./inp_files/73869.got.cif
#   From: 2010.05.17/outbox.cif.g08.bks.cpg/sg14_37_cif.got.tgz:73869.got - 2010.06.03 17:49:19.
