data_PCOD9245050
_publ_section_title
;
Structure prediction by ZEFSAII (Michael W. Deem and Ramdas Pophale) SiO2 
 PCOD9245050
Probable space group: P 21/C
;
_chemical_formula_sum "Si O2"
_cell_formula_units_Z 32
_cell_length_a 11.984421
_cell_length_b 4.911555
_cell_length_c 27.678092
_cell_angle_alpha 90.000000
_cell_angle_beta 61.114110
_cell_angle_gamma 90.000000
_cell_volume 1426.493491
_symmetry_space_group_name_H-M "P 21/C"
_symmetry_group_IT_number 14
_symmetry_cell_setting 'monoclinic'
loop_
_space_group_symop_operation_xyz
x,y,z
-x,1/2+y,1/2-z
-x,-y,-z
x,1/2-y,1/2+z
loop_
_atom_site_type_symbol
_atom_site_label
_atom_site_fract_x
_atom_site_fract_y
_atom_site_fract_z
Si Si1 0.875697 0.794521 0.123547
Si Si2 0.124217 0.471367 0.525209
Si Si3 0.230356 0.909686 0.695246
Si Si4 0.183854 0.531164 0.959953
Si Si5 0.837416 0.271513 0.193363
Si Si6 0.376884 0.748418 0.486281
Si Si7 0.351540 0.136585 0.583340
Si Si8 0.887528 0.889951 0.824177
O O1 0.825515 0.633426 0.087147
O O2 0.859521 0.573437 0.169332
O O3 0.019737 0.897636 0.081980
O O4 0.805700 0.068359 0.155811
O O5 0.111685 0.156924 0.514783
O O6 0.123677 0.667298 0.477272
O O7 0.270843 0.515024 0.510608
O O8 0.255862 0.782322 0.742028
O O9 0.348524 0.977097 0.635458
O O10 0.143319 0.695315 0.684140
O O11 0.151187 0.192378 0.712468
O O12 0.325295 0.575451 0.951378
O O13 0.972978 0.172225 0.186648
O O14 0.523465 0.677289 0.447402
O O15 0.360061 0.926926 0.537763
O O16 0.217069 0.291153 0.614817
#
# Coordination Sequence:
#
# PCOD9245050 Si02
#       8
#     4   4   4   4   4   4   4   4
#     4  12  23  36  60  87 120 155 195 238 290 344
#     4  10  21  36  58  85 120 153 185 239 286 352
#     4  10  22  38  58  85 120 152 193 235 292 347
#     4  10  22  38  58  86 121 153 192 238 290 347
#     4  12  23  36  60  87 118 156 194 239 286 349
#     4   9  21  38  62  87 119 150 196 237 291 353
#     4   9  21  39  60  90 116 154 190 241 293 351
#     4  10  21  36  58  84 120 150 185 238 286 350
#
# _framework density 22.432627
#
# number of rings (size 3 to 8) (size 9 to 14) (size 15 to 20)
#    1.500    0.250    0.000    5.250    3.500    1.000 
#    0.000    2.500    0.000    1.500    0.000    0.000 
#    0.000    0.000    0.000    0.000    0.000    0.000 
#
# Total GULP energy -178563.998602 kJ/mol
# GULP energy per Si atom -5580.124956 kJ/mol
# Density = 2.238157 g / cm^3
# Si number density = 22.432627 Si / 1000 Ang^3
#
#
#
# Elastic Constant Matrix: (Units=GPa)
#
#
# Indices 1 2 3 4 5 6 
#
# 1 39.3211 -4.1802 18.0250 0.0000 -10.8957 0.0000
# 2 -4.1802 99.0703 14.2853 0.0000 1.2911 0.0000
# 3 18.0250 14.2853 99.3016 0.0000 -5.8532 0.0000
# 4 0.0000 0.0000 0.0000 42.7470 0.0000 5.0146
# 5 -10.8957 1.2911 -5.8532 0.0000 19.0333 0.0000
# 6 0.0000 0.0000 0.0000 5.0146 0.0000 17.7801
#
#
#
# Elastic Compliance Matrix: (Units=1/GPa)
#
#
# Indices 1 2 3 4 5 6 
#
# 1 0.032738 0.001912 -0.005215 0.000000 0.017008 0.000000
# 2 0.001912 0.010445 -0.001861 0.000000 -0.000186 0.000000
# 3 -0.005215 -0.001861 0.011321 0.000000 0.000622 0.000000
# 4 0.000000 0.000000 0.000000 0.024194 0.000000 -0.006824
# 5 0.017008 -0.000186 0.000622 0.000000 0.062480 0.000000
# 6 0.000000 0.000000 0.000000 -0.006824 0.000000 0.058167
#
#
# Mechanical properties :
#
#
# Convention : Reuss Voigt Hill
#
# Bulk Modulus (GPa) = 22.63632 32.66148 27.64890
# Shear Modulus (GPa) = 22.28171 29.88293 26.08232
#
# Velocity S-wave (km/s) = 3.15504 3.65378 3.41353
# Velocity P-wave (km/s) = 4.83581 5.69136 5.28094
#
# Compressibility (1/GPa) = 0.04417680
#
# Stress axis : x y z
#
# Youngs Moduli (GPa) = 30.54530 95.73750 88.32897
#
# Poissons Ratio (x) = -0.18302 0.46064
# Poissons Ratio (y) = -0.05839 0.16435
# Poissons Ratio (z) = 0.15930 0.17813
#
# Static dielectric constant tensor:
#      x y z
#    x 1.850780 0.000000 0.055590 
#    y 0.000000 1.835520 0.000000 
#    z 0.055590 0.000000 1.916990 
# 
# From -- ./inp_files/73490.got.cif
#   From: 2010.05.17/outbox.cif.g08.bks.cpg/sg14_37_cif.got.tgz:73490.got - 2010.06.03 17:49:19.
