data_PCOD9245038
_publ_section_title
;
Structure prediction by ZEFSAII (Michael W. Deem and Ramdas Pophale) SiO2 
 PCOD9245038
Probable space group: P 21/C
;
_chemical_formula_sum "Si O2"
_cell_formula_units_Z 26
_cell_length_a 24.446068
_cell_length_b 4.841555
_cell_length_c 10.752651
_cell_angle_alpha 90.000000
_cell_angle_beta 132.303637
_cell_angle_gamma 90.000000
_cell_volume 941.238125
_symmetry_space_group_name_H-M "P 21/C"
_symmetry_group_IT_number 14
_symmetry_cell_setting 'monoclinic'
loop_
_space_group_symop_operation_xyz
x,y,z
-x,1/2+y,1/2-z
-x,-y,-z
x,1/2-y,1/2+z
loop_
_atom_site_type_symbol
_atom_site_label
_atom_site_fract_x
_atom_site_fract_y
_atom_site_fract_z
Si Si1 0.589461 0.132091 0.925032
Si Si2 0.562134 0.629978 0.725010
Si Si3 0.279421 0.348234 0.129422
Si Si4 0.742324 0.156758 0.754728
Si Si5 0.102701 0.783810 0.461729
Si Si6 0.000000 0.000000 0.000000
Si Si7 0.126130 0.213771 0.817654
O O1 0.566088 0.311775 0.770118
O O2 0.525004 0.190605 0.928747
O O3 0.583550 0.814362 0.878908
O O4 0.671341 0.236157 0.074939
O O5 0.632977 0.696654 0.750617
O O6 0.268027 0.673288 0.131281
O O7 0.259810 0.164925 0.219618
O O8 0.215036 0.253369 0.936448
O O9 0.823604 0.249057 0.842276
O O10 0.107625 0.583880 0.347261
O O11 0.035095 0.695109 0.442771
O O12 0.104651 0.079075 0.398837
O O13 0.077461 0.185089 0.128360
#
# Coordination Sequence:
#
# PCOD9245038 Si02
#       7
#     4   4   4   4   4   2   4
#     4  10  21  36  57  87 121 157 203 255 299 362
#     4  10  21  36  57  87 121 157 203 255 299 362
#     4  10  21  39  59  85 120 158 197 253 307 355
#     4  10  21  39  59  85 120 158 197 253 307 355
#     4  10  24  43  62  94 130 156 209 265 299 375
#     4  12  24  42  72  92 120 182 200 246 340 372
#     4  10  24  43  62  94 130 156 209 265 299 375
#
# _framework density 27.623190999999998
#
# number of rings (size 3 to 8) (size 9 to 14) (size 15 to 20)
#    0.000    1.846    0.000    2.769    2.154    3.692 
#    0.000    0.000    0.000    0.000    0.000    0.000 
#    0.000    0.000    0.000    0.000    0.000    0.000 
#
# Total GULP energy -144928.786154 kJ/mol
# GULP energy per Si atom -5574.184083 kJ/mol
# Density = 2.756032 g / cm^3
# Si number density = 27.623191 Si / 1000 Ang^3
#
#
#
# Elastic Constant Matrix: (Units=GPa)
#
#
# Indices 1 2 3 4 5 6 
#
# 1 124.5757 16.1143 22.1294 0.0000 27.1734 0.0000
# 2 16.1143 76.1568 5.1501 0.0000 -6.8880 0.0000
# 3 22.1294 5.1501 107.6166 0.0000 33.6396 0.0000
# 4 0.0000 0.0000 0.0000 18.7216 0.0000 2.1713
# 5 27.1734 -6.8880 33.6396 0.0000 48.0683 0.0000
# 6 0.0000 0.0000 0.0000 2.1713 0.0000 27.7103
#
#
#
# Elastic Compliance Matrix: (Units=1/GPa)
#
#
# Indices 1 2 3 4 5 6 
#
# 1 0.009626 -0.002555 -0.000053 0.000000 -0.005770 0.000000
# 2 -0.002555 0.014194 -0.001589 0.000000 0.004590 0.000000
# 3 -0.000053 -0.001589 0.012085 0.000000 -0.008655 0.000000
# 4 0.000000 0.000000 0.000000 0.053904 0.000000 -0.004224
# 5 -0.005770 0.004590 -0.008655 0.000000 0.030780 0.000000
# 6 0.000000 0.000000 0.000000 -0.004224 0.000000 0.036419
#
#
# Mechanical properties :
#
#
# Convention : Reuss Voigt Hill
#
# Bulk Modulus (GPa) = 36.35005 43.90407 40.12706
# Shear Modulus (GPa) = 28.64145 36.56370 32.60258
#
# Velocity S-wave (km/s) = 3.22353 3.64216 3.43922
# Velocity P-wave (km/s) = 5.20026 5.79789 5.50719
#
# Compressibility (1/GPa) = 0.02751028
#
# Stress axis : x y z
#
# Youngs Moduli (GPa) = 103.88614 70.45213 82.74999
#
# Poissons Ratio (x) = 0.18001 0.00442
# Poissons Ratio (y) = 0.26544 0.13147
# Poissons Ratio (z) = 0.00554 0.11193
#
# Static dielectric constant tensor:
#      x y z
#    x 2.203670 0.000000 0.020350 
#    y 0.000000 2.049310 0.000000 
#    z 0.020350 0.000000 2.335390 
# 
# From -- ./inp_files/35551.got.cif
#   From: 2010.05.17/outbox.cif.g08.bks.cpg/sg14_18_cif.got.tgz:35551.got - 2010.06.03 17:49:19.
