data_PCOD9245987
_publ_section_title
;
Structure prediction by ZEFSAII (Michael W. Deem and Ramdas Pophale) SiO2 
 PCOD9245987
Probable space group: P 21/C
;
_chemical_formula_sum "Si O2"
_cell_formula_units_Z 24
_cell_length_a 9.810324
_cell_length_b 7.324926
_cell_length_c 13.494635
_cell_angle_alpha 90.000000
_cell_angle_beta 78.612209
_cell_angle_gamma 90.000000
_cell_volume 950.632410
_symmetry_space_group_name_H-M "P 21/C"
_symmetry_group_IT_number 14
_symmetry_cell_setting 'monoclinic'
loop_
_space_group_symop_operation_xyz
x,y,z
-x,1/2+y,1/2-z
-x,-y,-z
x,1/2-y,1/2+z
loop_
_atom_site_type_symbol
_atom_site_label
_atom_site_fract_x
_atom_site_fract_y
_atom_site_fract_z
Si Si1 0.985506 0.615152 0.389938
Si Si2 0.721655 0.408882 0.930474
Si Si3 0.314147 0.480491 0.844566
Si Si4 0.244823 0.948307 0.972283
Si Si5 0.978934 0.691373 0.167495
Si Si6 0.398707 0.617969 0.263550
O O1 0.116394 0.664316 0.438685
O O2 0.013588 0.400101 0.367201
O O3 0.834310 0.614601 0.462742
O O4 0.989497 0.704822 0.284048
O O5 0.658379 0.457564 0.832912
O O6 0.888278 0.418516 0.892507
O O7 0.670772 0.506929 0.037828
O O8 0.691736 0.192876 0.958033
O O9 0.163914 0.402397 0.841270
O O10 0.437168 0.369969 0.774250
O O11 0.337184 0.682039 0.795089
O O12 0.348624 0.992241 0.868301
#
# Coordination Sequence:
#
# PCOD9245987 Si02
#       6
#     4   4   4   4   4   4
#     4  10  21  39  67  96 128 162 215 261 325 370
#     4  10  21  42  68  91 125 168 219 268 318 371
#     4  11  25  40  65  94 131 169 216 262 323 382
#     4   9  20  39  64  88 128 168 202 264 315 372
#     4  11  22  40  67  99 125 166 214 268 318 380
#     4  11  23  44  64  91 134 172 209 262 323 383
#
# _framework density 25.246348999999999
#
# number of rings (size 3 to 8) (size 9 to 14) (size 15 to 20)
#    0.000    1.667    1.667    3.000    4.667    0.000 
#    3.000    7.500    3.667    0.000    0.000    0.000 
#    0.000    0.000    0.000    0.000    0.000    0.000 
#
# Total GULP energy -134351.549961 kJ/mol
# GULP energy per Si atom -5597.981248 kJ/mol
# Density = 2.518889 g / cm^3
# Si number density = 25.246349 Si / 1000 Ang^3
#
#
#
# Elastic Constant Matrix: (Units=GPa)
#
#
# Indices 1 2 3 4 5 6 
#
# 1 84.3110 9.4485 38.9018 0.0000 -41.6845 0.0000
# 2 9.4485 50.8432 11.7238 0.0000 -20.5367 0.0000
# 3 38.9018 11.7238 192.4214 0.0000 -32.2189 0.0000
# 4 0.0000 0.0000 0.0000 40.4982 0.0000 -4.3074
# 5 -41.6845 -20.5367 -32.2189 0.0000 41.9280 0.0000
# 6 0.0000 0.0000 0.0000 -4.3074 0.0000 18.1456
#
#
#
# Elastic Compliance Matrix: (Units=1/GPa)
#
#
# Indices 1 2 3 4 5 6 
#
# 1 0.025177 0.006685 -0.000870 0.000000 0.027637 0.000000
# 2 0.006685 0.026353 0.000364 0.000000 0.019834 0.000000
# 3 -0.000870 0.000364 0.006009 0.000000 0.003931 0.000000
# 4 0.000000 0.000000 0.000000 0.025332 0.000000 0.006013
# 5 0.027637 0.019834 0.003931 0.000000 0.064062 0.000000
# 6 0.000000 0.000000 0.000000 0.006013 0.000000 0.056537
#
#
# Mechanical properties :
#
#
# Convention : Reuss Voigt Hill
#
# Bulk Modulus (GPa) = 14.30679 49.74707 32.02693
# Shear Modulus (GPa) = 23.31962 37.94779 30.63371
#
# Velocity S-wave (km/s) = 3.04251 3.88119 3.48716
# Velocity P-wave (km/s) = 4.24520 6.31128 5.37838
#
# Compressibility (1/GPa) = 0.06989690
#
# Stress axis : x y z
#
# Youngs Moduli (GPa) = 39.71882 37.94568 166.42311
#
# Poissons Ratio (x) = -0.25366 0.14476
# Poissons Ratio (y) = -0.26551 -0.06055
# Poissons Ratio (z) = 0.03455 -0.01381
#
# Static dielectric constant tensor:
#      x y z
#    x 1.983420 0.000000 -0.037040 
#    y 0.000000 2.084220 0.000000 
#    z -0.037040 0.000000 2.012600 
# 
# From -- ./inp_files/38917.got.cif
#   From: 2010.05.17/outbox.cif.g08.bks.cpg/sg14_20_cif.got.tgz:38917.got - 2010.06.03 17:49:19.
