data_PCOD9245950
_publ_section_title
;
Structure prediction by ZEFSAII (Michael W. Deem and Ramdas Pophale) SiO2 
 PCOD9245950
Probable space group: P 21/C
;
_chemical_formula_sum "Si O2"
_cell_formula_units_Z 28
_cell_length_a 5.061125
_cell_length_b 18.042844
_cell_length_c 15.778265
_cell_angle_alpha 90.000000
_cell_angle_beta 77.018094
_cell_angle_gamma 90.000000
_cell_volume 1403.999255
_symmetry_space_group_name_H-M "P 21/C"
_symmetry_group_IT_number 14
_symmetry_cell_setting 'monoclinic'
loop_
_space_group_symop_operation_xyz
x,y,z
-x,1/2+y,1/2-z
-x,-y,-z
x,1/2-y,1/2+z
loop_
_atom_site_type_symbol
_atom_site_label
_atom_site_fract_x
_atom_site_fract_y
_atom_site_fract_z
Si Si1 0.632204 0.109705 0.392393
Si Si2 0.495601 0.421718 0.449148
Si Si3 0.738339 0.499924 0.279631
Si Si4 0.929791 0.833588 0.513066
Si Si5 0.050243 0.663152 0.483817
Si Si6 0.930895 0.531034 0.910592
Si Si7 0.215690 0.598446 0.298699
O O1 0.326339 0.137612 0.414106
O O2 0.779504 0.132847 0.295208
O O3 0.793369 0.143696 0.459694
O O4 0.679856 0.020685 0.398281
O O5 0.500000 0.500000 0.500000
O O6 0.604562 0.436763 0.346757
O O7 0.191559 0.392056 0.473787
O O8 0.690077 0.362171 0.480566
O O9 0.512356 0.563884 0.290512
O O10 0.844495 0.479625 0.178422
O O11 0.998121 0.532003 0.310503
O O12 0.944493 0.746196 0.502735
O O13 0.891974 0.881986 0.430265
O O14 0.132505 0.651059 0.380387
O O15 0.000000 0.500000 0.000000
#
# Coordination Sequence:
#
# PCOD9245950 Si02
#       7
#     4   4   4   4   4   4   4
#     4  10  21  39  66  88 121 164 212 255 304 376
#     4  12  22  41  65  88 124 161 212 256 301 369
#     4  11  22  36  66  95 114 154 213 258 305 358
#     4  11  23  41  58  92 126 165 206 250 328 370
#     4  12  24  40  62  88 129 170 197 259 321 375
#     4   9  20  40  66  90 123 159 210 264 301 363
#     4  11  20  38  63  92 116 158 209 254 307 368
#
# _framework density 19.943031000000001
#
# number of rings (size 3 to 8) (size 9 to 14) (size 15 to 20)
#    0.000    1.143    2.857    5.143    0.000    3.429 
#    5.143    0.000    0.000    0.000    0.000    0.000 
#    0.000    0.000    0.000    0.000    0.000    0.000 
#
# Total GULP energy -156344.210128 kJ/mol
# GULP energy per Si atom -5583.721790 kJ/mol
# Density = 1.989764 g / cm^3
# Si number density = 19.943031 Si / 1000 Ang^3
#
#
#
# Elastic Constant Matrix: (Units=GPa)
#
#
# Indices 1 2 3 4 5 6 
#
# 1 60.7767 -1.0559 7.2414 0.0000 -12.1439 0.0000
# 2 -1.0559 83.4087 28.9491 0.0000 -5.9145 0.0000
# 3 7.2414 28.9491 114.3971 0.0000 -12.8980 0.0000
# 4 0.0000 0.0000 0.0000 10.9510 0.0000 -4.6026
# 5 -12.1439 -5.9145 -12.8980 0.0000 29.3390 0.0000
# 6 0.0000 0.0000 0.0000 -4.6026 0.0000 27.7420
#
#
#
# Elastic Compliance Matrix: (Units=1/GPa)
#
#
# Indices 1 2 3 4 5 6 
#
# 1 0.018015 0.000942 -0.000544 0.000000 0.007408 0.000000
# 2 0.000942 0.013236 -0.003224 0.000000 0.001641 0.000000
# 3 -0.000544 -0.003224 0.009988 0.000000 0.003516 0.000000
# 4 0.000000 0.000000 0.000000 0.098161 0.000000 0.016286
# 5 0.007408 0.001641 0.003516 0.000000 0.039027 0.000000
# 6 0.000000 0.000000 0.000000 0.016286 0.000000 0.038748
#
#
# Mechanical properties :
#
#
# Convention : Reuss Voigt Hill
#
# Bulk Modulus (GPa) = 28.09930 36.53908 32.31919
# Shear Modulus (GPa) = 21.30471 28.50291 24.90381
#
# Velocity S-wave (km/s) = 3.27200 3.78460 3.53760
# Velocity P-wave (km/s) = 5.32870 6.12038 5.73821
#
# Compressibility (1/GPa) = 0.03558807
#
# Stress axis : x y z
#
# Youngs Moduli (GPa) = 55.50948 75.54874 100.11779
#
# Poissons Ratio (x) = -0.07116 0.05442
# Poissons Ratio (y) = -0.05229 0.32280
# Poissons Ratio (z) = 0.03017 0.24359
#
# Static dielectric constant tensor:
#      x y z
#    x 1.712630 0.000000 0.012430 
#    y 0.000000 1.712780 0.000000 
#    z 0.012430 0.000000 1.724320 
# 
# From -- ./inp_files/37671.got.cif
#   From: 2010.05.17/outbox.cif.g08.bks.cpg/sg14_19_cif.got.tgz:37671.got - 2010.06.03 17:49:19.
