data_PCOD9245417
_publ_section_title
;
Structure prediction by ZEFSAII (Michael W. Deem and Ramdas Pophale) SiO2 
 PCOD9245417
Probable space group: P 21/C
;
_chemical_formula_sum "Si O2"
_cell_formula_units_Z 32
_cell_length_a 25.416401
_cell_length_b 7.932413
_cell_length_c 21.574836
_cell_angle_alpha 90.000000
_cell_angle_beta 20.218672
_cell_angle_gamma 90.000000
_cell_volume 1503.300027
_symmetry_space_group_name_H-M "P 21/C"
_symmetry_group_IT_number 14
_symmetry_cell_setting 'monoclinic'
loop_
_space_group_symop_operation_xyz
x,y,z
-x,1/2+y,1/2-z
-x,-y,-z
x,1/2-y,1/2+z
loop_
_atom_site_type_symbol
_atom_site_label
_atom_site_fract_x
_atom_site_fract_y
_atom_site_fract_z
Si Si1 0.088442 0.650964 0.475982
Si Si2 0.579466 0.579545 0.600615
Si Si3 0.100900 0.954910 0.216816
Si Si4 0.585894 0.631481 0.450836
Si Si5 0.004792 0.158667 0.793829
Si Si6 0.253343 0.055217 0.687018
Si Si7 0.102108 0.471807 0.947049
Si Si8 0.677743 0.536808 0.021845
O O1 0.186965 0.556273 0.316019
O O2 0.150067 0.840081 0.412407
O O3 0.092946 0.584547 0.541092
O O4 0.906141 0.650344 0.659443
O O5 0.724282 0.465039 0.457533
O O6 0.555743 0.559967 0.553240
O O7 0.441649 0.539998 0.798741
O O8 0.626997 0.772523 0.561000
O O9 0.048361 0.148156 0.261160
O O10 0.996489 0.893130 0.388978
O O11 0.075671 0.853132 0.182496
O O12 0.500000 0.500000 0.500000
O O13 0.601127 0.833835 0.450538
O O14 0.753256 0.625658 0.235579
O O15 0.161105 0.054174 0.622067
O O16 0.301245 0.959015 0.570432
O O17 0.000000 0.500000 0.000000
#
# Coordination Sequence:
#
# PCOD9245417 Si02
#       8
#     4   4   4   4   4   4   4   4
#     4   9  18  36  63  86 116 147 198 246 292 348
#     4  10  21  40  56  81 119 157 186 238 289 348
#     4  10  21  38  59  83 118 146 193 243 288 339
#     4  11  23  38  58  87 120 154 196 244 297 353
#     4   9  20  37  55  87 114 148 188 245 286 338
#     4   9  18  38  60  86 117 154 188 246 299 346
#     4  11  19  38  61  85 111 152 199 244 293 351
#     4   9  20  37  58  81 117 151 193 230 292 347
#
# _framework density 21.286501000000001
#
# number of rings (size 3 to 8) (size 9 to 14) (size 15 to 20)
#    0.000    2.250    2.500    1.500    1.750    3.000 
#   11.250    0.625    0.000    0.000    0.000    0.000 
#    0.000    0.000    0.000    0.000    0.000    0.000 
#
# Total GULP energy -178226.347245 kJ/mol
# GULP energy per Si atom -5569.573351 kJ/mol
# Density = 2.123805 g / cm^3
# Si number density = 21.286501 Si / 1000 Ang^3
#
#
#
# Elastic Constant Matrix: (Units=GPa)
#
#
# Indices 1 2 3 4 5 6 
#
# 1 109.8443 16.2679 36.9380 0.0000 33.8132 0.0000
# 2 16.2679 20.8510 11.9800 0.0000 6.9654 0.0000
# 3 36.9380 11.9800 112.7131 0.0000 45.4082 0.0000
# 4 0.0000 0.0000 0.0000 31.7264 0.0000 0.6705
# 5 33.8132 6.9654 45.4082 0.0000 31.8313 0.0000
# 6 0.0000 0.0000 0.0000 0.6705 0.0000 21.7183
#
#
#
# Elastic Compliance Matrix: (Units=1/GPa)
#
#
# Indices 1 2 3 4 5 6 
#
# 1 0.014988 -0.007284 0.003843 0.000000 -0.019809 0.000000
# 2 -0.007284 0.055516 -0.004083 0.000000 0.001415 0.000000
# 3 0.003843 -0.004083 0.021940 0.000000 -0.034487 0.000000
# 4 0.000000 0.000000 0.000000 0.031540 0.000000 -0.000974
# 5 -0.019809 0.001415 -0.034487 0.000000 0.101346 0.000000
# 6 0.000000 0.000000 0.000000 -0.000974 0.000000 0.046074
#
#
# Mechanical properties :
#
#
# Convention : Reuss Voigt Hill
#
# Bulk Modulus (GPa) = 12.92073 41.53112 27.22593
# Shear Modulus (GPa) = 16.01267 28.93670 22.47468
#
# Velocity S-wave (km/s) = 2.74568 3.69099 3.25286
# Velocity P-wave (km/s) = 4.01681 6.14146 5.18904
#
# Compressibility (1/GPa) = 0.07739502
#
# Stress axis : x y z
#
# Youngs Moduli (GPa) = 66.71904 18.01282 45.57789
#
# Poissons Ratio (x) = 0.13121 -0.17515
# Poissons Ratio (y) = 0.48600 0.18612
# Poissons Ratio (z) = -0.25639 0.07355
#
# Static dielectric constant tensor:
#      x y z
#    x 1.739590 0.000000 0.039660 
#    y 0.000000 1.856650 0.000000 
#    z 0.039660 0.000000 1.753460 
# 
# From -- ./inp_files/70494.got.cif
#   From: 2010.05.17/outbox.cif.g08.bks.cpg/sg14_36_cif.got.tgz:70494.got - 2010.06.03 17:49:19.
