data_PCOD9245425
_publ_section_title
;
Structure prediction by ZEFSAII (Michael W. Deem and Ramdas Pophale) SiO2 
 PCOD9245425
Probable space group: P 21/C
;
_chemical_formula_sum "Si O2"
_cell_formula_units_Z 32
_cell_length_a 8.875388
_cell_length_b 24.334200
_cell_length_c 14.642704
_cell_angle_alpha 90.000000
_cell_angle_beta 148.188116
_cell_angle_gamma 90.000000
_cell_volume 1667.036615
_symmetry_space_group_name_H-M "P 21/C"
_symmetry_group_IT_number 14
_symmetry_cell_setting 'monoclinic'
loop_
_space_group_symop_operation_xyz
x,y,z
-x,1/2+y,1/2-z
-x,-y,-z
x,1/2-y,1/2+z
loop_
_atom_site_type_symbol
_atom_site_label
_atom_site_fract_x
_atom_site_fract_y
_atom_site_fract_z
Si Si1 0.717523 0.998502 0.198719
Si Si2 0.850010 0.619130 0.843184
Si Si3 0.861266 0.901377 0.563024
Si Si4 0.169447 0.690720 0.865309
Si Si5 0.182699 0.626340 0.511482
Si Si6 0.189915 0.598152 0.726864
Si Si7 0.850768 0.496711 0.520455
Si Si8 0.152918 0.196097 0.299991
O O1 0.942248 0.047209 0.309853
O O2 0.855180 0.939785 0.293842
O O3 0.486119 0.008344 0.160688
O O4 0.500000 0.000000 0.000000
O O5 0.517691 0.638085 0.667331
O O6 0.055385 0.661888 0.898713
O O7 0.913829 0.611466 0.983180
O O8 0.526169 0.915635 0.402464
O O9 0.908008 0.848005 0.650690
O O10 0.119778 0.646504 0.759901
O O11 0.994548 0.745950 0.757027
O O12 0.508070 0.701863 0.039525
O O13 0.132485 0.618492 0.593650
O O14 0.120383 0.566429 0.435123
O O15 0.987545 0.670905 0.363381
O O16 0.007181 0.544205 0.656783
O O17 0.000000 0.500000 0.500000
#
# Coordination Sequence:
#
# PCOD9245425 Si02
#       8
#     4   4   4   4   4   4   4   4
#     4  11  21  35  59  89 121 157 190 231 286 343
#     4  10  21  38  59  87 120 152 191 236 286 345
#     4  10  22  39  59  86 119 155 191 235 288 343
#     4  11  24  40  58  82 110 149 194 241 287 338
#     4   9  19  38  60  84 116 149 185 234 286 343
#     4   9  20  38  60  85 116 149 188 235 286 342
#     4   9  18  33  56  86 115 145 180 224 279 336
#     4  11  24  41  59  81 112 150 196 242 289 342
#
# _framework density 19.195740000000001
#
# number of rings (size 3 to 8) (size 9 to 14) (size 15 to 20)
#    0.000    2.000    0.000    4.125    0.000    5.000 
#    0.000    5.625    0.000    0.000    0.000    0.000 
#    0.000    0.000    0.000    0.000    0.000    0.000 
#
# Total GULP energy -178633.535905 kJ/mol
# GULP energy per Si atom -5582.297997 kJ/mol
# Density = 1.915205 g / cm^3
# Si number density = 19.195740 Si / 1000 Ang^3
#
#
#
# Elastic Constant Matrix: (Units=GPa)
#
#
# Indices 1 2 3 4 5 6 
#
# 1 69.6898 25.5711 28.6651 0.0000 4.3855 0.0000
# 2 25.5711 92.4684 60.4078 0.0000 20.4659 0.0000
# 3 28.6651 60.4078 83.9096 0.0000 -1.9084 0.0000
# 4 0.0000 0.0000 0.0000 34.6887 0.0000 12.9861
# 5 4.3855 20.4659 -1.9084 0.0000 22.8699 0.0000
# 6 0.0000 0.0000 0.0000 12.9861 0.0000 25.0875
#
#
#
# Elastic Compliance Matrix: (Units=1/GPa)
#
#
# Indices 1 2 3 4 5 6 
#
# 1 0.017011 -0.000070 -0.005845 0.000000 -0.003688 0.000000
# 2 -0.000070 0.035608 -0.026385 0.000000 -0.034053 0.000000
# 3 -0.005845 -0.026385 0.033536 0.000000 0.027531 0.000000
# 4 0.000000 0.000000 0.000000 0.035757 0.000000 -0.018509
# 5 -0.003688 -0.034053 0.027531 0.000000 0.077204 0.000000
# 6 0.000000 0.000000 0.000000 -0.018509 0.000000 0.049441
#
#
# Mechanical properties :
#
#
# Convention : Reuss Voigt Hill
#
# Bulk Modulus (GPa) = 46.39374 52.81730 49.60552
# Shear Modulus (GPa) = 15.60839 25.29081 20.44960
#
# Velocity S-wave (km/s) = 2.85461 3.63371 3.26746
# Velocity P-wave (km/s) = 5.92337 6.72160 6.33507
#
# Compressibility (1/GPa) = 0.02155463
#
# Stress axis : x y z
#
# Youngs Moduli (GPa) = 58.78505 28.08394 29.81907
#
# Poissons Ratio (x) = 0.00195 0.17430
# Poissons Ratio (y) = 0.00409 0.78678
# Poissons Ratio (z) = 0.34360 0.74100
#
# Static dielectric constant tensor:
#      x y z
#    x 1.725990 0.000000 -0.017200 
#    y 0.000000 1.627720 0.000000 
#    z -0.017200 0.000000 1.664400 
# 
# From -- ./inp_files/42258.got.cif
#   From: 2010.05.17/outbox.cif.g08.bks.cpg/sg14_22_cif.got.tgz:42258.got - 2010.06.03 17:49:19.
