data_PCOD9245251
_publ_section_title
;
Structure prediction by ZEFSAII (Michael W. Deem and Ramdas Pophale) SiO2 
 PCOD9245251
Probable space group: P 21/C
;
_chemical_formula_sum "Si O2"
_cell_formula_units_Z 24
_cell_length_a 8.899745
_cell_length_b 16.164301
_cell_length_c 17.539880
_cell_angle_alpha 90.000000
_cell_angle_beta 147.155589
_cell_angle_gamma 90.000000
_cell_volume 1368.511434
_symmetry_space_group_name_H-M "P 21/C"
_symmetry_group_IT_number 14
_symmetry_cell_setting 'monoclinic'
loop_
_space_group_symop_operation_xyz
x,y,z
-x,1/2+y,1/2-z
-x,-y,-z
x,1/2-y,1/2+z
loop_
_atom_site_type_symbol
_atom_site_label
_atom_site_fract_x
_atom_site_fract_y
_atom_site_fract_z
Si Si1 0.752464 0.839590 0.233826
Si Si2 0.126112 0.429050 0.363115
Si Si3 0.874658 0.187148 0.087330
Si Si4 0.773441 0.009682 0.338481
Si Si5 0.173638 0.025360 0.147816
Si Si6 0.273733 0.595431 0.332115
O O1 0.896229 0.864631 0.214768
O O2 0.943278 0.768133 0.349674
O O3 0.737937 0.921926 0.279333
O O4 0.436823 0.812279 0.079893
O O5 0.205006 0.514019 0.353068
O O6 0.391598 0.402939 0.526765
O O7 0.873231 0.453399 0.309156
O O8 0.838456 0.169213 0.162950
O O9 0.039850 0.109191 0.123174
O O10 0.488418 0.033790 0.257661
O O11 0.837462 0.077040 0.299505
O O12 0.000000 0.000000 0.500000
O O13 0.000000 0.000000 0.000000
#
# Coordination Sequence:
#
# PCOD9245251 Si02
#       6
#     4   4   4   4   4   4
#     4  10  21  39  56  83 114 149 188 237 285 334
#     4   8  15  32  59  76  98 140 191 219 257 336
#     4  10  21  37  60  81 112 149 192 234 286 339
#     4  11  22  36  58  86 117 147 191 239 281 334
#     4  11  18  36  62  84 105 153 196 226 282 344
#     4   8  15  34  55  76 102 144 182 218 268 328
#
# _framework density 17.537303999999999
#
# number of rings (size 3 to 8) (size 9 to 14) (size 15 to 20)
#    0.000    2.333    3.333    2.000    2.333    0.000 
#    3.000    5.833    0.000    0.000    0.000    0.000 
#    0.000    0.000    0.000    0.000    0.000    0.000 
#
# Total GULP energy -133651.048975 kJ/mol
# GULP energy per Si atom -5568.793707 kJ/mol
# Density = 1.749739 g / cm^3
# Si number density = 17.537304 Si / 1000 Ang^3
#
#
#
# Elastic Constant Matrix: (Units=GPa)
#
#
# Indices 1 2 3 4 5 6 
#
# 1 85.1815 9.6812 26.9435 0.0000 3.7576 0.0000
# 2 9.6812 53.4643 5.4072 0.0000 6.8986 0.0000
# 3 26.9435 5.4072 73.8401 0.0000 -6.0139 0.0000
# 4 0.0000 0.0000 0.0000 24.5328 0.0000 2.5266
# 5 3.7576 6.8986 -6.0139 0.0000 25.3912 0.0000
# 6 0.0000 0.0000 0.0000 2.5266 0.0000 20.3025
#
#
#
# Elastic Compliance Matrix: (Units=1/GPa)
#
#
# Indices 1 2 3 4 5 6 
#
# 1 0.013655 -0.001597 -0.005093 0.000000 -0.002793 0.000000
# 2 -0.001597 0.019831 -0.001314 0.000000 -0.005463 0.000000
# 3 -0.005093 -0.001314 0.015895 0.000000 0.004875 0.000000
# 4 0.000000 0.000000 0.000000 0.041291 0.000000 -0.005139
# 5 -0.002793 -0.005463 0.004875 0.000000 0.042436 0.000000
# 6 0.000000 0.000000 0.000000 -0.005139 0.000000 0.049895
#
#
# Mechanical properties :
#
#
# Convention : Reuss Voigt Hill
#
# Bulk Modulus (GPa) = 29.96559 32.94994 31.45777
# Shear Modulus (GPa) = 23.79411 25.40889 24.60150
#
# Velocity S-wave (km/s) = 3.68743 3.81050 3.74947
# Velocity P-wave (km/s) = 5.93746 6.17974 6.05981
#
# Compressibility (1/GPa) = 0.03337161
#
# Stress axis : x y z
#
# Youngs Moduli (GPa) = 73.23104 50.42584 62.91456
#
# Poissons Ratio (x) = 0.08054 0.32044
# Poissons Ratio (y) = 0.11696 0.08269
# Poissons Ratio (z) = 0.37298 0.06628
#
# Static dielectric constant tensor:
#      x y z
#    x 1.619230 0.000000 -0.007350 
#    y 0.000000 1.626110 0.000000 
#    z -0.007350 0.000000 1.598190 
# 
# From -- ./inp_files/9073.got.cif
#   From: 2010.05.17/outbox.cif.g08.bks.cpg/sg14_5_cif.got.tgz:9073.got - 2010.06.03 17:49:19.
