data_PCOD9245237
_publ_section_title
;
Structure prediction by ZEFSAII (Michael W. Deem and Ramdas Pophale) SiO2 
 PCOD9245237
Probable space group: P 21/C
;
_chemical_formula_sum "Si O2"
_cell_formula_units_Z 28
_cell_length_a 12.911619
_cell_length_b 7.814276
_cell_length_c 14.526851
_cell_angle_alpha 90.000000
_cell_angle_beta 119.376315
_cell_angle_gamma 90.000000
_cell_volume 1277.223183
_symmetry_space_group_name_H-M "P 21/C"
_symmetry_group_IT_number 14
_symmetry_cell_setting 'monoclinic'
loop_
_space_group_symop_operation_xyz
x,y,z
-x,1/2+y,1/2-z
-x,-y,-z
x,1/2-y,1/2+z
loop_
_atom_site_type_symbol
_atom_site_label
_atom_site_fract_x
_atom_site_fract_y
_atom_site_fract_z
Si Si1 0.723577 0.247373 0.033573
Si Si2 0.105582 0.302144 0.781290
Si Si3 0.709659 0.637095 0.994800
Si Si4 0.261377 0.264326 0.197208
Si Si5 0.862926 0.434249 0.438481
Si Si6 0.859039 0.202899 0.753789
Si Si7 0.461292 0.314980 0.441695
O O1 0.750774 0.444696 0.029810
O O2 0.809139 0.130324 0.010521
O O3 0.585655 0.238169 0.951690
O O4 0.745980 0.220536 0.152117
O O5 0.144799 0.192965 0.708712
O O6 0.127956 0.498265 0.759696
O O7 0.972496 0.282281 0.754543
O O8 0.188057 0.257313 0.905487
O O9 0.705248 0.647574 0.883413
O O10 0.590763 0.698237 0.996994
O O11 0.364180 0.290486 0.318119
O O12 0.227960 0.076829 0.140883
O O13 0.859064 0.280452 0.362813
O O14 0.000000 0.500000 0.500000
O O15 0.500000 0.500000 0.500000
#
# Coordination Sequence:
#
# PCOD9245237 Si02
#       7
#     4   4   4   4   4   4   4
#     4  11  24  40  61  94 129 169 218 274 340 408
#     4   9  20  37  58  87 121 161 208 263 327 391
#     4  10  22  40  62  92 127 164 215 276 333 405
#     4  10  22  41  64  91 126 170 218 274 334 403
#     4  11  23  42  67  97 132 178 230 282 347 424
#     4  10  21  37  59  86 124 164 208 268 328 392
#     4  11  25  43  65  93 127 172 222 275 338 409
#
# _framework density 21.922559
#
# number of rings (size 3 to 8) (size 9 to 14) (size 15 to 20)
#    0.000    1.714    0.000    4.714    0.000    9.143 
#    0.000    3.571    0.000    0.000    0.000    0.000 
#    0.000    0.000    0.000    0.000    0.000    0.000 
#
# Total GULP energy -155936.522175 kJ/mol
# GULP energy per Si atom -5569.161506 kJ/mol
# Density = 2.187266 g / cm^3
# Si number density = 21.922559 Si / 1000 Ang^3
#
#
#
# Elastic Constant Matrix: (Units=GPa)
#
#
# Indices 1 2 3 4 5 6 
#
# 1 19.5078 11.6099 6.6831 0.0000 15.6501 0.0000
# 2 11.6099 52.1643 24.9940 0.0000 -5.9195 0.0000
# 3 6.6831 24.9940 103.7342 0.0000 -10.3200 0.0000
# 4 0.0000 0.0000 0.0000 20.8937 0.0000 -2.2100
# 5 15.6501 -5.9195 -10.3200 0.0000 33.6451 0.0000
# 6 0.0000 0.0000 0.0000 -2.2100 0.0000 30.0128
#
#
#
# Elastic Compliance Matrix: (Units=1/GPa)
#
#
# Indices 1 2 3 4 5 6 
#
# 1 0.126291 -0.032322 -0.006971 0.000000 -0.066570 0.000000
# 2 -0.032322 0.030115 -0.003250 0.000000 0.019336 0.000000
# 3 -0.006971 -0.003250 0.011489 0.000000 0.006195 0.000000
# 4 0.000000 0.000000 0.000000 0.048237 0.000000 0.003552
# 5 -0.066570 0.019336 0.006195 0.000000 0.065989 0.000000
# 6 0.000000 0.000000 0.000000 0.003552 0.000000 0.033581
#
#
# Mechanical properties :
#
#
# Convention : Reuss Voigt Hill
#
# Bulk Modulus (GPa) = 12.07601 29.10892 20.59246
# Shear Modulus (GPa) = 11.67156 25.71825 18.69491
#
# Velocity S-wave (km/s) = 2.30988 3.42883 2.92339
# Velocity P-wave (km/s) = 3.55451 5.38356 4.56165
#
# Compressibility (1/GPa) = 0.08280883
#
# Stress axis : x y z
#
# Youngs Moduli (GPa) = 7.91819 33.20564 87.04341
#
# Poissons Ratio (x) = 1.07327 0.60680
# Poissons Ratio (y) = 0.25593 0.28290
# Poissons Ratio (z) = 0.05520 0.10792
#
# Static dielectric constant tensor:
#      x y z
#    x 1.910560 0.000000 0.102260 
#    y 0.000000 1.696270 0.000000 
#    z 0.102260 0.000000 1.889550 
# 
# From -- ./inp_files/43814.got.cif
#   From: 2010.05.17/outbox.cif.g08.bks.cpg/sg14_22_cif.got.tgz:43814.got - 2010.06.03 17:49:19.
