data_PCOD9245633
_publ_section_title
;
Structure prediction by ZEFSAII (Michael W. Deem and Ramdas Pophale) SiO2 
 PCOD9245633
Probable space group: P 21/C
;
_chemical_formula_sum "Si O2"
_cell_formula_units_Z 28
_cell_length_a 5.431272
_cell_length_b 26.322239
_cell_length_c 7.749457
_cell_angle_alpha 90.000000
_cell_angle_beta 112.235740
_cell_angle_gamma 90.000000
_cell_volume 1025.499110
_symmetry_space_group_name_H-M "P 21/C"
_symmetry_group_IT_number 14
_symmetry_cell_setting 'monoclinic'
loop_
_space_group_symop_operation_xyz
x,y,z
-x,1/2+y,1/2-z
-x,-y,-z
x,1/2-y,1/2+z
loop_
_atom_site_type_symbol
_atom_site_label
_atom_site_fract_x
_atom_site_fract_y
_atom_site_fract_z
Si Si1 0.554338 0.403531 0.252862
Si Si2 0.290292 0.101538 0.020255
Si Si3 0.044595 0.199439 0.854747
Si Si4 0.595575 0.146371 0.403099
Si Si5 0.053294 0.980399 0.237434
Si Si6 0.554280 0.754110 0.274464
Si Si7 0.002947 0.573548 0.069775
O O1 0.637870 0.367681 0.113235
O O2 0.272777 0.418932 0.096763
O O3 0.509090 0.382670 0.433667
O O4 0.708432 0.456761 0.307739
O O5 0.052495 0.141810 0.927356
O O6 0.190171 0.047625 0.923731
O O7 0.394154 0.110590 0.240090
O O8 0.218245 0.205435 0.725725
O O9 0.750980 0.225089 0.781079
O O10 0.268655 0.227281 0.031412
O O11 0.507714 0.204044 0.359932
O O12 0.865926 0.128747 0.380149
O O13 0.142052 0.959182 0.452608
O O14 0.997986 0.038697 0.262473
#
# Coordination Sequence:
#
# PCOD9245633 Si02
#       7
#     4   4   4   4   4   4   4
#     4  10  21  38  66  90 128 170 216 266 335 396
#     4  10  24  42  63  94 131 167 220 276 334 402
#     4  11  26  45  70 100 137 179 229 286 348 414
#     4  10  24  42  63  94 131 167 220 276 334 402
#     4   9  19  37  62  92 127 168 216 268 329 399
#     4  11  26  45  70 100 137 179 229 286 348 414
#     4   9  19  37  62  92 127 168 216 268 329 399
#
# _framework density 27.303778999999999
#
# number of rings (size 3 to 8) (size 9 to 14) (size 15 to 20)
#    0.000    2.000    0.000    1.286    6.000    7.429 
#    0.000    1.429    0.000    0.000    0.000    0.000 
#    0.000    0.000    0.000    0.000    0.000    0.000 
#
# Total GULP energy -156127.827096 kJ/mol
# GULP energy per Si atom -5575.993825 kJ/mol
# Density = 2.724163 g / cm^3
# Si number density = 27.303779 Si / 1000 Ang^3
#
#
#
# Elastic Constant Matrix: (Units=GPa)
#
#
# Indices 1 2 3 4 5 6 
#
# 1 82.2796 11.6032 13.3150 0.0000 18.5906 0.0000
# 2 11.6032 107.2278 18.3251 0.0000 2.8726 0.0000
# 3 13.3150 18.3251 160.5129 0.0000 8.3998 0.0000
# 4 0.0000 0.0000 0.0000 48.1433 0.0000 13.4655
# 5 18.5906 2.8726 8.3998 0.0000 20.5601 0.0000
# 6 0.0000 0.0000 0.0000 13.4655 0.0000 33.8712
#
#
#
# Elastic Compliance Matrix: (Units=1/GPa)
#
#
# Indices 1 2 3 4 5 6 
#
# 1 0.015482 -0.001236 -0.000429 0.000000 -0.013651 0.000000
# 2 -0.001236 0.009627 -0.001006 0.000000 0.000184 0.000000
# 3 -0.000429 -0.001006 0.006492 0.000000 -0.002124 0.000000
# 4 0.000000 0.000000 0.000000 0.023370 0.000000 -0.009291
# 5 -0.013651 0.000184 -0.002124 0.000000 0.061823 0.000000
# 6 0.000000 0.000000 0.000000 -0.009291 0.000000 0.033217
#
#
# Mechanical properties :
#
#
# Convention : Reuss Voigt Hill
#
# Bulk Modulus (GPa) = 38.08407 48.50075 43.29241
# Shear Modulus (GPa) = 30.46834 40.96674 35.71754
#
# Velocity S-wave (km/s) = 3.34414 3.87771 3.62076
# Velocity P-wave (km/s) = 5.37490 6.15230 5.77669
#
# Compressibility (1/GPa) = 0.02625770
#
# Stress axis : x y z
#
# Youngs Moduli (GPa) = 64.59240 103.87730 154.04512
#
# Poissons Ratio (x) = 0.12842 0.06605
# Poissons Ratio (y) = 0.07986 0.15499
# Poissons Ratio (z) = 0.02769 0.10451
#
# Static dielectric constant tensor:
#      x y z
#    x 2.564700 0.000000 -0.211150 
#    y 0.000000 2.107110 0.000000 
#    z -0.211150 0.000000 2.193350 
# 
# From -- ./inp_files/6862.got.cif
#   From: 2010.05.17/outbox.cif.g08.bks.cpg/sg14_4_cif.got.tgz:6862.got - 2010.06.03 17:49:19.
