data_PCOD9245891
_publ_section_title
;
Structure prediction by ZEFSAII (Michael W. Deem and Ramdas Pophale) SiO2 
 PCOD9245891
Probable space group: P 21/C
;
_chemical_formula_sum "Si O2"
_cell_formula_units_Z 28
_cell_length_a 14.181403
_cell_length_b 5.795893
_cell_length_c 15.191255
_cell_angle_alpha 90.000000
_cell_angle_beta 112.195292
_cell_angle_gamma 90.000000
_cell_volume 1156.107078
_symmetry_space_group_name_H-M "P 21/C"
_symmetry_group_IT_number 14
_symmetry_cell_setting 'monoclinic'
loop_
_space_group_symop_operation_xyz
x,y,z
-x,1/2+y,1/2-z
-x,-y,-z
x,1/2-y,1/2+z
loop_
_atom_site_type_symbol
_atom_site_label
_atom_site_fract_x
_atom_site_fract_y
_atom_site_fract_z
Si Si1 0.275963 0.094165 0.743242
Si Si2 0.826394 0.197222 0.865893
Si Si3 0.972846 0.556000 0.101097
Si Si4 0.507611 0.739010 0.610614
Si Si5 0.225814 0.190216 0.036558
Si Si6 0.559539 0.757645 0.430490
Si Si7 0.922448 0.688571 0.278630
O O1 0.269179 0.827351 0.711783
O O2 0.375343 0.197017 0.822101
O O3 0.261347 0.216582 0.644147
O O4 0.173156 0.135861 0.763220
O O5 0.925419 0.359087 0.912398
O O6 0.797816 0.074142 0.947054
O O7 0.868877 0.022261 0.808161
O O8 0.970653 0.637950 0.202446
O O9 0.992979 0.286116 0.124674
O O10 0.873298 0.673843 0.028016
O O11 0.497746 0.748198 0.500435
O O12 0.458450 0.492291 0.622571
O O13 0.467814 0.995231 0.624498
O O14 0.320046 0.247045 0.007439
#
# Coordination Sequence:
#
# PCOD9245891 Si02
#       7
#     4   4   4   4   4   4   4
#     4  10  24  41  64  96 134 180 220 280 351 413
#     4  10  23  41  63  97 134 178 227 277 347 412
#     4  11  21  41  64  95 133 180 231 279 337 412
#     4  10  23  47  73  99 137 174 233 291 341 419
#     4  11  25  40  64  99 138 178 224 283 351 420
#     4  10  24  45  72 105 131 180 232 288 351 405
#     4  10  21  39  64  94 126 177 231 279 333 407
#
# _framework density 24.21921
#
# number of rings (size 3 to 8) (size 9 to 14) (size 15 to 20)
#    0.000    1.714    1.429    1.286    6.000    7.429 
#    2.571    0.000    0.000    0.000    0.000    0.000 
#    0.000    0.000    0.000    0.000    0.000    0.000 
#
# Total GULP energy -156228.279821 kJ/mol
# GULP energy per Si atom -5579.581422 kJ/mol
# Density = 2.416409 g / cm^3
# Si number density = 24.219210 Si / 1000 Ang^3
#
#
#
# Elastic Constant Matrix: (Units=GPa)
#
#
# Indices 1 2 3 4 5 6 
#
# 1 78.4300 36.4381 2.6995 0.0000 12.1175 0.0000
# 2 36.4381 151.7291 24.7785 0.0000 19.9062 0.0000
# 3 2.6995 24.7785 61.0162 0.0000 16.5638 0.0000
# 4 0.0000 0.0000 0.0000 24.0214 0.0000 6.6896
# 5 12.1175 19.9062 16.5638 0.0000 38.5693 0.0000
# 6 0.0000 0.0000 0.0000 6.6896 0.0000 36.4106
#
#
#
# Elastic Compliance Matrix: (Units=1/GPa)
#
#
# Indices 1 2 3 4 5 6 
#
# 1 0.014815 -0.003356 0.001699 0.000000 -0.003652 0.000000
# 2 -0.003356 0.008083 -0.002590 0.000000 -0.002005 0.000000
# 3 0.001699 -0.002590 0.019411 0.000000 -0.007533 0.000000
# 4 0.000000 0.000000 0.000000 0.043874 0.000000 -0.008061
# 5 -0.003652 -0.002005 -0.007533 0.000000 0.031345 0.000000
# 6 0.000000 0.000000 0.000000 -0.008061 0.000000 0.028945
#
#
# Mechanical properties :
#
#
# Convention : Reuss Voigt Hill
#
# Bulk Modulus (GPa) = 29.57299 46.55640 38.06469
# Shear Modulus (GPa) = 30.07729 34.95089 32.51409
#
# Velocity S-wave (km/s) = 3.52785 3.80295 3.66798
# Velocity P-wave (km/s) = 5.36949 6.20869 5.80427
#
# Compressibility (1/GPa) = 0.03381464
#
# Stress axis : x y z
#
# Youngs Moduli (GPa) = 67.49795 123.72187 51.51835
#
# Poissons Ratio (x) = 0.41524 -0.08752
# Poissons Ratio (y) = 0.22654 0.13341
# Poissons Ratio (z) = -0.11467 0.32038
#
# Static dielectric constant tensor:
#      x y z
#    x 1.933660 0.000000 -0.011050 
#    y 0.000000 2.127760 0.000000 
#    z -0.011050 0.000000 1.967200 
# 
# From -- ./inp_files/58659.got.cif
#   From: 2010.05.17/outbox.cif.g08.bks.cpg/sg14_30_cif.got.tgz:58659.got - 2010.06.03 17:49:19.
