data_PCOD9245979
_publ_section_title
;
Structure prediction by ZEFSAII (Michael W. Deem and Ramdas Pophale) SiO2 
 PCOD9245979
Probable space group: P 21/C
;
_chemical_formula_sum "Si O2"
_cell_formula_units_Z 24
_cell_length_a 14.242930
_cell_length_b 8.818742
_cell_length_c 14.123648
_cell_angle_alpha 90.000000
_cell_angle_beta 145.908637
_cell_angle_gamma 90.000000
_cell_volume 994.350400
_symmetry_space_group_name_H-M "P 21/C"
_symmetry_group_IT_number 14
_symmetry_cell_setting 'monoclinic'
loop_
_space_group_symop_operation_xyz
x,y,z
-x,1/2+y,1/2-z
-x,-y,-z
x,1/2-y,1/2+z
loop_
_atom_site_type_symbol
_atom_site_label
_atom_site_fract_x
_atom_site_fract_y
_atom_site_fract_z
Si Si1 0.137802 0.197058 0.831740
Si Si2 0.656228 0.084454 0.044244
Si Si3 0.285767 0.999275 0.712983
Si Si4 0.813852 0.512629 0.250743
Si Si5 0.237117 0.635926 0.971694
Si Si6 0.870859 0.794281 0.958781
O O1 0.112158 0.340016 0.742337
O O2 0.962304 0.108098 0.687911
O O3 0.283673 0.087473 0.919556
O O4 0.179893 0.235901 0.975298
O O5 0.736903 0.188721 0.031813
O O6 0.718625 0.116527 0.203002
O O7 0.457758 0.092416 0.871438
O O8 0.139641 0.125672 0.593340
O O9 0.303725 0.917251 0.627486
O O10 0.697912 0.445580 0.070301
O O11 0.758230 0.588637 0.303005
O O12 0.952716 0.384183 0.389444
#
# Coordination Sequence:
#
# PCOD9245979 Si02
#       6
#     4   4   4   4   4   4
#     4  11  22  42  68 101 136 178 231 287 336 412
#     4  11  27  45  68 102 141 184 238 281 355 427
#     4  11  25  46  69  96 148 191 223 291 355 421
#     4  10  21  39  67 103 134 173 232 285 339 408
#     4  11  24  41  69 104 127 184 234 286 350 402
#     4  10  21  39  67  98 137 180 224 285 346 402
#
# _framework density 24.136362999999999
#
# number of rings (size 3 to 8) (size 9 to 14) (size 15 to 20)
#    0.000    1.333    3.333    2.000    4.667    6.000 
#    0.000    0.833    0.000    0.000    0.000    0.000 
#    0.000    0.000    0.000    0.000    0.000    0.000 
#
# Total GULP energy -133985.056438 kJ/mol
# GULP energy per Si atom -5582.710685 kJ/mol
# Density = 2.408143 g / cm^3
# Si number density = 24.136363 Si / 1000 Ang^3
#
#
#
# Elastic Constant Matrix: (Units=GPa)
#
#
# Indices 1 2 3 4 5 6 
#
# 1 47.2445 43.0236 36.7880 0.0000 -11.4647 0.0000
# 2 43.0236 100.5855 61.3667 0.0000 -12.0402 0.0000
# 3 36.7880 61.3667 100.6397 0.0000 -37.5674 0.0000
# 4 0.0000 0.0000 0.0000 24.5502 0.0000 -16.5009
# 5 -11.4647 -12.0402 -37.5674 0.0000 41.6260 0.0000
# 6 0.0000 0.0000 0.0000 -16.5009 0.0000 38.9421
#
#
#
# Elastic Compliance Matrix: (Units=1/GPa)
#
#
# Indices 1 2 3 4 5 6 
#
# 1 0.037008 -0.012380 -0.005295 0.000000 0.001833 0.000000
# 2 -0.012380 0.021123 -0.011079 0.000000 -0.007299 0.000000
# 3 -0.005295 -0.011079 0.025466 0.000000 0.018320 0.000000
# 4 0.000000 0.000000 0.000000 0.056953 0.000000 0.024133
# 5 0.001833 -0.007299 0.018320 0.000000 0.038951 0.000000
# 6 0.000000 0.000000 0.000000 0.024133 0.000000 0.035905
#
#
# Mechanical properties :
#
#
# Convention : Reuss Voigt Hill
#
# Bulk Modulus (GPa) = 38.32942 58.98071 48.65507
# Shear Modulus (GPa) = 17.75502 28.17642 22.96572
#
# Velocity S-wave (km/s) = 2.71516 3.42041 3.08798
# Velocity P-wave (km/s) = 5.07388 6.33154 5.73728
#
# Compressibility (1/GPa) = 0.02608962
#
# Stress axis : x y z
#
# Youngs Moduli (GPa) = 27.02123 47.34266 39.26737
#
# Poissons Ratio (x) = 0.58608 0.20792
# Poissons Ratio (y) = 0.33451 0.43505
# Poissons Ratio (z) = 0.14307 0.52452
#
# Static dielectric constant tensor:
#      x y z
#    x 1.929980 0.000000 -0.059120 
#    y 0.000000 1.959050 0.000000 
#    z -0.059120 0.000000 1.976380 
# 
# From -- ./inp_files/48639.got.cif
#   From: 2010.05.17/outbox.cif.g08.bks.cpg/sg14_25_cif.got.tgz:48639.got - 2010.06.03 17:49:19.
