data_PCOD9245018
_publ_section_title
;
Structure prediction by ZEFSAII (Michael W. Deem and Ramdas Pophale) SiO2 
 PCOD9245018
Probable space group: P 21/C
;
_chemical_formula_sum "Si O2"
_cell_formula_units_Z 32
_cell_length_a 14.553917
_cell_length_b 13.451317
_cell_length_c 8.211206
_cell_angle_alpha 90.000000
_cell_angle_beta 117.293691
_cell_angle_gamma 90.000000
_cell_volume 1428.535572
_symmetry_space_group_name_H-M "P 21/C"
_symmetry_group_IT_number 14
_symmetry_cell_setting 'monoclinic'
loop_
_space_group_symop_operation_xyz
x,y,z
-x,1/2+y,1/2-z
-x,-y,-z
x,1/2-y,1/2+z
loop_
_atom_site_type_symbol
_atom_site_label
_atom_site_fract_x
_atom_site_fract_y
_atom_site_fract_z
Si Si1 0.929145 0.943029 0.315256
Si Si2 0.607142 0.907902 0.855113
Si Si3 0.779407 0.918038 0.460882
Si Si4 0.777894 0.077359 0.977171
Si Si5 0.083842 0.543113 0.691904
Si Si6 0.375140 0.595935 0.160515
Si Si7 0.629783 0.223574 0.024803
Si Si8 0.603996 0.795743 0.200770
O O1 0.848786 0.884191 0.362766
O O2 0.000000 0.000000 0.500000
O O3 0.013515 0.895339 0.262507
O O4 0.862192 0.023609 0.161467
O O5 0.621211 0.852048 0.042038
O O6 0.688773 0.993885 0.892457
O O7 0.489862 0.949117 0.759996
O O8 0.617465 0.823043 0.725695
O O9 0.855670 0.952526 0.667548
O O10 0.715204 0.019507 0.376626
O O11 0.686433 0.839951 0.395771
O O12 0.833651 0.099024 0.851999
O O13 0.725550 0.172202 0.014534
O O14 0.000000 0.500000 0.500000
O O15 0.372346 0.680379 0.296248
O O16 0.364640 0.657897 0.986323
O O17 0.517863 0.191485 0.860350
#
# Coordination Sequence:
#
# PCOD9245018 Si02
#       8
#     4   4   4   4   4   4   4   4
#     4   9  18  36  60  83 102 142 194 240 281 326
#     4  10  21  36  56  86 123 148 183 227 272 335
#     4  11  19  37  65  82 107 157 191 220 285 346
#     4  11  19  37  61  82 109 157 185 225 286 338
#     4   9  22  36  58  87 110 140 192 248 286 320
#     4  10  21  36  56  88 119 150 184 226 272 336
#     4  10  21  36  56  86 123 148 183 227 272 335
#     4  10  21  36  56  88 119 150 184 226 272 336
#
# _framework density 22.400561
#
# number of rings (size 3 to 8) (size 9 to 14) (size 15 to 20)
#    0.000    2.000    2.500    0.750    3.500    2.000 
#    0.000    1.250    0.000   30.000    0.000    0.000 
#    0.000    0.000    0.000    0.000    0.000    0.000 
#
# Total GULP energy -178499.624955 kJ/mol
# GULP energy per Si atom -5578.113280 kJ/mol
# Density = 2.234958 g / cm^3
# Si number density = 22.400561 Si / 1000 Ang^3
#
#
#
# Elastic Constant Matrix: (Units=GPa)
#
#
# Indices 1 2 3 4 5 6 
#
# 1 127.1051 7.0045 43.7402 0.0000 0.8557 0.0000
# 2 7.0045 29.1202 3.0191 0.0000 2.3168 0.0000
# 3 43.7402 3.0191 86.8575 0.0000 23.1913 0.0000
# 4 0.0000 0.0000 0.0000 16.4434 0.0000 -1.6194
# 5 0.8557 2.3168 23.1913 0.0000 33.3559 0.0000
# 6 0.0000 0.0000 0.0000 -1.6194 0.0000 14.6481
#
#
#
# Elastic Compliance Matrix: (Units=1/GPa)
#
#
# Indices 1 2 3 4 5 6 
#
# 1 0.010052 -0.002114 -0.006089 0.000000 0.004123 0.000000
# 2 -0.002114 0.035010 0.000593 0.000000 -0.002790 0.000000
# 3 -0.006089 0.000593 0.017840 0.000000 -0.012289 0.000000
# 4 0.000000 0.000000 0.000000 0.061484 0.000000 0.006797
# 5 0.004123 -0.002790 -0.012289 0.000000 0.038612 0.000000
# 6 0.000000 0.000000 0.000000 0.006797 0.000000 0.069020
#
#
# Mechanical properties :
#
#
# Convention : Reuss Voigt Hill
#
# Bulk Modulus (GPa) = 20.97336 38.95668 29.96502
# Shear Modulus (GPa) = 19.00191 25.51075 22.25633
#
# Velocity S-wave (km/s) = 2.91568 3.37834 3.15550
# Velocity P-wave (km/s) = 4.55172 5.71369 5.16548
#
# Compressibility (1/GPa) = 0.04767953
#
# Stress axis : x y z
#
# Youngs Moduli (GPa) = 99.48551 28.56362 56.05377
#
# Poissons Ratio (x) = 0.06040 0.34132
# Poissons Ratio (y) = 0.21036 -0.03323
# Poissons Ratio (z) = 0.60578 -0.01693
#
# Static dielectric constant tensor:
#      x y z
#    x 1.876160 0.000000 -0.052190 
#    y 0.000000 1.784600 0.000000 
#    z -0.052190 0.000000 1.917690 
# 
# From -- ./inp_files/16266.got.cif
#   From: 2010.05.17/outbox.cif.g08.bks.cpg/sg14_9_cif.got.tgz:16266.got - 2010.06.03 17:49:19.
