data_PCOD9245270
_publ_section_title
;
Structure prediction by ZEFSAII (Michael W. Deem and Ramdas Pophale) SiO2 
 PCOD9245270
Probable space group: P 21/C
;
_chemical_formula_sum "Si O2"
_cell_formula_units_Z 32
_cell_length_a 21.987644
_cell_length_b 5.621028
_cell_length_c 10.933257
_cell_angle_alpha 90.000000
_cell_angle_beta 89.204315
_cell_angle_gamma 90.000000
_cell_volume 1351.145510
_symmetry_space_group_name_H-M "P 21/C"
_symmetry_group_IT_number 14
_symmetry_cell_setting 'monoclinic'
loop_
_space_group_symop_operation_xyz
x,y,z
-x,1/2+y,1/2-z
-x,-y,-z
x,1/2-y,1/2+z
loop_
_atom_site_type_symbol
_atom_site_label
_atom_site_fract_x
_atom_site_fract_y
_atom_site_fract_z
Si Si1 0.589155 0.980589 0.826648
Si Si2 0.815975 0.858566 0.855607
Si Si3 0.872371 0.881081 0.108647
Si Si4 0.330409 0.954252 0.415308
Si Si5 0.103670 0.785343 0.253187
Si Si6 0.555682 0.023271 0.405071
Si Si7 0.010444 0.134170 0.376417
Si Si8 0.300812 0.050471 0.000969
O O1 0.631363 0.038748 0.709902
O O2 0.549154 0.218104 0.842845
O O3 0.559636 0.717342 0.823545
O O4 0.631842 0.964100 0.945353
O O5 0.838299 0.719385 0.732770
O O6 0.844455 0.118103 0.833911
O O7 0.845072 0.777088 0.984736
O O8 0.745610 0.898317 0.886505
O O9 0.946295 0.858241 0.097301
O O10 0.866764 0.162618 0.130595
O O11 0.292987 0.706697 0.434855
O O12 0.380071 0.963478 0.523745
O O13 0.295650 0.207975 0.421839
O O14 0.055383 0.629422 0.181896
O O15 0.058180 0.994624 0.291620
O O16 0.500000 0.000000 0.500000
O O17 0.000000 0.000000 0.500000
#
# Coordination Sequence:
#
# PCOD9245270 Si02
#       8
#     4   4   4   4   4   4   4   4
#     4  10  21  39  63  91 130 174 223 267 333 395
#     4  11  27  43  66  97 127 173 220 285 335 411
#     4  11  25  44  65  96 131 161 222 271 341 408
#     4  10  22  41  65  92 128 174 224 267 336 396
#     4  11  23  40  62  94 124 165 210 263 336 408
#     4  10  21  37  60  97 134 170 219 273 323 395
#     4  11  22  38  64  87 124 165 200 259 332 407
#     4  10  24  42  64  92 126 174 220 278 333 393
#
# _framework density 23.683609000000001
#
# number of rings (size 3 to 8) (size 9 to 14) (size 15 to 20)
#    0.000    1.500    1.250    2.625    5.250    4.000 
#    0.000    0.000    0.000    0.000    0.000    0.000 
#    0.000    0.000    0.000    0.000    0.000    0.000 
#
# Total GULP energy -178322.374571 kJ/mol
# GULP energy per Si atom -5572.574205 kJ/mol
# Density = 2.362970 g / cm^3
# Si number density = 23.683609 Si / 1000 Ang^3
#
#
#
# Elastic Constant Matrix: (Units=GPa)
#
#
# Indices 1 2 3 4 5 6 
#
# 1 45.3653 6.8431 -17.3823 0.0000 -6.5173 0.0000
# 2 6.8431 118.8102 3.5048 0.0000 -11.3850 0.0000
# 3 -17.3823 3.5048 43.3799 0.0000 -8.4533 0.0000
# 4 0.0000 0.0000 0.0000 79.1424 0.0000 25.5436
# 5 -6.5173 -11.3850 -8.4533 0.0000 39.1548 0.0000
# 6 0.0000 0.0000 0.0000 25.5436 0.0000 50.8560
#
#
#
# Elastic Compliance Matrix: (Units=1/GPa)
#
#
# Indices 1 2 3 4 5 6 
#
# 1 0.028145 -0.001321 0.012759 0.000000 0.007055 0.000000
# 2 -0.001321 0.008722 -0.000817 0.000000 0.002140 0.000000
# 3 0.012759 -0.000817 0.029854 0.000000 0.008332 0.000000
# 4 0.000000 0.000000 0.000000 0.015080 0.000000 -0.007574
# 5 0.007055 0.002140 0.008332 0.000000 0.029135 0.000000
# 6 0.000000 0.000000 0.000000 -0.007574 0.000000 0.023468
#
#
# Mechanical properties :
#
#
# Convention : Reuss Voigt Hill
#
# Bulk Modulus (GPa) = 11.36846 21.49853 16.43350
# Shear Modulus (GPa) = 35.09173 48.13662 41.61417
#
# Velocity S-wave (km/s) = 3.85345 4.51320 4.19631
# Velocity P-wave (km/s) = 4.96078 6.02127 5.51657
#
# Compressibility (1/GPa) = 0.08796263
#
# Stress axis : x y z
#
# Youngs Moduli (GPa) = 35.53028 114.65202 33.49601
#
# Poissons Ratio (x) = 0.15150 -0.42738
# Poissons Ratio (y) = 0.04695 0.02737
# Poissons Ratio (z) = -0.45334 0.09369
#
# Static dielectric constant tensor:
#      x y z
#    x 2.204340 0.000000 0.143030 
#    y 0.000000 2.050970 0.000000 
#    z 0.143030 0.000000 1.885860 
# 
# From -- ./inp_files/35600.got.cif
#   From: 2010.05.17/outbox.cif.g08.bks.cpg/sg14_18_cif.got.tgz:35600.got - 2010.06.03 17:49:19.
