data_PCOD9245930
_publ_section_title
;
Structure prediction by ZEFSAII (Michael W. Deem and Ramdas Pophale) SiO2 
 PCOD9245930
Probable space group: P 21/C
;
_chemical_formula_sum "Si O2"
_cell_formula_units_Z 28
_cell_length_a 9.620727
_cell_length_b 9.979500
_cell_length_c 15.068692
_cell_angle_alpha 90.000000
_cell_angle_beta 114.519223
_cell_angle_gamma 90.000000
_cell_volume 1316.281283
_symmetry_space_group_name_H-M "P 21/C"
_symmetry_group_IT_number 14
_symmetry_cell_setting 'monoclinic'
loop_
_space_group_symop_operation_xyz
x,y,z
-x,1/2+y,1/2-z
-x,-y,-z
x,1/2-y,1/2+z
loop_
_atom_site_type_symbol
_atom_site_label
_atom_site_fract_x
_atom_site_fract_y
_atom_site_fract_z
Si Si1 0.302008 0.746062 0.256898
Si Si2 0.872684 0.859366 0.881329
Si Si3 0.378972 0.324088 0.232648
Si Si4 0.363263 0.004362 0.896419
Si Si5 0.926396 0.604516 0.591708
Si Si6 0.959836 0.161002 0.701283
Si Si7 0.884735 0.027496 0.386653
O O1 0.447731 0.818900 0.254146
O O2 0.361903 0.620749 0.330236
O O3 0.209836 0.832315 0.305708
O O4 0.189344 0.673880 0.153698
O O5 0.705938 0.817891 0.803794
O O6 0.992857 0.769067 0.859014
O O7 0.886486 0.827695 0.989085
O O8 0.923668 0.012545 0.882477
O O9 0.374171 0.369341 0.333354
O O10 0.263467 0.427696 0.151233
O O11 0.212170 0.009264 0.916027
O O12 0.500000 0.000000 0.000000
O O13 0.946888 0.692535 0.684331
O O14 0.020201 0.022261 0.675346
O O15 0.000000 0.000000 0.500000
#
# Coordination Sequence:
#
# PCOD9245930 Si02
#       7
#     4   4   4   4   4   4   4
#     4  11  23  41  65  95 137 169 224 283 333 409
#     4  10  21  39  65  94 128 168 227 267 332 404
#     4  10  23  43  65  98 136 178 221 276 352 393
#     4  11  22  41  62  94 136 170 217 284 330 396
#     4  11  21  38  66  98 124 172 226 269 324 406
#     4  11  21  40  64  94 129 174 218 271 339 392
#     4  10  23  44  66  96 136 176 226 278 335 407
#
# _framework density 21.27205
#
# number of rings (size 3 to 8) (size 9 to 14) (size 15 to 20)
#    0.000    1.429    5.714    0.857    4.000    5.714 
#    0.000    0.714    0.000    0.000    0.000    0.000 
#    0.000    0.000    0.000    0.000    0.000    0.000 
#
# Total GULP energy -156162.823545 kJ/mol
# GULP energy per Si atom -5577.243698 kJ/mol
# Density = 2.122363 g / cm^3
# Si number density = 21.272050 Si / 1000 Ang^3
#
#
#
# Elastic Constant Matrix: (Units=GPa)
#
#
# Indices 1 2 3 4 5 6 
#
# 1 164.2276 30.0236 37.3095 0.0000 -3.2626 0.0000
# 2 30.0236 49.3922 21.0672 0.0000 -0.9039 0.0000
# 3 37.3095 21.0672 163.2937 0.0000 -12.2862 0.0000
# 4 0.0000 0.0000 0.0000 26.2446 0.0000 -0.6074
# 5 -3.2626 -0.9039 -12.2862 0.0000 34.7992 0.0000
# 6 0.0000 0.0000 0.0000 -0.6074 0.0000 34.7030
#
#
#
# Elastic Compliance Matrix: (Units=1/GPa)
#
#
# Indices 1 2 3 4 5 6 
#
# 1 0.007039 -0.003804 -0.001105 0.000000 0.000171 0.000000
# 2 -0.003804 0.023488 -0.002200 0.000000 -0.000524 0.000000
# 3 -0.001105 -0.002200 0.006830 0.000000 0.002251 0.000000
# 4 0.000000 0.000000 0.000000 0.038119 0.000000 0.000667
# 5 0.000171 -0.000524 0.002251 0.000000 0.029533 0.000000
# 6 0.000000 0.000000 0.000000 0.000667 0.000000 0.028828
#
#
# Mechanical properties :
#
#
# Convention : Reuss Voigt Hill
#
# Bulk Modulus (GPa) = 43.22021 61.52380 52.37201
# Shear Modulus (GPa) = 32.09926 38.38357 35.24141
#
# Velocity S-wave (km/s) = 3.88878 4.25245 4.07467
# Velocity P-wave (km/s) = 6.36596 7.28672 6.84184
#
# Compressibility (1/GPa) = 0.02313732
#
# Stress axis : x y z
#
# Youngs Moduli (GPa) = 142.06633 42.57557 146.42319
#
# Poissons Ratio (x) = 0.16198 0.16173
# Poissons Ratio (y) = 0.54048 0.32219
# Poissons Ratio (z) = 0.15692 0.09368
#
# Static dielectric constant tensor:
#      x y z
#    x 1.781840 0.000000 0.033160 
#    y 0.000000 1.870620 0.000000 
#    z 0.033160 0.000000 1.778310 
# 
# From -- ./inp_files/40391.got.cif
#   From: 2010.05.17/outbox.cif.g08.bks.cpg/sg14_21_cif.got.tgz:40391.got - 2010.06.03 17:49:19.
