data_PCOD9245201
_publ_section_title
;
Structure prediction by ZEFSAII (Michael W. Deem and Ramdas Pophale) SiO2 
 PCOD9245201
Probable space group: P 21/C
;
_chemical_formula_sum "Si O2"
_cell_formula_units_Z 24
_cell_length_a 13.890600
_cell_length_b 7.681907
_cell_length_c 9.576112
_cell_angle_alpha 90.000000
_cell_angle_beta 105.465400
_cell_angle_gamma 90.000000
_cell_volume 984.832632
_symmetry_space_group_name_H-M "P 21/C"
_symmetry_group_IT_number 14
_symmetry_cell_setting 'monoclinic'
loop_
_space_group_symop_operation_xyz
x,y,z
-x,1/2+y,1/2-z
-x,-y,-z
x,1/2-y,1/2+z
loop_
_atom_site_type_symbol
_atom_site_label
_atom_site_fract_x
_atom_site_fract_y
_atom_site_fract_z
Si Si1 0.910782 0.265676 0.524582
Si Si2 0.754299 0.764946 0.128788
Si Si3 0.360479 0.120410 0.643731
Si Si4 0.575031 0.267316 0.676351
Si Si5 0.024554 0.122576 0.798298
Si Si6 0.309436 0.879204 0.048611
O O1 0.943557 0.438193 0.624199
O O2 0.791796 0.269301 0.470949
O O3 0.959372 0.112683 0.633208
O O4 0.957991 0.285662 0.391011
O O5 0.699976 0.786557 0.255100
O O6 0.872920 0.774357 0.193205
O O7 0.724207 0.935813 0.026115
O O8 0.711870 0.609727 0.018021
O O9 0.458734 0.224506 0.633629
O O10 0.398549 0.939952 0.724456
O O11 0.616605 0.298665 0.538285
O O12 0.633795 0.117542 0.782677
#
# Coordination Sequence:
#
# PCOD9245201 Si02
#       6
#     4   4   4   4   4   4
#     4  10  21  37  58  84 113 146 184 226 273 326
#     4  10  22  39  57  82 115 146 182 229 275 324
#     4  11  23  38  58  83 111 146 186 228 276 328
#     4  11  23  38  58  83 111 146 186 228 276 328
#     4  10  21  37  58  84 113 146 184 226 273 326
#     4  10  22  39  57  82 115 146 182 229 275 324
#
# _framework density 24.369624000000002
#
# number of rings (size 3 to 8) (size 9 to 14) (size 15 to 20)
#    0.000    1.667    0.000    4.000    0.000    8.667 
#    0.000    0.000    0.000    0.000    0.000    0.000 
#    0.000    0.000    0.000    0.000    0.000    0.000 
#
# Total GULP energy -134502.668355 kJ/mol
# GULP energy per Si atom -5604.277848 kJ/mol
# Density = 2.431416 g / cm^3
# Si number density = 24.369624 Si / 1000 Ang^3
#
#
#
# Elastic Constant Matrix: (Units=GPa)
#
#
# Indices 1 2 3 4 5 6 
#
# 1 159.3677 29.7538 10.5616 0.0000 1.7660 0.0000
# 2 29.7538 51.4129 4.5852 0.0000 -20.3190 0.0000
# 3 10.5616 4.5852 61.4206 0.0000 -2.5833 0.0000
# 4 0.0000 0.0000 0.0000 37.0301 0.0000 6.3097
# 5 1.7660 -20.3190 -2.5833 0.0000 35.6150 0.0000
# 6 0.0000 0.0000 0.0000 6.3097 0.0000 22.1481
#
#
#
# Elastic Compliance Matrix: (Units=1/GPa)
#
#
# Indices 1 2 3 4 5 6 
#
# 1 0.007441 -0.005669 -0.001011 0.000000 -0.003677 0.000000
# 2 -0.005669 0.029532 -0.000511 0.000000 0.017093 0.000000
# 3 -0.001011 -0.000511 0.016533 0.000000 0.000958 0.000000
# 4 0.000000 0.000000 0.000000 0.028383 0.000000 -0.008086
# 5 -0.003677 0.017093 0.000958 0.000000 0.038081 0.000000
# 6 0.000000 0.000000 0.000000 -0.008086 0.000000 0.047454
#
#
# Mechanical properties :
#
#
# Convention : Reuss Voigt Hill
#
# Bulk Modulus (GPa) = 25.55945 40.22247 32.89096
# Shear Modulus (GPa) = 25.66099 34.11202 29.88650
#
# Velocity S-wave (km/s) = 3.24850 3.74542 3.50577
# Velocity P-wave (km/s) = 4.95796 5.93677 5.46930
#
# Compressibility (1/GPa) = 0.03912447
#
# Stress axis : x y z
#
# Youngs Moduli (GPa) = 134.39128 33.86158 60.48342
#
# Poissons Ratio (x) = 0.19197 0.06114
# Poissons Ratio (y) = 0.76188 0.03090
# Poissons Ratio (z) = 0.13586 0.01730
#
# Static dielectric constant tensor:
#      x y z
#    x 1.856660 0.000000 0.018450 
#    y 0.000000 2.028120 0.000000 
#    z 0.018450 0.000000 1.852570 
# 
# From -- ./inp_files/15067.got.cif
#   From: 2010.05.17/outbox.cif.g08.bks.cpg/sg14_8_cif.got.tgz:15067.got - 2010.06.03 17:49:19.
