data_PCOD9245099
_publ_section_title
;
Structure prediction by ZEFSAII (Michael W. Deem and Ramdas Pophale) SiO2 
 PCOD9245099
Probable space group: P 21/C
;
_chemical_formula_sum "Si O2"
_cell_formula_units_Z 28
_cell_length_a 9.449178
_cell_length_b 17.870476
_cell_length_c 15.641711
_cell_angle_alpha 90.000000
_cell_angle_beta 149.598957
_cell_angle_gamma 90.000000
_cell_volume 1336.618224
_symmetry_space_group_name_H-M "P 21/C"
_symmetry_group_IT_number 14
_symmetry_cell_setting 'monoclinic'
loop_
_space_group_symop_operation_xyz
x,y,z
-x,1/2+y,1/2-z
-x,-y,-z
x,1/2-y,1/2+z
loop_
_atom_site_type_symbol
_atom_site_label
_atom_site_fract_x
_atom_site_fract_y
_atom_site_fract_z
Si Si1 0.694309 0.571230 0.208330
Si Si2 0.056701 0.208022 0.874856
Si Si3 0.408994 0.283653 0.269368
Si Si4 0.405598 0.908923 0.386221
Si Si5 0.957250 0.211650 0.146140
Si Si6 0.485880 0.863467 0.776718
Si Si7 0.124595 0.130703 0.492555
O O1 0.749975 0.484158 0.223333
O O2 0.937456 0.626642 0.304620
O O3 0.613717 0.589763 0.263908
O O4 0.449490 0.590288 0.011472
O O5 0.056813 0.242315 0.780094
O O6 0.767494 0.163132 0.732478
O O7 0.303077 0.152312 0.034396
O O8 0.074681 0.282962 0.939664
O O9 0.119123 0.251288 0.153039
O O10 0.541640 0.219944 0.277904
O O11 0.336701 0.360095 0.182862
O O12 0.627536 0.289001 0.460332
O O13 0.705398 0.908697 0.494665
O O14 0.185336 0.896712 0.646369
#
# Coordination Sequence:
#
# PCOD9245099 Si02
#       7
#     4   4   4   4   4   4   4
#     4  10  24  44  63  90 134 176 208 257 324 402
#     4  11  22  37  66  98 123 163 220 272 308 377
#     4  10  21  36  60  93 128 161 213 272 310 375
#     4  11  24  42  67  91 130 173 215 254 330 385
#     4  11  21  38  65  94 125 167 214 262 321 373
#     4  10  22  39  61  94 131 159 215 264 322 369
#     4  11  22  38  62  97 122 165 212 276 311 370
#
# _framework density 20.948388999999999
#
# number of rings (size 3 to 8) (size 9 to 14) (size 15 to 20)
#    0.000    1.429    2.857    3.429    6.000    1.143 
#    0.000    0.000    0.000    2.571    0.000    0.000 
#    0.000    0.000    0.000    0.000    0.000    0.000 
#
# Total GULP energy -156176.501469 kJ/mol
# GULP energy per Si atom -5577.732195 kJ/mol
# Density = 2.090071 g / cm^3
# Si number density = 20.948389 Si / 1000 Ang^3
#
#
#
# Elastic Constant Matrix: (Units=GPa)
#
#
# Indices 1 2 3 4 5 6 
#
# 1 60.1655 -4.5854 34.9043 0.0000 -5.9105 0.0000
# 2 -4.5854 41.6183 2.3502 0.0000 -5.0300 0.0000
# 3 34.9043 2.3502 83.7576 0.0000 -4.8894 0.0000
# 4 0.0000 0.0000 0.0000 14.5195 0.0000 -1.6927
# 5 -5.9105 -5.0300 -4.8894 0.0000 31.0376 0.0000
# 6 0.0000 0.0000 0.0000 -1.6927 0.0000 14.8666
#
#
#
# Elastic Compliance Matrix: (Units=1/GPa)
#
#
# Indices 1 2 3 4 5 6 
#
# 1 0.022627 0.003430 -0.009327 0.000000 0.003395 0.000000
# 2 0.003430 0.025045 -0.001874 0.000000 0.004417 0.000000
# 3 -0.009327 -0.001874 0.015904 0.000000 0.000425 0.000000
# 4 0.000000 0.000000 0.000000 0.069800 0.000000 0.007948
# 5 0.003395 0.004417 0.000425 0.000000 0.033648 0.000000
# 6 0.000000 0.000000 0.000000 0.007948 0.000000 0.068170
#
#
# Mechanical properties :
#
#
# Convention : Reuss Voigt Hill
#
# Bulk Modulus (GPa) = 20.81912 27.87551 24.34732
# Shear Modulus (GPa) = 18.74428 22.27622 20.51025
#
# Velocity S-wave (km/s) = 2.99454 3.26450 3.13243
# Velocity P-wave (km/s) = 4.68148 5.24832 4.97298
#
# Compressibility (1/GPa) = 0.04803278
#
# Stress axis : x y z
#
# Youngs Moduli (GPa) = 44.19512 39.92739 62.87872
#
# Poissons Ratio (x) = -0.13695 0.58649
# Poissons Ratio (y) = -0.15159 0.11786
# Poissons Ratio (z) = 0.41222 0.07484
#
# Static dielectric constant tensor:
#      x y z
#    x 1.784340 0.000000 -0.040300 
#    y 0.000000 1.727760 0.000000 
#    z -0.040300 0.000000 1.812720 
# 
# From -- ./inp_files/42023.got.cif
#   From: 2010.05.17/outbox.cif.g08.bks.cpg/sg14_22_cif.got.tgz:42023.got - 2010.06.03 17:49:19.
