data_PCOD9245856
_publ_section_title
;
Structure prediction by ZEFSAII (Michael W. Deem and Ramdas Pophale) SiO2 
 PCOD9245856
Probable space group: P 21/C
;
_chemical_formula_sum "Si O2"
_cell_formula_units_Z 20
_cell_length_a 5.319246
_cell_length_b 19.535764
_cell_length_c 9.788044
_cell_angle_alpha 90.000000
_cell_angle_beta 125.311913
_cell_angle_gamma 90.000000
_cell_volume 829.995659
_symmetry_space_group_name_H-M "P 21/C"
_symmetry_group_IT_number 14
_symmetry_cell_setting 'monoclinic'
loop_
_space_group_symop_operation_xyz
x,y,z
-x,1/2+y,1/2-z
-x,-y,-z
x,1/2-y,1/2+z
loop_
_atom_site_type_symbol
_atom_site_label
_atom_site_fract_x
_atom_site_fract_y
_atom_site_fract_z
Si Si1 0.204706 0.503137 0.810913
Si Si2 0.642081 0.726061 0.120259
Si Si3 0.886149 0.644533 0.634258
Si Si4 0.451998 0.548036 0.352343
Si Si5 0.737975 0.268291 0.762531
O O1 0.332619 0.476382 0.704918
O O2 0.078913 0.580744 0.748981
O O3 0.913500 0.461858 0.782981
O O4 0.500000 0.500000 0.000000
O O5 0.746404 0.802942 0.202333
O O6 0.432301 0.694656 0.168783
O O7 0.967663 0.690656 0.199908
O O8 0.463732 0.738254 0.923756
O O9 0.602631 0.617862 0.455154
O O10 0.098492 0.699544 0.621728
O O11 0.500000 0.500000 0.500000
#
# Coordination Sequence:
#
# PCOD9245856 Si02
#       5
#     4   4   4   4   4
#     4  11  23  40  59  92 123 152 202 253 284 348
#     4  10  22  40  62  86 119 156 197 250 295 354
#     4   9  23  37  64  84 123 159 198 233 311 350
#     4  10  21  39  64  84 120 159 196 234 295 360
#     4  10  22  40  62  84 122 150 204 244 295 352
#
# _framework density 24.096509000000001
#
# number of rings (size 3 to 8) (size 9 to 14) (size 15 to 20)
#    1.200    0.800    0.000    4.200    8.400    0.000 
#    7.200    0.000    0.000    0.000    0.000    0.000 
#    0.000    0.000    0.000    0.000    0.000    0.000 
#
# Total GULP energy -111529.413511 kJ/mol
# GULP energy per Si atom -5576.470676 kJ/mol
# Density = 2.404166 g / cm^3
# Si number density = 24.096509 Si / 1000 Ang^3
#
#
#
# Elastic Constant Matrix: (Units=GPa)
#
#
# Indices 1 2 3 4 5 6 
#
# 1 178.2352 -7.0514 34.8791 0.0000 14.0831 0.0000
# 2 -7.0514 92.5794 -16.9091 0.0000 8.1865 0.0000
# 3 34.8791 -16.9091 86.2646 0.0000 21.9804 0.0000
# 4 0.0000 0.0000 0.0000 27.1434 0.0000 8.6100
# 5 14.0831 8.1865 21.9804 0.0000 53.0531 0.0000
# 6 0.0000 0.0000 0.0000 8.6100 0.0000 6.0288
#
#
#
# Elastic Compliance Matrix: (Units=1/GPa)
#
#
# Indices 1 2 3 4 5 6 
#
# 1 0.006115 0.000113 -0.002272 0.000000 -0.000699 0.000000
# 2 0.000113 0.011633 0.003018 0.000000 -0.003076 0.000000
# 3 -0.002272 0.003018 0.014610 0.000000 -0.005916 0.000000
# 4 0.000000 0.000000 0.000000 0.067353 0.000000 -0.096191
# 5 -0.000699 -0.003076 -0.005916 0.000000 0.021960 0.000000
# 6 0.000000 0.000000 0.000000 -0.096191 0.000000 0.303247
#
#
# Mechanical properties :
#
#
# Convention : Reuss Voigt Hill
#
# Bulk Modulus (GPa) = 29.34624 42.10183 35.72403
# Shear Modulus (GPa) = 11.50590 40.32242 25.91416
#
# Velocity S-wave (km/s) = 2.18753 4.09512 3.28294
# Velocity P-wave (km/s) = 4.31108 6.31428 5.40627
#
# Compressibility (1/GPa) = 0.03407592
#
# Stress axis : x y z
#
# Youngs Moduli (GPa) = 163.53456 85.95946 68.44652
#
# Poissons Ratio (x) = -0.00968 0.15552
# Poissons Ratio (y) = -0.01841 -0.20660
# Poissons Ratio (z) = 0.37158 -0.25947
#
# Static dielectric constant tensor:
#      x y z
#    x 2.061360 0.000000 0.058650 
#    y 0.000000 1.714050 0.000000 
#    z 0.058650 0.000000 1.941740 
# 
# From -- ./inp_files/6124.got.cif
#   From: 2010.05.17/outbox.cif.g08.bks.cpg/sg14_4_cif.got.tgz:6124.got - 2010.06.03 17:49:19.
