data_PCOD9245918
_publ_section_title
;
Structure prediction by ZEFSAII (Michael W. Deem and Ramdas Pophale) SiO2 
 PCOD9245918
Probable space group: P 21/C
;
_chemical_formula_sum "Si O2"
_cell_formula_units_Z 32
_cell_length_a 10.546182
_cell_length_b 16.946297
_cell_length_c 13.678389
_cell_angle_alpha 90.000000
_cell_angle_beta 39.059019
_cell_angle_gamma 90.000000
_cell_volume 1540.382895
_symmetry_space_group_name_H-M "P 21/C"
_symmetry_group_IT_number 14
_symmetry_cell_setting 'monoclinic'
loop_
_space_group_symop_operation_xyz
x,y,z
-x,1/2+y,1/2-z
-x,-y,-z
x,1/2-y,1/2+z
loop_
_atom_site_type_symbol
_atom_site_label
_atom_site_fract_x
_atom_site_fract_y
_atom_site_fract_z
Si Si1 0.720651 0.338862 0.215273
Si Si2 0.130941 0.627381 0.086152
Si Si3 0.582436 0.616251 0.119728
Si Si4 0.193862 0.972531 0.822497
Si Si5 0.072787 0.803714 0.811205
Si Si6 0.418015 0.378730 0.109262
Si Si7 0.651374 0.720281 0.664727
Si Si8 0.010618 0.530821 0.883559
O O1 0.849718 0.343039 0.036790
O O2 0.767917 0.259078 0.244618
O O3 0.494250 0.337223 0.311003
O O4 0.799473 0.411065 0.233952
O O5 0.356854 0.603734 0.985572
O O6 0.060201 0.695166 0.201847
O O7 0.994377 0.549339 0.175478
O O8 0.399350 0.556570 0.253241
O O9 0.569241 0.691629 0.198150
O O10 0.567682 0.639856 0.013702
O O11 0.802549 0.577644 0.994309
O O12 0.125922 0.893205 0.808375
O O13 0.274045 0.045610 0.710063
O O14 0.000000 0.000000 0.000000
O O15 0.867578 0.781753 0.986579
O O16 0.345049 0.309963 0.226202
O O17 0.000000 0.500000 0.000000
#
# Coordination Sequence:
#
# PCOD9245918 Si02
#       8
#     4   4   4   4   4   4   4   4
#     4  10  22  41  62  92 128 169 216 265 329 391
#     4  10  21  39  66  91 123 173 223 261 322 404
#     4  12  22  42  69  93 129 180 222 263 329 406
#     4  12  23  38  64  99 134 161 221 281 325 384
#     4  12  22  41  62  96 132 166 216 279 322 382
#     4  11  22  40  68  93 129 176 222 265 329 392
#     4  11  24  40  64  97 132 168 216 277 324 380
#     4  10  21  39  65  92 122 172 221 258 321 407
#
# _framework density 20.774055000000001
#
# number of rings (size 3 to 8) (size 9 to 14) (size 15 to 20)
#    0.000    1.000    6.250    1.125    0.000    1.000 
#    0.000    0.625    2.750    0.000    0.000    0.000 
#    0.000    0.000    0.000    0.000    0.000    0.000 
#
# Total GULP energy -178605.511148 kJ/mol
# GULP energy per Si atom -5581.422223 kJ/mol
# Density = 2.072677 g / cm^3
# Si number density = 20.774055 Si / 1000 Ang^3
#
#
#
# Elastic Constant Matrix: (Units=GPa)
#
#
# Indices 1 2 3 4 5 6 
#
# 1 78.1338 21.9285 6.4721 0.0000 9.0320 0.0000
# 2 21.9285 83.4203 7.6879 0.0000 20.0000 0.0000
# 3 6.4721 7.6879 53.3861 0.0000 -1.8452 0.0000
# 4 0.0000 0.0000 0.0000 20.8415 0.0000 -0.1032
# 5 9.0320 20.0000 -1.8452 0.0000 28.8713 0.0000
# 6 0.0000 0.0000 0.0000 -0.1032 0.0000 39.8204
#
#
#
# Elastic Compliance Matrix: (Units=1/GPa)
#
#
# Indices 1 2 3 4 5 6 
#
# 1 0.014027 -0.002985 -0.001354 0.000000 -0.002406 0.000000
# 2 -0.002985 0.015329 -0.002185 0.000000 -0.009825 0.000000
# 3 -0.001354 -0.002185 0.019320 0.000000 0.003172 0.000000
# 4 0.000000 0.000000 0.000000 0.047982 0.000000 0.000124
# 5 -0.002406 -0.009825 0.003172 0.000000 0.042398 0.000000
# 6 0.000000 0.000000 0.000000 0.000124 0.000000 0.025113
#
#
# Mechanical properties :
#
#
# Convention : Reuss Voigt Hill
#
# Bulk Modulus (GPa) = 28.06853 31.90192 29.98522
# Shear Modulus (GPa) = 26.44205 29.83008 28.13607
#
# Velocity S-wave (km/s) = 3.57156 3.79348 3.68419
# Velocity P-wave (km/s) = 5.52709 5.88024 5.70640
#
# Compressibility (1/GPa) = 0.03562709
#
# Stress axis : x y z
#
# Youngs Moduli (GPa) = 71.29226 65.23543 51.76013
#
# Poissons Ratio (x) = 0.19476 0.07007
# Poissons Ratio (y) = 0.21284 0.11310
# Poissons Ratio (z) = 0.09651 0.14255
#
# Static dielectric constant tensor:
#      x y z
#    x 1.799470 0.000000 -0.018360 
#    y 0.000000 1.781760 0.000000 
#    z -0.018360 0.000000 1.734000 
# 
# From -- ./inp_files/45070.got.cif
#   From: 2010.05.17/outbox.cif.g08.bks.cpg/sg14_23_cif.got.tgz:45070.got - 2010.06.03 17:49:19.
