data_PCOD9245540
_publ_section_title
;
Structure prediction by ZEFSAII (Michael W. Deem and Ramdas Pophale) SiO2 
 PCOD9245540
Probable space group: P 21/C
;
_chemical_formula_sum "Si O2"
_cell_formula_units_Z 24
_cell_length_a 5.551396
_cell_length_b 7.960443
_cell_length_c 21.549624
_cell_angle_alpha 90.000000
_cell_angle_beta 78.806856
_cell_angle_gamma 90.000000
_cell_volume 934.197246
_symmetry_space_group_name_H-M "P 21/C"
_symmetry_group_IT_number 14
_symmetry_cell_setting 'monoclinic'
loop_
_space_group_symop_operation_xyz
x,y,z
-x,1/2+y,1/2-z
-x,-y,-z
x,1/2-y,1/2+z
loop_
_atom_site_type_symbol
_atom_site_label
_atom_site_fract_x
_atom_site_fract_y
_atom_site_fract_z
Si Si1 0.793559 0.265429 0.683832
Si Si2 0.776037 0.589101 0.842387
Si Si3 0.232891 0.596259 0.520894
Si Si4 0.540246 0.899755 0.218151
Si Si5 0.676528 0.076765 0.562672
Si Si6 0.919736 0.798464 0.620010
O O1 0.727387 0.166972 0.750741
O O2 0.613862 0.421544 0.687783
O O3 0.746454 0.165082 0.623529
O O4 0.086719 0.269178 0.665679
O O5 0.648753 0.583380 0.782433
O O6 0.614065 0.561367 0.912213
O O7 0.956701 0.431172 0.839887
O O8 0.500000 0.500000 0.500000
O O9 0.275195 0.781536 0.489761
O O10 0.000000 0.500000 0.500000
O O11 0.112304 0.651227 0.592937
O O12 0.681930 0.771214 0.167191
O O13 0.815690 0.899266 0.563854
#
# Coordination Sequence:
#
# PCOD9245540 Si02
#       6
#     4   4   4   4   4   4
#     4  10  21  38  62  95 141 179 242 296 368 440
#     4  10  22  39  67 102 138 189 236 304 370 441
#     4  12  30  51  76 111 145 195 252 313 371 442
#     4  11  21  39  63 101 140 188 241 297 372 443
#     4  10  24  45  70  99 143 190 242 306 368 445
#     4  11  25  44  72 101 145 195 245 307 377 446
#
# _framework density 25.690503
#
# number of rings (size 3 to 8) (size 9 to 14) (size 15 to 20)
#    0.000    1.333    0.000    5.500    9.333    2.000 
#    3.000    0.000    0.000    0.000    0.000    0.000 
#    0.000    0.000    0.000    0.000    0.000    0.000 
#
# Total GULP energy -133801.468195 kJ/mol
# GULP energy per Si atom -5575.061175 kJ/mol
# Density = 2.563203 g / cm^3
# Si number density = 25.690503 Si / 1000 Ang^3
#
#
#
# Elastic Constant Matrix: (Units=GPa)
#
#
# Indices 1 2 3 4 5 6 
#
# 1 93.2654 39.4668 24.6146 0.0000 -29.6221 0.0000
# 2 39.4668 91.4292 27.2677 0.0000 -16.2684 0.0000
# 3 24.6146 27.2677 70.0092 0.0000 -22.3049 0.0000
# 4 0.0000 0.0000 0.0000 57.5514 0.0000 -10.7230
# 5 -29.6221 -16.2684 -22.3049 0.0000 42.0508 0.0000
# 6 0.0000 0.0000 0.0000 -10.7230 0.0000 29.1696
#
#
#
# Elastic Compliance Matrix: (Units=1/GPa)
#
#
# Indices 1 2 3 4 5 6 
#
# 1 0.015862 -0.005040 -0.000812 0.000000 0.008793 0.000000
# 2 -0.005040 0.014234 -0.003789 0.000000 -0.000054 0.000000
# 3 -0.000812 -0.003789 0.018527 0.000000 0.007789 0.000000
# 4 0.000000 0.000000 0.000000 0.018653 0.000000 0.006857
# 5 0.008793 -0.000054 0.007789 0.000000 0.034086 0.000000
# 6 0.000000 0.000000 0.000000 0.006857 0.000000 0.036803
#
#
# Mechanical properties :
#
#
# Convention : Reuss Voigt Hill
#
# Bulk Modulus (GPa) = 34.08373 48.60022 41.34197
# Shear Modulus (GPa) = 29.89947 36.64469 33.27208
#
# Velocity S-wave (km/s) = 3.41520 3.78086 3.60267
# Velocity P-wave (km/s) = 5.37097 6.16591 5.78212
#
# Compressibility (1/GPa) = 0.02933952
#
# Stress axis : x y z
#
# Youngs Moduli (GPa) = 63.04332 70.25667 53.97604
#
# Poissons Ratio (x) = 0.35411 0.04385
# Poissons Ratio (y) = 0.31775 0.20450
# Poissons Ratio (z) = 0.05122 0.26618
#
# Static dielectric constant tensor:
#      x y z
#    x 2.528370 0.000000 -0.062200 
#    y 0.000000 2.153190 0.000000 
#    z -0.062200 0.000000 2.046090 
# 
# From -- ./inp_files/75575.got.cif
#   From: 2010.05.17/outbox.cif.g08.bks.cpg/sg14_38_cif.got.tgz:75575.got - 2010.06.03 17:49:19.
