data_PCOD9245860
_publ_section_title
;
Structure prediction by ZEFSAII (Michael W. Deem and Ramdas Pophale) SiO2 
 PCOD9245860
Probable space group: P 21/C
;
_chemical_formula_sum "Si O2"
_cell_formula_units_Z 32
_cell_length_a 7.779441
_cell_length_b 29.667947
_cell_length_c 11.077362
_cell_angle_alpha 90.000000
_cell_angle_beta 144.896966
_cell_angle_gamma 90.000000
_cell_volume 1470.201176
_symmetry_space_group_name_H-M "P 21/C"
_symmetry_group_IT_number 14
_symmetry_cell_setting 'monoclinic'
loop_
_space_group_symop_operation_xyz
x,y,z
-x,1/2+y,1/2-z
-x,-y,-z
x,1/2-y,1/2+z
loop_
_atom_site_type_symbol
_atom_site_label
_atom_site_fract_x
_atom_site_fract_y
_atom_site_fract_z
Si Si1 0.768881 0.269169 0.952071
Si Si2 0.785067 0.958139 0.899252
Si Si3 0.834012 0.788157 0.991893
Si Si4 0.622643 0.393361 0.476205
Si Si5 0.806979 0.123424 0.808177
Si Si6 0.683634 0.523281 0.820847
Si Si7 0.606616 0.798482 0.102272
Si Si8 0.722119 0.574833 0.093882
O O1 0.459975 0.296378 0.758635
O O2 0.644480 0.228702 0.966624
O O3 0.923319 0.244266 0.927217
O O4 0.055691 0.299059 0.151312
O O5 0.676434 0.942819 0.703884
O O6 0.530611 0.981231 0.830493
O O7 0.969889 0.919078 0.069407
O O8 0.000000 0.000000 0.000000
O O9 0.674321 0.770585 0.020065
O O10 0.009727 0.833172 0.121490
O O11 0.713808 0.374429 0.395631
O O12 0.399898 0.434753 0.314397
O O13 0.497022 0.350018 0.473860
O O14 0.928938 0.411592 0.710918
O O15 0.508145 0.115503 0.560599
O O16 0.645998 0.541672 0.937776
O O17 0.000000 0.500000 0.000000
#
# Coordination Sequence:
#
# PCOD9245860 Si02
#       8
#     4   4   4   4   4   4   4   4
#     4  10  24  44  68  93 135 159 208 271 310 383
#     4  11  20  40  64  88 122 165 217 251 306 378
#     4  11  23  43  66 100 124 169 212 254 325 384
#     4  10  22  41  58  89 129 165 206 261 313 374
#     4  10  22  38  63  91 126 164 214 262 313 373
#     4  11  24  38  59  93 127 160 209 265 312 359
#     4  11  23  43  67  96 128 169 209 257 327 376
#     4  10  21  39  64  86 121 177 201 260 316 366
#
# _framework density 21.765730000000001
#
# number of rings (size 3 to 8) (size 9 to 14) (size 15 to 20)
#    0.000    1.500    5.000    1.125    0.000    7.500 
#    2.250    0.000    0.000    0.000    0.000    0.000 
#    0.000    0.000    0.000    0.000    0.000    0.000 
#
# Total GULP energy -178361.138858 kJ/mol
# GULP energy per Si atom -5573.785589 kJ/mol
# Density = 2.171619 g / cm^3
# Si number density = 21.765730 Si / 1000 Ang^3
#
#
#
# Elastic Constant Matrix: (Units=GPa)
#
#
# Indices 1 2 3 4 5 6 
#
# 1 72.9297 13.1788 2.3643 0.0000 14.5993 0.0000
# 2 13.1788 56.9614 23.0785 0.0000 11.1467 0.0000
# 3 2.3643 23.0785 91.8730 0.0000 17.0744 0.0000
# 4 0.0000 0.0000 0.0000 17.8364 0.0000 8.6258
# 5 14.5993 11.1467 17.0744 0.0000 36.6990 0.0000
# 6 0.0000 0.0000 0.0000 8.6258 0.0000 -40.5524
#
#
#
# Elastic Compliance Matrix: (Units=1/GPa)
#
#
# Indices 1 2 3 4 5 6 
#
# 1 0.015384 -0.002995 0.001450 0.000000 -0.005885 0.000000
# 2 -0.002995 0.020679 -0.004567 0.000000 -0.002965 0.000000
# 3 0.001450 -0.004567 0.012965 0.000000 -0.005222 0.000000
# 4 0.000000 0.000000 0.000000 0.050836 0.000000 0.010813
# 5 -0.005885 -0.002965 -0.005222 0.000000 0.032920 0.000000
# 6 0.000000 0.000000 0.000000 0.010813 0.000000 -0.022359
#
#
# Mechanical properties :
#
#
# Convention : Reuss Voigt Hill
#
# Bulk Modulus (GPa) = 27.17029 33.22303 30.19666
# Shear Modulus (GPa) = 37.06013 15.00609 26.03311
#
# Velocity S-wave (km/s) = 4.13083 2.62856 3.46216
# Velocity P-wave (km/s) = 5.93817 4.95071 5.46678
#
# Compressibility (1/GPa) = 0.03680491
#
# Stress axis : x y z
#
# Youngs Moduli (GPa) = 65.00194 48.35802 77.13158
#
# Poissons Ratio (x) = 0.14485 -0.11186
# Poissons Ratio (y) = 0.19470 0.35222
# Poissons Ratio (z) = -0.09427 0.22083
#
# Static dielectric constant tensor:
#      x y z
#    x 1.857410 0.000000 -0.064610 
#    y 0.000000 1.766180 0.000000 
#    z -0.064610 0.000000 1.910540 
# 
# From -- ./inp_files/27195.got.cif
#   From: 2010.05.17/outbox.cif.g08.bks.cpg/sg14_14_cif.got.tgz:27195.got - 2010.06.03 17:49:19.
