data_PCOD9245194
_publ_section_title
;
Structure prediction by ZEFSAII (Michael W. Deem and Ramdas Pophale) SiO2 
 PCOD9245194
Probable space group: P 21/C
;
_chemical_formula_sum "Si O2"
_cell_formula_units_Z 24
_cell_length_a 14.565795
_cell_length_b 11.197663
_cell_length_c 5.233577
_cell_angle_alpha 90.000000
_cell_angle_beta 81.609001
_cell_angle_gamma 90.000000
_cell_volume 844.473717
_symmetry_space_group_name_H-M "P 21/C"
_symmetry_group_IT_number 14
_symmetry_cell_setting 'monoclinic'
loop_
_space_group_symop_operation_xyz
x,y,z
-x,1/2+y,1/2-z
-x,-y,-z
x,1/2-y,1/2+z
loop_
_atom_site_type_symbol
_atom_site_label
_atom_site_fract_x
_atom_site_fract_y
_atom_site_fract_z
Si Si1 0.838152 0.422308 0.864708
Si Si2 0.016070 0.171780 0.135750
Si Si3 0.498799 0.671373 0.207403
Si Si4 0.353173 0.529758 0.982457
Si Si5 0.236608 0.327151 0.563090
Si Si6 0.749640 0.398286 0.395553
O O1 0.752630 0.515838 0.924516
O O2 0.788066 0.350399 0.650081
O O3 0.942709 0.433932 0.728393
O O4 0.836732 0.387562 0.161997
O O5 0.999079 0.266073 0.371963
O O6 0.125342 0.146920 0.106446
O O7 0.509445 0.732232 0.476381
O O8 0.402783 0.600115 0.193339
O O9 0.576746 0.571042 0.130725
O O10 0.333346 0.630875 0.770592
O O11 0.260170 0.250328 0.303480
O O12 0.275362 0.460829 0.555956
#
# Coordination Sequence:
#
# PCOD9245194 Si02
#       6
#     4   4   4   4   4   4
#     4  10  22  38  59  86 119 161 190 257 305 349
#     4  10  21  37  57  85 120 159 209 256 297 359
#     4  11  26  43  70  94 122 171 198 249 324 372
#     4   9  26  44  63  96 134 146 219 258 294 389
#     4  10  21  37  57  85 120 159 209 256 297 359
#     4  10  22  38  59  86 119 161 190 257 305 349
#
# _framework density 28.420069999999999
#
# number of rings (size 3 to 8) (size 9 to 14) (size 15 to 20)
#    1.000    1.000    0.000    2.000    4.667    5.333 
#    0.000    0.000    0.000    0.000    0.000    0.000 
#    0.000    0.000    0.000    0.000    0.000    0.000 
#
# Total GULP energy -133911.761628 kJ/mol
# GULP energy per Si atom -5579.656734 kJ/mol
# Density = 2.835539 g / cm^3
# Si number density = 28.420070 Si / 1000 Ang^3
#
#
#
# Elastic Constant Matrix: (Units=GPa)
#
#
# Indices 1 2 3 4 5 6 
#
# 1 105.2411 7.8044 -11.3084 0.0000 -1.9437 0.0000
# 2 7.8044 108.6703 11.5181 0.0000 -8.3850 0.0000
# 3 -11.3084 11.5181 165.6609 0.0000 32.5221 0.0000
# 4 0.0000 0.0000 0.0000 26.7704 0.0000 -1.5700
# 5 -1.9437 -8.3850 32.5221 0.0000 43.9501 0.0000
# 6 0.0000 0.0000 0.0000 -1.5700 0.0000 31.8241
#
#
#
# Elastic Compliance Matrix: (Units=1/GPa)
#
#
# Indices 1 2 3 4 5 6 
#
# 1 0.009639 -0.000797 0.000772 0.000000 -0.000297 0.000000
# 2 -0.000797 0.009603 -0.001258 0.000000 0.002727 0.000000
# 3 0.000772 -0.001258 0.007274 0.000000 -0.005588 0.000000
# 4 0.000000 0.000000 0.000000 0.037463 0.000000 0.001848
# 5 -0.000297 0.002727 -0.005588 0.000000 0.027395 0.000000
# 6 0.000000 0.000000 0.000000 0.001848 0.000000 0.031514
#
#
# Mechanical properties :
#
#
# Convention : Reuss Voigt Hill
#
# Bulk Modulus (GPa) = 41.75437 43.95560 42.85499
# Shear Modulus (GPa) = 37.47107 45.27948 41.37527
#
# Velocity S-wave (km/s) = 3.63502 3.99585 3.81970
# Velocity P-wave (km/s) = 5.68696 6.06540 5.87923
#
# Compressibility (1/GPa) = 0.02394959
#
# Stress axis : x y z
#
# Youngs Moduli (GPa) = 103.75041 104.13292 137.48406
#
# Poissons Ratio (x) = 0.08298 -0.10608
# Poissons Ratio (y) = 0.08268 0.17289
# Poissons Ratio (z) = -0.08006 0.13095
#
# Static dielectric constant tensor:
#      x y z
#    x 2.221160 0.000000 0.008320 
#    y 0.000000 2.269590 0.000000 
#    z 0.008320 0.000000 2.467770 
# 
# From -- ./inp_files/3517.got.cif
#   From: 2010.05.17/outbox.cif.g08.bks.cpg/sg14_2_cif.got.tgz:3517.got - 2010.06.03 17:49:19.
