data_PCOD9245630
_publ_section_title
;
Structure prediction by ZEFSAII (Michael W. Deem and Ramdas Pophale) SiO2 
 PCOD9245630
Probable space group: P 21/C
;
_chemical_formula_sum "Si O2"
_cell_formula_units_Z 28
_cell_length_a 8.787417
_cell_length_b 11.018685
_cell_length_c 14.469348
_cell_angle_alpha 90.000000
_cell_angle_beta 70.641756
_cell_angle_gamma 90.000000
_cell_volume 1321.799307
_symmetry_space_group_name_H-M "P 21/C"
_symmetry_group_IT_number 14
_symmetry_cell_setting 'monoclinic'
loop_
_space_group_symop_operation_xyz
x,y,z
-x,1/2+y,1/2-z
-x,-y,-z
x,1/2-y,1/2+z
loop_
_atom_site_type_symbol
_atom_site_label
_atom_site_fract_x
_atom_site_fract_y
_atom_site_fract_z
Si Si1 0.961180 0.942555 0.795734
Si Si2 0.091374 0.407576 0.413211
Si Si3 0.744536 0.235783 0.220216
Si Si4 0.222047 0.260102 0.541031
Si Si5 0.420658 0.848893 0.072943
Si Si6 0.394319 0.936375 0.884449
Si Si7 0.020701 0.939156 0.396423
O O1 0.117945 0.862506 0.786582
O O2 0.825224 0.865710 0.876416
O O3 0.997383 0.073863 0.836614
O O4 0.943696 0.963961 0.691351
O O5 0.121030 0.287229 0.466369
O O6 0.269391 0.464691 0.370719
O O7 0.000000 0.500000 0.500000
O O8 0.678894 0.280031 0.330596
O O9 0.602793 0.170468 0.190345
O O10 0.833822 0.341381 0.143961
O O11 0.411130 0.278089 0.482879
O O12 0.146543 0.134186 0.590817
O O13 0.459758 0.979662 0.111789
O O14 0.336671 0.874736 0.991902
O O15 0.000000 0.000000 0.500000
#
# Coordination Sequence:
#
# PCOD9245630 Si02
#       7
#     4   4   4   4   4   4   4
#     4   9  20  39  59  86 118 156 203 240 304 358
#     4   8  15  32  61  79 108 144 196 245 274 347
#     4  10  23  40  62  91 121 162 197 249 306 350
#     4   9  20  39  56  92 112 153 202 248 302 345
#     4  10  21  38  66  86 121 161 200 247 293 368
#     4   9  20  37  57  91 119 153 206 234 301 355
#     4  11  25  39  59  89 121 157 200 252 307 355
#
# _framework density 21.183246
#
# number of rings (size 3 to 8) (size 9 to 14) (size 15 to 20)
#    0.000    2.571    0.000    0.857   10.000    3.429 
#    7.714    0.714    0.000    0.000    0.000    0.000 
#    0.000    0.000    0.000    0.000    0.000    0.000 
#
# Total GULP energy -156055.806291 kJ/mol
# GULP energy per Si atom -5573.421653 kJ/mol
# Density = 2.113503 g / cm^3
# Si number density = 21.183246 Si / 1000 Ang^3
#
#
#
# Elastic Constant Matrix: (Units=GPa)
#
#
# Indices 1 2 3 4 5 6 
#
# 1 37.1813 9.0270 13.2842 0.0000 -10.6304 0.0000
# 2 9.0270 50.3805 20.0122 0.0000 -4.3232 0.0000
# 3 13.2842 20.0122 96.8543 0.0000 -3.2245 0.0000
# 4 0.0000 0.0000 0.0000 35.7795 0.0000 5.3884
# 5 -10.6304 -4.3232 -3.2245 0.0000 34.6221 0.0000
# 6 0.0000 0.0000 0.0000 5.3884 0.0000 15.4040
#
#
#
# Elastic Compliance Matrix: (Units=1/GPa)
#
#
# Indices 1 2 3 4 5 6 
#
# 1 0.031484 -0.003572 -0.003283 0.000000 0.008915 0.000000
# 2 -0.003572 0.022212 -0.004056 0.000000 0.001299 0.000000
# 3 -0.003283 -0.004056 0.011599 0.000000 -0.000434 0.000000
# 4 0.000000 0.000000 0.000000 0.029503 0.000000 -0.010320
# 5 0.008915 0.001299 -0.000434 0.000000 0.031742 0.000000
# 6 0.000000 0.000000 0.000000 -0.010320 0.000000 0.068528
#
#
# Mechanical properties :
#
#
# Convention : Reuss Voigt Hill
#
# Bulk Modulus (GPa) = 23.00356 29.89587 26.44971
# Shear Modulus (GPa) = 21.60924 26.63398 24.12161
#
# Velocity S-wave (km/s) = 3.19738 3.54971 3.37814
# Velocity P-wave (km/s) = 4.95115 5.56275 5.26584
#
# Compressibility (1/GPa) = 0.04347154
#
# Stress axis : x y z
#
# Youngs Moduli (GPa) = 31.76172 45.02134 86.21596
#
# Poissons Ratio (x) = 0.16082 0.28308
# Poissons Ratio (y) = 0.11345 0.34971
# Poissons Ratio (z) = 0.10429 0.18262
#
# Static dielectric constant tensor:
#      x y z
#    x 1.824600 0.000000 0.002180 
#    y 0.000000 1.826630 0.000000 
#    z 0.002180 0.000000 1.792800 
# 
# From -- ./inp_files/40028.got.cif
#   From: 2010.05.17/outbox.cif.g08.bks.cpg/sg14_21_cif.got.tgz:40028.got - 2010.06.03 17:49:19.
