data_PCOD9245147
_publ_section_title
;
Structure prediction by ZEFSAII (Michael W. Deem and Ramdas Pophale) SiO2 
 PCOD9245147
Probable space group: P 21/C
;
_chemical_formula_sum "Si O2"
_cell_formula_units_Z 28
_cell_length_a 10.134681
_cell_length_b 15.613147
_cell_length_c 11.219187
_cell_angle_alpha 90.000000
_cell_angle_beta 38.578117
_cell_angle_gamma 90.000000
_cell_volume 1107.018397
_symmetry_space_group_name_H-M "P 21/C"
_symmetry_group_IT_number 14
_symmetry_cell_setting 'monoclinic'
loop_
_space_group_symop_operation_xyz
x,y,z
-x,1/2+y,1/2-z
-x,-y,-z
x,1/2-y,1/2+z
loop_
_atom_site_type_symbol
_atom_site_label
_atom_site_fract_x
_atom_site_fract_y
_atom_site_fract_z
Si Si1 0.815638 0.573782 0.393209
Si Si2 0.432205 0.196067 0.575423
Si Si3 0.199592 0.501762 0.009159
Si Si4 0.669841 0.526463 0.754425
Si Si5 0.704686 0.154033 0.166021
Si Si6 0.620299 0.878409 0.801558
Si Si7 0.148510 0.685987 0.056562
O O1 0.721401 0.561809 0.587443
O O2 0.638626 0.576608 0.416119
O O3 0.951284 0.661549 0.280203
O O4 0.990535 0.501730 0.237101
O O5 0.297667 0.109924 0.688079
O O6 0.520888 0.197101 0.377906
O O7 0.328057 0.280542 0.702975
O O8 0.646399 0.191295 0.503735
O O9 0.417320 0.505744 0.931124
O O10 0.221976 0.427238 0.898589
O O11 0.182378 0.596557 0.961624
O O12 0.778093 0.432268 0.683580
O O13 0.596980 0.121162 0.119181
O O14 0.858608 0.229998 0.018758
#
# Coordination Sequence:
#
# PCOD9245147 Si02
#       7
#     4   4   4   4   4   4   4
#     4  10  21  40  64  96 125 156 206 267 310 373
#     4  10  21  40  64  88 128 167 208 254 294 384
#     4   8  19  39  60  92 127 155 196 261 312 360
#     4  10  21  41  67  90 124 168 208 251 318 365
#     4  10  21  41  63  94 121 173 210 248 316 368
#     4  10  21  36  66  94 120 163 205 256 314 365
#     4   8  20  41  60  88 129 163 197 263 307 358
#
# _framework density 25.293167
#
# number of rings (size 3 to 8) (size 9 to 14) (size 15 to 20)
#    0.857    1.714    0.000    0.857    6.000    2.286 
#    7.714    0.714    0.000    0.000    0.000    0.000 
#    0.000    0.000    0.000    0.000    0.000    0.000 
#
# Total GULP energy -156294.166889 kJ/mol
# GULP energy per Si atom -5581.934532 kJ/mol
# Density = 2.523560 g / cm^3
# Si number density = 25.293167 Si / 1000 Ang^3
#
#
#
# Elastic Constant Matrix: (Units=GPa)
#
#
# Indices 1 2 3 4 5 6 
#
# 1 67.0891 30.5166 12.9071 0.0000 -9.0363 0.0000
# 2 30.5166 152.7283 51.2395 0.0000 -3.1041 0.0000
# 3 12.9071 51.2395 91.8318 0.0000 15.1736 0.0000
# 4 0.0000 0.0000 0.0000 36.7456 0.0000 13.5156
# 5 -9.0363 -3.1041 15.1736 0.0000 23.0755 0.0000
# 6 0.0000 0.0000 0.0000 13.5156 0.0000 23.6012
#
#
#
# Elastic Compliance Matrix: (Units=1/GPa)
#
#
# Indices 1 2 3 4 5 6 
#
# 1 0.017623 -0.002552 -0.002397 0.000000 0.008134 0.000000
# 2 -0.002552 0.008871 -0.005187 0.000000 0.003605 0.000000
# 3 -0.002397 -0.005187 0.016145 0.000000 -0.012253 0.000000
# 4 0.000000 0.000000 0.000000 0.034476 0.000000 -0.019743
# 5 0.008134 0.003605 -0.012253 0.000000 0.055063 0.000000
# 6 0.000000 0.000000 0.000000 -0.019743 0.000000 0.053677
#
#
# Mechanical properties :
#
#
# Convention : Reuss Voigt Hill
#
# Bulk Modulus (GPa) = 44.70718 55.66396 50.18557
# Shear Modulus (GPa) = 23.41023 31.15019 27.28021
#
# Velocity S-wave (km/s) = 3.04560 3.51317 3.28771
# Velocity P-wave (km/s) = 5.48466 6.20579 5.85633
#
# Compressibility (1/GPa) = 0.02236777
#
# Stress axis : x y z
#
# Youngs Moduli (GPa) = 56.74397 112.72988 61.93895
#
# Poissons Ratio (x) = 0.28765 0.14848
# Poissons Ratio (y) = 0.14479 0.32125
# Poissons Ratio (z) = 0.13603 0.58468
#
# Static dielectric constant tensor:
#      x y z
#    x 2.030950 0.000000 -0.022220 
#    y 0.000000 2.036210 0.000000 
#    z -0.022220 0.000000 1.964920 
# 
# From -- ./inp_files/30256.got.cif
#   From: 2010.05.17/outbox.cif.g08.bks.cpg/sg14_16_cif.got.tgz:30256.got - 2010.06.03 17:49:19.
