data_PCOD9245002
_publ_section_title
;
Structure prediction by ZEFSAII (Michael W. Deem and Ramdas Pophale) SiO2 
 PCOD9245002
Probable space group: P 21/C
;
_chemical_formula_sum "Si O2"
_cell_formula_units_Z 32
_cell_length_a 24.413522
_cell_length_b 8.146192
_cell_length_c 9.850551
_cell_angle_alpha 90.000000
_cell_angle_beta 57.733212
_cell_angle_gamma 90.000000
_cell_volume 1656.517031
_symmetry_space_group_name_H-M "P 21/C"
_symmetry_group_IT_number 14
_symmetry_cell_setting 'monoclinic'
loop_
_space_group_symop_operation_xyz
x,y,z
-x,1/2+y,1/2-z
-x,-y,-z
x,1/2-y,1/2+z
loop_
_atom_site_type_symbol
_atom_site_label
_atom_site_fract_x
_atom_site_fract_y
_atom_site_fract_z
Si Si1 0.932797 0.325138 0.696755
Si Si2 0.810097 0.961207 0.419215
Si Si3 0.946158 0.452288 0.385492
Si Si4 0.680635 0.874822 0.258391
Si Si5 0.822317 0.671113 0.606433
Si Si6 0.471979 0.064191 0.176388
Si Si7 0.551135 0.548612 0.818108
Si Si8 0.667284 0.940445 0.587749
O O1 0.863554 0.399089 0.831663
O O2 0.938651 0.331929 0.525983
O O3 0.944122 0.150818 0.750946
O O4 0.987695 0.448582 0.680650
O O5 0.820215 0.850405 0.540073
O O6 0.819260 0.841167 0.274817
O O7 0.736600 0.030037 0.507693
O O8 0.886409 0.577957 0.474465
O O9 0.756112 0.919751 0.145734
O O10 0.624757 0.985457 0.265699
O O11 0.665584 0.864101 0.438439
O O12 0.674153 0.700212 0.192583
O O13 0.456002 0.256330 0.192525
O O14 0.402800 0.977462 0.300057
O O15 0.526455 0.036036 0.215892
O O16 0.500000 0.000000 0.000000
O O17 0.500000 0.500000 0.000000
#
# Coordination Sequence:
#
# PCOD9245002 Si02
#       8
#     4   4   4   4   4   4   4   4
#     4  10  21  36  55  81 111 145 178 222 266 317
#     4   9  18  34  56  80 107 137 181 223 265 316
#     4  10  21  36  55  80 113 143 180 220 268 317
#     4   9  18  32  55  77 106 142 181 223 269 322
#     4   9  18  34  55  81 106 139 181 223 263 318
#     4  11  23  36  57  82 110 144 187 231 280 336
#     4  11  21  38  57  80 110 144 183 232 280 333
#     4   9  18  33  54  78 105 141 181 225 267 325
#
# _framework density 19.317640999999998
#
# number of rings (size 3 to 8) (size 9 to 14) (size 15 to 20)
#    0.000    2.250    1.250    1.500    5.250    1.500 
#    0.000    2.500    0.000    0.000    0.000    0.000 
#    0.000    0.000    0.000    0.000    0.000    0.000 
#
# Total GULP energy -178358.208729 kJ/mol
# GULP energy per Si atom -5573.694023 kJ/mol
# Density = 1.927367 g / cm^3
# Si number density = 19.317641 Si / 1000 Ang^3
#
#
#
# Elastic Constant Matrix: (Units=GPa)
#
#
# Indices 1 2 3 4 5 6 
#
# 1 103.3474 0.5144 23.5435 0.0000 -16.4090 0.0000
# 2 0.5144 8.4837 -6.3309 0.0000 0.3308 0.0000
# 3 23.5435 -6.3309 54.2694 0.0000 -7.4147 0.0000
# 4 0.0000 0.0000 0.0000 22.6028 0.0000 6.6153
# 5 -16.4090 0.3308 -7.4147 0.0000 39.3039 0.0000
# 6 0.0000 0.0000 0.0000 6.6153 0.0000 25.5096
#
#
#
# Elastic Compliance Matrix: (Units=1/GPa)
#
#
# Indices 1 2 3 4 5 6 
#
# 1 0.011446 -0.004552 -0.004967 0.000000 0.003880 0.000000
# 2 -0.004552 0.131047 0.017298 0.000000 0.000260 0.000000
# 3 -0.004967 0.017298 0.022886 0.000000 0.002098 0.000000
# 4 0.000000 0.000000 0.000000 0.047876 0.000000 -0.012416
# 5 0.003880 0.000260 0.002098 0.000000 0.027456 0.000000
# 6 0.000000 0.000000 0.000000 -0.012416 0.000000 0.042421
#
#
# Mechanical properties :
#
#
# Convention : Reuss Voigt Hill
#
# Bulk Modulus (GPa) = 5.52676 22.39494 13.96085
# Shear Modulus (GPa) = 15.24924 27.37484 21.31204
#
# Velocity S-wave (km/s) = 2.81266 3.76851 3.32511
# Velocity P-wave (km/s) = 3.66269 5.52754 4.68876
#
# Compressibility (1/GPa) = 0.18093770
#
# Stress axis : x y z
#
# Youngs Moduli (GPa) = 87.36500 7.63087 43.69531
#
# Poissons Ratio (x) = 0.03473 0.21701
# Poissons Ratio (y) = 0.39764 -0.75582
# Poissons Ratio (z) = 0.43390 -0.13200
#
# Static dielectric constant tensor:
#      x y z
#    x 2.007410 0.000000 0.169060 
#    y 0.000000 1.648060 0.000000 
#    z 0.169060 0.000000 1.802200 
# 
# From -- ./inp_files/18602.got.cif
#   From: 2010.05.17/outbox.cif.g08.bks.cpg/sg14_10_cif.got.tgz:18602.got - 2010.06.03 17:49:19.
