data_PCOD9245991
_publ_section_title
;
Structure prediction by ZEFSAII (Michael W. Deem and Ramdas Pophale) SiO2 
 PCOD9245991
Probable space group: P 21/C
;
_chemical_formula_sum "Si O2"
_cell_formula_units_Z 32
_cell_length_a 16.419746
_cell_length_b 10.435847
_cell_length_c 13.263175
_cell_angle_alpha 90.000000
_cell_angle_beta 32.868052
_cell_angle_gamma 90.000000
_cell_volume 1233.407024
_symmetry_space_group_name_H-M "P 21/C"
_symmetry_group_IT_number 14
_symmetry_cell_setting 'monoclinic'
loop_
_space_group_symop_operation_xyz
x,y,z
-x,1/2+y,1/2-z
-x,-y,-z
x,1/2-y,1/2+z
loop_
_atom_site_type_symbol
_atom_site_label
_atom_site_fract_x
_atom_site_fract_y
_atom_site_fract_z
Si Si1 0.677647 0.940719 0.873837
Si Si2 0.504694 0.820645 0.878477
Si Si3 0.844257 0.466910 0.027418
Si Si4 0.620860 0.943849 0.587654
Si Si5 0.052892 0.818530 0.278996
Si Si6 0.242263 0.878696 0.699648
Si Si7 0.127013 0.326978 0.657242
Si Si8 0.728258 0.452519 0.602554
O O1 0.757303 0.049024 0.721945
O O2 0.774362 0.860867 0.850633
O O3 0.564968 0.034095 0.049989
O O4 0.610994 0.838277 0.864545
O O5 0.385892 0.709714 0.020347
O O6 0.589806 0.810823 0.682409
O O7 0.965004 0.576988 0.935375
O O8 0.957652 0.367417 0.862360
O O9 0.712197 0.480353 0.081088
O O10 0.450729 0.967141 0.723538
O O11 0.723864 0.982182 0.385035
O O12 0.104155 0.697406 0.291406
O O13 0.915128 0.809769 0.341117
O O14 0.195270 0.870848 0.068222
O O15 0.233790 0.892904 0.828562
O O16 0.191105 0.411657 0.499022
#
# Coordination Sequence:
#
# PCOD9245991 Si02
#       8
#     4   4   4   4   4   4   4   4
#     4  10  21  39  67  98 138 172 223 288 331 400
#     4  10  22  42  69 107 133 173 233 284 342 401
#     4  10  23  40  68 101 135 174 224 278 340 403
#     4  11  22  47  67 100 141 174 225 294 341 399
#     4  11  25  44  66 102 136 181 226 279 337 415
#     4  12  25  44  74  98 135 188 230 278 353 412
#     4  11  22  44  64  99 139 178 215 285 343 397
#     4  11  26  44  70  99 138 176 232 282 338 411
#
# _framework density 25.944395
#
# number of rings (size 3 to 8) (size 9 to 14) (size 15 to 20)
#    0.000    1.250    3.750    1.500    3.500    4.500 
#    0.000    0.000    0.000    0.000    0.000    0.000 
#    0.000    0.000    0.000    0.000    0.000    0.000 
#
# Total GULP energy -178480.083525 kJ/mol
# GULP energy per Si atom -5577.502610 kJ/mol
# Density = 2.588534 g / cm^3
# Si number density = 25.944395 Si / 1000 Ang^3
#
#
#
# Elastic Constant Matrix: (Units=GPa)
#
#
# Indices 1 2 3 4 5 6 
#
# 1 164.3512 27.1926 50.2625 0.0000 -12.5246 0.0000
# 2 27.1926 45.9339 18.4890 0.0000 -6.5339 0.0000
# 3 50.2625 18.4890 87.6817 0.0000 1.2937 0.0000
# 4 0.0000 0.0000 0.0000 10.8569 0.0000 -3.8839
# 5 -12.5246 -6.5339 1.2937 0.0000 40.9762 0.0000
# 6 0.0000 0.0000 0.0000 -3.8839 0.0000 31.9892
#
#
#
# Elastic Compliance Matrix: (Units=1/GPa)
#
#
# Indices 1 2 3 4 5 6 
#
# 1 0.007925 -0.002788 -0.003986 0.000000 0.002104 0.000000
# 2 -0.002788 0.025428 -0.003813 0.000000 0.003323 0.000000
# 3 -0.003986 -0.003813 0.014528 0.000000 -0.002285 0.000000
# 4 0.000000 0.000000 0.000000 0.096289 0.000000 0.011691
# 5 0.002104 0.003323 -0.002285 0.000000 0.025649 0.000000
# 6 0.000000 0.000000 0.000000 0.011691 0.000000 0.032680
#
#
# Mechanical properties :
#
#
# Convention : Reuss Voigt Hill
#
# Bulk Modulus (GPa) = 37.44305 54.42832 45.93568
# Shear Modulus (GPa) = 21.49834 30.23263 25.86548
#
# Velocity S-wave (km/s) = 2.88172 3.41733 3.16089
# Velocity P-wave (km/s) = 5.05329 6.04940 5.57364
#
# Compressibility (1/GPa) = 0.02670723
#
# Stress axis : x y z
#
# Youngs Moduli (GPa) = 126.17998 39.32634 68.83435
#
# Poissons Ratio (x) = 0.10964 0.27439
# Poissons Ratio (y) = 0.35178 0.26245
# Poissons Ratio (z) = 0.50298 0.14994
#
# Static dielectric constant tensor:
#      x y z
#    x 2.058550 0.000000 -0.011540 
#    y 0.000000 2.166270 0.000000 
#    z -0.011540 0.000000 2.147200 
# 
# From -- ./inp_files/49005.got.cif
#   From: 2010.05.17/outbox.cif.g08.bks.cpg/sg14_25_cif.got.tgz:49005.got - 2010.06.03 17:49:19.
