data_PCOD9245933
_publ_section_title
;
Structure prediction by ZEFSAII (Michael W. Deem and Ramdas Pophale) SiO2 
 PCOD9245933
Probable space group: P 21/C
;
_chemical_formula_sum "Si O2"
_cell_formula_units_Z 28
_cell_length_a 8.100674
_cell_length_b 5.078765
_cell_length_c 25.040657
_cell_angle_alpha 90.000000
_cell_angle_beta 98.050682
_cell_angle_gamma 90.000000
_cell_volume 1020.055035
_symmetry_space_group_name_H-M "P 21/C"
_symmetry_group_IT_number 14
_symmetry_cell_setting 'monoclinic'
loop_
_space_group_symop_operation_xyz
x,y,z
-x,1/2+y,1/2-z
-x,-y,-z
x,1/2-y,1/2+z
loop_
_atom_site_type_symbol
_atom_site_label
_atom_site_fract_x
_atom_site_fract_y
_atom_site_fract_z
Si Si1 0.794011 0.666313 0.367614
Si Si2 0.751479 0.119314 0.513989
Si Si3 0.351296 0.473368 0.232277
Si Si4 0.489518 0.308195 0.076235
Si Si5 0.039980 0.692554 0.075290
Si Si6 0.348233 0.359488 0.824716
Si Si7 0.980854 0.215742 0.283171
O O1 0.735088 0.738875 0.305857
O O2 0.626724 0.613409 0.395002
O O3 0.929085 0.439962 0.384840
O O4 0.868514 0.937765 0.395280
O O5 0.644653 0.300171 0.549103
O O6 0.873949 0.260424 0.477860
O O7 0.628977 0.952466 0.471187
O O8 0.858966 0.911717 0.552599
O O9 0.533160 0.501993 0.215001
O O10 0.214087 0.692285 0.210661
O O11 0.360491 0.425908 0.296272
O O12 0.563509 0.532352 0.118822
O O13 0.147527 0.391889 0.820902
O O14 0.981827 0.008286 0.234001
#
# Coordination Sequence:
#
# PCOD9245933 Si02
#       7
#     4   4   4   4   4   4   4
#     4  10  23  41  65  98 128 171 218 266 334 403
#     4   9  20  39  66  93 130 168 219 278 328 395
#     4  10  22  40  66  97 136 175 215 273 323 398
#     4   9  20  40  63  96 131 170 221 271 335 395
#     4  10  22  41  68  95 127 170 219 269 337 394
#     4  10  21  39  65  95 136 176 219 269 332 391
#     4  10  22  40  63  93 126 169 219 263 318 388
#
# _framework density 27.449501999999999
#
# number of rings (size 3 to 8) (size 9 to 14) (size 15 to 20)
#    0.000    2.286    0.000    0.857    2.000   11.429 
#    5.143    7.143    0.000    0.000    0.000    0.000 
#    0.000    0.000    0.000    0.000    0.000    0.000 
#
# Total GULP energy -156392.423109 kJ/mol
# GULP energy per Si atom -5585.443682 kJ/mol
# Density = 2.738703 g / cm^3
# Si number density = 27.449502 Si / 1000 Ang^3
#
#
#
# Elastic Constant Matrix: (Units=GPa)
#
#
# Indices 1 2 3 4 5 6 
#
# 1 162.6829 29.3538 47.7680 0.0000 27.1753 0.0000
# 2 29.3538 84.6086 2.2127 0.0000 7.2207 0.0000
# 3 47.7680 2.2127 98.5871 0.0000 25.7323 0.0000
# 4 0.0000 0.0000 0.0000 20.5795 0.0000 4.6543
# 5 27.1753 7.2207 25.7323 0.0000 36.3150 0.0000
# 6 0.0000 0.0000 0.0000 4.6543 0.0000 40.7388
#
#
#
# Elastic Compliance Matrix: (Units=1/GPa)
#
#
# Indices 1 2 3 4 5 6 
#
# 1 0.008018 -0.002411 -0.002932 0.000000 -0.003443 0.000000
# 2 -0.002411 0.012763 0.001317 0.000000 -0.001667 0.000000
# 3 -0.002932 0.001317 0.013533 0.000000 -0.007657 0.000000
# 4 0.000000 0.000000 0.000000 0.049881 0.000000 -0.005699
# 5 -0.003443 -0.001667 -0.007657 0.000000 0.035870 0.000000
# 6 0.000000 0.000000 0.000000 -0.005699 0.000000 0.025198
#
#
# Mechanical properties :
#
#
# Convention : Reuss Voigt Hill
#
# Bulk Modulus (GPa) = 38.07880 56.06084 47.06982
# Shear Modulus (GPa) = 30.85075 37.29625 34.07350
#
# Velocity S-wave (km/s) = 3.35611 3.69008 3.52705
# Velocity P-wave (km/s) = 5.37777 6.21476 5.81135
#
# Compressibility (1/GPa) = 0.02626133
#
# Stress axis : x y z
#
# Youngs Moduli (GPa) = 124.71767 78.34862 73.89323
#
# Poissons Ratio (x) = 0.18892 0.21667
# Poissons Ratio (y) = 0.30073 -0.09730
# Poissons Ratio (z) = 0.36570 -0.10317
#
# Static dielectric constant tensor:
#      x y z
#    x 2.231700 0.000000 -0.131880 
#    y 0.000000 2.170990 0.000000 
#    z -0.131880 0.000000 2.236500 
# 
# From -- ./inp_files/76091.got.cif
#   From: 2010.05.17/outbox.cif.g08.bks.cpg/sg14_39_cif.got.tgz:76091.got - 2010.06.03 17:49:19.
