data_PCOD9245515
_publ_section_title
;
Structure prediction by ZEFSAII (Michael W. Deem and Ramdas Pophale) SiO2 
 PCOD9245515
Probable space group: P 21/C
;
_chemical_formula_sum "Si O2"
_cell_formula_units_Z 32
_cell_length_a 16.492854
_cell_length_b 9.034653
_cell_length_c 24.027574
_cell_angle_alpha 90.000000
_cell_angle_beta 151.898679
_cell_angle_gamma 90.000000
_cell_volume 1686.428098
_symmetry_space_group_name_H-M "P 21/C"
_symmetry_group_IT_number 14
_symmetry_cell_setting 'monoclinic'
loop_
_space_group_symop_operation_xyz
x,y,z
-x,1/2+y,1/2-z
-x,-y,-z
x,1/2-y,1/2+z
loop_
_atom_site_type_symbol
_atom_site_label
_atom_site_fract_x
_atom_site_fract_y
_atom_site_fract_z
Si Si1 0.889911 0.946161 0.178819
Si Si2 0.482642 0.562514 0.848634
Si Si3 0.342501 0.187135 0.328317
Si Si4 0.887452 0.965632 0.305537
Si Si5 0.336959 0.884769 0.738420
Si Si6 0.237016 0.113140 0.386420
Si Si7 0.372695 0.878340 0.057949
Si Si8 0.261957 0.610870 0.066595
O O1 0.087916 0.991204 0.289920
O O2 0.845241 0.993466 0.215293
O O3 0.853081 0.770741 0.153468
O O4 0.771632 0.033509 0.063604
O O5 0.337946 0.452865 0.784970
O O6 0.415441 0.724088 0.795693
O O7 0.574150 0.487561 0.851474
O O8 0.627803 0.571693 0.984462
O O9 0.187539 0.302465 0.226377
O O10 0.334222 0.136766 0.386964
O O11 0.515901 0.275718 0.416791
O O12 0.090696 0.960947 0.437391
O O13 0.793499 0.074980 0.290929
O O14 0.248898 0.885256 0.624906
O O15 0.490285 0.005671 0.834102
O O16 0.293118 0.769677 0.056122
#
# Coordination Sequence:
#
# PCOD9245515 Si02
#       8
#     4   4   4   4   4   4   4   4
#     4  11  22  37  61  90 123 152 196 249 305 362
#     4  11  22  40  58  92 116 156 203 243 293 352
#     4   9  22  36  59  83 123 154 192 243 304 359
#     4  10  22  40  60  88 117 163 198 247 303 356
#     4  11  23  39  63  89 119 159 208 250 284 357
#     4  11  22  37  58  89 123 153 189 240 305 361
#     4  10  21  38  62  87 119 161 199 249 301 352
#     4  11  22  43  61  84 124 165 202 241 301 353
#
# _framework density 18.975014999999999
#
# number of rings (size 3 to 8) (size 9 to 14) (size 15 to 20)
#    0.000    1.500    2.500    3.000    3.500    2.500 
#    0.000    0.625    0.000    0.000    0.000    0.000 
#    0.000    0.000    0.000    0.000    0.000    0.000 
#
# Total GULP energy -178777.980986 kJ/mol
# GULP energy per Si atom -5586.811906 kJ/mol
# Density = 1.893183 g / cm^3
# Si number density = 18.975015 Si / 1000 Ang^3
#
#
#
# Elastic Constant Matrix: (Units=GPa)
#
#
# Indices 1 2 3 4 5 6 
#
# 1 44.1964 2.2389 5.1985 0.0000 -10.1495 0.0000
# 2 2.2389 71.6397 2.8397 0.0000 -0.2057 0.0000
# 3 5.1985 2.8397 37.4576 0.0000 -9.5690 0.0000
# 4 0.0000 0.0000 0.0000 22.6538 0.0000 2.0366
# 5 -10.1495 -0.2057 -9.5690 0.0000 16.4232 0.0000
# 6 0.0000 0.0000 0.0000 2.0366 0.0000 14.5376
#
#
#
# Elastic Compliance Matrix: (Units=1/GPa)
#
#
# Indices 1 2 3 4 5 6 
#
# 1 0.026426 -0.000804 0.000661 0.000000 0.016706 0.000000
# 2 -0.000804 0.014029 -0.001215 0.000000 -0.001029 0.000000
# 3 0.000661 -0.001215 0.031484 0.000000 0.018738 0.000000
# 4 0.000000 0.000000 0.000000 0.044706 0.000000 -0.006263
# 5 0.016706 -0.001029 0.018738 0.000000 0.082119 0.000000
# 6 0.000000 0.000000 0.000000 -0.006263 0.000000 0.069664
#
#
# Mechanical properties :
#
#
# Convention : Reuss Voigt Hill
#
# Bulk Modulus (GPa) = 14.44595 19.31645 16.88120
# Shear Modulus (GPa) = 16.99422 20.25736 18.62579
#
# Velocity S-wave (km/s) = 2.99592 3.27093 3.13644
# Velocity P-wave (km/s) = 4.42686 4.94645 4.69385
#
# Compressibility (1/GPa) = 0.06922354
#
# Stress axis : x y z
#
# Youngs Moduli (GPa) = 37.84177 71.28053 31.76226
#
# Poissons Ratio (x) = 0.05732 -0.02101
# Poissons Ratio (y) = 0.03043 0.03859
# Poissons Ratio (z) = -0.02503 0.08660
#
# Static dielectric constant tensor:
#      x y z
#    x 1.656280 0.000000 0.009040 
#    y 0.000000 1.651230 0.000000 
#    z 0.009040 0.000000 1.622100 
# 
# From -- ./inp_files/57294.got.cif
#   From: 2010.05.17/outbox.cif.g08.bks.cpg/sg14_29_cif.got.tgz:57294.got - 2010.06.03 17:49:19.
