data_PCOD9245900
_publ_section_title
;
Structure prediction by ZEFSAII (Michael W. Deem and Ramdas Pophale) SiO2 
 PCOD9245900
Probable space group: P 21/C
;
_chemical_formula_sum "Si O2"
_cell_formula_units_Z 20
_cell_length_a 6.847112
_cell_length_b 17.156298
_cell_length_c 7.499196
_cell_angle_alpha 90.000000
_cell_angle_beta 74.857551
_cell_angle_gamma 90.000000
_cell_volume 850.352004
_symmetry_space_group_name_H-M "P 21/C"
_symmetry_group_IT_number 14
_symmetry_cell_setting 'monoclinic'
loop_
_space_group_symop_operation_xyz
x,y,z
-x,1/2+y,1/2-z
-x,-y,-z
x,1/2-y,1/2+z
loop_
_atom_site_type_symbol
_atom_site_label
_atom_site_fract_x
_atom_site_fract_y
_atom_site_fract_z
Si Si1 0.174094 0.560022 0.532619
Si Si2 0.696295 0.660413 0.942699
Si Si3 0.155243 0.171407 0.976537
Si Si4 0.115364 0.058864 0.310094
Si Si5 0.363315 0.564355 0.132088
O O1 0.200089 0.524701 0.722534
O O2 0.355380 0.554022 0.349062
O O3 0.000000 0.500000 0.500000
O O4 0.068973 0.644508 0.537444
O O5 0.710416 0.651523 0.727442
O O6 0.799667 0.740675 0.978103
O O7 0.816307 0.593251 0.019154
O O8 0.467071 0.646687 0.060573
O O9 0.193934 0.120053 0.142331
O O10 0.872009 0.061692 0.362858
O O11 0.500000 0.500000 0.000000
#
# Coordination Sequence:
#
# PCOD9245900 Si02
#       5
#     4   4   4   4   4
#     4   8  18  39  63  85 124 160 203 261 302 368
#     4  12  22  40  66  90 129 168 206 258 322 371
#     4  10  21  40  60  92 128 162 206 258 309 380
#     4  10  22  44  67  89 125 171 208 259 321 369
#     4  10  21  39  64  99 120 158 220 262 304 381
#
# _framework density 23.519673999999998
#
# number of rings (size 3 to 8) (size 9 to 14) (size 15 to 20)
#    0.000    2.400    2.000    3.600    0.000    4.000 
#    7.200    6.000    0.000    0.000    0.000    0.000 
#    0.000    0.000    0.000    0.000    0.000    0.000 
#
# Total GULP energy -111627.760194 kJ/mol
# GULP energy per Si atom -5581.388010 kJ/mol
# Density = 2.346614 g / cm^3
# Si number density = 23.519674 Si / 1000 Ang^3
#
#
#
# Elastic Constant Matrix: (Units=GPa)
#
#
# Indices 1 2 3 4 5 6 
#
# 1 80.2473 35.1981 31.5402 0.0000 -15.5044 0.0000
# 2 35.1981 131.5077 58.6349 0.0000 -9.2751 0.0000
# 3 31.5402 58.6349 173.5461 0.0000 -27.1078 0.0000
# 4 0.0000 0.0000 0.0000 37.4571 0.0000 2.5005
# 5 -15.5044 -9.2751 -27.1078 0.0000 31.4829 0.0000
# 6 0.0000 0.0000 0.0000 2.5005 0.0000 31.3368
#
#
#
# Elastic Compliance Matrix: (Units=1/GPa)
#
#
# Indices 1 2 3 4 5 6 
#
# 1 0.015376 -0.003372 -0.000725 0.000000 0.005954 0.000000
# 2 -0.003372 0.009692 -0.002860 0.000000 -0.001268 0.000000
# 3 -0.000725 -0.002860 0.007710 0.000000 0.005439 0.000000
# 4 0.000000 0.000000 0.000000 0.026840 0.000000 -0.002142
# 5 0.005954 -0.001268 0.005439 0.000000 0.039005 0.000000
# 6 0.000000 0.000000 0.000000 -0.002142 0.000000 0.032082
#
#
# Mechanical properties :
#
#
# Convention : Reuss Voigt Hill
#
# Bulk Modulus (GPa) = 53.01110 70.67195 61.84153
# Shear Modulus (GPa) = 33.13287 37.38390 35.25839
#
# Velocity S-wave (km/s) = 3.75738 3.99115 3.87602
# Velocity P-wave (km/s) = 6.43520 7.16605 6.81044
#
# Compressibility (1/GPa) = 0.01886397
#
# Stress axis : x y z
#
# Youngs Moduli (GPa) = 65.03655 103.17384 129.70709
#
# Poissons Ratio (x) = 0.34792 0.09404
# Poissons Ratio (y) = 0.21931 0.37094
# Poissons Ratio (z) = 0.04715 0.29506
#
# Static dielectric constant tensor:
#      x y z
#    x 2.000380 0.000000 0.068890 
#    y 0.000000 1.940820 0.000000 
#    z 0.068890 0.000000 1.972180 
# 
# From -- ./inp_files/9007.got.cif
#   From: 2010.05.17/outbox.cif.g08.bks.cpg/sg14_5_cif.got.tgz:9007.got - 2010.06.03 17:49:19.
