data_PCOD9245495
_publ_section_title
;
Structure prediction by ZEFSAII (Michael W. Deem and Ramdas Pophale) SiO2 
 PCOD9245495
Probable space group: P 21/C
;
_chemical_formula_sum "Si O2"
_cell_formula_units_Z 32
_cell_length_a 8.815583
_cell_length_b 21.471398
_cell_length_c 14.275785
_cell_angle_alpha 90.000000
_cell_angle_beta 141.338023
_cell_angle_gamma 90.000000
_cell_volume 1688.106998
_symmetry_space_group_name_H-M "P 21/C"
_symmetry_group_IT_number 14
_symmetry_cell_setting 'monoclinic'
loop_
_space_group_symop_operation_xyz
x,y,z
-x,1/2+y,1/2-z
-x,-y,-z
x,1/2-y,1/2+z
loop_
_atom_site_type_symbol
_atom_site_label
_atom_site_fract_x
_atom_site_fract_y
_atom_site_fract_z
Si Si1 0.196175 0.413432 0.446077
Si Si2 0.195497 0.824090 0.324120
Si Si3 0.737376 0.128691 0.170914
Si Si4 0.652326 0.237259 0.264925
Si Si5 0.288168 0.352510 0.669354
Si Si6 0.140399 0.787825 0.938170
Si Si7 0.909715 0.982336 0.699272
Si Si8 0.429493 0.928541 0.556795
O O1 0.482266 0.405094 0.568030
O O2 0.155680 0.401072 0.536983
O O3 0.048423 0.357384 0.327204
O O4 0.087960 0.475432 0.348357
O O5 0.332414 0.790907 0.304819
O O6 0.124035 0.774077 0.368096
O O7 0.367297 0.876940 0.449258
O O8 0.787140 0.179823 0.276432
O O9 0.715121 0.165057 0.060695
O O10 0.948455 0.078113 0.266190
O O11 0.392298 0.206091 0.161415
O O12 0.751873 0.265581 0.410094
O O13 0.514338 0.389267 0.823415
O O14 0.109914 0.323658 0.660150
O O15 0.677946 0.963269 0.650056
O O16 0.793278 0.023313 0.558760
#
# Coordination Sequence:
#
# PCOD9245495 Si02
#       8
#     4   4   4   4   4   4   4   4
#     4  10  22  38  62  88 120 158 201 250 294 351
#     4  10  21  38  61  89 124 158 195 243 307 362
#     4  10  22  39  61  88 122 159 199 245 304 356
#     4  10  22  37  58  93 122 152 194 246 301 363
#     4  11  21  37  60  91 121 152 205 249 299 358
#     4  11  21  36  61  88 124 155 194 243 310 358
#     4  10  21  41  62  82 118 162 204 245 302 346
#     4  10  21  38  62  86 116 161 201 249 296 352
#
# _framework density 18.956143000000001
#
# number of rings (size 3 to 8) (size 9 to 14) (size 15 to 20)
#    0.000    1.750    3.750    0.375    1.750    2.500 
#    0.000    2.500    2.750    0.000    0.000    0.000 
#    0.000    0.000    0.000    0.000    0.000    0.000 
#
# Total GULP energy -178349.327668 kJ/mol
# GULP energy per Si atom -5573.416490 kJ/mol
# Density = 1.891300 g / cm^3
# Si number density = 18.956143 Si / 1000 Ang^3
#
#
#
# Elastic Constant Matrix: (Units=GPa)
#
#
# Indices 1 2 3 4 5 6 
#
# 1 65.6847 19.8959 13.4362 0.0000 -11.9870 0.0000
# 2 19.8959 70.4477 26.8927 0.0000 -4.3754 0.0000
# 3 13.4362 26.8927 78.4386 0.0000 -15.0469 0.0000
# 4 0.0000 0.0000 0.0000 25.4062 0.0000 2.4316
# 5 -11.9870 -4.3754 -15.0469 0.0000 28.3412 0.0000
# 6 0.0000 0.0000 0.0000 2.4316 0.0000 24.4687
#
#
#
# Elastic Compliance Matrix: (Units=1/GPa)
#
#
# Indices 1 2 3 4 5 6 
#
# 1 0.017877 -0.004550 -0.000208 0.000000 0.006748 0.000000
# 2 -0.004550 0.017497 -0.005645 0.000000 -0.002221 0.000000
# 3 -0.000208 -0.005645 0.016184 0.000000 0.007633 0.000000
# 4 0.000000 0.000000 0.000000 0.039738 0.000000 -0.003949
# 5 0.006748 -0.002221 0.007633 0.000000 0.041848 0.000000
# 6 0.000000 0.000000 0.000000 -0.003949 0.000000 0.041261
#
#
# Mechanical properties :
#
#
# Convention : Reuss Voigt Hill
#
# Bulk Modulus (GPa) = 32.51905 37.22452 34.87178
# Shear Modulus (GPa) = 24.33532 25.93298 25.13415
#
# Velocity S-wave (km/s) = 3.58686 3.70273 3.64526
# Velocity P-wave (km/s) = 5.86056 6.16118 6.01275
#
# Compressibility (1/GPa) = 0.03075121
#
# Stress axis : x y z
#
# Youngs Moduli (GPa) = 55.93933 57.15199 61.78869
#
# Poissons Ratio (x) = 0.26006 0.01283
# Poissons Ratio (y) = 0.25454 0.34882
# Poissons Ratio (z) = 0.01161 0.32265
#
# Static dielectric constant tensor:
#      x y z
#    x 1.658700 0.000000 -0.016670 
#    y 0.000000 1.674140 0.000000 
#    z -0.016670 0.000000 1.676790 
# 
# From -- ./inp_files/42012.got.cif
#   From: 2010.05.17/outbox.cif.g08.bks.cpg/sg14_22_cif.got.tgz:42012.got - 2010.06.03 17:49:19.
