data_PCOD9245600
_publ_section_title
;
Structure prediction by ZEFSAII (Michael W. Deem and Ramdas Pophale) SiO2 
 PCOD9245600
Probable space group: P 21/C
;
_chemical_formula_sum "Si O2"
_cell_formula_units_Z 32
_cell_length_a 11.171604
_cell_length_b 22.229650
_cell_length_c 10.884926
_cell_angle_alpha 90.000000
_cell_angle_beta 144.680466
_cell_angle_gamma 90.000000
_cell_volume 1562.800462
_symmetry_space_group_name_H-M "P 21/C"
_symmetry_group_IT_number 14
_symmetry_cell_setting 'monoclinic'
loop_
_space_group_symop_operation_xyz
x,y,z
-x,1/2+y,1/2-z
-x,-y,-z
x,1/2-y,1/2+z
loop_
_atom_site_type_symbol
_atom_site_label
_atom_site_fract_x
_atom_site_fract_y
_atom_site_fract_z
Si Si1 0.520914 0.590918 0.600808
Si Si2 0.252915 0.705111 0.326690
Si Si3 0.510883 0.384192 0.836399
Si Si4 0.874079 0.450337 0.260150
Si Si5 0.698491 0.974273 0.017896
Si Si6 0.846506 0.916218 0.784188
Si Si7 0.440490 0.754909 0.737728
Si Si8 0.188263 0.335453 0.974741
O O1 0.384671 0.643539 0.426471
O O2 0.363313 0.543749 0.529767
O O3 0.655611 0.554413 0.614578
O O4 0.676543 0.620811 0.826795
O O5 0.315523 0.730376 0.513868
O O6 0.319268 0.745431 0.265693
O O7 0.009572 0.691756 0.122233
O O8 0.454955 0.439798 0.701990
O O9 0.331800 0.383242 0.788259
O O10 0.511605 0.323386 0.760009
O O11 0.726211 0.400320 0.080436
O O12 0.770888 0.516216 0.186748
O O13 0.072839 0.461814 0.340192
O O14 0.960326 0.428640 0.464034
O O15 0.892337 0.875145 0.706307
O O16 0.651123 0.716835 0.928471
#
# Coordination Sequence:
#
# PCOD9245600 Si02
#       8
#     4   4   4   4   4   4   4   4
#     4  10  22  40  63  97 131 165 212 266 326 398
#     4  11  25  45  68  93 130 173 226 274 328 398
#     4  11  22  40  66  90 134 172 215 275 324 387
#     4  10  22  37  66 100 130 171 216 263 331 404
#     4  10  21  38  64  97 133 164 208 271 323 393
#     4  10  22  41  62  98 132 170 217 266 330 399
#     4  11  26  44  64  98 128 171 233 275 322 391
#     4  11  25  43  68  89 132 175 213 272 333 380
#
# _framework density 20.476064000000001
#
# number of rings (size 3 to 8) (size 9 to 14) (size 15 to 20)
#    0.000    1.500    1.250    2.625    1.750   10.000 
#    0.000    3.125    0.000    0.000    0.000    0.000 
#    0.000    0.000    0.000    0.000    0.000    0.000 
#
# Total GULP energy -178874.036928 kJ/mol
# GULP energy per Si atom -5589.813654 kJ/mol
# Density = 2.042946 g / cm^3
# Si number density = 20.476064 Si / 1000 Ang^3
#
#
#
# Elastic Constant Matrix: (Units=GPa)
#
#
# Indices 1 2 3 4 5 6 
#
# 1 98.2286 35.8993 32.2356 0.0000 -4.8653 0.0000
# 2 35.8993 78.4771 36.3410 0.0000 -5.4627 0.0000
# 3 32.2356 36.3410 51.0200 0.0000 -0.5804 0.0000
# 4 0.0000 0.0000 0.0000 20.9673 0.0000 -8.2983
# 5 -4.8653 -5.4627 -0.5804 0.0000 8.7741 0.0000
# 6 0.0000 0.0000 0.0000 -8.2983 0.0000 33.4002
#
#
#
# Elastic Compliance Matrix: (Units=1/GPa)
#
#
# Indices 1 2 3 4 5 6 
#
# 1 0.013624 -0.002837 -0.006526 0.000000 0.005356 0.000000
# 2 -0.002837 0.020718 -0.012845 0.000000 0.010476 0.000000
# 3 -0.006526 -0.012845 0.032766 0.000000 -0.009449 0.000000
# 4 0.000000 0.000000 0.000000 0.052894 0.000000 0.013142
# 5 0.005356 0.010476 -0.009449 0.000000 0.122840 0.000000
# 6 0.000000 0.000000 0.000000 0.013142 0.000000 0.033205
#
#
# Mechanical properties :
#
#
# Convention : Reuss Voigt Hill
#
# Bulk Modulus (GPa) = 44.07193 48.51973 46.29583
# Shear Modulus (GPa) = 15.24257 20.84496 18.04377
#
# Velocity S-wave (km/s) = 2.73135 3.19410 2.97174
# Velocity P-wave (km/s) = 5.61403 6.11149 5.86803
#
# Compressibility (1/GPa) = 0.02269018
#
# Stress axis : x y z
#
# Youngs Moduli (GPa) = 73.39815 48.26675 30.51975
#
# Poissons Ratio (x) = 0.13696 0.19918
# Poissons Ratio (y) = 0.20826 0.39204
# Poissons Ratio (z) = 0.47901 0.62001
#
# Static dielectric constant tensor:
#      x y z
#    x 1.743060 0.000000 -0.017090 
#    y 0.000000 1.721630 0.000000 
#    z -0.017090 0.000000 1.698050 
# 
# From -- ./inp_files/30822.got.cif
#   From: 2010.05.17/outbox.cif.g08.bks.cpg/sg14_16_cif.got.tgz:30822.got - 2010.06.03 17:49:19.
