data_PCOD9245350
_publ_section_title
;
Structure prediction by ZEFSAII (Michael W. Deem and Ramdas Pophale) SiO2 
 PCOD9245350
Probable space group: P 21/C
;
_chemical_formula_sum "Si O2"
_cell_formula_units_Z 32
_cell_length_a 27.295865
_cell_length_b 10.979480
_cell_length_c 14.319367
_cell_angle_alpha 90.000000
_cell_angle_beta 19.826666
_cell_angle_gamma 90.000000
_cell_volume 1455.550520
_symmetry_space_group_name_H-M "P 21/C"
_symmetry_group_IT_number 14
_symmetry_cell_setting 'monoclinic'
loop_
_space_group_symop_operation_xyz
x,y,z
-x,1/2+y,1/2-z
-x,-y,-z
x,1/2-y,1/2+z
loop_
_atom_site_type_symbol
_atom_site_label
_atom_site_fract_x
_atom_site_fract_y
_atom_site_fract_z
Si Si1 0.926566 0.286950 0.097230
Si Si2 0.341344 0.470095 0.170512
Si Si3 0.133828 0.524642 0.388366
Si Si4 0.384628 0.828910 0.173022
Si Si5 0.647639 0.409394 0.649923
Si Si6 0.847508 0.756635 0.944809
Si Si7 0.935731 0.197638 0.289335
Si Si8 0.682136 0.580005 0.105081
O O1 0.787916 0.374454 0.338914
O O2 0.950624 0.265769 0.163699
O O3 0.901435 0.150572 0.100589
O O4 0.064062 0.332010 0.792948
O O5 0.244216 0.547804 0.274929
O O6 0.323057 0.510470 0.310564
O O7 0.273170 0.336267 0.288165
O O8 0.510773 0.467852 0.843833
O O9 0.001772 0.439190 0.659604
O O10 0.217682 0.439974 0.163409
O O11 0.402672 0.717027 0.211631
O O12 0.235490 0.810342 0.384511
O O13 0.358546 0.947851 0.282694
O O14 0.533134 0.849027 0.851714
O O15 0.969599 0.732726 0.803571
O O16 0.769263 0.649875 0.029607
#
# Coordination Sequence:
#
# PCOD9245350 Si02
#       8
#     4   4   4   4   4   4   4   4
#     4  11  22  38  66  92 122 165 218 262 307 381
#     4  10  24  42  63  89 132 176 204 260 325 388
#     4  11  21  39  65  95 123 163 217 265 318 374
#     4  10  21  37  65  91 124 164 209 265 315 373
#     4  10  21  44  63  87 131 172 213 250 325 386
#     4  11  23  38  65  96 132 165 208 264 327 379
#     4  10  21  38  59  97 126 169 204 257 326 376
#     4  11  20  39  66  96 126 158 213 277 314 366
#
# _framework density 21.984808999999998
#
# number of rings (size 3 to 8) (size 9 to 14) (size 15 to 20)
#    0.000    1.500    5.000    1.125    3.500    1.500 
#    0.000    0.000   11.000    0.000    0.000    0.000 
#    0.000    0.000    0.000    0.000    0.000    0.000 
#
# Total GULP energy -178751.728731 kJ/mol
# GULP energy per Si atom -5585.991523 kJ/mol
# Density = 2.193477 g / cm^3
# Si number density = 21.984809 Si / 1000 Ang^3
#
#
#
# Elastic Constant Matrix: (Units=GPa)
#
#
# Indices 1 2 3 4 5 6 
#
# 1 94.6327 6.5524 38.2079 0.0000 -29.0657 0.0000
# 2 6.5524 25.5318 24.1508 0.0000 -8.2124 0.0000
# 3 38.2079 24.1508 96.9509 0.0000 -22.6099 0.0000
# 4 0.0000 0.0000 0.0000 22.0983 0.0000 1.9231
# 5 -29.0657 -8.2124 -22.6099 0.0000 32.3323 0.0000
# 6 0.0000 0.0000 0.0000 1.9231 0.0000 24.0097
#
#
#
# Elastic Compliance Matrix: (Units=1/GPa)
#
#
# Indices 1 2 3 4 5 6 
#
# 1 0.015792 0.004005 -0.004389 0.000000 0.012145 0.000000
# 2 0.004005 0.052911 -0.012886 0.000000 0.008029 0.000000
# 3 -0.004389 -0.012886 0.016215 0.000000 0.004120 0.000000
# 4 0.000000 0.000000 0.000000 0.045570 0.000000 -0.003650
# 5 0.012145 0.008029 0.004120 0.000000 0.046767 0.000000
# 6 0.000000 0.000000 0.000000 -0.003650 0.000000 0.041942
#
#
# Mechanical properties :
#
#
# Convention : Reuss Voigt Hill
#
# Bulk Modulus (GPa) = 17.12983 39.43753 28.28368
# Shear Modulus (GPa) = 18.85388 25.56832 22.21110
#
# Velocity S-wave (km/s) = 2.93164 3.41398 3.18196
# Velocity P-wave (km/s) = 4.38952 5.78946 5.13740
#
# Compressibility (1/GPa) = 0.05837769
#
# Stress axis : x y z
#
# Youngs Moduli (GPa) = 63.32294 18.89971 61.67062
#
# Poissons Ratio (x) = -0.07570 0.27067
# Poissons Ratio (y) = -0.25362 0.79471
# Poissons Ratio (z) = 0.27793 0.24355
#
# Static dielectric constant tensor:
#      x y z
#    x 1.784740 0.000000 -0.032790 
#    y 0.000000 1.824650 0.000000 
#    z -0.032790 0.000000 1.845000 
# 
# From -- ./inp_files/52039.got.cif
#   From: 2010.05.17/outbox.cif.g08.bks.cpg/sg14_27_cif.got.tgz:52039.got - 2010.06.03 17:49:19.
