data_PCOD9245878
_publ_section_title
;
Structure prediction by ZEFSAII (Michael W. Deem and Ramdas Pophale) SiO2 
 PCOD9245878
Probable space group: P 21/C
;
_chemical_formula_sum "Si O2"
_cell_formula_units_Z 32
_cell_length_a 23.146564
_cell_length_b 9.527783
_cell_length_c 14.571107
_cell_angle_alpha 90.000000
_cell_angle_beta 25.150579
_cell_angle_gamma 90.000000
_cell_volume 1365.710043
_symmetry_space_group_name_H-M "P 21/C"
_symmetry_group_IT_number 14
_symmetry_cell_setting 'monoclinic'
loop_
_space_group_symop_operation_xyz
x,y,z
-x,1/2+y,1/2-z
-x,-y,-z
x,1/2-y,1/2+z
loop_
_atom_site_type_symbol
_atom_site_label
_atom_site_fract_x
_atom_site_fract_y
_atom_site_fract_z
Si Si1 0.088280 0.590127 0.121788
Si Si2 0.756359 0.663320 0.192923
Si Si3 0.629990 0.308586 0.285171
Si Si4 0.143729 0.856821 0.754950
Si Si5 0.486596 0.961200 0.890106
Si Si6 0.355508 0.614881 0.395875
Si Si7 0.786301 0.654849 0.487046
Si Si8 0.847320 0.662193 0.734425
O O1 0.087153 0.603217 0.234041
O O2 0.942331 0.624148 0.290356
O O3 0.137003 0.440379 0.011220
O O4 0.210521 0.697719 0.919576
O O5 0.634963 0.567205 0.405131
O O6 0.816323 0.737305 0.195026
O O7 0.719243 0.785853 0.175474
O O8 0.545107 0.329280 0.499210
O O9 0.613909 0.451690 0.245858
O O10 0.586357 0.189103 0.278235
O O11 0.248318 0.728193 0.593610
O O12 0.201111 0.003071 0.710693
O O13 0.011073 0.828563 0.006809
O O14 0.465203 0.924398 0.815509
O O15 0.277359 0.479517 0.470775
O O16 0.779499 0.778034 0.422557
#
# Coordination Sequence:
#
# PCOD9245878 Si02
#       8
#     4   4   4   4   4   4   4   4
#     4  10  21  39  64  91 135 175 205 274 331 390
#     4  11  22  40  62  96 131 177 215 275 332 388
#     4   9  23  45  67  93 132 176 221 272 331 395
#     4  10  22  38  59  93 137 175 213 262 341 392
#     4  10  22  48  70  93 133 184 221 272 343 383
#     4  11  24  43  70 104 126 172 229 281 327 407
#     4  12  24  37  68 103 135 172 227 270 337 413
#     4  11  22  38  59  96 139 174 211 265 333 415
#
# _framework density 23.431035999999999
#
# number of rings (size 3 to 8) (size 9 to 14) (size 15 to 20)
#    0.000    1.500    3.750    0.750    5.250    2.000 
#   11.250    0.625    0.000    0.000    0.000    0.000 
#    0.000    0.000    0.000    0.000    0.000    0.000 
#
# Total GULP energy -178962.186049 kJ/mol
# GULP energy per Si atom -5592.568314 kJ/mol
# Density = 2.337771 g / cm^3
# Si number density = 23.431036 Si / 1000 Ang^3
#
#
#
# Elastic Constant Matrix: (Units=GPa)
#
#
# Indices 1 2 3 4 5 6 
#
# 1 124.6426 20.7674 7.4524 0.0000 -5.2663 0.0000
# 2 20.7674 76.5395 7.5815 0.0000 -4.9978 0.0000
# 3 7.4524 7.5815 46.5081 0.0000 -9.9229 0.0000
# 4 0.0000 0.0000 0.0000 32.4286 0.0000 9.5657
# 5 -5.2663 -4.9978 -9.9229 0.0000 28.6716 0.0000
# 6 0.0000 0.0000 0.0000 9.5657 0.0000 45.5375
#
#
#
# Elastic Compliance Matrix: (Units=1/GPa)
#
#
# Indices 1 2 3 4 5 6 
#
# 1 0.008469 -0.002159 -0.000814 0.000000 0.000898 0.000000
# 2 -0.002159 0.013906 -0.001607 0.000000 0.001471 0.000000
# 3 -0.000814 -0.001607 0.023541 0.000000 0.007718 0.000000
# 4 0.000000 0.000000 0.000000 0.032874 0.000000 -0.006906
# 5 0.000898 0.001471 0.007718 0.000000 0.037970 0.000000
# 6 0.000000 0.000000 0.000000 -0.006906 0.000000 0.023411
#
#
# Mechanical properties :
#
#
# Convention : Reuss Voigt Hill
#
# Bulk Modulus (GPa) = 27.20570 35.47697 31.34134
# Shear Modulus (GPa) = 30.94408 35.45345 33.19877
#
# Velocity S-wave (km/s) = 3.63801 3.89408 3.76822
# Velocity P-wave (km/s) = 5.41138 5.94914 5.68662
#
# Compressibility (1/GPa) = 0.03675701
#
# Stress axis : x y z
#
# Youngs Moduli (GPa) = 118.07499 71.91073 42.47975
#
# Poissons Ratio (x) = 0.15524 0.03456
# Poissons Ratio (y) = 0.25489 0.06827
# Poissons Ratio (z) = 0.09607 0.11557
#
# Static dielectric constant tensor:
#      x y z
#    x 1.852100 0.000000 -0.018500 
#    y 0.000000 1.913320 0.000000 
#    z -0.018500 0.000000 1.909770 
# 
# From -- ./inp_files/51340.got.cif
#   From: 2010.05.17/outbox.cif.g08.bks.cpg/sg14_26_cif.got.tgz:51340.got - 2010.06.03 17:49:19.
