data_PCOD9245395
_publ_section_title
;
Structure prediction by ZEFSAII (Michael W. Deem and Ramdas Pophale) SiO2 
 PCOD9245395
Probable space group: P 21/C
;
_chemical_formula_sum "Si O2"
_cell_formula_units_Z 24
_cell_length_a 7.039870
_cell_length_b 19.242463
_cell_length_c 7.558318
_cell_angle_alpha 90.000000
_cell_angle_beta 80.175056
_cell_angle_gamma 90.000000
_cell_volume 1008.866724
_symmetry_space_group_name_H-M "P 21/C"
_symmetry_group_IT_number 14
_symmetry_cell_setting 'monoclinic'
loop_
_space_group_symop_operation_xyz
x,y,z
-x,1/2+y,1/2-z
-x,-y,-z
x,1/2-y,1/2+z
loop_
_atom_site_type_symbol
_atom_site_label
_atom_site_fract_x
_atom_site_fract_y
_atom_site_fract_z
Si Si1 0.817829 0.398949 0.740038
Si Si2 0.253497 0.093038 0.275305
Si Si3 0.230220 0.253213 0.651742
Si Si4 0.322077 0.455646 0.380765
Si Si5 0.490095 0.378107 0.058556
Si Si6 0.025544 0.336070 0.398132
O O1 0.724615 0.467585 0.673383
O O2 0.683363 0.370648 0.916061
O O3 0.857786 0.348270 0.565748
O O4 0.025107 0.416722 0.791994
O O5 0.281302 0.176286 0.248196
O O6 0.347647 0.078313 0.448869
O O7 0.340308 0.055212 0.088475
O O8 0.396070 0.196217 0.614080
O O9 0.186770 0.288727 0.469957
O O10 0.028884 0.209968 0.722382
O O11 0.130497 0.409926 0.358908
O O12 0.493340 0.420639 0.240792
#
# Coordination Sequence:
#
# PCOD9245395 Si02
#       6
#     4   4   4   4   4   4
#     4  10  21  38  57  89 114 148 198 232 277 346
#     4  10  21  40  59  82 118 154 187 236 288 339
#     4   9  17  35  54  81 111 146 188 228 284 337
#     4   9  20  38  60  83 119 150 187 240 283 333
#     4  11  21  37  61  85 114 154 187 236 289 335
#     4   9  17  34  58  74 114 148 178 239 279 329
#
# _framework density 23.789069000000001
#
# number of rings (size 3 to 8) (size 9 to 14) (size 15 to 20)
#    0.000    2.667    1.667    2.500    0.000    1.333 
#    6.000    5.000    0.000    0.000    0.000    0.000 
#    0.000    0.000    0.000    0.000    0.000    0.000 
#
# Total GULP energy -133883.152992 kJ/mol
# GULP energy per Si atom -5578.464708 kJ/mol
# Density = 2.373492 g / cm^3
# Si number density = 23.789069 Si / 1000 Ang^3
#
#
#
# Elastic Constant Matrix: (Units=GPa)
#
#
# Indices 1 2 3 4 5 6 
#
# 1 64.9599 9.0837 32.9544 0.0000 -14.8975 0.0000
# 2 9.0837 94.3042 33.3322 0.0000 -14.3085 0.0000
# 3 32.9544 33.3322 133.6063 0.0000 -46.8499 0.0000
# 4 0.0000 0.0000 0.0000 36.2415 0.0000 -4.4481
# 5 -14.8975 -14.3085 -46.8499 0.0000 44.5443 0.0000
# 6 0.0000 0.0000 0.0000 -4.4481 0.0000 9.3662
#
#
#
# Elastic Compliance Matrix: (Units=1/GPa)
#
#
# Indices 1 2 3 4 5 6 
#
# 1 0.017721 -0.000114 -0.003608 0.000000 0.002096 0.000000
# 2 -0.000114 0.011663 -0.002505 0.000000 0.001073 0.000000
# 3 -0.003608 -0.002505 0.013141 0.000000 0.011809 0.000000
# 4 0.000000 0.000000 0.000000 0.029301 0.000000 0.013915
# 5 0.002096 0.001073 0.011809 0.000000 0.035916 0.000000
# 6 0.000000 0.000000 0.000000 0.013915 0.000000 0.113375
#
#
# Mechanical properties :
#
#
# Convention : Reuss Voigt Hill
#
# Bulk Modulus (GPa) = 33.25438 49.29010 41.27224
# Shear Modulus (GPa) = 20.52601 32.53042 26.52821
#
# Velocity S-wave (km/s) = 2.94059 3.70192 3.34300
# Velocity P-wave (km/s) = 5.05358 6.24795 5.68223
#
# Compressibility (1/GPa) = 0.03007122
#
# Stress axis : x y z
#
# Youngs Moduli (GPa) = 56.43085 85.73885 76.10012
#
# Poissons Ratio (x) = 0.00976 0.27454
# Poissons Ratio (y) = 0.00642 0.19065
# Poissons Ratio (z) = 0.20358 0.21480
#
# Static dielectric constant tensor:
#      x y z
#    x 1.967240 0.000000 0.085790 
#    y 0.000000 1.988770 0.000000 
#    z 0.085790 0.000000 2.260350 
# 
# From -- ./inp_files/9835.got.cif
#   From: 2010.05.17/outbox.cif.g08.bks.cpg/sg14_5_cif.got.tgz:9835.got - 2010.06.03 17:49:19.
