data_PCOD9245047
_publ_section_title
;
Structure prediction by ZEFSAII (Michael W. Deem and Ramdas Pophale) SiO2 
 PCOD9245047
Probable space group: P 21/C
;
_chemical_formula_sum "Si O2"
_cell_formula_units_Z 32
_cell_length_a 13.174216
_cell_length_b 17.208742
_cell_length_c 10.116176
_cell_angle_alpha 90.000000
_cell_angle_beta 126.301651
_cell_angle_gamma 90.000000
_cell_volume 1848.321364
_symmetry_space_group_name_H-M "P 21/C"
_symmetry_group_IT_number 14
_symmetry_cell_setting 'monoclinic'
loop_
_space_group_symop_operation_xyz
x,y,z
-x,1/2+y,1/2-z
-x,-y,-z
x,1/2-y,1/2+z
loop_
_atom_site_type_symbol
_atom_site_label
_atom_site_fract_x
_atom_site_fract_y
_atom_site_fract_z
Si Si1 0.164914 0.060248 0.526910
Si Si2 0.401385 0.978650 0.311657
Si Si3 0.702109 0.313919 0.173320
Si Si4 0.157068 0.442684 0.716173
Si Si5 0.969349 0.385086 0.369734
Si Si6 0.692032 0.173999 0.354181
Si Si7 0.967322 0.389828 0.073283
Si Si8 0.571685 0.492950 0.693287
O O1 0.178535 0.083259 0.383727
O O2 0.074251 0.114223 0.544661
O O3 0.092525 0.976914 0.471212
O O4 0.302332 0.045558 0.695434
O O5 0.353261 0.892715 0.307955
O O6 0.500000 0.000000 0.500000
O O7 0.285512 0.038023 0.238718
O O8 0.471744 0.984005 0.227962
O O9 0.853225 0.326617 0.298335
O O10 0.657766 0.242053 0.226864
O O11 0.669282 0.308611 0.992122
O O12 0.089122 0.527325 0.673110
O O13 0.070640 0.385479 0.564169
O O14 0.020839 0.374349 0.261145
O O15 0.842862 0.161322 0.456186
O O16 0.621600 0.094281 0.261785
O O17 0.500000 0.500000 0.500000
#
# Coordination Sequence:
#
# PCOD9245047 Si02
#       8
#     4   4   4   4   4   4   4   4
#     4   9  16  30  48  76 104 133 167 222 271 310
#     4  11  19  37  56  79 113 153 186 236 281 330
#     4  10  21  36  58  80 112 146 185 231 291 341
#     4   9  16  28  51  76 102 131 174 215 267 321
#     4   8  16  30  47  76 101 130 170 216 265 326
#     4  10  21  38  55  82 111 146 185 234 287 343
#     4   8  16  30  49  71 106 131 163 218 274 314
#     4  11  23  35  54  85 115 146 198 238 274 334
#
# _framework density 17.313006000000001
#
# number of rings (size 3 to 8) (size 9 to 14) (size 15 to 20)
#    0.000    2.500    2.500    1.500    3.500    1.000 
#    4.500    0.000    0.000    3.000    0.000    0.000 
#    0.000    0.000    0.000    0.000    0.000    0.000 
#
# Total GULP energy -178261.382136 kJ/mol
# GULP energy per Si atom -5570.668192 kJ/mol
# Density = 1.727360 g / cm^3
# Si number density = 17.313006 Si / 1000 Ang^3
#
#
#
# Elastic Constant Matrix: (Units=GPa)
#
#
# Indices 1 2 3 4 5 6 
#
# 1 126.2760 23.1859 60.8259 0.0000 -22.0360 0.0000
# 2 23.1859 44.0767 26.6302 0.0000 -12.1818 0.0000
# 3 60.8259 26.6302 145.7314 0.0000 -14.1384 0.0000
# 4 0.0000 0.0000 0.0000 18.7236 0.0000 -4.8453
# 5 -22.0360 -12.1818 -14.1384 0.0000 26.2385 0.0000
# 6 0.0000 0.0000 0.0000 -4.8453 0.0000 16.0422
#
#
#
# Elastic Compliance Matrix: (Units=1/GPa)
#
#
# Indices 1 2 3 4 5 6 
#
# 1 0.011178 -0.001840 -0.003695 0.000000 0.006543 0.000000
# 2 -0.001840 0.028467 -0.003484 0.000000 0.009794 0.000000
# 3 -0.003695 -0.003484 0.009056 0.000000 0.000159 0.000000
# 4 0.000000 0.000000 0.000000 0.057937 0.000000 0.017499
# 5 0.006543 0.009794 0.000159 0.000000 0.048240 0.000000
# 6 0.000000 0.000000 0.000000 0.017499 0.000000 0.067621
#
#
# Mechanical properties :
#
#
# Convention : Reuss Voigt Hill
#
# Bulk Modulus (GPa) = 32.61012 59.70758 46.15885
# Shear Modulus (GPa) = 19.93952 25.89699 22.91826
#
# Velocity S-wave (km/s) = 3.39736 3.87177 3.64230
# Velocity P-wave (km/s) = 5.85371 7.38576 6.66391
#
# Compressibility (1/GPa) = 0.03066533
#
# Stress axis : x y z
#
# Youngs Moduli (GPa) = 89.45756 35.12804 110.42198
#
# Poissons Ratio (x) = 0.06462 0.40798
# Poissons Ratio (y) = 0.16457 0.38470
# Poissons Ratio (z) = 0.33052 0.12238
#
# Static dielectric constant tensor:
#      x y z
#    x 1.577860 0.000000 0.009980 
#    y 0.000000 1.603370 0.000000 
#    z 0.009980 0.000000 1.582990 
# 
# From -- ./inp_files/13898.got.cif
#   From: 2010.05.17/outbox.cif.g08.bks.cpg/sg14_7_cif.got.tgz:13898.got - 2010.06.03 17:49:19.
