data_PCOD9245300
_publ_section_title
;
Structure prediction by ZEFSAII (Michael W. Deem and Ramdas Pophale) SiO2 
 PCOD9245300
Probable space group: P 21/C
;
_chemical_formula_sum "Si O2"
_cell_formula_units_Z 32
_cell_length_a 11.070737
_cell_length_b 17.118809
_cell_length_c 13.024359
_cell_angle_alpha 90.000000
_cell_angle_beta 36.244245
_cell_angle_gamma 90.000000
_cell_volume 1459.358206
_symmetry_space_group_name_H-M "P 21/C"
_symmetry_group_IT_number 14
_symmetry_cell_setting 'monoclinic'
loop_
_space_group_symop_operation_xyz
x,y,z
-x,1/2+y,1/2-z
-x,-y,-z
x,1/2-y,1/2+z
loop_
_atom_site_type_symbol
_atom_site_label
_atom_site_fract_x
_atom_site_fract_y
_atom_site_fract_z
Si Si1 0.876897 0.534964 0.378469
Si Si2 0.294287 0.765273 0.638849
Si Si3 0.198744 0.992464 0.290934
Si Si4 0.887835 0.784631 0.793590
Si Si5 0.511599 0.743134 0.183059
Si Si6 0.478904 0.580816 0.749243
Si Si7 0.633724 0.664092 0.299897
Si Si8 0.672878 0.446908 0.928632
O O1 0.846915 0.482242 0.297901
O O2 0.876390 0.624651 0.337142
O O3 0.689959 0.534385 0.585764
O O4 0.105765 0.524651 0.261259
O O5 0.306731 0.761464 0.754797
O O6 0.452240 0.700709 0.491021
O O7 0.355750 0.855524 0.576585
O O8 0.093010 0.754177 0.706483
O O9 0.345013 0.927898 0.238677
O O10 0.323016 0.073388 0.215203
O O11 0.000000 0.000000 0.500000
O O12 0.836215 0.791177 0.707367
O O13 0.700445 0.740526 0.974912
O O14 0.518634 0.827165 0.234736
O O15 0.563274 0.680066 0.232969
O O16 0.348709 0.548786 0.933215
O O17 0.500000 0.500000 0.000000
#
# Coordination Sequence:
#
# PCOD9245300 Si02
#       8
#     4   4   4   4   4   4   4   4
#     4   9  20  40  61  90 125 161 215 265 316 389
#     4  10  21  40  60  89 126 163 210 269 325 386
#     4  11  22  38  65  96 124 167 220 273 331 393
#     4   8  19  37  57  85 121 159 200 262 315 376
#     4  10  21  37  62  90 120 165 212 260 323 392
#     4  11  22  41  66  89 128 172 209 271 338 383
#     4  10  21  38  61  89 125 160 216 263 319 403
#     4  11  23  40  65  90 132 174 212 266 334 393
#
# _framework density 21.927444999999999
#
# number of rings (size 3 to 8) (size 9 to 14) (size 15 to 20)
#    0.000    2.000    2.500    1.125    1.750    2.500 
#    0.000    3.750    0.000    0.000    0.000    0.000 
#    0.000    0.000    0.000    0.000    0.000    0.000 
#
# Total GULP energy -178475.618591 kJ/mol
# GULP energy per Si atom -5577.363081 kJ/mol
# Density = 2.187754 g / cm^3
# Si number density = 21.927445 Si / 1000 Ang^3
#
#
#
# Elastic Constant Matrix: (Units=GPa)
#
#
# Indices 1 2 3 4 5 6 
#
# 1 92.6191 10.9618 0.6782 0.0000 -9.8322 0.0000
# 2 10.9618 36.0602 3.8298 0.0000 -10.5294 0.0000
# 3 0.6782 3.8298 55.1976 0.0000 -18.5818 0.0000
# 4 0.0000 0.0000 0.0000 18.0280 0.0000 -9.9879
# 5 -9.8322 -10.5294 -18.5818 0.0000 32.2157 0.0000
# 6 0.0000 0.0000 0.0000 -9.9879 0.0000 27.4280
#
#
#
# Elastic Compliance Matrix: (Units=1/GPa)
#
#
# Indices 1 2 3 4 5 6 
#
# 1 0.011451 -0.002641 0.001152 0.000000 0.003296 0.000000
# 2 -0.002641 0.031373 0.001286 0.000000 0.010190 0.000000
# 3 0.001152 0.001286 0.022676 0.000000 0.013852 0.000000
# 4 0.000000 0.000000 0.000000 0.069488 0.000000 0.025304
# 5 0.003296 0.010190 0.013852 0.000000 0.043367 0.000000
# 6 0.000000 0.000000 0.000000 0.025304 0.000000 0.045674
#
#
# Mechanical properties :
#
#
# Convention : Reuss Voigt Hill
#
# Bulk Modulus (GPa) = 15.36215 23.86847 19.61531
# Shear Modulus (GPa) = 20.31426 26.76149 23.53787
#
# Velocity S-wave (km/s) = 3.04703 3.49729 3.27990
# Velocity P-wave (km/s) = 4.40458 5.21698 4.82790
#
# Compressibility (1/GPa) = 0.06509504
#
# Stress axis : x y z
#
# Youngs Moduli (GPa) = 87.32903 31.87462 44.09876
#
# Poissons Ratio (x) = 0.08417 -0.05081
# Poissons Ratio (y) = 0.23062 -0.05671
# Poissons Ratio (z) = -0.10062 -0.04099
#
# Static dielectric constant tensor:
#      x y z
#    x 1.901200 0.000000 -0.003910 
#    y 0.000000 1.703460 0.000000 
#    z -0.003910 0.000000 1.842490 
# 
# From -- ./inp_files/45372.got.cif
#   From: 2010.05.17/outbox.cif.g08.bks.cpg/sg14_23_cif.got.tgz:45372.got - 2010.06.03 17:49:19.
