data_PCOD9245116
_publ_section_title
;
Structure prediction by ZEFSAII (Michael W. Deem and Ramdas Pophale) SiO2 
 PCOD9245116
Probable space group: P 21/C
;
_chemical_formula_sum "Si O2"
_cell_formula_units_Z 24
_cell_length_a 8.501202
_cell_length_b 12.835538
_cell_length_c 9.293944
_cell_angle_alpha 90.000000
_cell_angle_beta 110.297294
_cell_angle_gamma 90.000000
_cell_volume 951.159747
_symmetry_space_group_name_H-M "P 21/C"
_symmetry_group_IT_number 14
_symmetry_cell_setting 'monoclinic'
loop_
_space_group_symop_operation_xyz
x,y,z
-x,1/2+y,1/2-z
-x,-y,-z
x,1/2-y,1/2+z
loop_
_atom_site_type_symbol
_atom_site_label
_atom_site_fract_x
_atom_site_fract_y
_atom_site_fract_z
Si Si1 0.957072 0.442301 0.838964
Si Si2 0.314344 0.180970 0.249877
Si Si3 0.036841 0.758093 0.986737
Si Si4 0.427868 0.918298 0.865940
Si Si5 0.518565 0.813358 0.408806
Si Si6 0.175177 0.890068 0.272970
O O1 0.993231 0.323665 0.893170
O O2 0.759698 0.447585 0.740345
O O3 0.068968 0.504822 0.759749
O O4 0.000000 0.500000 0.000000
O O5 0.434431 0.094778 0.216276
O O6 0.341879 0.171018 0.426997
O O7 0.131700 0.188153 0.123254
O O8 0.397654 0.290134 0.218272
O O9 0.150269 0.842967 0.105149
O O10 0.109454 0.689210 0.878261
O O11 0.428557 0.797606 0.917944
O O12 0.500000 0.000000 0.000000
O O13 0.372801 0.897149 0.363727
#
# Coordination Sequence:
#
# PCOD9245116 Si02
#       6
#     4   4   4   4   4   4
#     4  10  21  36  62  90 114 160 207 236 286 376
#     4  10  21  36  62  86 120 155 196 242 301 347
#     4  11  21  38  61  90 117 156 203 242 296 353
#     4  10  21  38  63  89 114 160 210 237 285 371
#     4  10  21  39  60  87 120 155 196 244 301 348
#     4  11  21  39  64  83 120 155 198 248 297 348
#
# _framework density 25.232357
#
# number of rings (size 3 to 8) (size 9 to 14) (size 15 to 20)
#    1.000    0.667    1.667    5.000    4.667    0.000 
#    0.000    1.667    7.333    0.000    0.000    0.000 
#    0.000    0.000    0.000    0.000    0.000    0.000 
#
# Total GULP energy -134157.560625 kJ/mol
# GULP energy per Si atom -5589.898359 kJ/mol
# Density = 2.517493 g / cm^3
# Si number density = 25.232357 Si / 1000 Ang^3
#
#
#
# Elastic Constant Matrix: (Units=GPa)
#
#
# Indices 1 2 3 4 5 6 
#
# 1 83.7753 23.7554 54.8106 0.0000 21.1802 0.0000
# 2 23.7554 98.7124 37.0647 0.0000 1.4698 0.0000
# 3 54.8106 37.0647 156.8080 0.0000 44.5092 0.0000
# 4 0.0000 0.0000 0.0000 24.5300 0.0000 0.9786
# 5 21.1802 1.4698 44.5092 0.0000 45.4354 0.0000
# 6 0.0000 0.0000 0.0000 0.9786 0.0000 40.3383
#
#
#
# Elastic Compliance Matrix: (Units=1/GPa)
#
#
# Indices 1 2 3 4 5 6 
#
# 1 0.016153 -0.002281 -0.004142 0.000000 -0.003398 0.000000
# 2 -0.002281 0.011757 -0.003013 0.000000 0.003635 0.000000
# 3 -0.004142 -0.003013 0.011028 0.000000 -0.008775 0.000000
# 4 0.000000 0.000000 0.000000 0.040806 0.000000 -0.000990
# 5 -0.003398 0.003635 -0.008775 0.000000 0.032072 0.000000
# 6 0.000000 0.000000 0.000000 -0.000990 0.000000 0.024814
#
#
# Mechanical properties :
#
#
# Convention : Reuss Voigt Hill
#
# Bulk Modulus (GPa) = 49.84079 63.39522 56.61801
# Shear Modulus (GPa) = 30.82780 36.97173 33.89977
#
# Velocity S-wave (km/s) = 3.49916 3.83201 3.66936
# Velocity P-wave (km/s) = 6.01008 6.69016 6.35922
#
# Compressibility (1/GPa) = 0.02006389
#
# Stress axis : x y z
#
# Youngs Moduli (GPa) = 61.90869 85.05747 90.67779
#
# Poissons Ratio (x) = 0.19404 0.37561
# Poissons Ratio (y) = 0.14123 0.27324
# Poissons Ratio (z) = 0.25644 0.25631
#
# Static dielectric constant tensor:
#      x y z
#    x 2.038610 0.000000 -0.048690 
#    y 0.000000 2.047940 0.000000 
#    z -0.048690 0.000000 1.896870 
# 
# From -- ./inp_files/29182.got.cif
#   From: 2010.05.17/outbox.cif.g08.bks.cpg/sg14_15_cif.got.tgz:29182.got - 2010.06.03 17:49:19.
