data_PCOD9245885
_publ_section_title
;
Structure prediction by ZEFSAII (Michael W. Deem and Ramdas Pophale) SiO2 
 PCOD9245885
Probable space group: P 21/C
;
_chemical_formula_sum "Si O2"
_cell_formula_units_Z 32
_cell_length_a 15.645813
_cell_length_b 19.921588
_cell_length_c 14.776245
_cell_angle_alpha 90.000000
_cell_angle_beta 160.569064
_cell_angle_gamma 90.000000
_cell_volume 1532.146467
_symmetry_space_group_name_H-M "P 21/C"
_symmetry_group_IT_number 14
_symmetry_cell_setting 'monoclinic'
loop_
_space_group_symop_operation_xyz
x,y,z
-x,1/2+y,1/2-z
-x,-y,-z
x,1/2-y,1/2+z
loop_
_atom_site_type_symbol
_atom_site_label
_atom_site_fract_x
_atom_site_fract_y
_atom_site_fract_z
Si Si1 0.574549 0.114483 0.451246
Si Si2 0.925333 0.574271 0.452865
Si Si3 0.526459 0.920852 0.858332
Si Si4 0.468550 0.231549 0.101899
Si Si5 0.030036 0.688081 0.413323
Si Si6 0.033277 0.845686 0.702125
Si Si7 0.467569 0.265068 0.316079
Si Si8 0.973370 0.999140 0.581433
O O1 0.368546 0.077280 0.308685
O O2 0.510286 0.093750 0.284689
O O3 0.518339 0.193155 0.410420
O O4 0.870831 0.098335 0.767568
O O5 0.975571 0.624187 0.420173
O O6 0.000000 0.500000 0.500000
O O7 0.505986 0.847927 0.885326
O O8 0.299193 0.969137 0.663928
O O9 0.798602 0.955484 0.149545
O O10 0.471411 0.247308 0.212636
O O11 0.703887 0.274870 0.299541
O O12 0.197592 0.259057 0.798303
O O13 0.030423 0.665283 0.308331
O O14 0.802196 0.800071 0.433082
O O15 0.996621 0.923121 0.640774
O O16 0.302616 0.816553 0.936299
O O17 0.000000 0.000000 0.500000
#
# Coordination Sequence:
#
# PCOD9245885 Si02
#       8
#     4   4   4   4   4   4   4   4
#     4  11  24  44  68  96 132 174 220 263 324 389
#     4  12  26  42  60 103 141 168 215 270 308 390
#     4  11  24  44  72  90 130 177 214 267 333 393
#     4   9  19  40  65  93 118 164 219 262 310 383
#     4  10  21  39  64  92 131 166 213 260 319 381
#     4  10  21  40  67  90 126 172 209 266 329 387
#     4   9  19  40  65  93 120 161 222 265 309 385
#     4  12  26  45  63 102 130 166 222 274 326 394
#
# _framework density 20.885732000000001
#
# number of rings (size 3 to 8) (size 9 to 14) (size 15 to 20)
#    0.000    1.500    0.000    4.500    3.500    4.000 
#   13.500    0.000    0.000    0.000    0.000    0.000 
#    0.000    0.000    0.000    0.000    0.000    0.000 
#
# Total GULP energy -179052.976131 kJ/mol
# GULP energy per Si atom -5595.405504 kJ/mol
# Density = 2.083819 g / cm^3
# Si number density = 20.885732 Si / 1000 Ang^3
#
#
#
# Elastic Constant Matrix: (Units=GPa)
#
#
# Indices 1 2 3 4 5 6 
#
# 1 43.4797 5.3725 -0.2910 0.0000 -7.7606 0.0000
# 2 5.3725 87.5682 -22.7123 0.0000 -12.6871 0.0000
# 3 -0.2910 -22.7123 60.4124 0.0000 -1.7767 0.0000
# 4 0.0000 0.0000 0.0000 32.9992 0.0000 14.2007
# 5 -7.7606 -12.6871 -1.7767 0.0000 27.2169 0.0000
# 6 0.0000 0.0000 0.0000 14.2007 0.0000 10.2598
#
#
#
# Elastic Compliance Matrix: (Units=1/GPa)
#
#
# Indices 1 2 3 4 5 6 
#
# 1 0.024256 -0.000483 0.000132 0.000000 0.006700 0.000000
# 2 -0.000483 0.013810 0.005385 0.000000 0.006651 0.000000
# 3 0.000132 0.005385 0.018689 0.000000 0.003768 0.000000
# 4 0.000000 0.000000 0.000000 0.074940 0.000000 -0.103725
# 5 0.006700 0.006651 0.003768 0.000000 0.041999 0.000000
# 6 0.000000 0.000000 0.000000 -0.103725 0.000000 0.241033
#
#
# Mechanical properties :
#
#
# Convention : Reuss Voigt Hill
#
# Bulk Modulus (GPa) = 14.96506 17.35542 16.16024
# Shear Modulus (GPa) = 11.71148 28.03459 19.87303
#
# Velocity S-wave (km/s) = 2.37057 3.66769 3.08801
# Velocity P-wave (km/s) = 3.83060 5.12481 4.52423
#
# Compressibility (1/GPa) = 0.06682233
#
# Stress axis : x y z
#
# Youngs Moduli (GPa) = 41.22749 72.41310 53.50777
#
# Poissons Ratio (x) = 0.03499 -0.00707
# Poissons Ratio (y) = 0.01992 -0.28814
# Poissons Ratio (z) = -0.00545 -0.38995
#
# Static dielectric constant tensor:
#      x y z
#    x 1.766610 0.000000 -0.019770 
#    y 0.000000 1.694660 0.000000 
#    z -0.019770 0.000000 1.721520 
# 
# From -- ./inp_files/47679.got.cif
#   From: 2010.05.17/outbox.cif.g08.bks.cpg/sg14_24_cif.got.tgz:47679.got - 2010.06.03 17:49:19.
