data_PCOD9245453
_publ_section_title
;
Structure prediction by ZEFSAII (Michael W. Deem and Ramdas Pophale) SiO2 
 PCOD9245453
Probable space group: P 21/C
;
_chemical_formula_sum "Si O2"
_cell_formula_units_Z 32
_cell_length_a 6.039889
_cell_length_b 8.131625
_cell_length_c 31.020099
_cell_angle_alpha 90.000000
_cell_angle_beta 64.169073
_cell_angle_gamma 90.000000
_cell_volume 1371.299703
_symmetry_space_group_name_H-M "P 21/C"
_symmetry_group_IT_number 14
_symmetry_cell_setting 'monoclinic'
loop_
_space_group_symop_operation_xyz
x,y,z
-x,1/2+y,1/2-z
-x,-y,-z
x,1/2-y,1/2+z
loop_
_atom_site_type_symbol
_atom_site_label
_atom_site_fract_x
_atom_site_fract_y
_atom_site_fract_z
Si Si1 0.993252 0.065993 0.814366
Si Si2 0.598311 0.725426 0.502547
Si Si3 0.370697 0.568210 0.953004
Si Si4 0.809689 0.398281 0.783870
Si Si5 0.711359 0.783628 0.651970
Si Si6 0.517525 0.558638 0.596969
Si Si7 0.905564 0.559776 0.862936
Si Si8 0.092704 0.779814 0.913779
O O1 0.912749 0.228334 0.794232
O O2 0.754660 0.021863 0.862692
O O3 0.213314 0.124520 0.826562
O O4 0.077411 0.937668 0.771684
O O5 0.389089 0.787176 0.487308
O O6 0.522145 0.600586 0.546217
O O7 0.834865 0.665158 0.456072
O O8 0.673263 0.896332 0.519942
O O9 0.638763 0.562436 0.907784
O O10 0.178694 0.619557 0.933280
O O11 0.515060 0.380033 0.807367
O O12 0.875843 0.534941 0.814490
O O13 0.616969 0.719631 0.614079
O O14 0.948482 0.899405 0.632401
O O15 0.699217 0.412962 0.595015
O O16 0.050696 0.717622 0.868731
#
# Coordination Sequence:
#
# PCOD9245453 Si02
#       8
#     4   4   4   4   4   4   4   4
#     4  10  24  42  64  90 122 161 202 255 312 371
#     4  10  21  38  60  87 124 167 212 254 305 368
#     4  10  21  38  61  91 121 165 215 254 304 366
#     4  10  22  41  63  90 121 157 204 255 311 373
#     4  10  22  41  65  88 120 164 204 251 309 370
#     4  11  24  41  59  91 129 163 203 255 316 370
#     4  10  21  40  63  89 122 163 208 256 304 364
#     4  11  23  37  62  94 124 164 208 256 310 367
#
# _framework density 23.335523999999999
#
# number of rings (size 3 to 8) (size 9 to 14) (size 15 to 20)
#    0.000    1.750    0.000    4.500    0.000   12.500 
#    0.000    1.250    0.000    0.000    0.000    0.000 
#    0.000    0.000    0.000    0.000    0.000    0.000 
#
# Total GULP energy -179203.686261 kJ/mol
# GULP energy per Si atom -5600.115196 kJ/mol
# Density = 2.328241 g / cm^3
# Si number density = 23.335524 Si / 1000 Ang^3
#
#
#
# Elastic Constant Matrix: (Units=GPa)
#
#
# Indices 1 2 3 4 5 6 
#
# 1 88.8856 22.1967 32.9736 0.0000 3.9410 0.0000
# 2 22.1967 74.0392 25.5471 0.0000 0.4540 0.0000
# 3 32.9736 25.5471 97.7171 0.0000 2.0811 0.0000
# 4 0.0000 0.0000 0.0000 35.7923 0.0000 5.0713
# 5 3.9410 0.4540 2.0811 0.0000 21.6102 0.0000
# 6 0.0000 0.0000 0.0000 5.0713 0.0000 49.5144
#
#
#
# Elastic Compliance Matrix: (Units=1/GPa)
#
#
# Indices 1 2 3 4 5 6 
#
# 1 0.013417 -0.002707 -0.003777 0.000000 -0.002026 0.000000
# 2 -0.002707 0.015392 -0.003121 0.000000 0.000471 0.000000
# 3 -0.003777 -0.003121 0.012333 0.000000 -0.000433 0.000000
# 4 0.000000 0.000000 0.000000 0.028350 0.000000 -0.002904
# 5 -0.002026 0.000471 -0.000433 0.000000 0.046676 0.000000
# 6 0.000000 0.000000 0.000000 -0.002904 0.000000 0.020494
#
#
# Mechanical properties :
#
#
# Convention : Reuss Voigt Hill
#
# Bulk Modulus (GPa) = 45.59185 46.89741 46.24463
# Shear Modulus (GPa) = 30.64075 33.37835 32.00955
#
# Velocity S-wave (km/s) = 3.62754 3.78612 3.70768
# Velocity P-wave (km/s) = 6.09305 6.26527 6.17976
#
# Compressibility (1/GPa) = 0.02193374
#
# Stress axis : x y z
#
# Youngs Moduli (GPa) = 74.53095 64.96987 81.08262
#
# Poissons Ratio (x) = 0.17587 0.30622
# Poissons Ratio (y) = 0.20175 0.25303
# Poissons Ratio (z) = 0.28148 0.20275
#
# Static dielectric constant tensor:
#      x y z
#    x 1.842800 0.000000 0.030850 
#    y 0.000000 1.934680 0.000000 
#    z 0.030850 0.000000 1.839510 
# 
# From -- ./inp_files/78796.got.cif
#   From: 2010.05.17/outbox.cif.g08.bks.cpg/sg14_40_cif.got.tgz:78796.got - 2010.06.03 17:49:19.
