data_PCOD9245399
_publ_section_title
;
Structure prediction by ZEFSAII (Michael W. Deem and Ramdas Pophale) SiO2 
 PCOD9245399
Probable space group: P 21/C
;
_chemical_formula_sum "Si O2"
_cell_formula_units_Z 28
_cell_length_a 7.210636
_cell_length_b 12.561965
_cell_length_c 22.498148
_cell_angle_alpha 90.000000
_cell_angle_beta 133.523694
_cell_angle_gamma 90.000000
_cell_volume 1477.643357
_symmetry_space_group_name_H-M "P 21/C"
_symmetry_group_IT_number 14
_symmetry_cell_setting 'monoclinic'
loop_
_space_group_symop_operation_xyz
x,y,z
-x,1/2+y,1/2-z
-x,-y,-z
x,1/2-y,1/2+z
loop_
_atom_site_type_symbol
_atom_site_label
_atom_site_fract_x
_atom_site_fract_y
_atom_site_fract_z
Si Si1 0.171058 0.569968 0.196309
Si Si2 0.945794 0.120561 0.007178
Si Si3 0.372757 0.703282 0.134376
Si Si4 0.578901 0.592429 0.064772
Si Si5 0.290485 0.169088 0.699297
Si Si6 0.487967 0.712334 0.354360
Si Si7 0.265881 0.765219 0.934465
O O1 0.202466 0.638110 0.143199
O O2 0.286663 0.453168 0.215518
O O3 0.332357 0.628061 0.281866
O O4 0.872088 0.570082 0.143986
O O5 0.806166 0.132869 0.040807
O O6 0.226081 0.172311 0.070801
O O7 0.774671 0.195576 0.926553
O O8 0.000000 0.000000 0.000000
O O9 0.444525 0.618493 0.098486
O O10 0.605231 0.753593 0.225039
O O11 0.500000 0.500000 0.000000
O O12 0.504731 0.701834 0.014979
O O13 0.467441 0.188436 0.680369
O O14 0.996355 0.197535 0.619352
O O15 0.336775 0.724331 0.381759
#
# Coordination Sequence:
#
# PCOD9245399 Si02
#       7
#     4   4   4   4   4   4   4
#     4  11  22  38  61  87 118 159 201 247 304 358
#     4  10  21  40  61  83 117 156 197 245 300 352
#     4  10  23  39  58  90 121 153 207 253 293 373
#     4  11  22  37  59  89 118 155 197 249 308 354
#     4  10  21  38  58  82 118 156 191 245 299 353
#     4  10  22  38  58  85 115 153 197 240 296 359
#     4  10  21  39  57  86 120 150 199 247 291 365
#
# _framework density 18.949093000000001
#
# number of rings (size 3 to 8) (size 9 to 14) (size 15 to 20)
#    0.000    1.714    1.429    2.571    2.000    1.143 
#    0.000    4.286    0.000    0.000    0.000    0.000 
#    0.000    0.000    0.000    0.000    0.000    0.000 
#
# Total GULP energy -155997.099616 kJ/mol
# GULP energy per Si atom -5571.324986 kJ/mol
# Density = 1.890596 g / cm^3
# Si number density = 18.949093 Si / 1000 Ang^3
#
#
#
# Elastic Constant Matrix: (Units=GPa)
#
#
# Indices 1 2 3 4 5 6 
#
# 1 87.6384 32.8994 5.8719 0.0000 -28.6843 0.0000
# 2 32.8994 49.8668 -8.5614 0.0000 -10.3032 0.0000
# 3 5.8719 -8.5614 38.0098 0.0000 -5.8216 0.0000
# 4 0.0000 0.0000 0.0000 23.0072 0.0000 -2.8228
# 5 -28.6843 -10.3032 -5.8216 0.0000 43.8145 0.0000
# 6 0.0000 0.0000 0.0000 -2.8228 0.0000 20.5317
#
#
#
# Elastic Compliance Matrix: (Units=1/GPa)
#
#
# Indices 1 2 3 4 5 6 
#
# 1 0.018930 -0.011284 -0.004057 0.000000 0.009200 0.000000
# 2 -0.011284 0.029050 0.008372 0.000000 0.000556 0.000000
# 3 -0.004057 0.008372 0.029313 0.000000 0.003207 0.000000
# 4 0.000000 0.000000 0.000000 0.044210 0.000000 0.006078
# 5 0.009200 0.000556 0.003207 0.000000 0.029404 0.000000
# 6 0.000000 0.000000 0.000000 0.006078 0.000000 0.049541
#
#
# Mechanical properties :
#
#
# Convention : Reuss Voigt Hill
#
# Bulk Modulus (GPa) = 15.78441 26.21498 20.99969
# Shear Modulus (GPa) = 21.23098 27.15769 24.19433
#
# Velocity S-wave (km/s) = 3.35090 3.78986 3.57712
# Velocity P-wave (km/s) = 4.82901 5.74588 5.30728
#
# Compressibility (1/GPa) = 0.06335367
#
# Stress axis : x y z
#
# Youngs Moduli (GPa) = 52.82673 34.42285 34.11495
#
# Poissons Ratio (x) = 0.38844 0.13840
# Poissons Ratio (y) = 0.59612 -0.28560
# Poissons Ratio (z) = 0.21432 -0.28818
#
# Static dielectric constant tensor:
#      x y z
#    x 1.653800 0.000000 -0.035940 
#    y 0.000000 1.690370 0.000000 
#    z -0.035940 0.000000 1.674180 
# 
# From -- ./inp_files/63440.got.cif
#   From: 2010.05.17/outbox.cif.g08.bks.cpg/sg14_32_cif.got.tgz:63440.got - 2010.06.03 17:49:19.
