data_PCOD9245944
_publ_section_title
;
Structure prediction by ZEFSAII (Michael W. Deem and Ramdas Pophale) SiO2 
 PCOD9245944
Probable space group: P 21/C
;
_chemical_formula_sum "Si O2"
_cell_formula_units_Z 28
_cell_length_a 21.248583
_cell_length_b 7.076084
_cell_length_c 19.054611
_cell_angle_alpha 90.000000
_cell_angle_beta 20.353101
_cell_angle_gamma 90.000000
_cell_volume 996.456901
_symmetry_space_group_name_H-M "P 21/C"
_symmetry_group_IT_number 14
_symmetry_cell_setting 'monoclinic'
loop_
_space_group_symop_operation_xyz
x,y,z
-x,1/2+y,1/2-z
-x,-y,-z
x,1/2-y,1/2+z
loop_
_atom_site_type_symbol
_atom_site_label
_atom_site_fract_x
_atom_site_fract_y
_atom_site_fract_z
Si Si1 0.380421 0.859949 0.537427
Si Si2 0.549046 0.113466 0.161446
Si Si3 0.853047 0.652667 0.944498
Si Si4 0.994257 0.230688 0.571180
Si Si5 0.646010 0.769230 0.873870
Si Si6 0.428573 0.826620 0.220589
Si Si7 0.106132 0.555840 0.549827
O O1 0.393286 0.791505 0.443952
O O2 0.561069 0.803715 0.389670
O O3 0.357731 0.081950 0.572378
O O4 0.207418 0.744964 0.745571
O O5 0.340886 0.039094 0.352522
O O6 0.562721 0.165863 0.225779
O O7 0.626409 0.924390 0.050181
O O8 0.957500 0.613679 0.763843
O O9 0.804465 0.871549 0.005277
O O10 0.973083 0.620194 0.888759
O O11 0.030447 0.449207 0.560112
O O12 0.150471 0.172566 0.354606
O O13 0.500307 0.890548 0.067638
O O14 0.232537 0.730139 0.399860
#
# Coordination Sequence:
#
# PCOD9245944 Si02
#       7
#     4   4   4   4   4   4   4
#     4  11  22  44  72  97 141 182 230 286 346 425
#     4  12  25  44  69 104 134 188 234 300 355 415
#     4  10  21  39  66 100 139 174 235 288 344 413
#     4  10  23  42  72 100 141 182 234 279 354 419
#     4  11  23  44  68 104 139 190 232 279 358 426
#     4  12  26  42  70  99 141 180 240 294 359 419
#     4  10  21  40  64 104 134 184 229 290 349 412
#
# _framework density 28.099561999999999
#
# number of rings (size 3 to 8) (size 9 to 14) (size 15 to 20)
#    0.857    0.286    1.429    6.429    4.000    0.571 
#    0.000    0.714    0.000    0.000    0.000    0.000 
#    0.000    0.000    0.000    0.000    0.000    0.000 
#
# Total GULP energy -156192.659655 kJ/mol
# GULP energy per Si atom -5578.309273 kJ/mol
# Density = 2.803561 g / cm^3
# Si number density = 28.099562 Si / 1000 Ang^3
#
#
#
# Elastic Constant Matrix: (Units=GPa)
#
#
# Indices 1 2 3 4 5 6 
#
# 1 77.6480 7.7170 31.9779 0.0000 14.0934 0.0000
# 2 7.7170 125.4725 0.0285 0.0000 5.9451 0.0000
# 3 31.9779 0.0285 133.1480 0.0000 27.0279 0.0000
# 4 0.0000 0.0000 0.0000 37.3989 0.0000 4.0235
# 5 14.0934 5.9451 27.0279 0.0000 53.8843 0.0000
# 6 0.0000 0.0000 0.0000 4.0235 0.0000 33.4795
#
#
#
# Elastic Compliance Matrix: (Units=1/GPa)
#
#
# Indices 1 2 3 4 5 6 
#
# 1 0.014619 -0.000794 -0.003064 0.000000 -0.002199 0.000000
# 2 -0.000794 0.008060 0.000364 0.000000 -0.000864 0.000000
# 3 -0.003064 0.000364 0.009009 0.000000 -0.003758 0.000000
# 4 0.000000 0.000000 0.000000 0.027089 0.000000 -0.003256
# 5 -0.002199 -0.000864 -0.003758 0.000000 0.021114 0.000000
# 6 0.000000 0.000000 0.000000 -0.003256 0.000000 0.030260
#
#
# Mechanical properties :
#
#
# Convention : Reuss Voigt Hill
#
# Bulk Modulus (GPa) = 40.48749 46.19059 43.33904
# Shear Modulus (GPa) = 39.88147 44.72222 42.30185
#
# Velocity S-wave (km/s) = 3.77144 3.99377 3.88419
# Velocity P-wave (km/s) = 5.77969 6.14335 5.96429
#
# Compressibility (1/GPa) = 0.02469899
#
# Stress axis : x y z
#
# Youngs Moduli (GPa) = 68.40563 124.07576 110.99885
#
# Poissons Ratio (x) = 0.09854 0.34015
# Poissons Ratio (y) = 0.05433 -0.04046
# Poissons Ratio (z) = 0.20962 -0.04522
#
# Static dielectric constant tensor:
#      x y z
#    x 2.209850 0.000000 -0.070350 
#    y 0.000000 2.349380 0.000000 
#    z -0.070350 0.000000 2.363200 
# 
# From -- ./inp_files/70174.got.cif
#   From: 2010.05.17/outbox.cif.g08.bks.cpg/sg14_36_cif.got.tgz:70174.got - 2010.06.03 17:49:19.
