data_PCOD9245861
_publ_section_title
;
Structure prediction by ZEFSAII (Michael W. Deem and Ramdas Pophale) SiO2 
 PCOD9245861
Probable space group: P 21/C
;
_chemical_formula_sum "Si O2"
_cell_formula_units_Z 32
_cell_length_a 24.494388
_cell_length_b 5.425171
_cell_length_c 10.606600
_cell_angle_alpha 90.000000
_cell_angle_beta 111.314582
_cell_angle_gamma 90.000000
_cell_volume 1313.061634
_symmetry_space_group_name_H-M "P 21/C"
_symmetry_group_IT_number 14
_symmetry_cell_setting 'monoclinic'
loop_
_space_group_symop_operation_xyz
x,y,z
-x,1/2+y,1/2-z
-x,-y,-z
x,1/2-y,1/2+z
loop_
_atom_site_type_symbol
_atom_site_label
_atom_site_fract_x
_atom_site_fract_y
_atom_site_fract_z
Si Si1 0.069881 0.464443 0.848232
Si Si2 0.736443 0.587305 0.997793
Si Si3 0.377775 0.324344 0.628372
Si Si4 0.168001 0.187327 0.244130
Si Si5 0.215795 0.673733 0.177705
Si Si6 0.665605 0.271192 0.590033
Si Si7 0.568077 0.552087 0.071726
Si Si8 0.958991 0.471700 0.587006
O O1 0.108674 0.413413 0.757591
O O2 0.078095 0.220533 0.938035
O O3 0.002154 0.472514 0.745015
O O4 0.077771 0.721198 0.928370
O O5 0.686230 0.726477 0.879934
O O6 0.767499 0.360955 0.953828
O O7 0.789162 0.737756 0.100174
O O8 0.696744 0.481766 0.075708
O O9 0.358821 0.585226 0.551294
O O10 0.409988 0.189560 0.537373
O O11 0.418306 0.313978 0.785017
O O12 0.172257 0.448424 0.176838
O O13 0.193533 0.946131 0.193278
O O14 0.278684 0.607833 0.296164
O O15 0.608411 0.193999 0.618952
O O16 0.500000 0.500000 0.000000
O O17 0.000000 0.500000 0.500000
#
# Coordination Sequence:
#
# PCOD9245861 Si02
#       8
#     4   4   4   4   4   4   4   4
#     4  10  22  39  59  91 128 161 221 274 319 401
#     4  10  23  38  63  91 122 169 212 265 332 401
#     4  11  23  45  69  91 137 170 229 280 358 420
#     4  11  24  39  60  96 129 168 215 276 329 393
#     4  11  23  39  63  92 130 171 219 263 338 405
#     4  10  22  42  66  92 125 173 216 276 339 417
#     4  11  27  43  68 101 129 177 228 290 353 418
#     4  10  21  39  64  86 122 174 215 265 337 393
#
# _framework density 24.370521
#
# number of rings (size 3 to 8) (size 9 to 14) (size 15 to 20)
#    0.000    1.500    1.250    2.625    7.000    3.500 
#    0.000    0.000    0.000    0.000    0.000    0.000 
#    0.000    0.000    0.000    0.000    0.000    0.000 
#
# Total GULP energy -178542.491333 kJ/mol
# GULP energy per Si atom -5579.452854 kJ/mol
# Density = 2.431505 g / cm^3
# Si number density = 24.370521 Si / 1000 Ang^3
#
#
#
# Elastic Constant Matrix: (Units=GPa)
#
#
# Indices 1 2 3 4 5 6 
#
# 1 73.3753 19.2015 9.6162 0.0000 -0.0674 0.0000
# 2 19.2015 115.4596 19.4445 0.0000 -6.6731 0.0000
# 3 9.6162 19.4445 80.0304 0.0000 3.4160 0.0000
# 4 0.0000 0.0000 0.0000 28.9310 0.0000 -6.5184
# 5 -0.0674 -6.6731 3.4160 0.0000 40.4806 0.0000
# 6 0.0000 0.0000 0.0000 -6.5184 0.0000 41.3105
#
#
#
# Elastic Compliance Matrix: (Units=1/GPa)
#
#
# Indices 1 2 3 4 5 6 
#
# 1 0.014360 -0.002203 -0.001180 0.000000 -0.000240 0.000000
# 2 -0.002203 0.009484 -0.002114 0.000000 0.001738 0.000000
# 3 -0.001180 -0.002114 0.013213 0.000000 -0.001465 0.000000
# 4 0.000000 0.000000 0.000000 0.035839 0.000000 0.005655
# 5 -0.000240 0.001738 -0.001465 0.000000 0.025113 0.000000
# 6 0.000000 0.000000 0.000000 0.005655 0.000000 0.025099
#
#
# Mechanical properties :
#
#
# Convention : Reuss Voigt Hill
#
# Bulk Modulus (GPa) = 38.36861 40.59885 39.48373
# Shear Modulus (GPa) = 35.01668 36.85128 35.93398
#
# Velocity S-wave (km/s) = 3.79469 3.89282 3.84407
# Velocity P-wave (km/s) = 5.91418 6.07459 5.99492
#
# Compressibility (1/GPa) = 0.02606297
#
# Stress axis : x y z
#
# Youngs Moduli (GPa) = 69.64015 105.44220 75.68233
#
# Poissons Ratio (x) = 0.23231 0.08930
# Poissons Ratio (y) = 0.15343 0.15997
# Poissons Ratio (z) = 0.08217 0.22287
#
# Static dielectric constant tensor:
#      x y z
#    x 1.951850 0.000000 0.023330 
#    y 0.000000 2.016070 0.000000 
#    z 0.023330 0.000000 2.045600 
# 
# From -- ./inp_files/35610.got.cif
#   From: 2010.05.17/outbox.cif.g08.bks.cpg/sg14_18_cif.got.tgz:35610.got - 2010.06.03 17:49:19.
