data_PCOD9245874
_publ_section_title
;
Structure prediction by ZEFSAII (Michael W. Deem and Ramdas Pophale) SiO2 
 PCOD9245874
Probable space group: P 21/C
;
_chemical_formula_sum "Si O2"
_cell_formula_units_Z 28
_cell_length_a 18.299302
_cell_length_b 9.198835
_cell_length_c 12.378379
_cell_angle_alpha 90.000000
_cell_angle_beta 147.235645
_cell_angle_gamma 90.000000
_cell_volume 1127.656990
_symmetry_space_group_name_H-M "P 21/C"
_symmetry_group_IT_number 14
_symmetry_cell_setting 'monoclinic'
loop_
_space_group_symop_operation_xyz
x,y,z
-x,1/2+y,1/2-z
-x,-y,-z
x,1/2-y,1/2+z
loop_
_atom_site_type_symbol
_atom_site_label
_atom_site_fract_x
_atom_site_fract_y
_atom_site_fract_z
Si Si1 0.708458 0.424578 0.879229
Si Si2 0.311167 0.692055 0.814942
Si Si3 0.212967 0.390308 0.611394
Si Si4 0.225678 0.224779 0.842067
Si Si5 0.428014 0.209089 0.741864
Si Si6 0.148884 0.548983 0.159970
Si Si7 0.057280 0.017132 0.193153
O O1 0.663045 0.274372 0.768419
O O2 0.590021 0.541366 0.746764
O O3 0.803490 0.487834 0.901769
O O4 0.808851 0.426996 0.106097
O O5 0.287978 0.526074 0.760658
O O6 0.182435 0.780721 0.702026
O O7 0.431745 0.727505 0.046153
O O8 0.186822 0.274980 0.673524
O O9 0.311798 0.310243 0.651773
O O10 0.070514 0.460865 0.396185
O O11 0.114224 0.316937 0.772638
O O12 0.230470 0.050862 0.845337
O O13 0.375478 0.282267 0.054605
O O14 0.000000 0.500000 0.000000
O O15 0.000000 0.000000 0.000000
#
# Coordination Sequence:
#
# PCOD9245874 Si02
#       7
#     4   4   4   4   4   4   4
#     4   9  21  39  65  88 125 162 205 262 306 373
#     4  10  23  39  63  93 125 163 210 254 309 376
#     4  11  21  40  60  92 128 157 207 263 308 373
#     4  10  22  40  62  91 124 170 202 260 313 374
#     4  11  22  41  64  88 127 169 209 248 316 377
#     4  10  21  39  64  91 125 157 217 258 311 370
#     4   9  20  37  61  92 123 159 204 254 319 365
#
# _framework density 24.830244
#
# number of rings (size 3 to 8) (size 9 to 14) (size 15 to 20)
#    0.857    1.143    1.429    1.714    2.000    2.286 
#    0.000    7.143    0.000    0.000    0.000    0.000 
#    0.000    0.000    0.000    0.000    0.000    0.000 
#
# Total GULP energy -156171.027863 kJ/mol
# GULP energy per Si atom -5577.536709 kJ/mol
# Density = 2.477373 g / cm^3
# Si number density = 24.830244 Si / 1000 Ang^3
#
#
#
# Elastic Constant Matrix: (Units=GPa)
#
#
# Indices 1 2 3 4 5 6 
#
# 1 37.1411 7.9855 -7.2234 0.0000 10.3130 0.0000
# 2 7.9855 104.0868 4.7177 0.0000 -3.2473 0.0000
# 3 -7.2234 4.7177 113.4705 0.0000 7.7637 0.0000
# 4 0.0000 0.0000 0.0000 31.8457 0.0000 -4.1426
# 5 10.3130 -3.2473 7.7637 0.0000 29.5310 0.0000
# 6 0.0000 0.0000 0.0000 -4.1426 0.0000 33.6339
#
#
#
# Elastic Compliance Matrix: (Units=1/GPa)
#
#
# Indices 1 2 3 4 5 6 
#
# 1 0.031486 -0.002927 0.002954 0.000000 -0.012094 0.000000
# 2 -0.002927 0.009938 -0.000758 0.000000 0.002314 0.000000
# 3 0.002954 -0.000758 0.009276 0.000000 -0.003553 0.000000
# 4 0.000000 0.000000 0.000000 0.031913 0.000000 0.003931
# 5 -0.012094 0.002314 -0.003553 0.000000 0.039275 0.000000
# 6 0.000000 0.000000 0.000000 0.003931 0.000000 0.030216
#
#
# Mechanical properties :
#
#
# Convention : Reuss Voigt Hill
#
# Bulk Modulus (GPa) = 20.30952 29.51756 24.91354
# Shear Modulus (GPa) = 29.41544 35.61669 32.51606
#
# Velocity S-wave (km/s) = 3.44563 3.79147 3.62268
# Velocity P-wave (km/s) = 4.90172 5.57499 5.24916
#
# Compressibility (1/GPa) = 0.04923799
#
# Stress axis : x y z
#
# Youngs Moduli (GPa) = 31.75990 100.61923 107.81073
#
# Poissons Ratio (x) = 0.29449 -0.31843
# Poissons Ratio (y) = 0.09296 0.08171
# Poissons Ratio (z) = -0.09380 0.07626
#
# Static dielectric constant tensor:
#      x y z
#    x 2.153800 0.000000 -0.031260 
#    y 0.000000 1.959540 0.000000 
#    z -0.031260 0.000000 2.017650 
# 
# From -- ./inp_files/50284.got.cif
#   From: 2010.05.17/outbox.cif.g08.bks.cpg/sg14_26_cif.got.tgz:50284.got - 2010.06.03 17:49:19.
