data_PCOD9245980
_publ_section_title
;
Structure prediction by ZEFSAII (Michael W. Deem and Ramdas Pophale) SiO2 
 PCOD9245980
Probable space group: P 21/C
;
_chemical_formula_sum "Si O2"
_cell_formula_units_Z 32
_cell_length_a 28.339656
_cell_length_b 5.519261
_cell_length_c 11.425686
_cell_angle_alpha 90.000000
_cell_angle_beta 45.583210
_cell_angle_gamma 90.000000
_cell_volume 1276.493927
_symmetry_space_group_name_H-M "P 21/C"
_symmetry_group_IT_number 14
_symmetry_cell_setting 'monoclinic'
loop_
_space_group_symop_operation_xyz
x,y,z
-x,1/2+y,1/2-z
-x,-y,-z
x,1/2-y,1/2+z
loop_
_atom_site_type_symbol
_atom_site_label
_atom_site_fract_x
_atom_site_fract_y
_atom_site_fract_z
Si Si1 0.457375 0.461852 0.956144
Si Si2 0.101440 0.807548 0.050026
Si Si3 0.863251 0.628874 0.728179
Si Si4 0.028272 0.357277 0.840545
Si Si5 0.577877 0.453847 0.571102
Si Si6 0.794839 0.016001 0.703063
Si Si7 0.689166 0.334554 0.567094
Si Si8 0.727479 0.835278 0.609433
O O1 0.506724 0.461704 0.758883
O O2 0.418965 0.205385 0.008042
O O3 0.416678 0.710451 0.015182
O O4 0.500000 0.500000 0.000000
O O5 0.031311 0.684724 0.144979
O O6 0.085874 0.996349 0.176642
O O7 0.166881 0.660730 0.964550
O O8 0.124521 0.922460 0.887461
O O9 0.930827 0.627841 0.684897
O O10 0.796110 0.644589 0.917294
O O11 0.853293 0.868708 0.664771
O O12 0.000000 0.500000 0.000000
O O13 0.628559 0.407596 0.588662
O O14 0.752219 0.163247 0.869773
O O15 0.744361 0.850748 0.717700
O O16 0.698883 0.570382 0.631566
O O17 0.687342 0.072652 0.633413
#
# Coordination Sequence:
#
# PCOD9245980 Si02
#       8
#     4   4   4   4   4   4   4   4
#     4  10  21  39  67 103 139 186 220 275 335 374
#     4  12  26  44  65  92 126 159 217 268 350 411
#     4  11  24  46  65  91 123 168 211 275 341 410
#     4  12  26  42  66  92 121 163 211 273 344 416
#     4  10  22  40  66  98 143 176 233 275 318 397
#     4  11  26  43  65  94 126 171 216 275 337 404
#     4  11  25  46  65 101 133 182 227 276 328 389
#     4  11  26  41  70  92 131 175 224 273 336 393
#
# _framework density 25.068666
#
# number of rings (size 3 to 8) (size 9 to 14) (size 15 to 20)
#    0.000    1.000    2.500    3.000    8.750    2.000 
#    0.000    0.000    0.000    0.000    0.000    0.000 
#    0.000    0.000    0.000    0.000    0.000    0.000 
#
# Total GULP energy -178960.679049 kJ/mol
# GULP energy per Si atom -5592.521220 kJ/mol
# Density = 2.501161 g / cm^3
# Si number density = 25.068666 Si / 1000 Ang^3
#
#
#
# Elastic Constant Matrix: (Units=GPa)
#
#
# Indices 1 2 3 4 5 6 
#
# 1 79.1919 25.8790 -10.1209 0.0000 6.7584 0.0000
# 2 25.8790 124.8183 28.0565 0.0000 -2.5954 0.0000
# 3 -10.1209 28.0565 63.4442 0.0000 -8.1823 0.0000
# 4 0.0000 0.0000 0.0000 34.9258 0.0000 1.9595
# 5 6.7584 -2.5954 -8.1823 0.0000 36.1636 0.0000
# 6 0.0000 0.0000 0.0000 1.9595 0.0000 51.7090
#
#
#
# Elastic Compliance Matrix: (Units=1/GPa)
#
#
# Indices 1 2 3 4 5 6 
#
# 1 0.014574 -0.003916 0.003779 0.000000 -0.002150 0.000000
# 2 -0.003916 0.009950 -0.004984 0.000000 0.000318 0.000000
# 3 0.003779 -0.004984 0.018986 0.000000 0.003232 0.000000
# 4 0.000000 0.000000 0.000000 0.028693 0.000000 -0.001087
# 5 -0.002150 0.000318 0.003232 0.000000 0.028808 0.000000
# 6 0.000000 0.000000 0.000000 -0.001087 0.000000 0.019380
#
#
# Mechanical properties :
#
#
# Convention : Reuss Voigt Hill
#
# Bulk Modulus (GPa) = 30.05823 39.45372 34.75598
# Shear Modulus (GPa) = 35.28052 39.46900 37.37476
#
# Velocity S-wave (km/s) = 3.75554 3.97222 3.86540
# Velocity P-wave (km/s) = 5.55174 6.06716 5.81517
#
# Compressibility (1/GPa) = 0.03326876
#
# Stress axis : x y z
#
# Youngs Moduli (GPa) = 68.61706 100.49834 52.67162
#
# Poissons Ratio (x) = 0.39353 -0.19906
# Poissons Ratio (y) = 0.26869 0.26251
# Poissons Ratio (z) = -0.25932 0.50088
#
# Static dielectric constant tensor:
#      x y z
#    x 1.955870 0.000000 -0.003280 
#    y 0.000000 2.058440 0.000000 
#    z -0.003280 0.000000 1.987230 
# 
# From -- ./inp_files/36040.got.cif
#   From: 2010.05.17/outbox.cif.g08.bks.cpg/sg14_19_cif.got.tgz:36040.got - 2010.06.03 17:49:19.
