data_PCOD9245817
_publ_section_title
;
Structure prediction by ZEFSAII (Michael W. Deem and Ramdas Pophale) SiO2 
 PCOD9245817
Probable space group: P 21/C
;
_chemical_formula_sum "Si O2"
_cell_formula_units_Z 28
_cell_length_a 7.464535
_cell_length_b 27.138101
_cell_length_c 5.778945
_cell_angle_alpha 90.000000
_cell_angle_beta 92.600184
_cell_angle_gamma 90.000000
_cell_volume 1169.454703
_symmetry_space_group_name_H-M "P 21/C"
_symmetry_group_IT_number 14
_symmetry_cell_setting 'monoclinic'
loop_
_space_group_symop_operation_xyz
x,y,z
-x,1/2+y,1/2-z
-x,-y,-z
x,1/2-y,1/2+z
loop_
_atom_site_type_symbol
_atom_site_label
_atom_site_fract_x
_atom_site_fract_y
_atom_site_fract_z
Si Si1 0.142286 0.542411 0.051564
Si Si2 0.964957 0.367054 0.204935
Si Si3 0.852343 0.263802 0.061355
Si Si4 0.556406 0.732793 0.994793
Si Si5 0.624481 0.527572 0.691086
Si Si6 0.121887 0.085993 0.103078
Si Si7 0.646894 0.620525 0.995508
O O1 0.322181 0.513948 0.119498
O O2 0.049536 0.569111 0.262450
O O3 0.000000 0.500000 0.000000
O O4 0.141843 0.582633 0.850157
O O5 0.044338 0.366633 0.466256
O O6 0.148971 0.368467 0.072337
O O7 0.852302 0.321343 0.119507
O O8 0.932659 0.242361 0.307200
O O9 0.646800 0.245708 0.024763
O O10 0.635816 0.748727 0.747367
O O11 0.553241 0.673213 0.000619
O O12 0.500000 0.500000 0.500000
O O13 0.808620 0.544463 0.570922
O O14 0.571799 0.578633 0.817839
O O15 0.304616 0.097378 0.253411
#
# Coordination Sequence:
#
# PCOD9245817 Si02
#       7
#     4   4   4   4   4   4   4
#     4  11  20  41  61  89 128 169 212 254 323 392
#     4  10  23  38  66  94 120 170 216 268 323 386
#     4  10  24  45  66  96 130 165 219 276 330 395
#     4  10  24  45  68  91 130 176 213 268 343 394
#     4  11  24  39  60  97 129 167 216 268 320 385
#     4  10  21  39  63  86 130 167 214 260 325 386
#     4  10  23  41  61  95 126 163 219 265 322 396
#
# _framework density 23.942781
#
# number of rings (size 3 to 8) (size 9 to 14) (size 15 to 20)
#    0.000    1.714    4.286    0.429    8.000    4.000 
#    2.571    0.000    0.000    0.000    0.000    0.000 
#    0.000    0.000    0.000    0.000    0.000    0.000 
#
# Total GULP energy -156121.603380 kJ/mol
# GULP energy per Si atom -5575.771549 kJ/mol
# Density = 2.388829 g / cm^3
# Si number density = 23.942781 Si / 1000 Ang^3
#
#
#
# Elastic Constant Matrix: (Units=GPa)
#
#
# Indices 1 2 3 4 5 6 
#
# 1 64.7539 4.5816 13.0054 0.0000 4.4467 0.0000
# 2 4.5816 116.9866 53.3627 0.0000 19.1633 0.0000
# 3 13.0054 53.3627 146.1498 0.0000 12.6713 0.0000
# 4 0.0000 0.0000 0.0000 35.6639 0.0000 5.8254
# 5 4.4467 19.1633 12.6713 0.0000 23.4956 0.0000
# 6 0.0000 0.0000 0.0000 5.8254 0.0000 27.0698
#
#
#
# Elastic Compliance Matrix: (Units=1/GPa)
#
#
# Indices 1 2 3 4 5 6 
#
# 1 0.015862 0.000418 -0.001337 0.000000 -0.002622 0.000000
# 2 0.000418 0.011366 -0.003542 0.000000 -0.007439 0.000000
# 3 -0.001337 -0.003542 0.008374 0.000000 -0.001374 0.000000
# 4 0.000000 0.000000 0.000000 0.029061 0.000000 -0.006254
# 5 -0.002622 -0.007439 -0.001374 0.000000 0.049866 0.000000
# 6 0.000000 0.000000 0.000000 -0.006254 0.000000 0.038287
#
#
# Mechanical properties :
#
#
# Convention : Reuss Voigt Hill
#
# Bulk Modulus (GPa) = 37.48157 52.19889 44.84023
# Shear Modulus (GPa) = 29.30301 34.37524 31.83913
#
# Velocity S-wave (km/s) = 3.50219 3.79321 3.65060
# Velocity P-wave (km/s) = 5.66060 6.40573 6.04466
#
# Compressibility (1/GPa) = 0.02667978
#
# Stress axis : x y z
#
# Youngs Moduli (GPa) = 63.04356 87.98226 119.42122
#
# Poissons Ratio (x) = -0.03678 0.15965
# Poissons Ratio (y) = -0.02636 0.42301
# Poissons Ratio (z) = 0.08428 0.31165
#
# Static dielectric constant tensor:
#      x y z
#    x 1.888490 0.000000 0.032130 
#    y 0.000000 1.932950 0.000000 
#    z 0.032130 0.000000 2.020170 
# 
# From -- ./inp_files/1933.got.cif
#   From: 2010.05.17/outbox.cif.g08.bks.cpg/sg14_1_cif.got.tgz:1933.got - 2010.06.03 17:49:19.
