data_PCOD9245120
_publ_section_title
;
Structure prediction by ZEFSAII (Michael W. Deem and Ramdas Pophale) SiO2 
 PCOD9245120
Probable space group: P 21/C
;
_chemical_formula_sum "Si O2"
_cell_formula_units_Z 32
_cell_length_a 6.521372
_cell_length_b 22.776750
_cell_length_c 11.021389
_cell_angle_alpha 90.000000
_cell_angle_beta 91.923340
_cell_angle_gamma 90.000000
_cell_volume 1636.147005
_symmetry_space_group_name_H-M "P 21/C"
_symmetry_group_IT_number 14
_symmetry_cell_setting 'monoclinic'
loop_
_space_group_symop_operation_xyz
x,y,z
-x,1/2+y,1/2-z
-x,-y,-z
x,1/2-y,1/2+z
loop_
_atom_site_type_symbol
_atom_site_label
_atom_site_fract_x
_atom_site_fract_y
_atom_site_fract_z
Si Si1 0.334783 0.567357 0.071967
Si Si2 0.692729 0.488525 0.178634
Si Si3 0.298970 0.637008 0.711235
Si Si4 0.986008 0.792199 0.361823
Si Si5 0.018742 0.831405 0.978020
Si Si6 0.678485 0.711205 0.640556
Si Si7 0.037886 0.097180 0.264763
Si Si8 0.334071 0.164186 0.448938
O O1 0.480114 0.523179 0.151076
O O2 0.485698 0.618033 0.023730
O O3 0.161795 0.593911 0.154222
O O4 0.243555 0.532683 0.955366
O O5 0.668569 0.430971 0.258994
O O6 0.859034 0.532986 0.236170
O O7 0.510058 0.671653 0.700884
O O8 0.163373 0.666311 0.814812
O O9 0.173823 0.647337 0.584389
O O10 0.068369 0.734229 0.430586
O O11 0.853091 0.772746 0.242221
O O12 0.829209 0.826372 0.446682
O O13 0.795919 0.823603 0.036513
O O14 0.012778 0.875617 0.865928
O O15 0.587242 0.771287 0.585393
O O16 0.205748 0.137748 0.334501
#
# Coordination Sequence:
#
# PCOD9245120 Si02
#       8
#     4   4   4   4   4   4   4   4
#     4  10  22  38  66  91 118 159 208 254 307 360
#     4  10  23  41  58  93 120 158 210 257 299 353
#     4  11  24  39  64  89 123 163 204 248 309 369
#     4  10  21  40  61  90 125 157 198 250 306 369
#     4  10  24  40  58  92 124 159 205 247 304 366
#     4  10  22  39  60  89 125 156 195 253 301 366
#     4  11  22  41  64  85 125 163 203 251 300 366
#     4  10  21  36  62  92 119 153 198 255 307 355
#
# _framework density 19.558143999999999
#
# number of rings (size 3 to 8) (size 9 to 14) (size 15 to 20)
#    0.000    1.750    1.250    1.875    1.750    9.500 
#    0.000    1.250    0.000    0.000    0.000    0.000 
#    0.000    0.000    0.000    0.000    0.000    0.000 
#
# Total GULP energy -178843.164998 kJ/mol
# GULP energy per Si atom -5588.848906 kJ/mol
# Density = 1.951363 g / cm^3
# Si number density = 19.558144 Si / 1000 Ang^3
#
#
#
# Elastic Constant Matrix: (Units=GPa)
#
#
# Indices 1 2 3 4 5 6 
#
# 1 47.2075 43.9345 22.6102 0.0000 4.1853 0.0000
# 2 43.9345 111.7959 39.5257 0.0000 -2.0466 0.0000
# 3 22.6102 39.5257 73.1840 0.0000 5.3223 0.0000
# 4 0.0000 0.0000 0.0000 43.4762 0.0000 2.3062
# 5 4.1853 -2.0466 5.3223 0.0000 24.4666 0.0000
# 6 0.0000 0.0000 0.0000 2.3062 0.0000 12.8578
#
#
#
# Elastic Compliance Matrix: (Units=1/GPa)
#
#
# Indices 1 2 3 4 5 6 
#
# 1 0.035297 -0.012724 -0.003573 0.000000 -0.006325 0.000000
# 2 -0.012724 0.015767 -0.004917 0.000000 0.004565 0.000000
# 3 -0.003573 -0.004917 0.017689 0.000000 -0.003648 0.000000
# 4 0.000000 0.000000 0.000000 0.023222 0.000000 -0.004165
# 5 -0.006325 0.004565 -0.003648 0.000000 0.043129 0.000000
# 6 0.000000 0.000000 0.000000 -0.004165 0.000000 0.078521
#
#
# Mechanical properties :
#
#
# Convention : Reuss Voigt Hill
#
# Bulk Modulus (GPa) = 37.98546 49.36979 43.67762
# Shear Modulus (GPa) = 18.88031 24.56793 21.72412
#
# Velocity S-wave (km/s) = 3.11037 3.54806 3.33640
# Velocity P-wave (km/s) = 5.68886 6.48709 6.10105
#
# Compressibility (1/GPa) = 0.02632586
#
# Stress axis : x y z
#
# Youngs Moduli (GPa) = 28.33129 63.42373 56.53324
#
# Poissons Ratio (x) = 0.80699 0.20199
# Poissons Ratio (y) = 0.36048 0.27795
# Poissons Ratio (z) = 0.10123 0.31182
#
# Static dielectric constant tensor:
#      x y z
#    x 1.667370 0.000000 0.014480 
#    y 0.000000 1.680180 0.000000 
#    z 0.014480 0.000000 1.677420 
# 
# From -- ./inp_files/22089.got.cif
#   From: 2010.05.17/outbox.cif.g08.bks.cpg/sg14_12_cif.got.tgz:22089.got - 2010.06.03 17:49:19.
