data_PCOD9245511
_publ_section_title
;
Structure prediction by ZEFSAII (Michael W. Deem and Ramdas Pophale) SiO2 
 PCOD9245511
Probable space group: P 21/C
;
_chemical_formula_sum "Si O2"
_cell_formula_units_Z 28
_cell_length_a 5.216714
_cell_length_b 8.725133
_cell_length_c 28.477136
_cell_angle_alpha 90.000000
_cell_angle_beta 124.789394
_cell_angle_gamma 90.000000
_cell_volume 1064.494286
_symmetry_space_group_name_H-M "P 21/C"
_symmetry_group_IT_number 14
_symmetry_cell_setting 'monoclinic'
loop_
_space_group_symop_operation_xyz
x,y,z
-x,1/2+y,1/2-z
-x,-y,-z
x,1/2-y,1/2+z
loop_
_atom_site_type_symbol
_atom_site_label
_atom_site_fract_x
_atom_site_fract_y
_atom_site_fract_z
Si Si1 0.559612 0.594102 0.554419
Si Si2 0.325394 0.097440 0.792249
Si Si3 0.786836 0.793277 0.641977
Si Si4 0.523852 0.192084 0.238840
Si Si5 0.998901 0.677430 0.981215
Si Si6 0.291439 0.588994 0.819342
Si Si7 0.726738 0.266444 0.590620
O O1 0.500000 0.500000 0.500000
O O2 0.786957 0.741338 0.588074
O O3 0.231762 0.690947 0.527581
O O4 0.742140 0.449122 0.596464
O O5 0.382024 0.149922 0.850323
O O6 0.333563 0.251599 0.762932
O O7 0.979364 0.039967 0.745144
O O8 0.539524 0.971329 0.790801
O O9 0.129411 0.807598 0.700446
O O10 0.601278 0.942631 0.639489
O O11 0.497448 0.311942 0.193194
O O12 0.100460 0.692441 0.936460
O O13 0.643969 0.730725 0.951160
O O14 0.000000 0.500000 0.000000
O O15 0.173727 0.695681 0.849335
#
# Coordination Sequence:
#
# PCOD9245511 Si02
#       7
#     4   4   4   4   4   4   4
#     4  10  23  45  68  95 136 178 236 293 348 414
#     4  10  21  38  61  98 129 173 213 276 339 418
#     4  10  21  42  61  93 125 174 222 276 346 405
#     4  10  21  38  63  92 133 166 216 273 339 416
#     4  11  24  45  69  98 135 178 233 288 345 405
#     4  10  22  39  65  92 135 168 224 275 341 422
#     4  11  24  43  68 101 132 182 224 283 350 406
#
# _framework density 26.303571999999999
#
# number of rings (size 3 to 8) (size 9 to 14) (size 15 to 20)
#    0.000    1.714    0.000    3.429    2.000    4.571 
#   18.000    0.000    0.000    0.000    0.000    0.000 
#    0.000    0.000    0.000    0.000    0.000    0.000 
#
# Total GULP energy -155962.907787 kJ/mol
# GULP energy per Si atom -5570.103850 kJ/mol
# Density = 2.624370 g / cm^3
# Si number density = 26.303572 Si / 1000 Ang^3
#
#
#
# Elastic Constant Matrix: (Units=GPa)
#
#
# Indices 1 2 3 4 5 6 
#
# 1 92.5022 24.7018 21.6641 0.0000 -7.8824 0.0000
# 2 24.7018 131.1380 20.4878 0.0000 -14.9272 0.0000
# 3 21.6641 20.4878 92.2961 0.0000 2.5740 0.0000
# 4 0.0000 0.0000 0.0000 45.2982 0.0000 -16.5012
# 5 -7.8824 -14.9272 2.5740 0.0000 43.7463 0.0000
# 6 0.0000 0.0000 0.0000 -16.5012 0.0000 36.2846
#
#
#
# Elastic Compliance Matrix: (Units=1/GPa)
#
#
# Indices 1 2 3 4 5 6 
#
# 1 0.011988 -0.001671 -0.002491 0.000000 0.001736 0.000000
# 2 -0.001671 0.008491 -0.001568 0.000000 0.002689 0.000000
# 3 -0.002491 -0.001568 0.011814 0.000000 -0.001679 0.000000
# 4 0.000000 0.000000 0.000000 0.026459 0.000000 0.012033
# 5 0.001736 0.002689 -0.001679 0.000000 0.024188 0.000000
# 6 0.000000 0.000000 0.000000 0.012033 0.000000 0.033032
#
#
# Mechanical properties :
#
#
# Convention : Reuss Voigt Hill
#
# Bulk Modulus (GPa) = 47.99990 49.96042 48.98016
# Shear Modulus (GPa) = 37.20836 41.67132 39.43984
#
# Velocity S-wave (km/s) = 3.76516 3.98458 3.87642
# Velocity P-wave (km/s) = 6.09836 6.34067 6.22070
#
# Compressibility (1/GPa) = 0.02083338
#
# Stress axis : x y z
#
# Youngs Moduli (GPa) = 83.41464 117.76757 84.64342
#
# Poissons Ratio (x) = 0.19682 0.21088
# Poissons Ratio (y) = 0.13941 0.13269
# Poissons Ratio (z) = 0.20782 0.18461
#
# Static dielectric constant tensor:
#      x y z
#    x 2.096010 0.000000 0.028780 
#    y 0.000000 2.135380 0.000000 
#    z 0.028780 0.000000 2.242780 
# 
# From -- ./inp_files/78641.got.cif
#   From: 2010.05.17/outbox.cif.g08.bks.cpg/sg14_40_cif.got.tgz:78641.got - 2010.06.03 17:49:19.
