data_PCOD9245847
_publ_section_title
;
Structure prediction by ZEFSAII (Michael W. Deem and Ramdas Pophale) SiO2 
 PCOD9245847
Probable space group: P 21/C
;
_chemical_formula_sum "Si O2"
_cell_formula_units_Z 24
_cell_length_a 11.806275
_cell_length_b 7.720327
_cell_length_c 9.905655
_cell_angle_alpha 90.000000
_cell_angle_beta 98.335175
_cell_angle_gamma 90.000000
_cell_volume 893.346471
_symmetry_space_group_name_H-M "P 21/C"
_symmetry_group_IT_number 14
_symmetry_cell_setting 'monoclinic'
loop_
_space_group_symop_operation_xyz
x,y,z
-x,1/2+y,1/2-z
-x,-y,-z
x,1/2-y,1/2+z
loop_
_atom_site_type_symbol
_atom_site_label
_atom_site_fract_x
_atom_site_fract_y
_atom_site_fract_z
Si Si1 0.021524 0.894660 0.662677
Si Si2 0.196269 0.955734 0.509084
Si Si3 0.428831 0.084973 0.817931
Si Si4 0.879192 0.028842 0.850941
Si Si5 0.669619 0.276006 0.298781
Si Si6 0.686571 0.702623 0.440235
O O1 0.925008 0.022088 0.584472
O O2 0.041818 0.699671 0.609900
O O3 0.968380 0.893583 0.802250
O O4 0.144743 0.978782 0.656450
O O5 0.266661 0.122288 0.483482
O O6 0.275149 0.790150 0.549021
O O7 0.562348 0.100927 0.803953
O O8 0.366223 0.223631 0.707868
O O9 0.379750 0.895813 0.777252
O O10 0.402889 0.131808 0.967210
O O11 0.774730 0.122881 0.746564
O O12 0.795797 0.923422 0.936811
#
# Coordination Sequence:
#
# PCOD9245847 Si02
#       6
#     4   4   4   4   4   4
#     4  10  21  39  63  94 133 179 227 282 341 406
#     4   9  21  39  61  91 131 176 224 275 339 403
#     4  11  25  44  71 102 139 180 231 284 347 411
#     4  11  23  39  64  95 135 178 230 283 341 406
#     4  10  24  43  65  98 134 179 228 284 343 412
#     4  11  24  43  68 102 138 181 230 285 343 411
#
# _framework density 26.865279000000001
#
# number of rings (size 3 to 8) (size 9 to 14) (size 15 to 20)
#    0.000    1.667    0.000    3.000    0.000   14.000 
#    0.000    0.000    0.000    0.000    0.000    0.000 
#    0.000    0.000    0.000    0.000    0.000    0.000 
#
# Total GULP energy -133929.734648 kJ/mol
# GULP energy per Si atom -5580.405610 kJ/mol
# Density = 2.680413 g / cm^3
# Si number density = 26.865279 Si / 1000 Ang^3
#
#
#
# Elastic Constant Matrix: (Units=GPa)
#
#
# Indices 1 2 3 4 5 6 
#
# 1 158.2518 30.8340 20.6749 0.0000 -4.0990 0.0000
# 2 30.8340 135.4425 27.9606 0.0000 7.9311 0.0000
# 3 20.6749 27.9606 63.3346 0.0000 6.0508 0.0000
# 4 0.0000 0.0000 0.0000 27.1710 0.0000 -1.5870
# 5 -4.0990 7.9311 6.0508 0.0000 40.0208 0.0000
# 6 0.0000 0.0000 0.0000 -1.5870 0.0000 65.5941
#
#
#
# Elastic Compliance Matrix: (Units=1/GPa)
#
#
# Indices 1 2 3 4 5 6 
#
# 1 0.006829 -0.001256 -0.001791 0.000000 0.001219 0.000000
# 2 -0.001256 0.008401 -0.003173 0.000000 -0.001314 0.000000
# 3 -0.001791 -0.003173 0.017992 0.000000 -0.002275 0.000000
# 4 0.000000 0.000000 0.000000 0.036856 0.000000 0.000892
# 5 0.001219 -0.001314 -0.002275 0.000000 0.025716 0.000000
# 6 0.000000 0.000000 0.000000 0.000892 0.000000 0.015267
#
#
# Mechanical properties :
#
#
# Convention : Reuss Voigt Hill
#
# Bulk Modulus (GPa) = 48.12073 57.32975 52.72524
# Shear Modulus (GPa) = 38.33454 45.06114 41.69784
#
# Velocity S-wave (km/s) = 3.78155 4.09993 3.94396
# Velocity P-wave (km/s) = 6.08421 6.61805 6.35674
#
# Compressibility (1/GPa) = 0.02078106
#
# Stress axis : x y z
#
# Youngs Moduli (GPa) = 146.42501 119.02992 55.57977
#
# Poissons Ratio (x) = 0.14954 0.09956
# Poissons Ratio (y) = 0.18396 0.17637
# Poissons Ratio (z) = 0.26228 0.37772
#
# Static dielectric constant tensor:
#      x y z
#    x 2.046530 0.000000 0.064320 
#    y 0.000000 2.155630 0.000000 
#    z 0.064320 0.000000 2.636570 
# 
# From -- ./inp_files/28094.got.cif
#   From: 2010.05.17/outbox.cif.g08.bks.cpg/sg14_15_cif.got.tgz:28094.got - 2010.06.03 17:49:19.
