data_PCOD9245864
_publ_section_title
;
Structure prediction by ZEFSAII (Michael W. Deem and Ramdas Pophale) SiO2 
 PCOD9245864
Probable space group: P 21/C
;
_chemical_formula_sum "Si O2"
_cell_formula_units_Z 32
_cell_length_a 18.460349
_cell_length_b 11.629130
_cell_length_c 15.151277
_cell_angle_alpha 90.000000
_cell_angle_beta 30.010407
_cell_angle_gamma 90.000000
_cell_volume 1626.833014
_symmetry_space_group_name_H-M "P 21/C"
_symmetry_group_IT_number 14
_symmetry_cell_setting 'monoclinic'
loop_
_space_group_symop_operation_xyz
x,y,z
-x,1/2+y,1/2-z
-x,-y,-z
x,1/2-y,1/2+z
loop_
_atom_site_type_symbol
_atom_site_label
_atom_site_fract_x
_atom_site_fract_y
_atom_site_fract_z
Si Si1 0.843453 0.223448 0.951802
Si Si2 0.599841 0.097654 0.683230
Si Si3 0.948724 0.663282 0.129233
Si Si4 0.690796 0.849653 0.637745
Si Si5 0.012086 0.602603 0.867642
Si Si6 0.501831 0.653942 0.905573
Si Si7 0.602853 0.093334 0.310663
Si Si8 0.649216 0.745322 0.990705
O O1 0.900559 0.172285 0.799402
O O2 0.967032 0.253386 0.892222
O O3 0.752619 0.340900 0.038437
O O4 0.726953 0.134736 0.114714
O O5 0.563985 0.126743 0.620024
O O6 0.608123 0.965329 0.698368
O O7 0.473029 0.156811 0.873267
O O8 0.945466 0.532632 0.171581
O O9 0.786646 0.713277 0.290822
O O10 0.024604 0.652642 0.953610
O O11 0.593622 0.769658 0.802736
O O12 0.706386 0.780324 0.529291
O O13 0.843974 0.883459 0.517355
O O14 0.602211 0.543435 0.819740
O O15 0.384769 0.652902 0.106932
O O16 0.444791 0.136714 0.443449
#
# Coordination Sequence:
#
# PCOD9245864 Si02
#       8
#     4   4   4   4   4   4   4   4
#     4  11  24  41  64  90 130 166 205 265 319 379
#     4  10  22  39  62  93 123 163 211 257 316 372
#     4  11  24  43  63  95 127 169 215 261 320 386
#     4  11  20  40  64  93 127 168 206 263 317 374
#     4  11  25  41  65  91 132 168 215 263 320 385
#     4  10  22  38  65  90 127 165 210 264 310 379
#     4  10  22  41  61  96 125 159 218 256 317 382
#     4  10  21  39  64  88 126 167 206 260 314 377
#
# _framework density 19.670120000000001
#
# number of rings (size 3 to 8) (size 9 to 14) (size 15 to 20)
#    0.000    1.500    3.750    0.750    5.250    0.000 
#    2.250    1.875    0.000    4.500    0.000    0.000 
#    0.000    0.000    0.000    0.000    0.000    0.000 
#
# Total GULP energy -178622.821276 kJ/mol
# GULP energy per Si atom -5581.963165 kJ/mol
# Density = 1.962535 g / cm^3
# Si number density = 19.670120 Si / 1000 Ang^3
#
#
#
# Elastic Constant Matrix: (Units=GPa)
#
#
# Indices 1 2 3 4 5 6 
#
# 1 68.1317 25.1876 40.5860 0.0000 3.1331 0.0000
# 2 25.1876 81.0734 40.4333 0.0000 -0.1140 0.0000
# 3 40.5860 40.4333 98.4397 0.0000 8.4300 0.0000
# 4 0.0000 0.0000 0.0000 15.8899 0.0000 8.8897
# 5 3.1331 -0.1140 8.4300 0.0000 32.9360 0.0000
# 6 0.0000 0.0000 0.0000 8.8897 0.0000 26.4285
#
#
#
# Elastic Compliance Matrix: (Units=1/GPa)
#
#
# Indices 1 2 3 4 5 6 
#
# 1 0.019892 -0.002633 -0.007113 0.000000 -0.000081 0.000000
# 2 -0.002633 0.015957 -0.005618 0.000000 0.001744 0.000000
# 3 -0.007113 -0.005618 0.015686 0.000000 -0.003358 0.000000
# 4 0.000000 0.000000 0.000000 0.077522 0.000000 -0.026076
# 5 -0.000081 0.001744 -0.003358 0.000000 0.031235 0.000000
# 6 0.000000 0.000000 0.000000 -0.026076 0.000000 0.046609
#
#
# Mechanical properties :
#
#
# Convention : Reuss Voigt Hill
#
# Bulk Modulus (GPa) = 48.05973 51.11764 49.58868
# Shear Modulus (GPa) = 20.44464 24.48007 22.46235
#
# Velocity S-wave (km/s) = 3.22743 3.53162 3.38295
# Velocity P-wave (km/s) = 6.19470 6.53251 6.36584
#
# Compressibility (1/GPa) = 0.02080744
#
# Stress axis : x y z
#
# Youngs Moduli (GPa) = 50.27250 62.66977 63.75028
#
# Poissons Ratio (x) = 0.16498 0.45345
# Poissons Ratio (y) = 0.13235 0.35815
# Poissons Ratio (z) = 0.35759 0.35208
#
# Static dielectric constant tensor:
#      x y z
#    x 1.728430 0.000000 0.015350 
#    y 0.000000 1.681630 0.000000 
#    z 0.015350 0.000000 1.677370 
# 
# From -- ./inp_files/48902.got.cif
#   From: 2010.05.17/outbox.cif.g08.bks.cpg/sg14_25_cif.got.tgz:48902.got - 2010.06.03 17:49:19.
