data_PCOD9245729
_publ_section_title
;
Structure prediction by ZEFSAII (Michael W. Deem and Ramdas Pophale) SiO2 
 PCOD9245729
Probable space group: P 21/C
;
_chemical_formula_sum "Si O2"
_cell_formula_units_Z 28
_cell_length_a 12.668118
_cell_length_b 13.202232
_cell_length_c 8.503378
_cell_angle_alpha 90.000000
_cell_angle_beta 71.513122
_cell_angle_gamma 90.000000
_cell_volume 1348.779003
_symmetry_space_group_name_H-M "P 21/C"
_symmetry_group_IT_number 14
_symmetry_cell_setting 'monoclinic'
loop_
_space_group_symop_operation_xyz
x,y,z
-x,1/2+y,1/2-z
-x,-y,-z
x,1/2-y,1/2+z
loop_
_atom_site_type_symbol
_atom_site_label
_atom_site_fract_x
_atom_site_fract_y
_atom_site_fract_z
Si Si1 0.494349 0.622346 0.497858
Si Si2 0.132944 0.016671 0.954090
Si Si3 0.626603 0.727600 0.166848
Si Si4 0.954595 0.807702 0.829123
Si Si5 0.891184 0.308101 0.009953
Si Si6 0.235267 0.849492 0.128327
Si Si7 0.222314 0.146699 0.663582
O O1 0.500000 0.500000 0.500000
O O2 0.537590 0.664272 0.309786
O O3 0.567776 0.685071 0.589954
O O4 0.366263 0.650142 0.586340
O O5 0.191488 0.041408 0.761117
O O6 0.136815 0.118355 0.057348
O O7 0.195653 0.932251 0.021764
O O8 0.000000 0.000000 0.000000
O O9 0.708572 0.784663 0.247378
O O10 0.701764 0.651768 0.026571
O O11 0.894280 0.703707 0.811000
O O12 0.016656 0.855466 0.649443
O O13 0.042010 0.777936 0.923021
O O14 0.827690 0.367639 0.176325
O O15 0.805922 0.255232 0.930467
#
# Coordination Sequence:
#
# PCOD9245729 Si02
#       7
#     4   4   4   4   4   4   4
#     4  11  24  45  66  94 127 165 225 277 319 382
#     4  12  22  37  60  97 128 157 204 256 304 384
#     4  10  23  42  67  93 122 171 220 272 324 374
#     4  11  19  37  61  90 127 159 198 244 304 382
#     4  10  21  39  60  88 121 169 196 244 315 379
#     4  11  23  40  63  85 124 163 206 257 315 361
#     4  11  20  39  66  89 126 167 204 253 321 372
#
# _framework density 20.759518
#
# number of rings (size 3 to 8) (size 9 to 14) (size 15 to 20)
#    0.000    1.143    4.286    2.571    2.000    0.571 
#    2.571    7.857    0.000    0.000    0.000    0.000 
#    0.000    0.000    0.000    0.000    0.000    0.000 
#
# Total GULP energy -156338.903636 kJ/mol
# GULP energy per Si atom -5583.532273 kJ/mol
# Density = 2.071227 g / cm^3
# Si number density = 20.759518 Si / 1000 Ang^3
#
#
#
# Elastic Constant Matrix: (Units=GPa)
#
#
# Indices 1 2 3 4 5 6 
#
# 1 73.9982 -7.3408 15.1831 0.0000 -5.4083 0.0000
# 2 -7.3408 40.8419 8.2270 0.0000 -3.4001 0.0000
# 3 15.1831 8.2270 115.6308 0.0000 -14.8401 0.0000
# 4 0.0000 0.0000 0.0000 29.6381 0.0000 1.2212
# 5 -5.4083 -3.4001 -14.8401 0.0000 30.1773 0.0000
# 6 0.0000 0.0000 0.0000 1.2212 0.0000 26.0251
#
#
#
# Elastic Compliance Matrix: (Units=1/GPa)
#
#
# Indices 1 2 3 4 5 6 
#
# 1 0.014350 0.003119 -0.001848 0.000000 0.002015 0.000000
# 2 0.003119 0.025639 -0.001912 0.000000 0.002508 0.000000
# 3 -0.001848 -0.001912 0.009560 0.000000 0.004155 0.000000
# 4 0.000000 0.000000 0.000000 0.033806 0.000000 -0.001586
# 5 0.002015 0.002508 0.004155 0.000000 0.035824 0.000000
# 6 0.000000 0.000000 0.000000 -0.001586 0.000000 0.038499
#
#
# Mechanical properties :
#
#
# Convention : Reuss Voigt Hill
#
# Bulk Modulus (GPa) = 20.71769 29.17883 24.94826
# Shear Modulus (GPa) = 28.56362 31.46155 30.01259
#
# Velocity S-wave (km/s) = 3.71338 3.89720 3.80640
# Velocity P-wave (km/s) = 5.32795 5.85978 5.60018
#
# Compressibility (1/GPa) = 0.04826792
#
# Stress axis : x y z
#
# Youngs Moduli (GPa) = 69.68840 39.00281 104.60177
#
# Poissons Ratio (x) = -0.12165 0.19326
# Poissons Ratio (y) = -0.21736 0.19999
# Poissons Ratio (z) = 0.12875 0.07457
#
# Static dielectric constant tensor:
#      x y z
#    x 1.720320 0.000000 0.008530 
#    y 0.000000 1.796460 0.000000 
#    z 0.008530 0.000000 1.779780 
# 
# From -- ./inp_files/13054.got.cif
#   From: 2010.05.17/outbox.cif.g08.bks.cpg/sg14_7_cif.got.tgz:13054.got - 2010.06.03 17:49:19.
