data_PCOD9245611
_publ_section_title
;
Structure prediction by ZEFSAII (Michael W. Deem and Ramdas Pophale) SiO2 
 PCOD9245611
Probable space group: P 21/C
;
_chemical_formula_sum "Si O2"
_cell_formula_units_Z 28
_cell_length_a 11.382545
_cell_length_b 7.778831
_cell_length_c 20.087699
_cell_angle_alpha 90.000000
_cell_angle_beta 37.031283
_cell_angle_gamma 90.000000
_cell_volume 1071.177448
_symmetry_space_group_name_H-M "P 21/C"
_symmetry_group_IT_number 14
_symmetry_cell_setting 'monoclinic'
loop_
_space_group_symop_operation_xyz
x,y,z
-x,1/2+y,1/2-z
-x,-y,-z
x,1/2-y,1/2+z
loop_
_atom_site_type_symbol
_atom_site_label
_atom_site_fract_x
_atom_site_fract_y
_atom_site_fract_z
Si Si1 0.924565 0.270919 0.527534
Si Si2 0.516605 0.740610 0.441743
Si Si3 0.265153 0.880822 0.168632
Si Si4 0.630385 0.470211 0.801666
Si Si5 0.278272 0.423408 0.891892
Si Si6 0.035724 0.507699 0.599889
Si Si7 0.828876 0.670002 0.906935
O O1 0.152830 0.221099 0.410782
O O2 0.845687 0.358153 0.496580
O O3 0.934469 0.393258 0.586257
O O4 0.808156 0.100310 0.595500
O O5 0.620091 0.560682 0.373439
O O6 0.319801 0.687794 0.570091
O O7 0.652668 0.838776 0.435270
O O8 0.493213 0.882479 0.396087
O O9 0.340182 0.719836 0.179707
O O10 0.035229 0.901048 0.287279
O O11 0.510868 0.428532 0.787849
O O12 0.836323 0.566827 0.722223
O O13 0.211225 0.390718 0.999368
O O14 0.145082 0.375645 0.596206
#
# Coordination Sequence:
#
# PCOD9245611 Si02
#       7
#     4   4   4   4   4   4   4
#     4   9  20  41  62  88 117 159 205 256 319 365
#     4  11  24  41  60  92 128 171 203 248 311 365
#     4  10  24  40  57  89 130 160 211 248 292 373
#     4  11  23  41  61  94 125 160 208 254 305 373
#     4  10  21  38  65  89 121 156 204 263 307 370
#     4   9  21  40  61  90 120 159 206 253 312 373
#     4  10  22  39  63  90 124 164 205 254 305 370
#
# _framework density 26.139458999999999
#
# number of rings (size 3 to 8) (size 9 to 14) (size 15 to 20)
#    0.000    2.000    1.429    0.429    6.000    3.429 
#    2.571    0.000    0.000    0.000    0.000    0.000 
#    0.000    0.000    0.000    0.000    0.000    0.000 
#
# Total GULP energy -156391.499294 kJ/mol
# GULP energy per Si atom -5585.410689 kJ/mol
# Density = 2.607996 g / cm^3
# Si number density = 26.139459 Si / 1000 Ang^3
#
#
#
# Elastic Constant Matrix: (Units=GPa)
#
#
# Indices 1 2 3 4 5 6 
#
# 1 49.7221 -9.7017 -11.2961 0.0000 -5.2701 0.0000
# 2 -9.7017 65.4472 8.3493 0.0000 5.1427 0.0000
# 3 -11.2961 8.3493 53.1756 0.0000 -9.7578 0.0000
# 4 0.0000 0.0000 0.0000 32.1161 0.0000 0.6906
# 5 -5.2701 5.1427 -9.7578 0.0000 30.7821 0.0000
# 6 0.0000 0.0000 0.0000 0.6906 0.0000 40.1556
#
#
#
# Elastic Compliance Matrix: (Units=1/GPa)
#
#
# Indices 1 2 3 4 5 6 
#
# 1 0.022301 0.002222 0.005331 0.000000 0.005137 0.000000
# 2 0.002222 0.016196 -0.002652 0.000000 -0.003166 0.000000
# 3 0.005331 -0.002652 0.021876 0.000000 0.008290 0.000000
# 4 0.000000 0.000000 0.000000 0.031149 0.000000 -0.000536
# 5 0.005137 -0.003166 0.008290 0.000000 0.036523 0.000000
# 6 0.000000 0.000000 0.000000 -0.000536 0.000000 0.024912
#
#
# Mechanical properties :
#
#
# Convention : Reuss Voigt Hill
#
# Bulk Modulus (GPa) = 14.25006 15.89421 15.07213
# Shear Modulus (GPa) = 30.02180 32.67698 31.34939
#
# Velocity S-wave (km/s) = 3.39266 3.53951 3.46687
# Velocity P-wave (km/s) = 4.56183 4.77472 4.66949
#
# Compressibility (1/GPa) = 0.07017517
#
# Stress axis : x y z
#
# Youngs Moduli (GPa) = 44.84122 61.74367 45.71265
#
# Poissons Ratio (x) = -0.13720 -0.24370
# Poissons Ratio (y) = -0.09964 0.12123
# Poissons Ratio (z) = -0.23905 0.16374
#
# Static dielectric constant tensor:
#      x y z
#    x 2.031870 0.000000 -0.028130 
#    y 0.000000 2.018820 0.000000 
#    z -0.028130 0.000000 2.415850 
# 
# From -- ./inp_files/66975.got.cif
#   From: 2010.05.17/outbox.cif.g08.bks.cpg/sg14_34_cif.got.tgz:66975.got - 2010.06.03 17:49:19.
