data_PCOD9245025
_publ_section_title
;
Structure prediction by ZEFSAII (Michael W. Deem and Ramdas Pophale) SiO2 
 PCOD9245025
Probable space group: P 21/C
;
_chemical_formula_sum "Si O2"
_cell_formula_units_Z 32
_cell_length_a 5.095709
_cell_length_b 21.324303
_cell_length_c 12.417121
_cell_angle_alpha 90.000000
_cell_angle_beta 105.154636
_cell_angle_gamma 90.000000
_cell_volume 1302.352026
_symmetry_space_group_name_H-M "P 21/C"
_symmetry_group_IT_number 14
_symmetry_cell_setting 'monoclinic'
loop_
_space_group_symop_operation_xyz
x,y,z
-x,1/2+y,1/2-z
-x,-y,-z
x,1/2-y,1/2+z
loop_
_atom_site_type_symbol
_atom_site_label
_atom_site_fract_x
_atom_site_fract_y
_atom_site_fract_z
Si Si1 0.410862 0.648756 0.921950
Si Si2 0.396210 0.161509 0.791403
Si Si3 0.385451 0.025181 0.140465
Si Si4 0.373518 0.392979 0.852031
Si Si5 0.264724 0.230028 0.965533
Si Si6 0.134136 0.446612 0.392576
Si Si7 0.011759 0.250140 0.131063
Si Si8 0.160007 0.812486 0.694509
O O1 0.442912 0.637475 0.797015
O O2 0.126370 0.683316 0.916866
O O3 0.499473 0.594209 0.014801
O O4 0.611356 0.705016 0.978807
O O5 0.474579 0.190399 0.917152
O O6 0.188786 0.109113 0.814175
O O7 0.255855 0.223609 0.729074
O O8 0.386844 0.056843 0.257580
O O9 0.685383 0.003377 0.137362
O O10 0.262395 0.063293 0.025380
O O11 0.177950 0.966014 0.125952
O O12 0.066679 0.367403 0.828482
O O13 0.571761 0.337710 0.831050
O O14 0.986340 0.253151 0.877039
O O15 0.138245 0.202398 0.059945
O O16 0.799353 0.212366 0.180653
#
# Coordination Sequence:
#
# PCOD9245025 Si02
#       8
#     4   4   4   4   4   4   4   4
#     4  10  22  37  60  90 134 161 210 248 305 379
#     4  10  23  38  63  88 129 170 205 254 319 366
#     4  10  23  44  68  89 123 156 214 276 312 363
#     4  11  22  42  62  91 122 169 205 260 312 369
#     4   9  20  38  53  89 125 170 198 250 293 376
#     4  10  23  45  65  94 120 159 212 269 319 365
#     4  10  21  36  56  91 129 164 203 254 293 381
#     4  10  22  34  59  89 124 163 210 237 305 369
#
# _framework density 24.570931000000002
#
# number of rings (size 3 to 8) (size 9 to 14) (size 15 to 20)
#    0.000    2.000    1.250    0.750   10.500    0.000 
#    0.000    1.250    0.000    0.000    0.000    0.000 
#    0.000    0.000    0.000    0.000    0.000    0.000 
#
# Total GULP energy -178283.191102 kJ/mol
# GULP energy per Si atom -5571.349722 kJ/mol
# Density = 2.451501 g / cm^3
# Si number density = 24.570931 Si / 1000 Ang^3
#
#
#
# Elastic Constant Matrix: (Units=GPa)
#
#
# Indices 1 2 3 4 5 6 
#
# 1 75.7522 -0.9822 24.8072 0.0000 -11.2690 0.0000
# 2 -0.9822 38.8036 34.5902 0.0000 -7.5083 0.0000
# 3 24.8072 34.5902 154.3841 0.0000 -30.6389 0.0000
# 4 0.0000 0.0000 0.0000 43.2029 0.0000 -15.9444
# 5 -11.2690 -7.5083 -30.6389 0.0000 33.2927 0.0000
# 6 0.0000 0.0000 0.0000 -15.9444 0.0000 24.4174
#
#
#
# Elastic Compliance Matrix: (Units=1/GPa)
#
#
# Indices 1 2 3 4 5 6 
#
# 1 0.014526 0.003131 -0.002349 0.000000 0.003461 0.000000
# 2 0.003131 0.032893 -0.007574 0.000000 0.001508 0.000000
# 3 -0.002349 -0.007574 0.009855 0.000000 0.006566 0.000000
# 4 0.000000 0.000000 0.000000 0.030496 0.000000 0.019914
# 5 0.003461 0.001508 0.006566 0.000000 0.037591 0.000000
# 6 0.000000 0.000000 0.000000 0.019914 0.000000 0.053958
#
#
# Mechanical properties :
#
#
# Convention : Reuss Voigt Hill
#
# Bulk Modulus (GPa) = 22.88802 42.86338 32.87570
# Shear Modulus (GPa) = 24.10053 34.21758 29.15906
#
# Velocity S-wave (km/s) = 3.13526 3.73581 3.44863
# Velocity P-wave (km/s) = 4.73727 6.00758 5.40984
#
# Compressibility (1/GPa) = 0.04369098
#
# Stress axis : x y z
#
# Youngs Moduli (GPa) = 68.84409 30.40155 101.47389
#
# Poissons Ratio (x) = -0.09519 0.23832
# Poissons Ratio (y) = -0.21555 0.76852
# Poissons Ratio (z) = 0.16169 0.23025
#
# Static dielectric constant tensor:
#      x y z
#    x 1.971250 0.000000 0.011460 
#    y 0.000000 1.973080 0.000000 
#    z 0.011460 0.000000 2.156320 
# 
# From -- ./inp_files/22101.got.cif
#   From: 2010.05.17/outbox.cif.g08.bks.cpg/sg14_12_cif.got.tgz:22101.got - 2010.06.03 17:49:19.
