data_PCOD9245577
_publ_section_title
;
Structure prediction by ZEFSAII (Michael W. Deem and Ramdas Pophale) SiO2 
 PCOD9245577
Probable space group: P 21/C
;
_chemical_formula_sum "Si O2"
_cell_formula_units_Z 24
_cell_length_a 9.421041
_cell_length_b 16.097381
_cell_length_c 17.088615
_cell_angle_alpha 90.000000
_cell_angle_beta 31.583924
_cell_angle_gamma 90.000000
_cell_volume 1357.320646
_symmetry_space_group_name_H-M "P 21/C"
_symmetry_group_IT_number 14
_symmetry_cell_setting 'monoclinic'
loop_
_space_group_symop_operation_xyz
x,y,z
-x,1/2+y,1/2-z
-x,-y,-z
x,1/2-y,1/2+z
loop_
_atom_site_type_symbol
_atom_site_label
_atom_site_fract_x
_atom_site_fract_y
_atom_site_fract_z
Si Si1 0.619598 0.319636 0.276711
Si Si2 0.191616 0.576145 0.388508
Si Si3 0.956145 0.687170 0.368812
Si Si4 0.309323 0.736769 0.424838
Si Si5 0.242977 0.007442 0.324547
Si Si6 0.139849 0.336143 0.768132
O O1 0.334324 0.302510 0.452670
O O2 0.612058 0.285880 0.191227
O O3 0.679275 0.417453 0.245366
O O4 0.859981 0.268994 0.206027
O O5 0.165910 0.652277 0.461817
O O6 0.499064 0.545545 0.251239
O O7 0.000000 0.500000 0.500000
O O8 0.111498 0.614378 0.342826
O O9 0.913329 0.665449 0.298874
O O10 0.579803 0.711216 0.343679
O O11 0.103511 0.790112 0.572587
O O12 0.168927 0.072102 0.291001
O O13 0.000000 0.000000 0.500000
#
# Coordination Sequence:
#
# PCOD9245577 Si02
#       6
#     4   4   4   4   4   4
#     4  11  22  41  65  88 121 167 204 247 301 371
#     4  10  21  40  62  87 118 162 205 242 297 370
#     4  11  24  40  63  91 126 156 202 254 311 358
#     4  10  21  38  64  83 120 162 202 241 298 371
#     4  11  23  40  65  90 121 161 211 250 295 364
#     4  11  23  41  60  94 123 156 203 257 308 357
#
# _framework density 17.681892999999999
#
# number of rings (size 3 to 8) (size 9 to 14) (size 15 to 20)
#    0.000    1.333    3.333    3.000    4.667    0.667 
#    3.000    0.833    0.000    0.000    0.000    0.000 
#    0.000    0.000    0.000    0.000    0.000    0.000 
#
# Total GULP energy -134096.745340 kJ/mol
# GULP energy per Si atom -5587.364389 kJ/mol
# Density = 1.764165 g / cm^3
# Si number density = 17.681893 Si / 1000 Ang^3
#
#
#
# Elastic Constant Matrix: (Units=GPa)
#
#
# Indices 1 2 3 4 5 6 
#
# 1 178.8527 77.4838 73.7141 0.0000 4.2657 0.0000
# 2 77.4838 147.6416 66.3102 0.0000 -6.1994 0.0000
# 3 73.7141 66.3102 130.8376 0.0000 -1.3043 0.0000
# 4 0.0000 0.0000 0.0000 26.9295 0.0000 -3.6832
# 5 4.2657 -6.1994 -1.3043 0.0000 21.0323 0.0000
# 6 0.0000 0.0000 0.0000 -3.6832 0.0000 14.5194
#
#
#
# Elastic Compliance Matrix: (Units=1/GPa)
#
#
# Indices 1 2 3 4 5 6 
#
# 1 0.008273 -0.003045 -0.003145 0.000000 -0.002771 0.000000
# 2 -0.003045 0.010004 -0.003321 0.000000 0.003360 0.000000
# 3 -0.003145 -0.003321 0.011102 0.000000 0.000348 0.000000
# 4 0.000000 0.000000 0.000000 0.038469 0.000000 0.009759
# 5 -0.002771 0.003360 0.000348 0.000000 0.049120 0.000000
# 6 0.000000 0.000000 0.000000 0.009759 0.000000 0.071349
#
#
# Mechanical properties :
#
#
# Convention : Reuss Voigt Hill
#
# Bulk Modulus (GPa) = 96.56586 99.14976 97.85781
# Shear Modulus (GPa) = 23.72022 28.48450 26.10236
#
# Velocity S-wave (km/s) = 3.66662 4.01801 3.84633
# Velocity P-wave (km/s) = 8.52390 8.81599 8.67118
#
# Compressibility (1/GPa) = 0.01035563
#
# Stress axis : x y z
#
# Youngs Moduli (GPa) = 120.87648 99.95942 90.07769
#
# Poissons Ratio (x) = 0.30442 0.28330
# Poissons Ratio (y) = 0.36813 0.29913
# Poissons Ratio (z) = 0.38017 0.33195
#
# Static dielectric constant tensor:
#      x y z
#    x 1.580180 0.000000 -0.018950 
#    y 0.000000 1.598280 0.000000 
#    z -0.018950 0.000000 1.582000 
# 
# From -- ./inp_files/8434.got.cif
#   From: 2010.05.17/outbox.cif.g08.bks.cpg/sg14_5_cif.got.tgz:8434.got - 2010.06.03 17:49:19.
