data_PCOD9245257
_publ_section_title
;
Structure prediction by ZEFSAII (Michael W. Deem and Ramdas Pophale) SiO2 
 PCOD9245257
Probable space group: P 21/C
;
_chemical_formula_sum "Si O2"
_cell_formula_units_Z 32
_cell_length_a 17.153979
_cell_length_b 9.966502
_cell_length_c 19.060490
_cell_angle_alpha 90.000000
_cell_angle_beta 27.518996
_cell_angle_gamma 90.000000
_cell_volume 1505.649132
_symmetry_space_group_name_H-M "P 21/C"
_symmetry_group_IT_number 14
_symmetry_cell_setting 'monoclinic'
loop_
_space_group_symop_operation_xyz
x,y,z
-x,1/2+y,1/2-z
-x,-y,-z
x,1/2-y,1/2+z
loop_
_atom_site_type_symbol
_atom_site_label
_atom_site_fract_x
_atom_site_fract_y
_atom_site_fract_z
Si Si1 0.871376 0.816914 0.460944
Si Si2 0.334571 0.635542 0.018565
Si Si3 0.834571 0.135547 0.018566
Si Si4 0.201654 0.582796 0.617932
Si Si5 0.298346 0.582792 0.882067
Si Si6 0.412263 0.580438 0.167868
Si Si7 0.912265 0.419567 0.667868
Si Si8 0.371379 0.183081 0.960944
O O1 0.749999 0.749999 0.500000
O O2 0.029297 0.885536 0.295538
O O3 0.950199 0.698700 0.444905
O O4 0.770915 0.935835 0.578678
O O5 0.326886 0.597597 0.942905
O O6 0.494937 0.558583 0.921352
O O7 0.329622 0.795132 0.032861
O O8 0.165480 0.582316 0.191517
O O9 0.826883 0.097601 0.942908
O O10 0.829621 0.295137 0.032861
O O11 0.665481 0.082322 0.191518
O O12 0.994938 0.058588 0.921350
O O13 0.270916 0.435840 0.578679
O O14 0.470703 0.614459 0.704461
O O15 0.249999 0.606039 0.250000
O O16 0.549796 0.698707 0.055097
#
# Coordination Sequence:
#
# PCOD9245257 Si02
#       8
#     4   4   4   4   4   4   4   4
#     4  11  23  38  62  89 120 154 195 253 289 350
#     4  10  21  37  60  86 120 151 198 246 288 351
#     4  10  21  37  60  86 120 151 198 246 288 351
#     4  10  22  37  60  93 113 150 204 245 298 336
#     4  10  22  37  60  93 113 150 204 245 298 336
#     4  11  23  39  58  89 123 159 197 239 298 355
#     4  11  23  39  58  89 123 159 197 239 298 355
#     4  11  23  38  62  89 120 154 195 253 289 350
#
# _framework density 21.253291999999998
#
# number of rings (size 3 to 8) (size 9 to 14) (size 15 to 20)
#    0.000    1.500    2.500    2.250    7.000    0.000 
#    0.000    6.250    0.000    0.000    0.000    0.000 
#    0.000    0.000    0.000    0.000    0.000    0.000 
#
# Total GULP energy -178894.753537 kJ/mol
# GULP energy per Si atom -5590.461048 kJ/mol
# Density = 2.120492 g / cm^3
# Si number density = 21.253292 Si / 1000 Ang^3
#
#
#
# Elastic Constant Matrix: (Units=GPa)
#
#
# Indices 1 2 3 4 5 6 
#
# 1 57.6771 50.6198 15.8018 0.0000 -34.1238 0.0000
# 2 50.6198 144.9766 47.8015 0.0000 -45.6311 0.0000
# 3 15.8018 47.8015 56.9927 0.0000 -14.5673 0.0000
# 4 0.0000 0.0000 0.0000 53.7195 0.0000 -15.6283
# 5 -34.1238 -45.6311 -14.5673 0.0000 41.8671 0.0000
# 6 0.0000 0.0000 0.0000 -15.6283 0.0000 23.8260
#
#
#
# Elastic Compliance Matrix: (Units=1/GPa)
#
#
# Indices 1 2 3 4 5 6 
#
# 1 0.035761 -0.005208 0.000496 0.000000 0.023643 0.000000
# 2 -0.005208 0.013983 -0.008203 0.000000 0.008141 0.000000
# 3 0.000496 -0.008203 0.024265 0.000000 -0.000093 0.000000
# 4 0.000000 0.000000 0.000000 0.023005 0.000000 0.015090
# 5 0.023643 0.008141 -0.000093 0.000000 0.051996 0.000000
# 6 0.000000 0.000000 0.000000 0.015090 0.000000 0.051869
#
#
# Mechanical properties :
#
#
# Convention : Reuss Voigt Hill
#
# Bulk Modulus (GPa) = 20.75589 54.23251 37.49420
# Shear Modulus (GPa) = 20.59561 33.57741 27.08651
#
# Velocity S-wave (km/s) = 3.11634 3.97907 3.57383
# Velocity P-wave (km/s) = 4.76822 6.83252 5.89149
#
# Compressibility (1/GPa) = 0.04817910
#
# Stress axis : x y z
#
# Youngs Moduli (GPa) = 27.96332 71.51316 41.21161
#
# Poissons Ratio (x) = 0.37246 -0.02046
# Poissons Ratio (y) = 0.14564 0.33807
# Poissons Ratio (z) = -0.01388 0.58665
#
# Static dielectric constant tensor:
#      x y z
#    x 1.805890 0.000000 0.032330 
#    y 0.000000 1.781820 0.000000 
#    z 0.032330 0.000000 1.769300 
# 
# From -- ./inp_files/69129.got.cif
#   From: 2010.05.17/outbox.cif.g08.bks.cpg/sg14_35_cif.got.tgz:69129.got - 2010.06.03 17:49:19.
