data_PCOD9245763
_publ_section_title
;
Structure prediction by ZEFSAII (Michael W. Deem and Ramdas Pophale) SiO2 
 PCOD9245763
Probable space group: P 21/C
;
_chemical_formula_sum "Si O2"
_cell_formula_units_Z 30
_cell_length_a 14.441304
_cell_length_b 20.654013
_cell_length_c 7.115025
_cell_angle_alpha 90.000000
_cell_angle_beta 142.854987
_cell_angle_gamma 90.000000
_cell_volume 1281.460252
_symmetry_space_group_name_H-M "P 21/C"
_symmetry_group_IT_number 14
_symmetry_cell_setting 'monoclinic'
loop_
_space_group_symop_operation_xyz
x,y,z
-x,1/2+y,1/2-z
-x,-y,-z
x,1/2-y,1/2+z
loop_
_atom_site_type_symbol
_atom_site_label
_atom_site_fract_x
_atom_site_fract_y
_atom_site_fract_z
Si Si1 0.361565 0.658036 0.385631
Si Si2 0.288207 0.796946 0.157088
Si Si3 0.130185 0.431202 0.292634
Si Si4 0.186509 0.530412 0.071909
Si Si5 0.311729 0.314128 0.149862
Si Si6 0.004614 0.630293 0.306926
Si Si7 0.000000 0.000000 0.000000
Si Si8 0.378298 0.166529 0.191209
O O1 0.328129 0.720930 0.204634
O O2 0.265990 0.674458 0.415541
O O3 0.541168 0.661919 0.728453
O O4 0.301710 0.588352 0.229890
O O5 0.440577 0.831831 0.481659
O O6 0.135178 0.815138 0.016909
O O7 0.270296 0.389788 0.596041
O O8 0.000572 0.450381 0.238723
O O9 0.193569 0.494046 0.282584
O O10 0.043574 0.391268 0.985369
O O11 0.174400 0.482578 0.878849
O O12 0.315298 0.236349 0.152986
O O13 0.353367 0.337315 0.427004
O O14 0.144190 0.339314 0.835015
O O15 0.068470 0.567050 0.511739
#
# Coordination Sequence:
#
# PCOD9245763 Si02
#       8
#     4   4   4   4   4   4   2   4
#     4  11  23  40  62  93 124 164 198 263 305 366
#     4  11  23  38  63  91 127 156 212 249 315 365
#     4   9  20  42  60  86 120 168 201 254 309 363
#     4  10  21  40  64  87 126 163 208 255 307 365
#     4  10  22  38  60  87 127 154 206 251 315 358
#     4  10  22  41  60  89 121 163 203 257 299 374
#     4  10  24  38  62  92 124 154 214 252 296 368
#     4  10  21  39  61  90 124 162 200 262 303 371
#
# _framework density 23.410792000000001
#
# number of rings (size 3 to 8) (size 9 to 14) (size 15 to 20)
#    0.000    1.867    1.333    3.200    5.600    2.133 
#    2.400    2.667    0.000    0.000    0.000    0.000 
#    0.000    0.000    0.000    0.000    0.000    0.000 
#
# Total GULP energy -167170.065039 kJ/mol
# GULP energy per Si atom -5572.335501 kJ/mol
# Density = 2.335751 g / cm^3
# Si number density = 23.410792 Si / 1000 Ang^3
#
#
#
# Elastic Constant Matrix: (Units=GPa)
#
#
# Indices 1 2 3 4 5 6 
#
# 1 54.1371 17.7305 19.9112 0.0000 23.6961 0.0000
# 2 17.7305 87.1874 40.1718 0.0000 41.3439 0.0000
# 3 19.9112 40.1718 61.6400 0.0000 20.4754 0.0000
# 4 0.0000 0.0000 0.0000 62.8181 0.0000 18.1343
# 5 23.6961 41.3439 20.4754 0.0000 44.2041 0.0000
# 6 0.0000 0.0000 0.0000 18.1343 0.0000 36.5068
#
#
#
# Elastic Compliance Matrix: (Units=1/GPa)
#
#
# Indices 1 2 3 4 5 6 
#
# 1 0.026115 0.005239 -0.006585 0.000000 -0.015849 0.000000
# 2 0.005239 0.026022 -0.011386 0.000000 -0.021873 0.000000
# 3 -0.006585 -0.011386 0.024891 0.000000 0.002650 0.000000
# 4 0.000000 0.000000 0.000000 0.018584 0.000000 -0.009231
# 5 -0.015849 -0.021873 0.002650 0.000000 0.050348 0.000000
# 6 0.000000 0.000000 0.000000 -0.009231 0.000000 0.031978
#
#
# Mechanical properties :
#
#
# Convention : Reuss Voigt Hill
#
# Bulk Modulus (GPa) = 19.39364 39.84348 29.61856
# Shear Modulus (GPa) = 22.66649 37.04920 29.85784
#
# Velocity S-wave (km/s) = 3.11498 3.98247 3.57513
# Velocity P-wave (km/s) = 4.60863 6.18085 5.45172
#
# Compressibility (1/GPa) = 0.05156329
#
# Stress axis : x y z
#
# Youngs Moduli (GPa) = 38.29217 38.42874 40.17591
#
# Poissons Ratio (x) = -0.20133 0.26458
# Poissons Ratio (y) = -0.20061 0.45743
# Poissons Ratio (z) = 0.25217 0.43754
#
# Static dielectric constant tensor:
#      x y z
#    x 1.614590 0.000000 0.230050 
#    y 0.000000 1.798030 0.000000 
#    z 0.230050 0.000000 1.678130 
# 
# From -- ./inp_files/18237.got.cif
#   From: 2010.05.17/outbox.cif.g08.bks.cpg/sg14_10_cif.got.tgz:18237.got - 2010.06.03 17:49:19.
