data_PCOD9245777
_publ_section_title
;
Structure prediction by ZEFSAII (Michael W. Deem and Ramdas Pophale) SiO2 
 PCOD9245777
Probable space group: P 21/C
;
_chemical_formula_sum "Si O2"
_cell_formula_units_Z 24
_cell_length_a 8.890912
_cell_length_b 15.537632
_cell_length_c 17.233743
_cell_angle_alpha 90.000000
_cell_angle_beta 148.436600
_cell_angle_gamma 90.000000
_cell_volume 1246.175168
_symmetry_space_group_name_H-M "P 21/C"
_symmetry_group_IT_number 14
_symmetry_cell_setting 'monoclinic'
loop_
_space_group_symop_operation_xyz
x,y,z
-x,1/2+y,1/2-z
-x,-y,-z
x,1/2-y,1/2+z
loop_
_atom_site_type_symbol
_atom_site_label
_atom_site_fract_x
_atom_site_fract_y
_atom_site_fract_z
Si Si1 0.593387 0.189726 0.111434
Si Si2 0.899455 0.726253 0.876014
Si Si3 0.088953 0.109628 0.231795
Si Si4 0.298984 0.795074 0.183881
Si Si5 0.681310 0.140137 0.555924
Si Si6 0.979482 0.575958 0.644917
O O1 0.634858 0.233262 0.213557
O O2 0.559390 0.268818 0.035854
O O3 0.876428 0.139927 0.206823
O O4 0.320945 0.126973 0.989446
O O5 0.877309 0.811381 0.812946
O O6 0.584198 0.693398 0.758490
O O7 0.097657 0.660620 0.915710
O O8 0.059855 0.751416 0.025368
O O9 0.404575 0.089871 0.403887
O O10 0.956257 0.026392 0.132013
O O11 0.176024 0.883484 0.164129
O O12 0.860141 0.098443 0.704043
#
# Coordination Sequence:
#
# PCOD9245777 Si02
#       6
#     4   4   4   4   4   4
#     4  10  21  39  62  85 114 161 201 234 287 359
#     4  11  22  40  63  85 118 158 201 238 290 357
#     4  11  23  39  61  90 121 152 197 249 293 341
#     4  11  22  40  62  87 117 157 202 239 288 359
#     4  10  21  39  62  85 115 160 201 236 286 356
#     4  11  23  39  61  90 121 153 195 249 295 339
#
# _framework density 19.258928999999998
#
# number of rings (size 3 to 8) (size 9 to 14) (size 15 to 20)
#    0.000    1.333    3.333    4.000    4.667    0.667 
#    0.000    0.833    0.000    0.000    0.000    0.000 
#    0.000    0.000    0.000    0.000    0.000    0.000 
#
# Total GULP energy -134129.286614 kJ/mol
# GULP energy per Si atom -5588.720276 kJ/mol
# Density = 1.921509 g / cm^3
# Si number density = 19.258929 Si / 1000 Ang^3
#
#
#
# Elastic Constant Matrix: (Units=GPa)
#
#
# Indices 1 2 3 4 5 6 
#
# 1 97.9273 25.9619 16.1734 0.0000 21.2527 0.0000
# 2 25.9619 31.1181 -3.4776 0.0000 14.6401 0.0000
# 3 16.1734 -3.4776 58.1847 0.0000 10.9184 0.0000
# 4 0.0000 0.0000 0.0000 20.9478 0.0000 1.2764
# 5 21.2527 14.6401 10.9184 0.0000 34.5393 0.0000
# 6 0.0000 0.0000 0.0000 1.2764 0.0000 2.4227
#
#
#
# Elastic Compliance Matrix: (Units=1/GPa)
#
#
# Indices 1 2 3 4 5 6 
#
# 1 0.014491 -0.011216 -0.004164 0.000000 -0.002846 0.000000
# 2 -0.011216 0.050854 0.009469 0.000000 -0.017647 0.000000
# 3 -0.004164 0.009469 0.020392 0.000000 -0.007897 0.000000
# 4 0.000000 0.000000 0.000000 0.049321 0.000000 -0.025985
# 5 -0.002846 -0.017647 -0.007897 0.000000 0.040680 0.000000
# 6 0.000000 0.000000 0.000000 -0.025985 0.000000 0.426450
#
#
# Mechanical properties :
#
#
# Convention : Reuss Voigt Hill
#
# Bulk Modulus (GPa) = 13.52944 29.39397 21.46171
# Shear Modulus (GPa) = 7.82903 21.48678 14.65790
#
# Velocity S-wave (km/s) = 2.01841 3.34380 2.76179
# Velocity P-wave (km/s) = 3.53160 5.49579 4.61930
#
# Compressibility (1/GPa) = 0.07391288
#
# Stress axis : x y z
#
# Youngs Moduli (GPa) = 69.01050 19.66425 49.03879
#
# Poissons Ratio (x) = 0.22055 0.20421
# Poissons Ratio (y) = 0.77402 -0.46433
# Poissons Ratio (z) = 0.28738 -0.18619
#
# Static dielectric constant tensor:
#      x y z
#    x 1.649860 0.000000 -0.000170 
#    y 0.000000 1.660890 0.000000 
#    z -0.000170 0.000000 1.664030 
# 
# From -- ./inp_files/8409.got.cif
#   From: 2010.05.17/outbox.cif.g08.bks.cpg/sg14_5_cif.got.tgz:8409.got - 2010.06.03 17:49:19.
