data_PCOD9245870
_publ_section_title
;
Structure prediction by ZEFSAII (Michael W. Deem and Ramdas Pophale) SiO2 
 PCOD9245870
Probable space group: P 21/C
;
_chemical_formula_sum "Si O2"
_cell_formula_units_Z 20
_cell_length_a 9.413392
_cell_length_b 7.179178
_cell_length_c 21.708914
_cell_angle_alpha 90.000000
_cell_angle_beta 147.165191
_cell_angle_gamma 90.000000
_cell_volume 795.487794
_symmetry_space_group_name_H-M "P 21/C"
_symmetry_group_IT_number 14
_symmetry_cell_setting 'monoclinic'
loop_
_space_group_symop_operation_xyz
x,y,z
-x,1/2+y,1/2-z
-x,-y,-z
x,1/2-y,1/2+z
loop_
_atom_site_type_symbol
_atom_site_label
_atom_site_fract_x
_atom_site_fract_y
_atom_site_fract_z
Si Si1 0.732511 0.335602 0.343897
Si Si2 0.229619 0.000632 0.274093
Si Si3 0.325485 0.688136 0.543012
Si Si4 0.838089 0.559941 0.842551
Si Si5 0.288507 0.903515 0.840016
O O1 0.819428 0.445693 0.315080
O O2 0.761725 0.404496 0.424184
O O3 0.413932 0.331674 0.221978
O O4 0.858750 0.130435 0.388924
O O5 0.333030 0.815349 0.346604
O O6 0.961144 0.061713 0.208364
O O7 0.444463 0.161582 0.358922
O O8 0.457878 0.526352 0.551382
O O9 0.088496 0.810224 0.432048
O O10 0.785285 0.482317 0.754861
#
# Coordination Sequence:
#
# PCOD9245870 Si02
#       5
#     4   4   4   4   4
#     4  10  21  39  64  90 126 162 207 268 314 362
#     4  11  21  41  66  92 132 169 204 267 321 368
#     4  11  22  43  66  91 130 167 219 257 315 388
#     4  10  22  41  64  93 123 170 213 263 316 377
#     4  10  23  42  63  94 130 169 209 263 322 373
#
# _framework density 25.141807
#
# number of rings (size 3 to 8) (size 9 to 14) (size 15 to 20)
#    0.000    1.600    4.000    0.600    0.000    0.800 
#    3.600    4.000    0.000    0.000    0.000    0.000 
#    0.000    0.000    0.000    0.000    0.000    0.000 
#
# Total GULP energy -112037.590679 kJ/mol
# GULP energy per Si atom -5601.879534 kJ/mol
# Density = 2.508458 g / cm^3
# Si number density = 25.141807 Si / 1000 Ang^3
#
#
#
# Elastic Constant Matrix: (Units=GPa)
#
#
# Indices 1 2 3 4 5 6 
#
# 1 166.5829 49.5066 28.6542 0.0000 25.6784 0.0000
# 2 49.5066 154.8379 20.1021 0.0000 24.7879 0.0000
# 3 28.6542 20.1021 52.9723 0.0000 25.6468 0.0000
# 4 0.0000 0.0000 0.0000 37.0795 0.0000 18.5168
# 5 25.6784 24.7879 25.6468 0.0000 35.0258 0.0000
# 6 0.0000 0.0000 0.0000 18.5168 0.0000 42.9052
#
#
#
# Elastic Compliance Matrix: (Units=1/GPa)
#
#
# Indices 1 2 3 4 5 6 
#
# 1 0.007246 -0.001625 -0.001995 0.000000 -0.002701 0.000000
# 2 -0.001625 0.007654 0.000031 0.000000 -0.004248 0.000000
# 3 -0.001995 0.000031 0.029819 0.000000 -0.020394 0.000000
# 4 0.000000 0.000000 0.000000 0.034378 0.000000 -0.014837
# 5 -0.002701 -0.004248 -0.020394 0.000000 0.048470 0.000000
# 6 0.000000 0.000000 0.000000 -0.014837 0.000000 0.029710
#
#
# Mechanical properties :
#
#
# Convention : Reuss Voigt Hill
#
# Bulk Modulus (GPa) = 26.63760 63.43543 45.03652
# Shear Modulus (GPa) = 28.25369 41.41076 34.83223
#
# Velocity S-wave (km/s) = 3.35591 4.06284 3.72618
# Velocity P-wave (km/s) = 5.06301 6.87711 6.03858
#
# Compressibility (1/GPa) = 0.03754091
#
# Stress axis : x y z
#
# Youngs Moduli (GPa) = 138.01644 130.65009 33.53599
#
# Poissons Ratio (x) = 0.21234 0.06690
# Poissons Ratio (y) = 0.22431 -0.00105
# Poissons Ratio (z) = 0.27532 -0.00410
#
# Static dielectric constant tensor:
#      x y z
#    x 1.961640 0.000000 -0.064020 
#    y 0.000000 1.991910 0.000000 
#    z -0.064020 0.000000 2.036590 
# 
# From -- ./inp_files/33647.got.cif
#   From: 2010.05.17/outbox.cif.g08.bks.cpg/sg14_17_cif.got.tgz:33647.got - 2010.06.03 17:49:19.
