data_PCOD9245809
_publ_section_title
;
Structure prediction by ZEFSAII (Michael W. Deem and Ramdas Pophale) SiO2 
 PCOD9245809
Probable space group: P 21/C
;
_chemical_formula_sum "Si O2"
_cell_formula_units_Z 30
_cell_length_a 10.372349
_cell_length_b 19.046433
_cell_length_c 7.795853
_cell_angle_alpha 90.000000
_cell_angle_beta 42.484081
_cell_angle_gamma 90.000000
_cell_volume 1040.174119
_symmetry_space_group_name_H-M "P 21/C"
_symmetry_group_IT_number 14
_symmetry_cell_setting 'monoclinic'
loop_
_space_group_symop_operation_xyz
x,y,z
-x,1/2+y,1/2-z
-x,-y,-z
x,1/2-y,1/2+z
loop_
_atom_site_type_symbol
_atom_site_label
_atom_site_fract_x
_atom_site_fract_y
_atom_site_fract_z
Si Si1 0.771871 0.401258 0.466264
Si Si2 0.778212 0.589392 0.036474
Si Si3 0.500000 0.000000 0.000000
Si Si4 0.887779 0.268928 0.544282
Si Si5 0.342613 0.217430 0.518336
Si Si6 0.956572 0.358356 0.811255
Si Si7 0.402642 0.143075 0.809828
Si Si8 0.297450 0.965001 0.589472
O O1 0.625085 0.435727 0.478288
O O2 0.768855 0.319286 0.532865
O O3 0.731517 0.442575 0.687566
O O4 0.994187 0.410161 0.196626
O O5 0.695910 0.543623 0.269131
O O6 0.682310 0.665828 0.119539
O O7 0.708172 0.547436 0.933672
O O8 0.879760 0.308020 0.733135
O O9 0.868372 0.184773 0.556075
O O10 0.115791 0.271546 0.277151
O O11 0.423100 0.176306 0.601118
O O12 0.450735 0.289836 0.380200
O O13 0.873745 0.433579 0.853123
O O14 0.180906 0.365988 0.569119
O O15 0.524458 0.071357 0.688202
#
# Coordination Sequence:
#
# PCOD9245809 Si02
#       8
#     4   4   2   4   4   4   4   4
#     4  10  23  44  65  95 137 178 225 278 334 405
#     4  11  25  45  66  98 138 181 224 276 342 406
#     4  12  26  40  64  94 130 176 216 270 334 392
#     4   8  17  36  61  87 120 166 216 267 333 396
#     4   9  20  40  64  88 128 169 211 274 334 391
#     4   9  19  36  59  89 126 167 213 277 335 392
#     4  10  21  39  62  96 127 168 225 273 332 403
#     4  11  24  40  68  97 129 177 230 276 327 401
#
# _framework density 28.841325000000001
#
# number of rings (size 3 to 8) (size 9 to 14) (size 15 to 20)
#    0.000    2.133    0.000    2.400    0.000    8.533 
#    0.000    5.333    0.000    0.000    0.000    0.000 
#    0.000    0.000    0.000    0.000    0.000    0.000 
#
# Total GULP energy -167715.747492 kJ/mol
# GULP energy per Si atom -5590.524916 kJ/mol
# Density = 2.877568 g / cm^3
# Si number density = 28.841325 Si / 1000 Ang^3
#
#
#
# Elastic Constant Matrix: (Units=GPa)
#
#
# Indices 1 2 3 4 5 6 
#
# 1 106.5949 52.3262 51.3519 0.0000 -6.7314 0.0000
# 2 52.3262 138.3059 33.6873 0.0000 -9.9244 0.0000
# 3 51.3519 33.6873 143.7874 0.0000 -24.4820 0.0000
# 4 0.0000 0.0000 0.0000 48.3607 0.0000 -4.3597
# 5 -6.7314 -9.9244 -24.4820 0.0000 52.0853 0.0000
# 6 0.0000 0.0000 0.0000 -4.3597 0.0000 47.5111
#
#
#
# Elastic Compliance Matrix: (Units=1/GPa)
#
#
# Indices 1 2 3 4 5 6 
#
# 1 0.013232 -0.004118 -0.003917 0.000000 -0.000916 0.000000
# 2 -0.004118 0.008971 -0.000468 0.000000 0.000957 0.000000
# 3 -0.003917 -0.000468 0.009089 0.000000 0.003677 0.000000
# 4 0.000000 0.000000 0.000000 0.020850 0.000000 0.001913
# 5 -0.000916 0.000957 0.003677 0.000000 0.020992 0.000000
# 6 0.000000 0.000000 0.000000 0.001913 0.000000 0.021223
#
#
# Mechanical properties :
#
#
# Convention : Reuss Voigt Hill
#
# Bulk Modulus (GPa) = 69.99554 73.71322 71.85438
# Shear Modulus (GPa) = 43.05716 46.34627 44.70171
#
# Velocity S-wave (km/s) = 3.86800 4.01301 3.94117
# Velocity P-wave (km/s) = 6.65360 6.86193 6.75857
#
# Compressibility (1/GPa) = 0.01428663
#
# Stress axis : x y z
#
# Youngs Moduli (GPa) = 75.57605 111.47076 110.02003
#
# Poissons Ratio (x) = 0.45901 0.43092
# Poissons Ratio (y) = 0.31120 0.05151
# Poissons Ratio (z) = 0.29601 0.05219
#
# Static dielectric constant tensor:
#      x y z
#    x 1.557780 0.000000 -0.529020 
#    y 0.000000 2.147280 0.000000 
#    z -0.529020 0.000000 1.751110 
# 
# From -- ./inp_files/33160.got.cif
#   From: 2010.05.17/outbox.cif.g08.bks.cpg/sg14_17_cif.got.tgz:33160.got - 2010.06.03 17:49:19.
