data_PCOD9245818
_publ_section_title
;
Structure prediction by ZEFSAII (Michael W. Deem and Ramdas Pophale) SiO2 
 PCOD9245818
Probable space group: P 21/C
;
_chemical_formula_sum "Si O2"
_cell_formula_units_Z 28
_cell_length_a 9.661926
_cell_length_b 13.738713
_cell_length_c 17.548221
_cell_angle_alpha 90.000000
_cell_angle_beta 155.057502
_cell_angle_gamma 90.000000
_cell_volume 982.324977
_symmetry_space_group_name_H-M "P 21/C"
_symmetry_group_IT_number 14
_symmetry_cell_setting 'monoclinic'
loop_
_space_group_symop_operation_xyz
x,y,z
-x,1/2+y,1/2-z
-x,-y,-z
x,1/2-y,1/2+z
loop_
_atom_site_type_symbol
_atom_site_label
_atom_site_fract_x
_atom_site_fract_y
_atom_site_fract_z
Si Si1 0.289323 0.782844 0.189839
Si Si2 0.219564 0.544047 0.914949
Si Si3 0.554089 0.281954 0.057533
Si Si4 0.554915 0.524315 0.649280
Si Si5 0.934212 0.139749 0.168252
Si Si6 0.613977 0.501818 0.834099
Si Si7 0.772614 0.737200 0.823915
O O1 0.364668 0.762077 0.314833
O O2 0.412847 0.895770 0.244112
O O3 0.411943 0.731128 0.171783
O O4 0.918423 0.752433 0.983116
O O5 0.187314 0.647625 0.857405
O O6 0.867191 0.493053 0.754786
O O7 0.500000 0.500000 0.000000
O O8 0.383406 0.543017 0.080575
O O9 0.597487 0.184136 0.032331
O O10 0.204560 0.331310 0.866355
O O11 0.206021 0.538787 0.434673
O O12 0.474588 0.461339 0.684649
O O13 0.704254 0.628979 0.756108
O O14 0.076473 0.193859 0.164260
O O15 0.000000 0.500000 0.000000
#
# Coordination Sequence:
#
# PCOD9245818 Si02
#       7
#     4   4   4   4   4   4   4
#     4  11  22  36  58  88 120 144 193 247 294 355
#     4  11  21  38  62  84 118 164 204 235 300 361
#     4  12  23  37  59  93 123 154 192 247 309 358
#     4  10  21  39  63  87 116 156 203 249 295 355
#     4  12  21  39  62  90 121 153 196 250 305 356
#     4   9  19  36  59  79 109 155 203 234 278 346
#     4  11  19  36  61  87 111 152 191 242 299 345
#
# _framework density 28.503805
#
# number of rings (size 3 to 8) (size 9 to 14) (size 15 to 20)
#    0.000    1.143    7.143    0.857    0.000    0.000 
#    0.000    1.429    0.000    0.000    0.000    0.000 
#    0.000    0.000    0.000    0.000    0.000    0.000 
#
# Total GULP energy -155977.870787 kJ/mol
# GULP energy per Si atom -5570.638242 kJ/mol
# Density = 2.843893 g / cm^3
# Si number density = 28.503805 Si / 1000 Ang^3
#
#
#
# Elastic Constant Matrix: (Units=GPa)
#
#
# Indices 1 2 3 4 5 6 
#
# 1 188.9772 29.1459 39.7711 0.0000 -33.7604 0.0000
# 2 29.1459 73.5186 26.7401 0.0000 -7.9783 0.0000
# 3 39.7711 26.7401 117.9877 0.0000 -43.2112 0.0000
# 4 0.0000 0.0000 0.0000 41.1896 0.0000 2.7580
# 5 -33.7604 -7.9783 -43.2112 0.0000 59.9414 0.0000
# 6 0.0000 0.0000 0.0000 2.7580 0.0000 36.1846
#
#
#
# Elastic Compliance Matrix: (Units=1/GPa)
#
#
# Indices 1 2 3 4 5 6 
#
# 1 0.006222 -0.001932 -0.000639 0.000000 0.002787 0.000000
# 2 -0.001932 0.015440 -0.003389 0.000000 -0.001476 0.000000
# 3 -0.000639 -0.003389 0.012448 0.000000 0.008163 0.000000
# 4 0.000000 0.000000 0.000000 0.024403 0.000000 -0.001860
# 5 0.002787 -0.001476 0.008163 0.000000 0.023941 0.000000
# 6 0.000000 0.000000 0.000000 -0.001860 0.000000 0.027778
#
#
# Mechanical properties :
#
#
# Convention : Reuss Voigt Hill
#
# Bulk Modulus (GPa) = 45.06156 63.53310 54.29733
# Shear Modulus (GPa) = 38.59593 46.45155 42.52374
#
# Velocity S-wave (km/s) = 3.68375 4.04129 3.86665
# Velocity P-wave (km/s) = 5.82552 6.64182 6.24701
#
# Compressibility (1/GPa) = 0.02219186
#
# Stress axis : x y z
#
# Youngs Moduli (GPa) = 160.72348 64.76604 80.33175
#
# Poissons Ratio (x) = 0.12512 0.05132
# Poissons Ratio (y) = 0.31049 0.27221
# Poissons Ratio (z) = 0.10268 0.21946
#
# Static dielectric constant tensor:
#      x y z
#    x 2.227880 0.000000 -0.055360 
#    y 0.000000 2.662750 0.000000 
#    z -0.055360 0.000000 2.343290 
# 
# From -- ./inp_files/42125.got.cif
#   From: 2010.05.17/outbox.cif.g08.bks.cpg/sg14_22_cif.got.tgz:42125.got - 2010.06.03 17:49:19.
