data_PCOD9245667
_publ_section_title
;
Structure prediction by ZEFSAII (Michael W. Deem and Ramdas Pophale) SiO2 
 PCOD9245667
Probable space group: P 21/C
;
_chemical_formula_sum "Si O2"
_cell_formula_units_Z 32
_cell_length_a 16.136822
_cell_length_b 11.470853
_cell_length_c 18.557411
_cell_angle_alpha 90.000000
_cell_angle_beta 21.115881
_cell_angle_gamma 90.000000
_cell_volume 1237.489698
_symmetry_space_group_name_H-M "P 21/C"
_symmetry_group_IT_number 14
_symmetry_cell_setting 'monoclinic'
loop_
_space_group_symop_operation_xyz
x,y,z
-x,1/2+y,1/2-z
-x,-y,-z
x,1/2-y,1/2+z
loop_
_atom_site_type_symbol
_atom_site_label
_atom_site_fract_x
_atom_site_fract_y
_atom_site_fract_z
Si Si1 0.136027 0.011679 0.654389
Si Si2 0.653927 0.556152 0.730247
Si Si3 0.255338 0.345205 0.190792
Si Si4 0.684698 0.880819 0.052943
Si Si5 0.566147 0.634540 0.378836
Si Si6 0.374512 0.802420 0.719924
Si Si7 0.710547 0.574456 0.122040
Si Si8 0.806884 0.101248 0.714138
O O1 0.374070 0.936845 0.468128
O O2 0.108430 0.096437 0.746100
O O3 0.192467 0.086896 0.537255
O O4 0.908789 0.932719 0.831614
O O5 0.751094 0.628434 0.583589
O O6 0.701151 0.418000 0.677949
O O7 0.238713 0.409069 0.280414
O O8 0.266518 0.209038 0.204869
O O9 0.505481 0.354009 0.949193
O O10 0.478561 0.974133 0.227668
O O11 0.561707 0.774242 0.111913
O O12 0.592183 0.665285 0.273709
O O13 0.311146 0.647633 0.616624
O O14 0.632213 0.498713 0.330607
O O15 0.190080 0.708997 0.843088
O O16 0.947736 0.548038 0.970492
#
# Coordination Sequence:
#
# PCOD9245667 Si02
#       8
#     4   4   4   4   4   4   4   4
#     4  10  23  43  66  92 138 179 223 284 334 393
#     4  10  24  48  71  98 135 178 231 272 342 411
#     4  10  23  45  70  98 134 184 226 279 339 404
#     4  11  24  43  66 101 136 175 227 280 333 405
#     4  10  21  38  68 101 135 171 227 274 331 407
#     4  10  21  43  72  98 136 175 221 282 336 401
#     4  11  22  39  67 100 138 175 226 278 339 400
#     4  10  21  39  68 102 136 177 219 284 333 397
#
# _framework density 25.858801
#
# number of rings (size 3 to 8) (size 9 to 14) (size 15 to 20)
#    0.000    1.750    1.250    2.625    3.500    4.500 
#    0.000   17.500    0.000    0.000    0.000    0.000 
#    0.000    0.000    0.000    0.000    0.000    0.000 
#
# Total GULP energy -178579.662772 kJ/mol
# GULP energy per Si atom -5580.614462 kJ/mol
# Density = 2.579995 g / cm^3
# Si number density = 25.858801 Si / 1000 Ang^3
#
#
#
# Elastic Constant Matrix: (Units=GPa)
#
#
# Indices 1 2 3 4 5 6 
#
# 1 142.6521 8.8017 31.4458 0.0000 32.8588 0.0000
# 2 8.8017 55.0862 10.5311 0.0000 0.9617 0.0000
# 3 31.4458 10.5311 143.7192 0.0000 17.2599 0.0000
# 4 0.0000 0.0000 0.0000 3.2745 0.0000 0.9881
# 5 32.8588 0.9617 17.2599 0.0000 50.5881 0.0000
# 6 0.0000 0.0000 0.0000 0.9881 0.0000 41.9014
#
#
#
# Elastic Compliance Matrix: (Units=1/GPa)
#
#
# Indices 1 2 3 4 5 6 
#
# 1 0.008509 -0.001046 -0.001172 0.000000 -0.005107 0.000000
# 2 -0.001046 0.018541 -0.001219 0.000000 0.000743 0.000000
# 3 -0.001172 -0.001219 0.007518 0.000000 -0.001781 0.000000
# 4 0.000000 0.000000 0.000000 0.307576 0.000000 -0.007253
# 5 -0.005107 0.000743 -0.001781 0.000000 0.023678 0.000000
# 6 0.000000 0.000000 0.000000 -0.007253 0.000000 0.024037
#
#
# Mechanical properties :
#
#
# Convention : Reuss Voigt Hill
#
# Bulk Modulus (GPa) = 36.10973 49.22386 42.66680
# Shear Modulus (GPa) = 12.31638 38.53139 25.42388
#
# Velocity S-wave (km/s) = 2.18478 3.86433 3.13897
# Velocity P-wave (km/s) = 4.51208 6.24401 5.44732
#
# Compressibility (1/GPa) = 0.02769336
#
# Stress axis : x y z
#
# Youngs Moduli (GPa) = 117.51708 53.93565 133.02201
#
# Poissons Ratio (x) = 0.05644 0.15588
# Poissons Ratio (y) = 0.12298 0.16213
# Poissons Ratio (z) = 0.13771 0.06574
#
# Static dielectric constant tensor:
#      x y z
#    x 2.209620 0.000000 0.081500 
#    y 0.000000 2.845320 0.000000 
#    z 0.081500 0.000000 2.048730 
# 
# From -- ./inp_files/69425.got.cif
#   From: 2010.05.17/outbox.cif.g08.bks.cpg/sg14_35_cif.got.tgz:69425.got - 2010.06.03 17:49:19.
