data_PCOD9245362
_publ_section_title
;
Structure prediction by ZEFSAII (Michael W. Deem and Ramdas Pophale) SiO2 
 PCOD9245362
Probable space group: P 21/C
;
_chemical_formula_sum "Si O2"
_cell_formula_units_Z 20
_cell_length_a 22.994387
_cell_length_b 8.109288
_cell_length_c 14.079530
_cell_angle_alpha 90.000000
_cell_angle_beta 163.149624
_cell_angle_gamma 90.000000
_cell_volume 761.028748
_symmetry_space_group_name_H-M "P 21/C"
_symmetry_group_IT_number 14
_symmetry_cell_setting 'monoclinic'
loop_
_space_group_symop_operation_xyz
x,y,z
-x,1/2+y,1/2-z
-x,-y,-z
x,1/2-y,1/2+z
loop_
_atom_site_type_symbol
_atom_site_label
_atom_site_fract_x
_atom_site_fract_y
_atom_site_fract_z
Si Si1 0.315114 0.093747 0.108175
Si Si2 0.531877 0.449611 0.440898
Si Si3 0.731967 0.958257 0.758531
Si Si4 0.181271 0.630978 0.780081
Si Si5 0.105727 0.371061 0.084018
O O1 0.433790 0.267438 0.289005
O O2 0.200445 0.054795 0.026903
O O3 0.492122 0.961859 0.381866
O O4 0.166683 0.104398 0.788960
O O5 0.500000 0.500000 0.500000
O O6 0.759727 0.488462 0.760811
O O7 0.384679 0.555142 0.141562
O O8 0.794898 0.790444 0.807605
O O9 0.795940 0.120101 0.799174
O O10 0.000000 0.500000 0.500000
O O11 0.115608 0.786710 0.741242
#
# Coordination Sequence:
#
# PCOD9245362 Si02
#       5
#     4   4   4   4   4
#     4  11  20  38  68 102 136 187 235 294 363 438
#     4  12  23  41  72 107 141 186 244 303 368 439
#     4  10  21  37  67 100 140 186 234 289 371 432
#     4  10  21  42  69 100 146 188 235 300 362 435
#     4  11  21  42  73  97 142 189 237 297 370 424
#
# _framework density 26.280217
#
# number of rings (size 3 to 8) (size 9 to 14) (size 15 to 20)
#    0.000    1.200    8.000    0.000    0.000    0.000 
#    0.000    9.000    0.000    0.000    0.000    0.000 
#    0.000    0.000    0.000    0.000    0.000    0.000 
#
# Total GULP energy -111501.609086 kJ/mol
# GULP energy per Si atom -5575.080454 kJ/mol
# Density = 2.622040 g / cm^3
# Si number density = 26.280217 Si / 1000 Ang^3
#
#
#
# Elastic Constant Matrix: (Units=GPa)
#
#
# Indices 1 2 3 4 5 6 
#
# 1 131.6202 150.5445 190.1849 0.0000 -106.3380 0.0000
# 2 150.5445 -127.4811 -325.0632 0.0000 242.7325 0.0000
# 3 190.1849 -325.0632 -352.1617 0.0000 319.3235 0.0000
# 4 0.0000 0.0000 0.0000 28.2465 0.0000 13.3709
# 5 -106.3380 242.7325 319.3235 0.0000 -162.7205 0.0000
# 6 0.0000 0.0000 0.0000 13.3709 0.0000 44.5233
#
#
#
# Elastic Compliance Matrix: (Units=1/GPa)
#
#
# Indices 1 2 3 4 5 6 
#
# 1 0.005004 -0.000070 0.000376 0.000000 -0.002637 0.000000
# 2 -0.000070 0.006613 -0.003650 0.000000 0.002749 0.000000
# 3 0.000376 -0.003650 0.005680 0.000000 0.005457 0.000000
# 4 0.000000 0.000000 0.000000 0.041269 0.000000 -0.012394
# 5 -0.002637 0.002749 0.005457 0.000000 0.010387 0.000000
# 6 0.000000 0.000000 0.000000 -0.012394 0.000000 0.026182
#
#
# Mechanical properties :
#
#
# Convention : Reuss Voigt Hill
#
# Bulk Modulus (GPa) = 94.25191 -35.18781 29.53205
# Shear Modulus (GPa) = 47.45636 -42.23606 2.61015
#
# Velocity S-wave (km/s) = 4.25406 -4.01327 0.99768
# Velocity P-wave (km/s) = 7.75058 5.90708 3.54808
#
# Compressibility (1/GPa) = 0.01060986
#
# Stress axis : x y z
#
# Youngs Moduli (GPa) = 199.83669 151.21024 176.05759
#
# Poissons Ratio (x) = 0.01056 -0.06614
# Poissons Ratio (y) = 0.01396 0.64253
# Poissons Ratio (z) = -0.07507 0.55185
#
# Static dielectric constant tensor:
#      x y z
#    x 2.217990 0.000000 0.049860 
#    y 0.000000 2.193290 0.000000 
#    z 0.049860 0.000000 2.115800 
# 
# From -- ./inp_files/51307.got.cif
#   From: 2010.05.17/outbox.cif.g08.bks.cpg/sg14_26_cif.got.tgz:51307.got - 2010.06.03 17:49:19.
