data_PCOD9245975
_publ_section_title
;
Structure prediction by ZEFSAII (Michael W. Deem and Ramdas Pophale) SiO2 
 PCOD9245975
Probable space group: P 21/C
;
_chemical_formula_sum "Si O2"
_cell_formula_units_Z 16
_cell_length_a 8.184067
_cell_length_b 5.121733
_cell_length_c 15.066631
_cell_angle_alpha 90.000000
_cell_angle_beta 99.941663
_cell_angle_gamma 90.000000
_cell_volume 622.058830
_symmetry_space_group_name_H-M "P 21/C"
_symmetry_group_IT_number 14
_symmetry_cell_setting 'monoclinic'
loop_
_space_group_symop_operation_xyz
x,y,z
-x,1/2+y,1/2-z
-x,-y,-z
x,1/2-y,1/2+z
loop_
_atom_site_type_symbol
_atom_site_label
_atom_site_fract_x
_atom_site_fract_y
_atom_site_fract_z
Si Si1 0.121122 0.208765 0.963288
Si Si2 0.570421 0.564689 0.604606
Si Si3 0.939475 0.020718 0.294231
Si Si4 0.622777 0.910298 0.364079
O O1 0.017117 0.419336 0.898655
O O2 0.254481 0.338216 0.042003
O O3 0.234710 0.076147 0.897342
O O4 0.000000 0.000000 0.000000
O O5 0.500000 0.500000 0.500000
O O6 0.485616 0.835552 0.625124
O O7 0.499176 0.333112 0.657740
O O8 0.961384 0.289478 0.243354
O O9 0.750383 0.941563 0.295471
#
# Coordination Sequence:
#
# PCOD9245975 Si02
#       4
#     4   4   4   4
#     4  11  23  43  73 100 127 173 226 271 321 390
#     4  10  21  39  67 100 127 160 215 277 321 373
#     4  12  26  43  65  98 137 174 216 271 328 388
#     4  11  23  43  68  96 128 169 217 269 322 385
#
# _framework density 25.721041
#
# number of rings (size 3 to 8) (size 9 to 14) (size 15 to 20)
#    0.000    1.000    0.000    9.750    0.000    8.000 
#    0.000    5.000    0.000    6.000    0.000    0.000 
#    0.000    0.000    0.000    0.000    0.000    0.000 
#
# Total GULP energy -89749.268813 kJ/mol
# GULP energy per Si atom -5609.329301 kJ/mol
# Density = 2.566250 g / cm^3
# Si number density = 25.721041 Si / 1000 Ang^3
#
#
#
# Elastic Constant Matrix: (Units=GPa)
#
#
# Indices 1 2 3 4 5 6 
#
# 1 137.0335 72.8384 56.3019 0.0000 -46.3418 0.0000
# 2 72.8384 188.6681 51.6074 0.0000 -25.9738 0.0000
# 3 56.3019 51.6074 137.7224 0.0000 -26.3612 0.0000
# 4 0.0000 0.0000 0.0000 50.5078 0.0000 -26.4230
# 5 -46.3418 -25.9738 -26.3612 0.0000 63.6262 0.0000
# 6 0.0000 0.0000 0.0000 -26.4230 0.0000 56.4991
#
#
#
# Elastic Compliance Matrix: (Units=1/GPa)
#
#
# Indices 1 2 3 4 5 6 
#
# 1 0.012233 -0.003113 -0.002577 0.000000 0.006572 0.000000
# 2 -0.003113 0.006856 -0.001298 0.000000 -0.000006 0.000000
# 3 -0.002577 -0.001298 0.009058 0.000000 0.001347 0.000000
# 4 0.000000 0.000000 0.000000 0.026212 0.000000 0.012259
# 5 0.006572 -0.000006 0.001347 0.000000 0.021059 0.000000
# 6 0.000000 0.000000 0.000000 0.012259 0.000000 0.023432
#
#
# Mechanical properties :
#
#
# Convention : Reuss Voigt Hill
#
# Bulk Modulus (GPa) = 70.55763 91.65772 81.10768
# Shear Modulus (GPa) = 42.53490 52.97168 47.75329
#
# Velocity S-wave (km/s) = 4.07098 4.54306 4.31348
# Velocity P-wave (km/s) = 7.04192 7.95185 7.51068
#
# Compressibility (1/GPa) = 0.01417281
#
# Stress axis : x y z
#
# Youngs Moduli (GPa) = 81.74351 145.84959 110.39575
#
# Poissons Ratio (x) = 0.45409 0.28444
# Poissons Ratio (y) = 0.25450 0.14326
# Poissons Ratio (z) = 0.21062 0.18926
#
# Static dielectric constant tensor:
#      x y z
#    x 2.116790 0.000000 0.123460 
#    y 0.000000 1.943970 0.000000 
#    z 0.123460 0.000000 2.116250 
# 
# From -- ./inp_files/53771.got.cif
#   From: 2010.05.17/outbox.cif.g08.bks.cpg/sg14_27_cif.got.tgz:53771.got - 2010.06.03 17:49:19.
