data_PCOD9245580
_publ_section_title
;
Structure prediction by ZEFSAII (Michael W. Deem and Ramdas Pophale) SiO2 
 PCOD9245580
Probable space group: P 21/C
;
_chemical_formula_sum "Si O2"
_cell_formula_units_Z 16
_cell_length_a 21.310611
_cell_length_b 7.247310
_cell_length_c 15.007328
_cell_angle_alpha 90.000000
_cell_angle_beta 19.346854
_cell_angle_gamma 90.000000
_cell_volume 767.855156
_symmetry_space_group_name_H-M "P 21/C"
_symmetry_group_IT_number 14
_symmetry_cell_setting 'monoclinic'
loop_
_space_group_symop_operation_xyz
x,y,z
-x,1/2+y,1/2-z
-x,-y,-z
x,1/2-y,1/2+z
loop_
_atom_site_type_symbol
_atom_site_label
_atom_site_fract_x
_atom_site_fract_y
_atom_site_fract_z
Si Si1 0.179223 0.600355 0.217610
Si Si2 0.840709 0.126160 0.907213
Si Si3 0.751899 0.982267 0.562659
Si Si4 0.473255 0.361221 0.117547
O O1 0.122659 0.784819 0.238806
O O2 0.262337 0.473766 0.026141
O O3 0.000000 0.500000 0.500000
O O4 0.337803 0.642042 0.077490
O O5 0.743315 0.297986 0.090659
O O6 0.037288 0.074924 0.689925
O O7 0.698804 0.955947 0.096426
O O8 0.602928 0.841897 0.803343
O O9 0.500000 0.500000 0.000000
#
# Coordination Sequence:
#
# PCOD9245580 Si02
#       4
#     4   4   4   4
#     4  10  22  40  61  88 121 158 198 244 296 350
#     4  10  21  38  64  86 123 154 198 243 301 346
#     4  10  21  38  64  86 123 154 198 243 301 346
#     4  12  22  40  63  88 123 158 198 246 292 354
#
# _framework density 20.837264000000001
#
# number of rings (size 3 to 8) (size 9 to 14) (size 15 to 20)
#    1.500    0.000    2.500    4.500    0.000    1.000 
#    0.000    1.250    0.000    0.000    0.000    0.000 
#    0.000    0.000    0.000    0.000    0.000    0.000 
#
# Total GULP energy -89237.556843 kJ/mol
# GULP energy per Si atom -5577.347303 kJ/mol
# Density = 2.078984 g / cm^3
# Si number density = 20.837264 Si / 1000 Ang^3
#
#
#
# Elastic Constant Matrix: (Units=GPa)
#
#
# Indices 1 2 3 4 5 6 
#
# 1 60.2888 7.9927 0.4658 0.0000 -19.3403 0.0000
# 2 7.9927 105.9013 18.9493 0.0000 -12.7506 0.0000
# 3 0.4658 18.9493 58.4318 0.0000 -20.1683 0.0000
# 4 0.0000 0.0000 0.0000 38.5935 0.0000 -1.4616
# 5 -19.3403 -12.7506 -20.1683 0.0000 40.0638 0.0000
# 6 0.0000 0.0000 0.0000 -1.4616 0.0000 30.7992
#
#
#
# Elastic Compliance Matrix: (Units=1/GPa)
#
#
# Indices 1 2 3 4 5 6 
#
# 1 0.020412 -0.000879 0.004147 0.000000 0.011662 0.000000
# 2 -0.000879 0.010181 -0.002811 0.000000 0.001401 0.000000
# 3 0.004147 -0.002811 0.022239 0.000000 0.012303 0.000000
# 4 0.000000 0.000000 0.000000 0.025958 0.000000 0.001232
# 5 0.011662 0.001401 0.012303 0.000000 0.037229 0.000000
# 6 0.000000 0.000000 0.000000 0.001232 0.000000 0.032527
#
#
# Mechanical properties :
#
#
# Convention : Reuss Voigt Hill
#
# Bulk Modulus (GPa) = 18.60545 31.04860 24.82702
# Shear Modulus (GPa) = 30.20313 35.03893 32.62103
#
# Velocity S-wave (km/s) = 3.81133 4.10512 3.96095
# Velocity P-wave (km/s) = 5.32134 6.11574 5.73231
#
# Compressibility (1/GPa) = 0.05374770
#
# Stress axis : x y z
#
# Youngs Moduli (GPa) = 48.98988 98.22487 44.96621
#
# Poissons Ratio (x) = 0.08630 -0.18650
# Poissons Ratio (y) = 0.04304 0.12640
# Poissons Ratio (z) = -0.20319 0.27612
#
# Static dielectric constant tensor:
#      x y z
#    x 1.728190 0.000000 0.072270 
#    y 0.000000 1.753180 0.000000 
#    z 0.072270 0.000000 1.751010 
# 
# From -- ./inp_files/38504.got.cif
#   From: 2010.05.17/outbox.cif.g08.bks.cpg/sg14_20_cif.got.tgz:38504.got - 2010.06.03 17:49:19.
