data_PCOD9245923
_publ_section_title
;
Structure prediction by ZEFSAII (Michael W. Deem and Ramdas Pophale) SiO2 
 PCOD9245923
Probable space group: P 21/C
;
_chemical_formula_sum "Si O2"
_cell_formula_units_Z 28
_cell_length_a 7.834323
_cell_length_b 30.166519
_cell_length_c 5.645575
_cell_angle_alpha 90.000000
_cell_angle_beta 117.420677
_cell_angle_gamma 90.000000
_cell_volume 1184.339579
_symmetry_space_group_name_H-M "P 21/C"
_symmetry_group_IT_number 14
_symmetry_cell_setting 'monoclinic'
loop_
_space_group_symop_operation_xyz
x,y,z
-x,1/2+y,1/2-z
-x,-y,-z
x,1/2-y,1/2+z
loop_
_atom_site_type_symbol
_atom_site_label
_atom_site_fract_x
_atom_site_fract_y
_atom_site_fract_z
Si Si1 0.887984 0.497098 0.677125
Si Si2 0.070791 0.685111 0.385341
Si Si3 0.291330 0.851409 0.411625
Si Si4 0.284829 0.092234 0.947395
Si Si5 0.724426 0.637531 0.050268
Si Si6 0.609050 0.260089 0.891255
Si Si7 0.261457 0.903126 0.786036
O O1 0.751826 0.539913 0.586826
O O2 0.793814 0.448676 0.630433
O O3 0.000000 0.500000 0.500000
O O4 0.000000 0.500000 0.000000
O O5 0.199240 0.729440 0.441729
O O6 0.163201 0.639615 0.339034
O O7 0.852135 0.682187 0.161632
O O8 0.108971 0.673041 0.682010
O O9 0.491263 0.858513 0.397763
O O10 0.358453 0.811992 0.629100
O O11 0.219108 0.896989 0.478330
O O12 0.211192 0.114269 0.654090
O O13 0.229437 0.110819 0.174150
O O14 0.510978 0.100741 0.075567
O O15 0.512890 0.243290 0.588957
#
# Coordination Sequence:
#
# PCOD9245923 Si02
#       7
#     4   4   4   4   4   4   4
#     4  12  27  43  66 100 136 173 225 280 331 401
#     4  11  22  41  68  98 131 181 217 277 333 394
#     4  10  23  44  64 101 130 180 220 277 331 397
#     4  11  24  46  63 104 129 178 221 280 325 408
#     4  11  25  41  71  96 139 168 231 267 336 390
#     4  10  21  39  65  92 133 169 219 269 323 395
#     4  11  23  42  72  91 136 180 222 271 344 391
#
# _framework density 23.641869
#
# number of rings (size 3 to 8) (size 9 to 14) (size 15 to 20)
#    0.000    1.143    2.857    3.000    6.000    0.000 
#    0.000    9.286    0.000    0.000    0.000    0.000 
#    0.000    0.000    0.000    0.000    0.000    0.000 
#
# Total GULP energy -155901.541224 kJ/mol
# GULP energy per Si atom -5567.912187 kJ/mol
# Density = 2.358806 g / cm^3
# Si number density = 23.641869 Si / 1000 Ang^3
#
#
#
# Elastic Constant Matrix: (Units=GPa)
#
#
# Indices 1 2 3 4 5 6 
#
# 1 90.3953 34.2229 40.9717 0.0000 -7.0013 0.0000
# 2 34.2229 105.3611 27.7926 0.0000 -14.7235 0.0000
# 3 40.9717 27.7926 106.0453 0.0000 -31.9736 0.0000
# 4 0.0000 0.0000 0.0000 30.1847 0.0000 -1.7277
# 5 -7.0013 -14.7235 -31.9736 0.0000 35.4086 0.0000
# 6 0.0000 0.0000 0.0000 -1.7277 0.0000 47.2576
#
#
#
# Elastic Compliance Matrix: (Units=1/GPa)
#
#
# Indices 1 2 3 4 5 6 
#
# 1 0.014908 -0.003831 -0.005974 0.000000 -0.004039 0.000000
# 2 -0.003831 0.011346 -0.000411 0.000000 0.003589 0.000000
# 3 -0.005974 -0.000411 0.015717 0.000000 0.012840 0.000000
# 4 0.000000 0.000000 0.000000 0.033199 0.000000 0.001214
# 5 -0.004039 0.003589 0.012840 0.000000 0.040530 0.000000
# 6 0.000000 0.000000 0.000000 0.001214 0.000000 0.021205
#
#
# Mechanical properties :
#
#
# Convention : Reuss Voigt Hill
#
# Bulk Modulus (GPa) = 46.42834 56.41956 51.42395
# Shear Modulus (GPa) = 30.39235 35.82449 33.10842
#
# Velocity S-wave (km/s) = 3.58932 3.89691 3.74627
# Velocity P-wave (km/s) = 6.07112 6.64559 6.36484
#
# Compressibility (1/GPa) = 0.02153857
#
# Stress axis : x y z
#
# Youngs Moduli (GPa) = 67.08003 88.14048 63.62489
#
# Poissons Ratio (x) = 0.33766 0.38007
# Poissons Ratio (y) = 0.25698 0.02617
# Poissons Ratio (z) = 0.40071 0.03625
#
# Static dielectric constant tensor:
#      x y z
#    x 2.016980 0.000000 -0.230660 
#    y 0.000000 2.069810 0.000000 
#    z -0.230660 0.000000 2.522210 
# 
# From -- ./inp_files/2282.got.cif
#   From: 2010.05.17/outbox.cif.g08.bks.cpg/sg14_2_cif.got.tgz:2282.got - 2010.06.03 17:49:19.
