data_PCOD9245778
_publ_section_title
;
Structure prediction by ZEFSAII (Michael W. Deem and Ramdas Pophale) SiO2 
 PCOD9245778
Probable space group: P 21/C
;
_chemical_formula_sum "Si O2"
_cell_formula_units_Z 32
_cell_length_a 17.532283
_cell_length_b 7.968010
_cell_length_c 16.727739
_cell_angle_alpha 90.000000
_cell_angle_beta 32.938120
_cell_angle_gamma 90.000000
_cell_volume 1270.606973
_symmetry_space_group_name_H-M "P 21/C"
_symmetry_group_IT_number 14
_symmetry_cell_setting 'monoclinic'
loop_
_space_group_symop_operation_xyz
x,y,z
-x,1/2+y,1/2-z
-x,-y,-z
x,1/2-y,1/2+z
loop_
_atom_site_type_symbol
_atom_site_label
_atom_site_fract_x
_atom_site_fract_y
_atom_site_fract_z
Si Si1 0.858134 0.541084 0.672939
Si Si2 0.584323 0.101942 0.338625
Si Si3 0.290699 0.590155 0.725111
Si Si4 0.026734 0.641307 0.040980
Si Si5 0.372329 0.112634 0.302329
Si Si6 0.654133 0.502382 0.615576
Si Si7 0.722888 0.945976 0.442696
Si Si8 0.831398 0.565110 0.327944
O O1 0.709222 0.513821 0.762122
O O2 0.896299 0.734768 0.649887
O O3 0.835592 0.469376 0.783241
O O4 0.000000 0.500000 0.500000
O O5 0.581716 0.278224 0.387891
O O6 0.429067 0.026532 0.465603
O O7 0.625879 0.130359 0.209799
O O8 0.310753 0.441987 0.771521
O O9 0.243721 0.533996 0.678928
O O10 0.171856 0.703875 0.876434
O O11 0.995032 0.574603 0.157850
O O12 0.000000 0.500000 0.000000
O O13 0.363179 0.311675 0.329967
O O14 0.298482 0.022724 0.444384
O O15 0.529400 0.039114 0.164305
O O16 0.799538 0.479650 0.441173
O O17 0.759434 0.746840 0.406352
#
# Coordination Sequence:
#
# PCOD9245778 Si02
#       8
#     4   4   4   4   4   4   4   4
#     4  11  21  41  62  87 127 164 202 263 307 373
#     4  11  23  39  61  95 127 162 213 256 321 381
#     4  11  21  39  63  93 122 170 212 256 313 382
#     4   9  20  38  60  84 120 161 208 252 304 371
#     4  10  21  39  62  86 125 159 207 259 318 375
#     4  10  22  41  60  90 123 164 201 268 317 368
#     4   9  21  40  61  90 125 161 209 263 314 371
#     4   9  20  40  63  85 125 166 212 258 310 375
#
# _framework density 25.184812999999998
#
# number of rings (size 3 to 8) (size 9 to 14) (size 15 to 20)
#    0.000    2.000    1.250    2.625    5.250    2.000 
#    9.000    0.000    0.000    0.000    0.000    0.000 
#    0.000    0.000    0.000    0.000    0.000    0.000 
#
# Total GULP energy -178228.282259 kJ/mol
# GULP energy per Si atom -5569.633821 kJ/mol
# Density = 2.512749 g / cm^3
# Si number density = 25.184813 Si / 1000 Ang^3
#
#
#
# Elastic Constant Matrix: (Units=GPa)
#
#
# Indices 1 2 3 4 5 6 
#
# 1 35.4537 2.6768 -3.7612 0.0000 -9.1265 0.0000
# 2 2.6768 39.3364 -1.6853 0.0000 1.2994 0.0000
# 3 -3.7612 -1.6853 139.2810 0.0000 26.7135 0.0000
# 4 0.0000 0.0000 0.0000 21.1865 0.0000 -3.1892
# 5 -9.1265 1.2994 26.7135 0.0000 27.7355 0.0000
# 6 0.0000 0.0000 0.0000 -3.1892 0.0000 33.7383
#
#
#
# Elastic Compliance Matrix: (Units=1/GPa)
#
#
# Indices 1 2 3 4 5 6 
#
# 1 0.031288 -0.002582 -0.001452 0.000000 0.011815 0.000000
# 2 -0.002582 0.025723 0.000780 0.000000 -0.002806 0.000000
# 3 -0.001452 0.000780 0.008891 0.000000 -0.009078 0.000000
# 4 0.000000 0.000000 0.000000 0.047881 0.000000 0.004526
# 5 0.011815 -0.002806 -0.009078 0.000000 0.048818 0.000000
# 6 0.000000 0.000000 0.000000 0.004526 0.000000 0.030068
#
#
# Mechanical properties :
#
#
# Convention : Reuss Voigt Hill
#
# Bulk Modulus (GPa) = 16.83678 23.17019 20.00349
# Shear Modulus (GPa) = 22.83354 30.98812 26.91083
#
# Velocity S-wave (km/s) = 3.01431 3.51155 3.27239
# Velocity P-wave (km/s) = 4.33758 5.06571 4.71572
#
# Compressibility (1/GPa) = 0.05939376
#
# Stress axis : x y z
#
# Youngs Moduli (GPa) = 31.96097 38.87496 112.47275
#
# Poissons Ratio (x) = 0.10036 0.16336
# Poissons Ratio (y) = 0.08251 -0.08769
# Poissons Ratio (z) = 0.04642 -0.03031
#
# Static dielectric constant tensor:
#      x y z
#    x 2.094730 0.000000 0.061500 
#    y 0.000000 2.215140 0.000000 
#    z 0.061500 0.000000 2.252900 
# 
# From -- ./inp_files/61124.got.cif
#   From: 2010.05.17/outbox.cif.g08.bks.cpg/sg14_31_cif.got.tgz:61124.got - 2010.06.03 17:49:19.
