data_PCOD9245084
_publ_section_title
;
Structure prediction by ZEFSAII (Michael W. Deem and Ramdas Pophale) SiO2 
 PCOD9245084
Probable space group: P 21/C
;
_chemical_formula_sum "Si O2"
_cell_formula_units_Z 32
_cell_length_a 8.741796
_cell_length_b 12.293707
_cell_length_c 14.281190
_cell_angle_alpha 90.000000
_cell_angle_beta 93.612307
_cell_angle_gamma 90.000000
_cell_volume 1531.737046
_symmetry_space_group_name_H-M "P 21/C"
_symmetry_group_IT_number 14
_symmetry_cell_setting 'monoclinic'
loop_
_space_group_symop_operation_xyz
x,y,z
-x,1/2+y,1/2-z
-x,-y,-z
x,1/2-y,1/2+z
loop_
_atom_site_type_symbol
_atom_site_label
_atom_site_fract_x
_atom_site_fract_y
_atom_site_fract_z
Si Si1 0.447527 0.129973 0.501337
Si Si2 0.026354 0.654963 0.655159
Si Si3 0.791417 0.720562 0.268851
Si Si4 0.520983 0.313964 0.213331
Si Si5 0.861047 0.742235 0.480997
Si Si6 0.769393 0.481788 0.216070
Si Si7 0.877281 0.410668 0.016954
Si Si8 0.314981 0.696023 0.135709
O O1 0.506811 0.177757 0.601866
O O2 0.268568 0.168114 0.493936
O O3 0.536131 0.196786 0.424555
O O4 0.500000 0.000000 0.500000
O O5 0.086067 0.549275 0.712373
O O6 0.184093 0.711589 0.627105
O O7 0.944258 0.730813 0.729530
O O8 0.905166 0.657495 0.564957
O O9 0.651429 0.805216 0.255580
O O10 0.808588 0.695104 0.379768
O O11 0.749455 0.609570 0.215987
O O12 0.617026 0.420481 0.245607
O O13 0.617019 0.211344 0.257708
O O14 0.021014 0.803120 0.467180
O O15 0.799352 0.438256 0.112418
O O16 0.773785 0.402443 0.919132
O O17 0.000000 0.500000 0.000000
#
# Coordination Sequence:
#
# PCOD9245084 Si02
#       8
#     4   4   4   4   4   4   4   4
#     4  11  22  37  63  96 126 168 218 270 322 383
#     4  10  22  40  63  91 124 171 212 264 317 391
#     4  11  23  42  63  93 133 164 210 275 318 381
#     4  10  24  39  59  95 129 169 214 261 326 385
#     4  10  22  38  62  92 132 162 210 267 323 379
#     4  11  22  41  63  90 131 169 214 262 325 384
#     4  11  20  37  62  97 124 162 218 268 323 383
#     4  10  21  36  60  86 130 165 201 269 323 370
#
# _framework density 20.891314000000001
#
# number of rings (size 3 to 8) (size 9 to 14) (size 15 to 20)
#    0.000    1.500    2.500    3.000    3.500    0.500 
#    0.000    0.000    0.000   18.750    0.000    0.000 
#    0.000    0.000    0.000    0.000    0.000    0.000 
#
# Total GULP energy -178137.957140 kJ/mol
# GULP energy per Si atom -5566.811161 kJ/mol
# Density = 2.084376 g / cm^3
# Si number density = 20.891314 Si / 1000 Ang^3
#
#
#
# Elastic Constant Matrix: (Units=GPa)
#
#
# Indices 1 2 3 4 5 6 
#
# 1 103.2310 27.2732 38.8876 0.0000 -1.7707 0.0000
# 2 27.2732 48.2373 29.8408 0.0000 -9.2666 0.0000
# 3 38.8876 29.8408 116.8245 0.0000 18.1881 0.0000
# 4 0.0000 0.0000 0.0000 29.0502 0.0000 5.2779
# 5 -1.7707 -9.2666 18.1881 0.0000 40.7478 0.0000
# 6 0.0000 0.0000 0.0000 5.2779 0.0000 32.5139
#
#
#
# Elastic Compliance Matrix: (Units=1/GPa)
#
#
# Indices 1 2 3 4 5 6 
#
# 1 0.012081 -0.004922 -0.002871 0.000000 0.000687 0.000000
# 2 -0.004922 0.030167 -0.007632 0.000000 0.010053 0.000000
# 3 -0.002871 -0.007632 0.012633 0.000000 -0.007499 0.000000
# 4 0.000000 0.000000 0.000000 0.035469 0.000000 -0.005758
# 5 0.000687 0.010053 -0.007499 0.000000 0.030204 0.000000
# 6 0.000000 0.000000 0.000000 -0.005758 0.000000 0.031691
#
#
# Mechanical properties :
#
#
# Convention : Reuss Voigt Hill
#
# Bulk Modulus (GPa) = 41.61658 51.14400 46.38029
# Shear Modulus (GPa) = 26.16365 31.94848 29.05607
#
# Velocity S-wave (km/s) = 3.54272 3.91483 3.73342
# Velocity P-wave (km/s) = 6.05791 6.70587 6.39011
#
# Compressibility (1/GPa) = 0.02402889
#
# Stress axis : x y z
#
# Youngs Moduli (GPa) = 82.77613 33.14922 79.16089
#
# Poissons Ratio (x) = 0.16317 0.22727
# Poissons Ratio (y) = 0.40746 0.60417
# Poissons Ratio (z) = 0.23765 0.25300
#
# Static dielectric constant tensor:
#      x y z
#    x 1.824020 0.000000 0.036020 
#    y 0.000000 1.762010 0.000000 
#    z 0.036020 0.000000 1.799820 
# 
# From -- ./inp_files/40307.got.cif
#   From: 2010.05.17/outbox.cif.g08.bks.cpg/sg14_21_cif.got.tgz:40307.got - 2010.06.03 17:49:19.
