data_PCOD9245411
_publ_section_title
;
Structure prediction by ZEFSAII (Michael W. Deem and Ramdas Pophale) SiO2 
 PCOD9245411
Probable space group: P 21/C
;
_chemical_formula_sum "Si O2"
_cell_formula_units_Z 22
_cell_length_a 11.464741
_cell_length_b 5.347430
_cell_length_c 14.283383
_cell_angle_alpha 90.000000
_cell_angle_beta 85.646594
_cell_angle_gamma 90.000000
_cell_volume 873.143460
_symmetry_space_group_name_H-M "P 21/C"
_symmetry_group_IT_number 14
_symmetry_cell_setting 'monoclinic'
loop_
_space_group_symop_operation_xyz
x,y,z
-x,1/2+y,1/2-z
-x,-y,-z
x,1/2-y,1/2+z
loop_
_atom_site_type_symbol
_atom_site_label
_atom_site_fract_x
_atom_site_fract_y
_atom_site_fract_z
Si Si1 0.578040 0.377678 0.154308
Si Si2 0.241815 0.354024 0.584748
Si Si3 0.316771 0.955425 0.715199
Si Si4 0.500000 0.500000 0.500000
Si Si5 0.073132 0.959955 0.254435
Si Si6 0.776967 0.783054 0.611497
O O1 0.451268 0.455786 0.196519
O O2 0.561593 0.158845 0.081288
O O3 0.647930 0.598493 0.098218
O O4 0.656437 0.311508 0.239385
O O5 0.259044 0.071271 0.625824
O O6 0.370061 0.472607 0.561383
O O7 0.163021 0.503992 0.662810
O O8 0.182390 0.335720 0.487106
O O9 0.248043 0.094436 0.802564
O O10 0.134424 0.016640 0.350387
O O11 0.980916 0.185443 0.246776
#
# Coordination Sequence:
#
# PCOD9245411 Si02
#       6
#     4   4   4   2   4   4
#     4  11  21  37  64  96 151 191 228 290 356 455
#     4  10  24  44  70 108 141 188 236 300 367 446
#     4  10  21  38  59 100 145 187 228 280 362 446
#     4  10  22  38  68 112 144 178 234 292 362 444
#     4  11  29  52  76 104 142 196 256 316 363 427
#     4  11  24  42  70  99 136 191 243 302 371 431
#
# _framework density 25.196314000000001
#
# number of rings (size 3 to 8) (size 9 to 14) (size 15 to 20)
#    0.000    1.455    3.636    0.000    5.091    7.273 
#    0.000    0.000    0.000    0.000    0.000    0.000 
#    0.000    0.000    0.000    0.000    0.000    0.000 
#
# Total GULP energy -122579.867492 kJ/mol
# GULP energy per Si atom -5571.812159 kJ/mol
# Density = 2.513897 g / cm^3
# Si number density = 25.196314 Si / 1000 Ang^3
#
#
#
# Elastic Constant Matrix: (Units=GPa)
#
#
# Indices 1 2 3 4 5 6 
#
# 1 92.5366 34.5056 40.4416 0.0000 -14.7982 0.0000
# 2 34.5056 50.1575 10.8142 0.0000 -19.4615 0.0000
# 3 40.4416 10.8142 160.0002 0.0000 -14.1477 0.0000
# 4 0.0000 0.0000 0.0000 30.3726 0.0000 -9.3796
# 5 -14.7982 -19.4615 -14.1477 0.0000 28.4564 0.0000
# 6 0.0000 0.0000 0.0000 -9.3796 0.0000 38.7097
#
#
#
# Elastic Compliance Matrix: (Units=1/GPa)
#
#
# Indices 1 2 3 4 5 6 
#
# 1 0.016163 -0.010591 -0.003417 0.000000 -0.000537 0.000000
# 2 -0.010591 0.034085 0.002037 0.000000 0.018816 0.000000
# 3 -0.003417 0.002037 0.007261 0.000000 0.003226 0.000000
# 4 0.000000 0.000000 0.000000 0.035587 0.000000 0.008623
# 5 -0.000537 0.018816 0.003226 0.000000 0.049335 0.000000
# 6 0.000000 0.000000 0.000000 0.008623 0.000000 0.027923
#
#
# Mechanical properties :
#
#
# Convention : Reuss Voigt Hill
#
# Bulk Modulus (GPa) = 29.79099 52.69080 41.24089
# Shear Modulus (GPa) = 24.33267 33.96995 29.15131
#
# Velocity S-wave (km/s) = 3.11098 3.67578 3.40511
# Velocity P-wave (km/s) = 4.97529 6.24281 5.64474
#
# Compressibility (1/GPa) = 0.03356720
#
# Stress axis : x y z
#
# Youngs Moduli (GPa) = 61.86856 29.33869 137.71672
#
# Poissons Ratio (x) = 0.31073 0.47059
# Poissons Ratio (y) = 0.65525 -0.28053
# Poissons Ratio (z) = 0.21141 -0.05976
#
# Static dielectric constant tensor:
#      x y z
#    x 1.948470 0.000000 -0.008660 
#    y 0.000000 2.129310 0.000000 
#    z -0.008660 0.000000 1.931090 
# 
# From -- ./inp_files/42596.got.cif
#   From: 2010.05.17/outbox.cif.g08.bks.cpg/sg14_22_cif.got.tgz:42596.got - 2010.06.03 17:49:19.
