data_PCOD9245434
_publ_section_title
;
Structure prediction by ZEFSAII (Michael W. Deem and Ramdas Pophale) SiO2 
 PCOD9245434
Probable space group: P 21/C
;
_chemical_formula_sum "Si O2"
_cell_formula_units_Z 24
_cell_length_a 7.724489
_cell_length_b 22.674349
_cell_length_c 8.295176
_cell_angle_alpha 90.000000
_cell_angle_beta 52.968697
_cell_angle_gamma 90.000000
_cell_volume 1159.844876
_symmetry_space_group_name_H-M "P 21/C"
_symmetry_group_IT_number 14
_symmetry_cell_setting 'monoclinic'
loop_
_space_group_symop_operation_xyz
x,y,z
-x,1/2+y,1/2-z
-x,-y,-z
x,1/2-y,1/2+z
loop_
_atom_site_type_symbol
_atom_site_label
_atom_site_fract_x
_atom_site_fract_y
_atom_site_fract_z
Si Si1 0.610602 0.418407 0.544731
Si Si2 0.983254 0.431911 0.561865
Si Si3 0.346800 0.807603 0.215189
Si Si4 0.192791 0.318974 0.396992
Si Si5 0.838414 0.974183 0.722020
Si Si6 0.926248 0.274118 0.844504
O O1 0.755573 0.408123 0.622040
O O2 0.621024 0.363667 0.417651
O O3 0.365351 0.435991 0.725005
O O4 0.724632 0.472163 0.383891
O O5 0.163612 0.388834 0.381778
O O6 0.000000 0.500000 0.500000
O O7 0.024489 0.435940 0.728114
O O8 0.155568 0.810434 0.455220
O O9 0.276578 0.754812 0.136219
O O10 0.565815 0.800104 0.194075
O O11 0.078625 0.278820 0.326414
O O12 0.057105 0.309024 0.637038
O O13 0.000000 0.000000 0.500000
#
# Coordination Sequence:
#
# PCOD9245434 Si02
#       6
#     4   4   4   4   4   4
#     4  10  21  38  60  83 119 151 191 246 298 350
#     4  10  21  39  61  87 123 161 194 249 308 351
#     4  11  21  39  61  86 116 157 195 245 305 353
#     4  11  21  41  62  88 123 155 201 253 301 361
#     4  10  22  39  60  86 113 156 201 239 293 358
#     4  10  24  38  61  90 117 155 205 248 302 364
#
# _framework density 20.692423000000002
#
# number of rings (size 3 to 8) (size 9 to 14) (size 15 to 20)
#    0.000    1.667    3.333    1.000    2.333    0.667 
#    0.000    3.333    0.000    0.000    0.000    0.000 
#    0.000    0.000    0.000    0.000    0.000    0.000 
#
# Total GULP energy -133932.084634 kJ/mol
# GULP energy per Si atom -5580.503526 kJ/mol
# Density = 2.064533 g / cm^3
# Si number density = 20.692423 Si / 1000 Ang^3
#
#
#
# Elastic Constant Matrix: (Units=GPa)
#
#
# Indices 1 2 3 4 5 6 
#
# 1 129.8469 -4.6339 15.3889 0.0000 -2.3762 0.0000
# 2 -4.6339 59.0797 5.6510 0.0000 -2.2293 0.0000
# 3 15.3889 5.6510 51.5690 0.0000 -4.4955 0.0000
# 4 0.0000 0.0000 0.0000 24.8887 0.0000 3.3967
# 5 -2.3762 -2.2293 -4.4955 0.0000 13.4345 0.0000
# 6 0.0000 0.0000 0.0000 3.3967 0.0000 17.1309
#
#
#
# Elastic Compliance Matrix: (Units=1/GPa)
#
#
# Indices 1 2 3 4 5 6 
#
# 1 0.008035 0.000891 -0.002429 0.000000 0.000756 0.000000
# 2 0.000891 0.017272 -0.001952 0.000000 0.002371 0.000000
# 3 -0.002429 -0.001952 0.020874 0.000000 0.006231 0.000000
# 4 0.000000 0.000000 0.000000 0.041296 0.000000 -0.008188
# 5 0.000756 0.002371 0.006231 0.000000 0.077048 0.000000
# 6 0.000000 0.000000 0.000000 -0.008188 0.000000 0.059997
#
#
# Mechanical properties :
#
#
# Convention : Reuss Voigt Hill
#
# Bulk Modulus (GPa) = 25.51007 30.36750 27.93879
# Shear Modulus (GPa) = 20.44406 26.03012 23.23709
#
# Velocity S-wave (km/s) = 3.14665 3.55061 3.35472
# Velocity P-wave (km/s) = 5.05538 5.61397 5.34198
#
# Compressibility (1/GPa) = 0.03920020
#
# Stress axis : x y z
#
# Youngs Moduli (GPa) = 124.45629 57.89597 47.90738
#
# Poissons Ratio (x) = -0.05159 0.11639
# Poissons Ratio (y) = -0.11091 0.09352
# Poissons Ratio (z) = 0.30236 0.11301
#
# Static dielectric constant tensor:
#      x y z
#    x 1.784230 0.000000 0.006860 
#    y 0.000000 1.799680 0.000000 
#    z 0.006860 0.000000 1.710430 
# 
# From -- ./inp_files/10105.got.cif
#   From: 2010.05.17/outbox.cif.g08.bks.cpg/sg14_6_cif.got.tgz:10105.got - 2010.06.03 17:49:19.
