data_PCOD9245658
_publ_section_title
;
Structure prediction by ZEFSAII (Michael W. Deem and Ramdas Pophale) SiO2 
 PCOD9245658
Probable space group: P 21/C
;
_chemical_formula_sum "Si O2"
_cell_formula_units_Z 28
_cell_length_a 7.161920
_cell_length_b 22.906534
_cell_length_c 8.507425
_cell_angle_alpha 90.000000
_cell_angle_beta 54.874914
_cell_angle_gamma 90.000000
_cell_volume 1141.526662
_symmetry_space_group_name_H-M "P 21/C"
_symmetry_group_IT_number 14
_symmetry_cell_setting 'monoclinic'
loop_
_space_group_symop_operation_xyz
x,y,z
-x,1/2+y,1/2-z
-x,-y,-z
x,1/2-y,1/2+z
loop_
_atom_site_type_symbol
_atom_site_label
_atom_site_fract_x
_atom_site_fract_y
_atom_site_fract_z
Si Si1 0.745712 0.562048 0.078991
Si Si2 0.068636 0.558155 0.662005
Si Si3 0.294356 0.128468 0.077811
Si Si4 0.093292 0.673824 0.469632
Si Si5 0.465380 0.321376 0.948059
Si Si6 0.719872 0.744960 0.233471
Si Si7 0.379780 0.030104 0.830774
O O1 0.769374 0.588419 0.241928
O O2 0.612472 0.612610 0.043659
O O3 0.587065 0.505210 0.155907
O O4 0.989102 0.554367 0.879200
O O5 0.144858 0.622160 0.567526
O O6 0.830355 0.542612 0.686116
O O7 0.260137 0.513349 0.514294
O O8 0.360576 0.189700 0.124403
O O9 0.084804 0.145377 0.066915
O O10 0.448741 0.088858 0.889282
O O11 0.972001 0.727057 0.618460
O O12 0.303534 0.689602 0.257717
O O13 0.291080 0.279966 0.936975
O O14 0.444124 0.298417 0.135466
#
# Coordination Sequence:
#
# PCOD9245658 Si02
#       7
#     4   4   4   4   4   4   4
#     4  11  21  41  65  95 123 170 209 261 313 379
#     4  10  21  38  67  93 127 166 208 262 310 376
#     4  10  24  41  63  90 134 163 206 274 313 369
#     4  11  22  43  62  89 128 167 206 270 315 381
#     4  11  24  39  66  91 123 165 217 253 329 375
#     4  11  23  43  60  93 124 165 215 265 315 387
#     4  10  21  41  62  96 130 164 212 255 320 377
#
# _framework density 24.528554
#
# number of rings (size 3 to 8) (size 9 to 14) (size 15 to 20)
#    0.000    1.429    4.286    0.857    2.000    0.571 
#    0.000    2.857    0.000    0.000    0.000    0.000 
#    0.000    0.000    0.000    0.000    0.000    0.000 
#
# Total GULP energy -156573.803393 kJ/mol
# GULP energy per Si atom -5591.921550 kJ/mol
# Density = 2.447273 g / cm^3
# Si number density = 24.528554 Si / 1000 Ang^3
#
#
#
# Elastic Constant Matrix: (Units=GPa)
#
#
# Indices 1 2 3 4 5 6 
#
# 1 41.8553 17.6873 -2.0538 0.0000 -0.3754 0.0000
# 2 17.6873 104.6613 33.8917 0.0000 -3.4175 0.0000
# 3 -2.0538 33.8917 109.8413 0.0000 -27.6363 0.0000
# 4 0.0000 0.0000 0.0000 37.4981 0.0000 -5.3080
# 5 -0.3754 -3.4175 -27.6363 0.0000 37.5805 0.0000
# 6 0.0000 0.0000 0.0000 -5.3080 0.0000 29.1231
#
#
#
# Elastic Compliance Matrix: (Units=1/GPa)
#
#
# Indices 1 2 3 4 5 6 
#
# 1 0.026222 -0.005188 0.002501 0.000000 0.001629 0.000000
# 2 -0.005188 0.011739 -0.004250 0.000000 -0.002110 0.000000
# 3 0.002501 -0.004250 0.012726 0.000000 0.008997 0.000000
# 4 0.000000 0.000000 0.000000 0.027374 0.000000 0.004989
# 5 0.001629 -0.002110 0.008997 0.000000 0.033050 0.000000
# 6 0.000000 0.000000 0.000000 0.004989 0.000000 0.035246
#
#
# Mechanical properties :
#
#
# Convention : Reuss Voigt Hill
#
# Bulk Modulus (GPa) = 27.16472 39.48979 33.32725
# Shear Modulus (GPa) = 28.98532 34.62919 31.80726
#
# Velocity S-wave (km/s) = 3.44131 3.76146 3.60494
# Velocity P-wave (km/s) = 5.18545 5.91601 5.56274
#
# Compressibility (1/GPa) = 0.03681246
#
# Stress axis : x y z
#
# Youngs Moduli (GPa) = 38.13654 85.18855 78.58105
#
# Poissons Ratio (x) = 0.44196 -0.19653
# Poissons Ratio (y) = 0.19785 0.33395
# Poissons Ratio (z) = -0.09538 0.36203
#
# Static dielectric constant tensor:
#      x y z
#    x 2.016510 0.000000 0.070300 
#    y 0.000000 1.957800 0.000000 
#    z 0.070300 0.000000 1.927070 
# 
# From -- ./inp_files/10360.got.cif
#   From: 2010.05.17/outbox.cif.g08.bks.cpg/sg14_6_cif.got.tgz:10360.got - 2010.06.03 17:49:19.
