data_PCOD9245969
_publ_section_title
;
Structure prediction by ZEFSAII (Michael W. Deem and Ramdas Pophale) SiO2 
 PCOD9245969
Probable space group: P 21/C
;
_chemical_formula_sum "Si O2"
_cell_formula_units_Z 32
_cell_length_a 10.018146
_cell_length_b 17.580484
_cell_length_c 11.233701
_cell_angle_alpha 90.000000
_cell_angle_beta 133.296066
_cell_angle_gamma 90.000000
_cell_volume 1440.008108
_symmetry_space_group_name_H-M "P 21/C"
_symmetry_group_IT_number 14
_symmetry_cell_setting 'monoclinic'
loop_
_space_group_symop_operation_xyz
x,y,z
-x,1/2+y,1/2-z
-x,-y,-z
x,1/2-y,1/2+z
loop_
_atom_site_type_symbol
_atom_site_label
_atom_site_fract_x
_atom_site_fract_y
_atom_site_fract_z
Si Si1 0.889606 0.924091 0.068859
Si Si2 0.986658 0.307786 0.187391
Si Si3 0.983483 0.937052 0.717218
Si Si4 0.923085 0.165492 0.028617
Si Si5 0.317663 0.746122 0.803177
Si Si6 0.422621 0.383123 0.994597
Si Si7 0.785910 0.095723 0.361842
Si Si8 0.544768 0.980442 0.722200
O O1 0.866185 0.854388 0.146157
O O2 0.709334 0.966570 0.914094
O O3 0.022845 0.983189 0.217430
O O4 0.982177 0.888898 0.008825
O O5 0.050732 0.235378 0.150418
O O6 0.835037 0.276105 0.189728
O O7 0.890317 0.364363 0.035262
O O8 0.786534 0.897113 0.595457
O O9 0.113150 0.884525 0.878507
O O10 0.072454 0.941079 0.643321
O O11 0.754114 0.205901 0.861895
O O12 0.501810 0.702000 0.950839
O O13 0.317501 0.835019 0.771140
O O14 0.541761 0.438983 0.153037
O O15 0.442170 0.416949 0.873917
O O16 0.643935 0.034951 0.325085
#
# Coordination Sequence:
#
# PCOD9245969 Si02
#       8
#     4   4   4   4   4   4   4   4
#     4  11  24  41  68  98 136 181 235 283 333 417
#     4  10  21  42  67  97 135 184 221 279 353 407
#     4  12  24  41  70 102 137 180 230 283 345 402
#     4  10  21  39  66  96 131 179 229 274 338 412
#     4  10  21  42  69  94 133 182 222 283 342 411
#     4  11  24  41  68  99 136 176 235 276 339 418
#     4  11  24  44  68  98 142 176 223 290 348 405
#     4  11  24  42  65  98 136 180 224 287 335 401
#
# _framework density 22.222097000000002
#
# number of rings (size 3 to 8) (size 9 to 14) (size 15 to 20)
#    0.000    1.250    3.750    1.875    5.250    3.500 
#    0.000    1.250    0.000    0.000    0.000    0.000 
#    0.000    0.000    0.000    0.000    0.000    0.000 
#
# Total GULP energy -178896.551408 kJ/mol
# GULP energy per Si atom -5590.517231 kJ/mol
# Density = 2.217152 g / cm^3
# Si number density = 22.222097 Si / 1000 Ang^3
#
#
#
# Elastic Constant Matrix: (Units=GPa)
#
#
# Indices 1 2 3 4 5 6 
#
# 1 80.1353 3.7036 27.2783 0.0000 -2.2386 0.0000
# 2 3.7036 76.0236 40.4397 0.0000 -7.1411 0.0000
# 3 27.2783 40.4397 83.1774 0.0000 -10.5560 0.0000
# 4 0.0000 0.0000 0.0000 42.8170 0.0000 -8.4213
# 5 -2.2386 -7.1411 -10.5560 0.0000 27.5319 0.0000
# 6 0.0000 0.0000 0.0000 -8.4213 0.0000 28.5097
#
#
#
# Elastic Compliance Matrix: (Units=1/GPa)
#
#
# Indices 1 2 3 4 5 6 
#
# 1 0.014381 0.002422 -0.005955 0.000000 -0.000486 0.000000
# 2 0.002422 0.018199 -0.009479 0.000000 0.001283 0.000000
# 3 -0.005955 -0.009479 0.019142 0.000000 0.004396 0.000000
# 4 0.000000 0.000000 0.000000 0.024796 0.000000 0.007324
# 5 -0.000486 0.001283 0.004396 0.000000 0.038300 0.000000
# 6 0.000000 0.000000 0.000000 0.007324 0.000000 0.037239
#
#
# Mechanical properties :
#
#
# Convention : Reuss Voigt Hill
#
# Bulk Modulus (GPa) = 38.91715 42.46437 40.69076
# Shear Modulus (GPa) = 26.78842 30.96603 28.87723
#
# Velocity S-wave (km/s) = 3.47578 3.73698 3.60874
# Velocity P-wave (km/s) = 5.80163 6.14578 5.97618
#
# Compressibility (1/GPa) = 0.02569561
#
# Stress axis : x y z
#
# Youngs Moduli (GPa) = 69.53839 54.94891 52.24079
#
# Poissons Ratio (x) = -0.13306 0.31110
# Poissons Ratio (y) = -0.16839 0.49521
# Poissons Ratio (z) = 0.41411 0.52088
#
# Static dielectric constant tensor:
#      x y z
#    x 1.777300 0.000000 0.003270 
#    y 0.000000 1.863860 0.000000 
#    z 0.003270 0.000000 1.852180 
# 
# From -- ./inp_files/26053.got.cif
#   From: 2010.05.17/outbox.cif.g08.bks.cpg/sg14_14_cif.got.tgz:26053.got - 2010.06.03 17:49:19.
