data_PCOD9245832
_publ_section_title
;
Structure prediction by ZEFSAII (Michael W. Deem and Ramdas Pophale) SiO2 
 PCOD9245832
Probable space group: P 21/C
;
_chemical_formula_sum "Si O2"
_cell_formula_units_Z 24
_cell_length_a 7.953384
_cell_length_b 7.914508
_cell_length_c 18.437943
_cell_angle_alpha 90.000000
_cell_angle_beta 45.214867
_cell_angle_gamma 90.000000
_cell_volume 823.750925
_symmetry_space_group_name_H-M "P 21/C"
_symmetry_group_IT_number 14
_symmetry_cell_setting 'monoclinic'
loop_
_space_group_symop_operation_xyz
x,y,z
-x,1/2+y,1/2-z
-x,-y,-z
x,1/2-y,1/2+z
loop_
_atom_site_type_symbol
_atom_site_label
_atom_site_fract_x
_atom_site_fract_y
_atom_site_fract_z
Si Si1 0.592257 0.044221 0.791166
Si Si2 0.228158 0.489885 0.242486
Si Si3 0.857542 0.154128 0.079432
Si Si4 0.288569 0.348400 0.915493
Si Si5 0.973858 0.137306 0.345751
Si Si6 0.437629 0.819589 0.049413
O O1 0.414812 0.887562 0.856863
O O2 0.829327 0.984423 0.678183
O O3 0.688550 0.117829 0.837724
O O4 0.409703 0.196473 0.829545
O O5 0.136590 0.612932 0.335574
O O6 0.515723 0.505952 0.157355
O O7 0.134289 0.554786 0.193852
O O8 0.125830 0.304304 0.283186
O O9 0.006738 0.313893 0.003411
O O10 0.000000 0.000000 0.000000
O O11 0.351485 0.290080 0.980489
O O12 0.731355 0.213700 0.451545
O O13 0.500000 0.000000 0.000000
#
# Coordination Sequence:
#
# PCOD9245832 Si02
#       6
#     4   4   4   4   4   4
#     4   9  20  34  57  90 115 152 208 235 310 355
#     4  11  21  38  63  87 124 155 208 253 301 363
#     4  10  21  39  63  90 121 165 207 243 297 383
#     4   8  19  36  58  84 118 156 202 248 300 353
#     4  11  20  36  60  88 118 159 203 256 301 351
#     4   9  17  32  58  83 112 152 209 239 288 359
#
# _framework density 29.135017999999999
#
# number of rings (size 3 to 8) (size 9 to 14) (size 15 to 20)
#    1.000    1.333    1.667    1.000    0.000    2.667 
#    0.000    1.667    3.667    0.000    0.000    0.000 
#    0.000    0.000    0.000    0.000    0.000    0.000 
#
# Total GULP energy -133860.033576 kJ/mol
# GULP energy per Si atom -5577.501399 kJ/mol
# Density = 2.906871 g / cm^3
# Si number density = 29.135018 Si / 1000 Ang^3
#
#
#
# Elastic Constant Matrix: (Units=GPa)
#
#
# Indices 1 2 3 4 5 6 
#
# 1 193.3740 -1.5648 15.7798 0.0000 -0.3880 0.0000
# 2 -1.5648 83.0687 26.0540 0.0000 -1.8897 0.0000
# 3 15.7798 26.0540 107.2803 0.0000 -11.2991 0.0000
# 4 0.0000 0.0000 0.0000 57.3670 0.0000 -31.8345
# 5 -0.3880 -1.8897 -11.2991 0.0000 36.8057 0.0000
# 6 0.0000 0.0000 0.0000 -31.8345 0.0000 27.2048
#
#
#
# Elastic Compliance Matrix: (Units=1/GPa)
#
#
# Indices 1 2 3 4 5 6 
#
# 1 0.005246 0.000371 -0.000882 0.000000 -0.000197 0.000000
# 2 0.000371 0.013061 -0.003261 0.000000 -0.000327 0.000000
# 3 -0.000882 -0.003261 0.010566 0.000000 0.003067 0.000000
# 4 0.000000 0.000000 0.000000 0.049714 0.000000 0.058175
# 5 -0.000197 -0.000327 0.003067 0.000000 0.028092 0.000000
# 6 0.000000 0.000000 0.000000 0.058175 0.000000 0.104833
#
#
# Mechanical properties :
#
#
# Convention : Reuss Voigt Hill
#
# Bulk Modulus (GPa) = 46.88618 51.58455 49.23537
# Shear Modulus (GPa) = 22.10762 47.17244 34.64003
#
# Velocity S-wave (km/s) = 2.75762 4.02817 3.45185
# Velocity P-wave (km/s) = 5.12513 6.27524 5.72912
#
# Compressibility (1/GPa) = 0.02132824
#
# Stress axis : x y z
#
# Youngs Moduli (GPa) = 190.62343 76.56651 94.64203
#
# Poissons Ratio (x) = -0.02842 0.08352
# Poissons Ratio (y) = -0.07075 0.30861
# Poissons Ratio (z) = 0.16822 0.24967
#
# Static dielectric constant tensor:
#      x y z
#    x 2.619210 0.000000 0.165570 
#    y 0.000000 2.385520 0.000000 
#    z 0.165570 0.000000 2.423340 
# 
# From -- ./inp_files/56745.got.cif
#   From: 2010.05.17/outbox.cif.g08.bks.cpg/sg14_29_cif.got.tgz:56745.got - 2010.06.03 17:49:19.
