data_PCOD9245582
_publ_section_title
;
Structure prediction by ZEFSAII (Michael W. Deem and Ramdas Pophale) SiO2 
 PCOD9245582
Probable space group: P 21/C
;
_chemical_formula_sum "Si O2"
_cell_formula_units_Z 32
_cell_length_a 9.075757
_cell_length_b 9.352246
_cell_length_c 23.027669
_cell_angle_alpha 90.000000
_cell_angle_beta 119.934036
_cell_angle_gamma 90.000000
_cell_volume 1693.821659
_symmetry_space_group_name_H-M "P 21/C"
_symmetry_group_IT_number 14
_symmetry_cell_setting 'monoclinic'
loop_
_space_group_symop_operation_xyz
x,y,z
-x,1/2+y,1/2-z
-x,-y,-z
x,1/2-y,1/2+z
loop_
_atom_site_type_symbol
_atom_site_label
_atom_site_fract_x
_atom_site_fract_y
_atom_site_fract_z
Si Si1 0.130686 0.357814 0.704024
Si Si2 0.662405 0.385694 0.210603
Si Si3 0.012908 0.721127 0.204037
Si Si4 0.284134 0.243970 0.509988
Si Si5 0.671824 0.231222 0.582288
Si Si6 0.727163 0.845834 0.362534
Si Si7 0.936672 0.497993 0.091571
Si Si8 0.158822 0.030502 0.898106
O O1 0.260575 0.460064 0.762099
O O2 0.011614 0.300826 0.732236
O O3 0.217955 0.237898 0.683986
O O4 0.021172 0.449837 0.636884
O O5 0.671557 0.338886 0.145710
O O6 0.465029 0.393057 0.187142
O O7 0.794463 0.277182 0.268414
O O8 0.974548 0.577836 0.160401
O O9 0.879808 0.843540 0.156410
O O10 0.475733 0.217265 0.523955
O O11 0.282624 0.244548 0.579553
O O12 0.165475 0.114256 0.465721
O O13 0.214924 0.388256 0.466964
O O14 0.714209 0.400636 0.591905
O O15 0.815480 0.141265 0.575773
O O16 0.880659 0.958733 0.399615
#
# Coordination Sequence:
#
# PCOD9245582 Si02
#       8
#     4   4   4   4   4   4   4   4
#     4  11  21  40  61  90 121 159 204 244 306 363
#     4  10  22  37  59  93 126 149 200 249 305 361
#     4  10  21  38  65  90 119 156 201 254 294 366
#     4  10  24  40  59  88 124 154 211 245 299 357
#     4  11  19  39  64  90 115 156 204 260 291 352
#     4  11  24  38  62  85 126 167 191 251 302 366
#     4  11  21  40  64  86 117 165 201 248 302 349
#     4  10  21  38  64  89 119 156 201 249 303 347
#
# _framework density 18.892188000000001
#
# number of rings (size 3 to 8) (size 9 to 14) (size 15 to 20)
#    0.000    1.500    3.750    1.125    3.500    0.500 
#    2.250    0.000    0.000    0.000    0.000    0.000 
#    0.000    0.000    0.000    0.000    0.000    0.000 
#
# Total GULP energy -178318.422381 kJ/mol
# GULP energy per Si atom -5572.450699 kJ/mol
# Density = 1.884919 g / cm^3
# Si number density = 18.892188 Si / 1000 Ang^3
#
#
#
# Elastic Constant Matrix: (Units=GPa)
#
#
# Indices 1 2 3 4 5 6 
#
# 1 108.8828 31.4621 36.7299 0.0000 32.8466 0.0000
# 2 31.4621 75.7218 26.8541 0.0000 20.8361 0.0000
# 3 36.7299 26.8541 59.2112 0.0000 15.7355 0.0000
# 4 0.0000 0.0000 0.0000 21.6095 0.0000 -2.0279
# 5 32.8466 20.8361 15.7355 0.0000 30.7653 0.0000
# 6 0.0000 0.0000 0.0000 -2.0279 0.0000 14.2223
#
#
#
# Elastic Compliance Matrix: (Units=1/GPa)
#
#
# Indices 1 2 3 4 5 6 
#
# 1 0.015174 -0.000781 -0.005664 0.000000 -0.012775 0.000000
# 2 -0.000781 0.017745 -0.005313 0.000000 -0.008466 0.000000
# 3 -0.005664 -0.005313 0.023434 0.000000 -0.002340 0.000000
# 4 0.000000 0.000000 0.000000 0.046904 0.000000 0.006688
# 5 -0.012775 -0.008466 -0.002340 0.000000 0.053074 0.000000
# 6 0.000000 0.000000 0.000000 0.006688 0.000000 0.071266
#
#
# Mechanical properties :
#
#
# Convention : Reuss Voigt Hill
#
# Bulk Modulus (GPa) = 30.45384 48.21200 39.33292
# Shear Modulus (GPa) = 19.07975 23.23739 21.15857
#
# Velocity S-wave (km/s) = 3.18138 3.51094 3.35022
# Velocity P-wave (km/s) = 5.44516 6.48155 5.98583
#
# Compressibility (1/GPa) = 0.03283658
#
# Stress axis : x y z
#
# Youngs Moduli (GPa) = 65.90114 56.35476 42.67360
#
# Poissons Ratio (x) = 0.04401 0.24169
# Poissons Ratio (y) = 0.05147 0.22674
# Poissons Ratio (z) = 0.37324 0.29943
#
# Static dielectric constant tensor:
#      x y z
#    x 1.656360 0.000000 0.027660 
#    y 0.000000 1.658480 0.000000 
#    z 0.027660 0.000000 1.674900 
# 
# From -- ./inp_files/76277.got.cif
#   From: 2010.05.17/outbox.cif.g08.bks.cpg/sg14_39_cif.got.tgz:76277.got - 2010.06.03 17:49:19.
