data_PCOD9245347
_publ_section_title
;
Structure prediction by ZEFSAII (Michael W. Deem and Ramdas Pophale) SiO2 
 PCOD9245347
Probable space group: P 21/C
;
_chemical_formula_sum "Si O2"
_cell_formula_units_Z 32
_cell_length_a 21.710681
_cell_length_b 9.846685
_cell_length_c 19.126021
_cell_angle_alpha 90.000000
_cell_angle_beta 157.520924
_cell_angle_gamma 90.000000
_cell_volume 1563.308485
_symmetry_space_group_name_H-M "P 21/C"
_symmetry_group_IT_number 14
_symmetry_cell_setting 'monoclinic'
loop_
_space_group_symop_operation_xyz
x,y,z
-x,1/2+y,1/2-z
-x,-y,-z
x,1/2-y,1/2+z
loop_
_atom_site_type_symbol
_atom_site_label
_atom_site_fract_x
_atom_site_fract_y
_atom_site_fract_z
Si Si1 0.366039 0.937143 0.128005
Si Si2 0.674916 0.744123 0.918717
Si Si3 0.344241 0.342035 0.255234
Si Si4 0.294419 0.558227 0.399666
Si Si5 0.808390 0.385592 0.851991
Si Si6 0.300972 0.404445 0.816584
Si Si7 0.857822 0.723300 0.745058
Si Si8 0.348318 0.626382 0.763560
O O1 0.532569 0.854298 0.296022
O O2 0.292512 0.898806 0.125896
O O3 0.388030 0.100162 0.150316
O O4 0.270138 0.903557 0.955587
O O5 0.719812 0.698853 0.888173
O O6 0.820281 0.738961 0.126120
O O7 0.526533 0.395282 0.434197
O O8 0.243094 0.463457 0.182216
O O9 0.338110 0.212083 0.298583
O O10 0.180347 0.620675 0.220424
O O11 0.271991 0.395488 0.373323
O O12 0.673235 0.282063 0.738160
O O13 0.970884 0.341802 0.060143
O O14 0.170769 0.348694 0.733691
O O15 0.258107 0.537635 0.727687
O O16 0.466628 0.422131 0.034082
#
# Coordination Sequence:
#
# PCOD9245347 Si02
#       8
#     4   4   4   4   4   4   4   4
#     4  10  21  37  65  88 122 153 202 260 301 353
#     4  10  22  40  61  92 124 155 203 253 312 356
#     4  11  21  39  65  93 115 158 212 258 291 359
#     4  10  21  38  64  90 116 154 212 254 295 354
#     4  12  24  39  63  92 123 164 208 244 308 371
#     4  11  21  38  65  87 125 156 203 262 297 360
#     4  11  23  41  60  89 128 165 196 253 312 367
#     4  11  23  39  61  94 122 159 208 251 310 358
#
# _framework density 20.469408999999999
#
# number of rings (size 3 to 8) (size 9 to 14) (size 15 to 20)
#    0.000    1.250    5.000    1.500    3.500    0.500 
#    4.500    0.000    0.000    0.000    0.000    0.000 
#    0.000    0.000    0.000    0.000    0.000    0.000 
#
# Total GULP energy -178719.723746 kJ/mol
# GULP energy per Si atom -5584.991367 kJ/mol
# Density = 2.042282 g / cm^3
# Si number density = 20.469409 Si / 1000 Ang^3
#
#
#
# Elastic Constant Matrix: (Units=GPa)
#
#
# Indices 1 2 3 4 5 6 
#
# 1 62.7036 22.5724 36.5500 0.0000 -42.9273 0.0000
# 2 22.5724 57.3193 19.8257 0.0000 -18.0084 0.0000
# 3 36.5500 19.8257 93.3184 0.0000 -38.7129 0.0000
# 4 0.0000 0.0000 0.0000 22.2555 0.0000 -8.1874
# 5 -42.9273 -18.0084 -38.7129 0.0000 39.1246 0.0000
# 6 0.0000 0.0000 0.0000 -8.1874 0.0000 24.6231
#
#
#
# Elastic Compliance Matrix: (Units=1/GPa)
#
#
# Indices 1 2 3 4 5 6 
#
# 1 0.067668 -0.004188 0.007441 0.000000 0.079680 0.000000
# 2 -0.004188 0.020685 -0.001206 0.000000 0.003733 0.000000
# 3 0.007441 -0.001206 0.019023 0.000000 0.026433 0.000000
# 4 0.000000 0.000000 0.000000 0.051195 0.000000 0.017023
# 5 0.079680 0.003733 0.026433 0.000000 0.140857 0.000000
# 6 0.000000 0.000000 0.000000 0.017023 0.000000 0.046272
#
#
# Mechanical properties :
#
#
# Convention : Reuss Voigt Hill
#
# Bulk Modulus (GPa) = 8.97084 41.24860 25.10972
# Shear Modulus (GPa) = 13.20089 26.16018 19.68054
#
# Velocity S-wave (km/s) = 2.54226 3.57881 3.10411
# Velocity P-wave (km/s) = 3.60687 6.10510 5.01407
#
# Compressibility (1/GPa) = 0.11147224
#
# Stress axis : x y z
#
# Youngs Moduli (GPa) = 14.77810 48.34370 52.56763
#
# Poissons Ratio (x) = 0.20245 -0.39118
# Poissons Ratio (y) = 0.06189 0.06338
# Poissons Ratio (z) = -0.10997 0.05829
#
# Static dielectric constant tensor:
#      x y z
#    x 1.739330 0.000000 -0.019180 
#    y 0.000000 1.710160 0.000000 
#    z -0.019180 0.000000 1.740100 
# 
# From -- ./inp_files/70539.got.cif
#   From: 2010.05.17/outbox.cif.g08.bks.cpg/sg14_36_cif.got.tgz:70539.got - 2010.06.03 17:49:19.
