data_PCOD9245065
_publ_section_title
;
Structure prediction by ZEFSAII (Michael W. Deem and Ramdas Pophale) SiO2 
 PCOD9245065
Probable space group: P 21/C
;
_chemical_formula_sum "Si O2"
_cell_formula_units_Z 24
_cell_length_a 19.794196
_cell_length_b 8.291197
_cell_length_c 8.925873
_cell_angle_alpha 90.000000
_cell_angle_beta 139.266079
_cell_angle_gamma 90.000000
_cell_volume 955.911503
_symmetry_space_group_name_H-M "P 21/C"
_symmetry_group_IT_number 14
_symmetry_cell_setting 'monoclinic'
loop_
_space_group_symop_operation_xyz
x,y,z
-x,1/2+y,1/2-z
-x,-y,-z
x,1/2-y,1/2+z
loop_
_atom_site_type_symbol
_atom_site_label
_atom_site_fract_x
_atom_site_fract_y
_atom_site_fract_z
Si Si1 0.437087 0.603552 0.745419
Si Si2 0.875445 0.141295 0.984648
Si Si3 0.707939 0.584495 0.699828
Si Si4 0.543816 0.675758 0.635158
Si Si5 0.251761 0.804122 0.503250
Si Si6 0.066590 0.010486 0.461699
O O1 0.369292 0.452594 0.569034
O O2 0.530003 0.639624 0.786652
O O3 0.350393 0.743833 0.578951
O O4 0.478481 0.663111 0.977706
O O5 0.801865 0.147233 0.008619
O O6 0.899922 0.329588 0.011922
O O7 0.984070 0.058438 0.196944
O O8 0.820035 0.101713 0.735721
O O9 0.652459 0.695138 0.730709
O O10 0.714471 0.419919 0.807597
O O11 0.827745 0.616452 0.857504
O O12 0.500000 0.500000 0.500000
O O13 0.000000 0.000000 0.500000
#
# Coordination Sequence:
#
# PCOD9245065 Si02
#       6
#     4   4   4   4   4   4
#     4  11  17  36  63  82 113 157 208 241 307 363
#     4  11  22  37  65  95 120 167 210 261 312 371
#     4  10  22  38  62  85 126 161 203 261 310 366
#     4  10  21  36  59  86 117 153 200 260 299 359
#     4  11  18  36  64  88 112 164 213 248 306 383
#     4  11  22  42  64  92 131 164 210 262 312 375
#
# _framework density 25.106923999999999
#
# number of rings (size 3 to 8) (size 9 to 14) (size 15 to 20)
#    0.000    1.333    8.333    0.000    0.000    2.667 
#    3.000    3.333    0.000    0.000    0.000    0.000 
#    0.000    0.000    0.000    0.000    0.000    0.000 
#
# Total GULP energy -133766.661163 kJ/mol
# GULP energy per Si atom -5573.610882 kJ/mol
# Density = 2.504978 g / cm^3
# Si number density = 25.106924 Si / 1000 Ang^3
#
#
#
# Elastic Constant Matrix: (Units=GPa)
#
#
# Indices 1 2 3 4 5 6 
#
# 1 129.7219 -25.8615 6.6984 0.0000 14.3658 0.0000
# 2 -25.8615 4.3140 -51.3283 0.0000 4.3239 0.0000
# 3 6.6984 -51.3283 113.4438 0.0000 -3.6645 0.0000
# 4 0.0000 0.0000 0.0000 19.1120 0.0000 -4.7337
# 5 14.3658 4.3239 -3.6645 0.0000 42.7915 0.0000
# 6 0.0000 0.0000 0.0000 -4.7337 0.0000 28.9967
#
#
#
# Elastic Compliance Matrix: (Units=1/GPa)
#
#
# Indices 1 2 3 4 5 6 
#
# 1 0.006498 -0.008087 -0.004098 0.000000 -0.001715 0.000000
# 2 -0.008087 -0.042356 -0.018512 0.000000 0.005410 0.000000
# 3 -0.004098 -0.018512 0.000788 0.000000 0.003314 0.000000
# 4 0.000000 0.000000 0.000000 0.054528 0.000000 0.008902
# 5 -0.001715 0.005410 0.003314 0.000000 0.023682 0.000000
# 6 0.000000 0.000000 0.000000 0.008902 0.000000 0.035940
#
#
# Mechanical properties :
#
#
# Convention : Reuss Voigt Hill
#
# Bulk Modulus (GPa) = -10.36657 11.83297 0.73320
# Shear Modulus (GPa) = 46.15928 39.37811 42.76870
#
# Velocity S-wave (km/s) = 4.29243 3.96462 4.13178
# Velocity P-wave (km/s) = 4.51981 5.06763 4.80154
#
# Compressibility (1/GPa) = -0.09646395
#
# Stress axis : x y z
#
# Youngs Moduli (GPa) = 153.89133 -23.60961 1268.73204
#
# Poissons Ratio (x) = -0.19094 5.19955
# Poissons Ratio (y) = 1.24456 23.48652
# Poissons Ratio (z) = 0.63068 -0.43706
#
# Static dielectric constant tensor:
#      x y z
#    x 1.946050 0.000000 0.142220 
#    y 0.000000 2.056040 0.000000 
#    z 0.142220 0.000000 2.135790 
# 
# From -- ./inp_files/18833.got.cif
#   From: 2010.05.17/outbox.cif.g08.bks.cpg/sg14_10_cif.got.tgz:18833.got - 2010.06.03 17:49:19.
