data_PCOD9245762
_publ_section_title
;
Structure prediction by ZEFSAII (Michael W. Deem and Ramdas Pophale) SiO2 
 PCOD9245762
Probable space group: P 21/C
;
_chemical_formula_sum "Si O2"
_cell_formula_units_Z 24
_cell_length_a 26.289415
_cell_length_b 5.035125
_cell_length_c 26.154197
_cell_angle_alpha 90.000000
_cell_angle_beta 17.284741
_cell_angle_gamma 90.000000
_cell_volume 1028.644530
_symmetry_space_group_name_H-M "P 21/C"
_symmetry_group_IT_number 14
_symmetry_cell_setting 'monoclinic'
loop_
_space_group_symop_operation_xyz
x,y,z
-x,1/2+y,1/2-z
-x,-y,-z
x,1/2-y,1/2+z
loop_
_atom_site_type_symbol
_atom_site_label
_atom_site_fract_x
_atom_site_fract_y
_atom_site_fract_z
Si Si1 0.564837 0.119007 0.161237
Si Si2 0.571525 0.106184 0.484367
Si Si3 0.993420 0.099694 0.388483
Si Si4 0.091369 0.577697 0.143581
Si Si5 0.591351 0.603256 0.524647
Si Si6 0.021636 0.600835 0.421850
O O1 0.438482 0.357097 0.299683
O O2 0.743454 0.275175 0.993149
O O3 0.537113 0.003717 0.131567
O O4 0.520395 0.400128 0.550123
O O5 0.775734 0.106493 0.282387
O O6 0.500000 0.000000 0.500000
O O7 0.532101 0.897337 0.567260
O O8 0.901888 0.032420 0.423455
O O9 0.946310 0.387723 0.454636
O O10 0.199639 0.095200 0.179417
O O11 0.955246 0.889108 0.469842
O O12 0.054449 0.300395 0.206578
O O13 0.000000 0.500000 0.500000
#
# Coordination Sequence:
#
# PCOD9245762 Si02
#       6
#     4   4   4   4   4   4
#     4  12  26  44  64  99 142 171 211 279 344 375
#     4  10  21  39  64  89 116 165 216 255 312 398
#     4  10  21  39  66  91 116 169 217 254 315 388
#     4  12  24  42  72  96 128 174 233 266 308 416
#     4  10  21  41  65  86 125 170 210 257 324 386
#     4  10  21  39  61  89 127 153 201 276 329 360
#
# _framework density 23.331675000000001
#
# number of rings (size 3 to 8) (size 9 to 14) (size 15 to 20)
#    0.000    1.333    1.667    4.000    4.667    0.000 
#    9.000    0.000    0.000    0.000    0.000    0.000 
#    0.000    0.000    0.000    0.000    0.000    0.000 
#
# Total GULP energy -134310.833528 kJ/mol
# GULP energy per Si atom -5596.284730 kJ/mol
# Density = 2.327857 g / cm^3
# Si number density = 23.331675 Si / 1000 Ang^3
#
#
#
# Elastic Constant Matrix: (Units=GPa)
#
#
# Indices 1 2 3 4 5 6 
#
# 1 69.1026 -18.5433 -6.6805 0.0000 5.8164 0.0000
# 2 -18.5433 83.5040 10.1450 0.0000 1.7940 0.0000
# 3 -6.6805 10.1450 36.9552 0.0000 6.5587 0.0000
# 4 0.0000 0.0000 0.0000 -85.7365 0.0000 -13.8153
# 5 5.8164 1.7940 6.5587 0.0000 26.4579 0.0000
# 6 0.0000 0.0000 0.0000 -13.8153 0.0000 38.4046
#
#
#
# Elastic Compliance Matrix: (Units=1/GPa)
#
#
# Indices 1 2 3 4 5 6 
#
# 1 0.016000 0.003312 0.002769 0.000000 -0.004428 0.000000
# 2 0.003312 0.013074 -0.002828 0.000000 -0.000913 0.000000
# 3 0.002769 -0.002828 0.029718 0.000000 -0.007784 0.000000
# 4 0.000000 0.000000 0.000000 -0.011025 0.000000 -0.003966
# 5 -0.004428 -0.000913 -0.007784 0.000000 0.040761 0.000000
# 6 0.000000 0.000000 0.000000 -0.003966 0.000000 0.024612
#
#
# Mechanical properties :
#
#
# Convention : Reuss Voigt Hill
#
# Bulk Modulus (GPa) = 15.31432 17.71158 16.51295
# Shear Modulus (GPa) = 38.94027 9.46791 24.20409
#
# Velocity S-wave (km/s) = 4.08976 2.01662 3.22435
# Velocity P-wave (km/s) = 5.37396 3.60972 4.57764
#
# Compressibility (1/GPa) = 0.06529837
#
# Stress axis : x y z
#
# Youngs Moduli (GPa) = 62.49838 76.48679 33.64925
#
# Poissons Ratio (x) = -0.25331 -0.09318
# Poissons Ratio (y) = -0.20698 0.09517
# Poissons Ratio (z) = -0.17307 0.21633
#
# Static dielectric constant tensor:
#      x y z
#    x 1.815950 0.000000 -0.010320 
#    y 0.000000 1.841320 0.000000 
#    z -0.010320 0.000000 1.950370 
# 
# From -- ./inp_files/74781.got.cif
#   From: 2010.05.17/outbox.cif.g08.bks.cpg/sg14_38_cif.got.tgz:74781.got - 2010.06.03 17:49:19.
