data_PCOD9245789
_publ_section_title
;
Structure prediction by ZEFSAII (Michael W. Deem and Ramdas Pophale) SiO2 
 PCOD9245789
Probable space group: P 21/C
;
_chemical_formula_sum "Si O2"
_cell_formula_units_Z 32
_cell_length_a 9.160957
_cell_length_b 13.551838
_cell_length_c 25.336242
_cell_angle_alpha 90.000000
_cell_angle_beta 27.788793
_cell_angle_gamma 90.000000
_cell_volume 1466.446389
_symmetry_space_group_name_H-M "P 21/C"
_symmetry_group_IT_number 14
_symmetry_cell_setting 'monoclinic'
loop_
_space_group_symop_operation_xyz
x,y,z
-x,1/2+y,1/2-z
-x,-y,-z
x,1/2-y,1/2+z
loop_
_atom_site_type_symbol
_atom_site_label
_atom_site_fract_x
_atom_site_fract_y
_atom_site_fract_z
Si Si1 0.136849 0.011116 0.629763
Si Si2 0.375663 0.860139 0.223198
Si Si3 0.717432 0.020486 0.050061
Si Si4 0.628482 0.853115 0.767446
Si Si5 0.481413 0.860685 0.311053
Si Si6 0.700451 0.453299 0.809039
Si Si7 0.956560 0.115416 0.123885
Si Si8 0.786132 0.711123 0.029248
O O1 0.118159 0.989945 0.698137
O O2 0.924811 0.925960 0.669419
O O3 0.500000 0.000000 0.500000
O O4 0.995907 0.119006 0.660097
O O5 0.475055 0.940049 0.148194
O O6 0.473556 0.885607 0.251315
O O7 0.576972 0.766471 0.140663
O O8 0.560659 0.121959 0.117459
O O9 0.858312 0.985373 0.950208
O O10 0.000000 0.000000 0.000000
O O11 0.695438 0.737145 0.746856
O O12 0.377545 0.876883 0.800747
O O13 0.128731 0.824716 0.437831
O O14 0.579100 0.952977 0.314616
O O15 0.902367 0.388684 0.703235
O O16 0.415302 0.384784 0.919663
O O17 0.144051 0.207636 0.038670
#
# Coordination Sequence:
#
# PCOD9245789 Si02
#       8
#     4   4   4   4   4   4   4   4
#     4  11  25  43  60  86 130 171 197 246 321 380
#     4  10  21  39  62  89 124 164 208 257 312 364
#     4   8  14  31  59  86 118 155 196 256 316 352
#     4   9  19  38  61  88 123 166 209 254 308 363
#     4  11  22  37  64  98 121 154 214 268 300 358
#     4  12  24  37  61  94 129 164 205 250 305 383
#     4   9  19  38  66  93 116 155 214 265 301 355
#     4  10  21  39  65  92 122 163 208 264 316 353
#
# _framework density 21.821459999999998
#
# number of rings (size 3 to 8) (size 9 to 14) (size 15 to 20)
#    0.000    2.000    0.000    5.625    0.000    3.000 
#    0.000    5.625    0.000    3.000    0.000    0.000 
#    0.000    0.000    0.000    0.000    0.000    0.000 
#
# Total GULP energy -178343.889925 kJ/mol
# GULP energy per Si atom -5573.246560 kJ/mol
# Density = 2.177179 g / cm^3
# Si number density = 21.821460 Si / 1000 Ang^3
#
#
#
# Elastic Constant Matrix: (Units=GPa)
#
#
# Indices 1 2 3 4 5 6 
#
# 1 81.0629 37.3847 36.8717 0.0000 13.8173 0.0000
# 2 37.3847 99.4661 33.7275 0.0000 -0.7742 0.0000
# 3 36.8717 33.7275 107.2546 0.0000 1.5548 0.0000
# 4 0.0000 0.0000 0.0000 38.0495 0.0000 -1.5826
# 5 13.8173 -0.7742 1.5548 0.0000 30.4082 0.0000
# 6 0.0000 0.0000 0.0000 -1.5826 0.0000 21.8449
#
#
#
# Elastic Compliance Matrix: (Units=1/GPa)
#
#
# Indices 1 2 3 4 5 6 
#
# 1 0.018259 -0.005416 -0.004455 0.000000 -0.008207 0.000000
# 2 -0.005416 0.012867 -0.002226 0.000000 0.002902 0.000000
# 3 -0.004455 -0.002226 0.011535 0.000000 0.001378 0.000000
# 4 0.000000 0.000000 0.000000 0.026361 0.000000 0.001910
# 5 -0.008207 0.002902 0.001378 0.000000 0.036618 0.000000
# 6 0.000000 0.000000 0.000000 0.001910 0.000000 0.045916
#
#
# Mechanical properties :
#
#
# Convention : Reuss Voigt Hill
#
# Bulk Modulus (GPa) = 54.15185 55.97239 55.06212
# Shear Modulus (GPa) = 27.48669 30.04717 28.76693
#
# Velocity S-wave (km/s) = 3.55296 3.71476 3.63476
# Velocity P-wave (km/s) = 6.45764 6.64117 6.55005
#
# Compressibility (1/GPa) = 0.01846659
#
# Stress axis : x y z
#
# Youngs Moduli (GPa) = 54.76717 77.71940 86.69086
#
# Poissons Ratio (x) = 0.42093 0.38621
# Poissons Ratio (y) = 0.29662 0.19300
# Poissons Ratio (z) = 0.24399 0.17303
#
# Static dielectric constant tensor:
#      x y z
#    x 1.734620 0.000000 0.031330 
#    y 0.000000 1.889470 0.000000 
#    z 0.031330 0.000000 1.870000 
# 
# From -- ./inp_files/72469.got.cif
#   From: 2010.05.17/outbox.cif.g08.bks.cpg/sg14_37_cif.got.tgz:72469.got - 2010.06.03 17:49:19.
