data_PCOD9245009
_publ_section_title
;
Structure prediction by ZEFSAII (Michael W. Deem and Ramdas Pophale) SiO2 
 PCOD9245009
Probable space group: P 21/C
;
_chemical_formula_sum "Si O2"
_cell_formula_units_Z 32
_cell_length_a 27.275956
_cell_length_b 13.731111
_cell_length_c 26.801456
_cell_angle_alpha 90.000000
_cell_angle_beta 10.702650
_cell_angle_gamma 90.000000
_cell_volume 1864.164184
_symmetry_space_group_name_H-M "P 21/C"
_symmetry_group_IT_number 14
_symmetry_cell_setting 'monoclinic'
loop_
_space_group_symop_operation_xyz
x,y,z
-x,1/2+y,1/2-z
-x,-y,-z
x,1/2-y,1/2+z
loop_
_atom_site_type_symbol
_atom_site_label
_atom_site_fract_x
_atom_site_fract_y
_atom_site_fract_z
Si Si1 0.615465 0.807356 0.031856
Si Si2 0.000000 0.000002 0.223739
Si Si3 0.867094 0.212966 0.939352
Si Si4 0.615460 0.807360 0.737218
Si Si5 0.867097 0.287032 0.826457
Si Si6 0.758846 0.567552 0.298547
Si Si7 0.499999 0.000002 0.794640
Si Si8 0.758853 0.567549 0.183753
O O1 0.384109 0.730117 0.273714
O O2 0.493628 0.905044 0.177770
O O3 0.700110 0.839835 0.891880
O O4 0.879932 0.774191 0.795648
O O5 0.750024 0.988407 0.509437
O O6 0.050217 0.899997 0.144370
O O7 0.949785 0.100005 0.244802
O O8 0.249976 0.011598 0.009486
O O9 0.798832 0.249999 0.951168
O O10 0.879925 0.774193 0.444495
O O11 0.493625 0.905047 0.834976
O O12 0.700106 0.839839 0.707903
O O13 0.384102 0.730121 0.958076
O O14 0.820752 0.594393 0.179248
O O15 0.499993 0.500003 0.557239
O O16 0.999993 0.500000 0.076787
#
# Coordination Sequence:
#
# PCOD9245009 Si02
#       8
#     4   4   4   4   4   4   4   4
#     4  12  22  35  56  81 110 150 182 217 276 338
#     4  12  24  36  52  74 114 148 186 234 258 312
#     4  12  23  37  52  80 108 149 191 223 270 324
#     4  12  22  35  56  81 110 150 182 217 276 338
#     4  12  23  37  52  80 108 149 191 223 270 324
#     4  10  21  36  56  84 114 142 178 226 278 335
#     4  12  20  32  55  78 110 146 181 218 270 324
#     4  10  21  36  56  84 114 142 178 226 278 335
#
# _framework density 17.165869000000001
#
# number of rings (size 3 to 8) (size 9 to 14) (size 15 to 20)
#    0.000    0.500    6.250    3.750    1.750    0.000 
#    0.000    0.000    0.000    0.000    0.000    5.250 
#    0.000    0.000    0.000    0.000    0.000    0.000 
#
# Total GULP energy -178758.536215 kJ/mol
# GULP energy per Si atom -5586.204257 kJ/mol
# Density = 1.712680 g / cm^3
# Si number density = 17.165869 Si / 1000 Ang^3
#
#
#
# Elastic Constant Matrix: (Units=GPa)
#
#
# Indices 1 2 3 4 5 6 
#
# 1 78.3316 43.8583 28.2766 0.0000 4.1538 0.0000
# 2 43.8583 75.6879 11.9114 0.0000 4.3397 0.0000
# 3 28.2766 11.9114 105.6062 0.0000 -7.8640 0.0000
# 4 0.0000 0.0000 0.0000 32.2679 0.0000 -2.8972
# 5 4.1538 4.3397 -7.8640 0.0000 11.3680 0.0000
# 6 0.0000 0.0000 0.0000 -2.8972 0.0000 10.9397
#
#
#
# Elastic Compliance Matrix: (Units=1/GPa)
#
#
# Indices 1 2 3 4 5 6 
#
# 1 0.021096 -0.011056 -0.004914 0.000000 -0.006887 0.000000
# 2 -0.011056 0.019720 0.000502 0.000000 -0.003141 0.000000
# 3 -0.004914 0.000502 0.011437 0.000000 0.009516 0.000000
# 4 0.000000 0.000000 0.000000 0.031745 0.000000 0.008407
# 5 -0.006887 -0.003141 0.009516 0.000000 0.098264 0.000000
# 6 0.000000 0.000000 0.000000 0.008407 0.000000 0.093637
#
#
# Mechanical properties :
#
#
# Convention : Reuss Voigt Hill
#
# Bulk Modulus (GPa) = 46.91259 47.52425 47.21842
# Shear Modulus (GPa) = 15.92659 22.62041 19.27350
#
# Velocity S-wave (km/s) = 3.04930 3.63403 3.35443
# Velocity P-wave (km/s) = 6.30761 6.73451 6.52455
#
# Compressibility (1/GPa) = 0.02131624
#
# Stress axis : x y z
#
# Youngs Moduli (GPa) = 47.40294 50.71082 87.43598
#
# Poissons Ratio (x) = 0.56065 0.42969
# Poissons Ratio (y) = 0.52408 -0.04391
# Poissons Ratio (z) = 0.23296 -0.02547
#
# Static dielectric constant tensor:
#      x y z
#    x 1.604090 0.000000 0.001100 
#    y 0.000000 1.595850 0.000000 
#    z 0.001100 0.000000 1.596020 
# 
# From -- ./inp_files/78351.got.cif
#   From: 2010.05.17/outbox.cif.g08.bks.cpg/sg14_40_cif.got.tgz:78351.got - 2010.06.03 17:49:19.
