data_PCOD9245909
_publ_section_title
;
Structure prediction by ZEFSAII (Michael W. Deem and Ramdas Pophale) SiO2 
 PCOD9245909
Probable space group: P 21/C
;
_chemical_formula_sum "Si O2"
_cell_formula_units_Z 26
_cell_length_a 25.742928
_cell_length_b 7.826213
_cell_length_c 18.280054
_cell_angle_alpha 90.000000
_cell_angle_beta 15.929134
_cell_angle_gamma 90.000000
_cell_volume 1010.758700
_symmetry_space_group_name_H-M "P 21/C"
_symmetry_group_IT_number 14
_symmetry_cell_setting 'monoclinic'
loop_
_space_group_symop_operation_xyz
x,y,z
-x,1/2+y,1/2-z
-x,-y,-z
x,1/2-y,1/2+z
loop_
_atom_site_type_symbol
_atom_site_label
_atom_site_fract_x
_atom_site_fract_y
_atom_site_fract_z
Si Si1 0.829223 0.413361 0.660397
Si Si2 0.500000 0.000000 0.500000
Si Si3 0.067084 0.287068 0.934776
Si Si4 0.980532 0.575889 0.842168
Si Si5 0.163541 0.199902 0.603557
Si Si6 0.382197 0.706874 0.298675
Si Si7 0.608441 0.896080 0.103115
O O1 0.837447 0.599784 0.685919
O O2 0.865816 0.268674 0.672176
O O3 0.011989 0.399343 0.358921
O O4 0.647685 0.401580 0.855552
O O5 0.472998 0.848104 0.599392
O O6 0.188764 0.395082 0.712813
O O7 0.082233 0.376342 0.991967
O O8 0.070616 0.388034 0.714979
O O9 0.158155 0.702994 0.588699
O O10 0.826125 0.611931 0.989236
O O11 0.354156 0.242507 0.389032
O O12 0.459606 0.864850 0.240204
O O13 0.419851 0.555355 0.306444
#
# Coordination Sequence:
#
# PCOD9245909 Si02
#       7
#     4   2   4   4   4   4   4
#     4  10  21  39  65  88 124 169 209 252 321 377
#     4  12  22  42  62  94 128 172 208 266 312 396
#     4  10  22  41  65  92 125 169 210 263 317 388
#     4  11  23  40  66  94 130 163 219 266 319 379
#     4  10  22  40  61  94 123 169 212 263 310 381
#     4  11  25  41  66  92 129 168 213 265 324 383
#     4  10  24  42  61  94 125 164 211 264 322 383
#
# _framework density 25.723251999999999
#
# number of rings (size 3 to 8) (size 9 to 14) (size 15 to 20)
#    0.000    1.538    3.077    0.923    4.308    6.769 
#    0.000    0.000    0.000    3.692    0.000    0.000 
#    0.000    0.000    0.000    0.000    0.000    0.000 
#
# Total GULP energy -144944.617891 kJ/mol
# GULP energy per Si atom -5574.792996 kJ/mol
# Density = 2.566471 g / cm^3
# Si number density = 25.723252 Si / 1000 Ang^3
#
#
#
# Elastic Constant Matrix: (Units=GPa)
#
#
# Indices 1 2 3 4 5 6 
#
# 1 190.2851 41.5803 13.2481 0.0000 -26.1556 0.0000
# 2 41.5803 99.6169 -8.0934 0.0000 6.8622 0.0000
# 3 13.2481 -8.0934 29.3836 0.0000 -12.0297 0.0000
# 4 0.0000 0.0000 0.0000 13.1328 0.0000 -3.4389
# 5 -26.1556 6.8622 -12.0297 0.0000 38.4280 0.0000
# 6 0.0000 0.0000 0.0000 -3.4389 0.0000 49.9353
#
#
#
# Elastic Compliance Matrix: (Units=1/GPa)
#
#
# Indices 1 2 3 4 5 6 
#
# 1 0.006743 -0.003296 -0.002097 0.000000 0.004522 0.000000
# 2 -0.003296 0.011920 0.003417 0.000000 -0.003302 0.000000
# 3 -0.002097 0.003417 0.040243 0.000000 0.010560 0.000000
# 4 0.000000 0.000000 0.000000 0.077543 0.000000 0.005340
# 5 0.004522 -0.003302 0.010560 0.000000 0.032996 0.000000
# 6 0.000000 0.000000 0.000000 0.005340 0.000000 0.020394
#
#
# Mechanical properties :
#
#
# Convention : Reuss Voigt Hill
#
# Bulk Modulus (GPa) = 18.19732 45.86175 32.02954
# Shear Modulus (GPa) = 23.57287 38.46927 31.02107
#
# Velocity S-wave (km/s) = 3.03050 3.87137 3.47645
# Velocity P-wave (km/s) = 4.39714 6.15231 5.34723
#
# Compressibility (1/GPa) = 0.05495313
#
# Stress axis : x y z
#
# Youngs Moduli (GPa) = 148.29860 83.89579 24.84928
#
# Poissons Ratio (x) = 0.27656 0.05211
# Poissons Ratio (y) = 0.48886 -0.08492
# Poissons Ratio (z) = 0.31098 -0.28670
#
# Static dielectric constant tensor:
#      x y z
#    x 1.997940 0.000000 -0.006190 
#    y 0.000000 2.209740 0.000000 
#    z -0.006190 0.000000 2.089360 
# 
# From -- ./inp_files/61785.got.cif
#   From: 2010.05.17/outbox.cif.g08.bks.cpg/sg14_31_cif.got.tgz:61785.got - 2010.06.03 17:49:19.
