data_PCOD9245378
_publ_section_title
;
Structure prediction by ZEFSAII (Michael W. Deem and Ramdas Pophale) SiO2 
 PCOD9245378
Probable space group: P 21/C
;
_chemical_formula_sum "Si O2"
_cell_formula_units_Z 30
_cell_length_a 16.998315
_cell_length_b 12.564735
_cell_length_c 9.199008
_cell_angle_alpha 90.000000
_cell_angle_beta 145.207021
_cell_angle_gamma 90.000000
_cell_volume 1121.093460
_symmetry_space_group_name_H-M "P 21/C"
_symmetry_group_IT_number 14
_symmetry_cell_setting 'monoclinic'
loop_
_space_group_symop_operation_xyz
x,y,z
-x,1/2+y,1/2-z
-x,-y,-z
x,1/2-y,1/2+z
loop_
_atom_site_type_symbol
_atom_site_label
_atom_site_fract_x
_atom_site_fract_y
_atom_site_fract_z
Si Si1 0.114049 0.594320 0.469644
Si Si2 0.416156 0.930271 0.165166
Si Si3 0.959755 0.758872 0.919545
Si Si4 0.000000 0.500000 0.000000
Si Si5 0.701824 0.923159 0.748342
Si Si6 0.246957 0.761830 0.501044
Si Si7 0.480075 0.120898 0.070705
Si Si8 0.331098 0.258963 0.085250
O O1 0.982551 0.659302 0.321879
O O2 0.069617 0.533466 0.257244
O O3 0.188867 0.499312 0.667599
O O4 0.222482 0.690308 0.607717
O O5 0.571028 0.899515 0.446982
O O6 0.426353 0.005625 0.040103
O O7 0.358837 0.997143 0.215777
O O8 0.317261 0.828390 0.003928
O O9 0.801442 0.784279 0.716949
O O10 0.980045 0.632094 0.933932
O O11 0.093021 0.793267 0.219197
O O12 0.736383 0.823213 0.900499
O O13 0.356639 0.855024 0.687862
O O14 0.432251 0.190405 0.138126
O O15 0.407515 0.162490 0.813839
#
# Coordination Sequence:
#
# PCOD9245378 Si02
#       8
#     4   4   4   2   4   4   4   4
#     4  10  21  37  69  97 130 181 241 286 352 422
#     4   9  18  34  63  90 122 175 223 280 338 416
#     4  11  24  38  68 101 136 181 242 285 355 430
#     4  10  22  42  64  98 140 186 230 286 354 432
#     4   9  16  35  61  91 121 169 232 278 334 408
#     4  10  22  39  64  95 132 177 231 291 337 425
#     4  11  24  41  67  97 136 177 237 287 359 425
#     4  11  24  40  66  97 134 182 225 291 350 431
#
# _framework density 26.759588000000001
#
# number of rings (size 3 to 8) (size 9 to 14) (size 15 to 20)
#    0.000    1.867    2.667    0.800    9.333    0.000 
#    0.000    0.667    2.933    4.000    0.000    0.000 
#    0.000    0.000    0.000    0.000    0.000    0.000 
#
# Total GULP energy -167061.048617 kJ/mol
# GULP energy per Si atom -5568.701621 kJ/mol
# Density = 2.669868 g / cm^3
# Si number density = 26.759588 Si / 1000 Ang^3
#
#
#
# Elastic Constant Matrix: (Units=GPa)
#
#
# Indices 1 2 3 4 5 6 
#
# 1 50.9940 1.7130 10.3336 0.0000 -7.1146 0.0000
# 2 1.7130 83.4108 18.3292 0.0000 -13.9854 0.0000
# 3 10.3336 18.3292 137.5950 0.0000 -4.9625 0.0000
# 4 0.0000 0.0000 0.0000 50.1755 0.0000 -6.4199
# 5 -7.1146 -13.9854 -4.9625 0.0000 39.9972 0.0000
# 6 0.0000 0.0000 0.0000 -6.4199 0.0000 38.8938
#
#
#
# Elastic Compliance Matrix: (Units=1/GPa)
#
#
# Indices 1 2 3 4 5 6 
#
# 1 0.020396 0.000512 -0.001469 0.000000 0.003625 0.000000
# 2 0.000512 0.013083 -0.001620 0.000000 0.004465 0.000000
# 3 -0.001469 -0.001620 0.007598 0.000000 0.000115 0.000000
# 4 0.000000 0.000000 0.000000 0.020360 0.000000 0.003361
# 5 0.003625 0.004465 0.000115 0.000000 0.027222 0.000000
# 6 0.000000 0.000000 0.000000 0.003361 0.000000 0.026266
#
#
# Mechanical properties :
#
#
# Convention : Reuss Voigt Hill
#
# Bulk Modulus (GPa) = 27.83815 36.97239 32.40527
# Shear Modulus (GPa) = 37.86317 41.92156 39.89237
#
# Velocity S-wave (km/s) = 3.76565 3.96232 3.86524
# Velocity P-wave (km/s) = 5.41594 5.89744 5.66181
#
# Compressibility (1/GPa) = 0.03592193
#
# Stress axis : x y z
#
# Youngs Moduli (GPa) = 49.02824 76.43539 131.61321
#
# Poissons Ratio (x) = -0.03911 0.19337
# Poissons Ratio (y) = -0.02509 0.21324
# Poissons Ratio (z) = 0.07203 0.12384
#
# Static dielectric constant tensor:
#      x y z
#    x 2.282530 0.000000 0.038620 
#    y 0.000000 2.171100 0.000000 
#    z 0.038620 0.000000 2.014530 
# 
# From -- ./inp_files/35215.got.cif
#   From: 2010.05.17/outbox.cif.g08.bks.cpg/sg14_18_cif.got.tgz:35215.got - 2010.06.03 17:49:19.
