data_PCOD9245547
_publ_section_title
;
Structure prediction by ZEFSAII (Michael W. Deem and Ramdas Pophale) SiO2 
 PCOD9245547
Probable space group: P 21/C
;
_chemical_formula_sum "Si O2"
_cell_formula_units_Z 28
_cell_length_a 6.721219
_cell_length_b 10.447395
_cell_length_c 20.593726
_cell_angle_alpha 90.000000
_cell_angle_beta 62.631185
_cell_angle_gamma 90.000000
_cell_volume 1284.210166
_symmetry_space_group_name_H-M "P 21/C"
_symmetry_group_IT_number 14
_symmetry_cell_setting 'monoclinic'
loop_
_space_group_symop_operation_xyz
x,y,z
-x,1/2+y,1/2-z
-x,-y,-z
x,1/2-y,1/2+z
loop_
_atom_site_type_symbol
_atom_site_label
_atom_site_fract_x
_atom_site_fract_y
_atom_site_fract_z
Si Si1 0.364855 0.016824 0.427636
Si Si2 0.571931 0.094525 0.843193
Si Si3 0.245483 0.875007 0.883658
Si Si4 0.526332 0.639171 0.790774
Si Si5 0.053125 0.529518 0.276366
Si Si6 0.221669 0.830081 0.625668
Si Si7 0.037767 0.795798 0.519666
O O1 0.610910 0.051962 0.416436
O O2 0.190827 0.131656 0.461601
O O3 0.399211 0.977687 0.346800
O O4 0.241574 0.894380 0.475260
O O5 0.364917 0.003477 0.889842
O O6 0.798886 0.013780 0.813971
O O7 0.538855 0.141187 0.774431
O O8 0.610443 0.215825 0.882213
O O9 0.438048 0.769221 0.837096
O O10 0.122273 0.906140 0.834253
O O11 0.086489 0.819209 0.963464
O O12 0.784586 0.594972 0.757244
O O13 0.097692 0.623904 0.209274
O O14 0.059127 0.779664 0.593759
#
# Coordination Sequence:
#
# PCOD9245547 Si02
#       7
#     4   4   4   4   4   4   4
#     4   9  20  39  62  86 116 151 198 242 291 340
#     4  11  23  36  58  88 119 154 197 239 297 346
#     4  10  22  39  57  86 120 151 193 241 295 350
#     4   9  19  38  60  83 115 152 194 248 287 346
#     4  10  22  38  59  85 115 155 196 238 295 345
#     4  11  22  38  59  90 116 150 199 243 284 348
#     4  10  21  38  63  87 115 156 193 241 294 342
#
# _framework density 21.803284999999999
#
# number of rings (size 3 to 8) (size 9 to 14) (size 15 to 20)
#    0.000    2.000    1.429    1.286    2.000    4.000 
#    0.000    1.429    0.000    0.000    0.000    0.000 
#    0.000    0.000    0.000    0.000    0.000    0.000 
#
# Total GULP energy -156388.282941 kJ/mol
# GULP energy per Si atom -5585.295819 kJ/mol
# Density = 2.175366 g / cm^3
# Si number density = 21.803285 Si / 1000 Ang^3
#
#
#
# Elastic Constant Matrix: (Units=GPa)
#
#
# Indices 1 2 3 4 5 6 
#
# 1 25.3852 -9.3897 16.8645 0.0000 7.5550 0.0000
# 2 -9.3897 45.1308 6.6528 0.0000 -4.3012 0.0000
# 3 16.8645 6.6528 39.6752 0.0000 8.5138 0.0000
# 4 0.0000 0.0000 0.0000 27.6689 0.0000 -6.6215
# 5 7.5550 -4.3012 8.5138 0.0000 23.9124 0.0000
# 6 0.0000 0.0000 0.0000 -6.6215 0.0000 24.5746
#
#
#
# Elastic Compliance Matrix: (Units=1/GPa)
#
#
# Indices 1 2 3 4 5 6 
#
# 1 0.068646 0.018072 -0.030590 0.000000 -0.007546 0.000000
# 2 0.018072 0.028271 -0.013305 0.000000 0.004112 0.000000
# 3 -0.030590 -0.013305 0.042094 0.000000 -0.007716 0.000000
# 4 0.000000 0.000000 0.000000 0.038633 0.000000 0.010409
# 5 -0.007546 0.004112 -0.007716 0.000000 0.047690 0.000000
# 6 0.000000 0.000000 0.000000 0.010409 0.000000 0.043497
#
#
# Mechanical properties :
#
#
# Convention : Reuss Voigt Hill
#
# Bulk Modulus (GPa) = 11.44612 15.38295 13.41453
# Shear Modulus (GPa) = 14.30210 21.63543 17.96876
#
# Velocity S-wave (km/s) = 2.56395 3.15350 2.87388
# Velocity P-wave (km/s) = 3.74516 4.50889 4.14465
#
# Compressibility (1/GPa) = 0.08736586
#
# Stress axis : x y z
#
# Youngs Moduli (GPa) = 14.56748 35.37184 23.75627
#
# Poissons Ratio (x) = -0.63925 0.72671
# Poissons Ratio (y) = -0.26327 0.31608
# Poissons Ratio (z) = 0.44562 0.47062
#
# Static dielectric constant tensor:
#      x y z
#    x 1.752620 0.000000 0.002680 
#    y 0.000000 1.817470 0.000000 
#    z 0.002680 0.000000 1.822130 
# 
# From -- ./inp_files/61312.got.cif
#   From: 2010.05.17/outbox.cif.g08.bks.cpg/sg14_31_cif.got.tgz:61312.got - 2010.06.03 17:49:19.
