data_PCOD9245212
_publ_section_title
;
Structure prediction by ZEFSAII (Michael W. Deem and Ramdas Pophale) SiO2 
 PCOD9245212
Probable space group: P 21/C
;
_chemical_formula_sum "Si O2"
_cell_formula_units_Z 16
_cell_length_a 8.073626
_cell_length_b 7.796562
_cell_length_c 18.703939
_cell_angle_alpha 90.000000
_cell_angle_beta 140.395050
_cell_angle_gamma 90.000000
_cell_volume 750.548215
_symmetry_space_group_name_H-M "P 21/C"
_symmetry_group_IT_number 14
_symmetry_cell_setting 'monoclinic'
loop_
_space_group_symop_operation_xyz
x,y,z
-x,1/2+y,1/2-z
-x,-y,-z
x,1/2-y,1/2+z
loop_
_atom_site_type_symbol
_atom_site_label
_atom_site_fract_x
_atom_site_fract_y
_atom_site_fract_z
Si Si1 0.257284 0.755710 0.185824
Si Si2 0.854685 0.447298 0.550436
Si Si3 0.272056 0.948541 0.825260
Si Si4 0.837777 0.875604 0.346587
O O1 0.245333 0.721413 0.267770
O O2 0.553545 0.795656 0.264971
O O3 0.167531 0.570144 0.125908
O O4 0.070677 0.911280 0.103976
O O5 0.825626 0.442133 0.626974
O O6 0.576470 0.502424 0.428377
O O7 0.948921 0.259699 0.558384
O O8 0.135024 0.090440 0.729715
#
# Coordination Sequence:
#
# PCOD9245212 Si02
#       4
#     4   4   4   4
#     4  10  21  37  58  86 113 150 188 229 283 333
#     4  11  19  43  58  81 122 141 191 238 274 335
#     4   9  23  37  60  87 110 153 185 234 282 331
#     4  10  21  37  58  86 113 150 188 229 283 333
#
# _framework density 21.317751999999999
#
# number of rings (size 3 to 8) (size 9 to 14) (size 15 to 20)
#    1.500    0.500    2.500    1.500    0.000    4.000 
#    4.500    5.000    0.000    0.000    0.000    0.000 
#    0.000    0.000    0.000    0.000    0.000    0.000 
#
# Total GULP energy -89255.085438 kJ/mol
# GULP energy per Si atom -5578.442840 kJ/mol
# Density = 2.126923 g / cm^3
# Si number density = 21.317752 Si / 1000 Ang^3
#
#
#
# Elastic Constant Matrix: (Units=GPa)
#
#
# Indices 1 2 3 4 5 6 
#
# 1 67.7322 22.3863 1.5720 0.0000 -6.1782 0.0000
# 2 22.3863 125.0636 25.2981 0.0000 4.9734 0.0000
# 3 1.5720 25.2981 45.2013 0.0000 -14.0277 0.0000
# 4 0.0000 0.0000 0.0000 26.3685 0.0000 0.8012
# 5 -6.1782 4.9734 -14.0277 0.0000 34.4244 0.0000
# 6 0.0000 0.0000 0.0000 0.8012 0.0000 35.7114
#
#
#
# Elastic Compliance Matrix: (Units=1/GPa)
#
#
# Indices 1 2 3 4 5 6 
#
# 1 0.016348 -0.003711 0.002960 0.000000 0.004676 0.000000
# 2 -0.003711 0.010327 -0.007235 0.000000 -0.005106 0.000000
# 3 0.002960 -0.007235 0.030404 0.000000 0.013966 0.000000
# 4 0.000000 0.000000 0.000000 0.037950 0.000000 -0.000851
# 5 0.004676 -0.005106 0.013966 0.000000 0.036317 0.000000
# 6 0.000000 0.000000 0.000000 -0.000851 0.000000 0.028021
#
#
# Mechanical properties :
#
#
# Convention : Reuss Voigt Hill
#
# Bulk Modulus (GPa) = 24.32752 37.39001 30.85876
# Shear Modulus (GPa) = 26.44903 31.88357 29.16630
#
# Velocity S-wave (km/s) = 3.52618 3.87154 3.70289
# Velocity P-wave (km/s) = 5.29295 6.12883 5.72616
#
# Compressibility (1/GPa) = 0.04110571
#
# Stress axis : x y z
#
# Youngs Moduli (GPa) = 61.16810 96.83512 32.89053
#
# Poissons Ratio (x) = 0.35935 -0.09734
# Poissons Ratio (y) = 0.22699 0.23797
# Poissons Ratio (z) = -0.18103 0.70063
#
# Static dielectric constant tensor:
#      x y z
#    x 1.761530 0.000000 -0.061210 
#    y 0.000000 1.758800 0.000000 
#    z -0.061210 0.000000 1.756110 
# 
# From -- ./inp_files/22663.got.cif
#   From: 2010.05.17/outbox.cif.g08.bks.cpg/sg14_12_cif.got.tgz:22663.got - 2010.06.03 17:49:19.
