data_PCOD9245947
_publ_section_title
;
Structure prediction by ZEFSAII (Michael W. Deem and Ramdas Pophale) SiO2 
 PCOD9245947
Probable space group: P 21/C
;
_chemical_formula_sum "Si O2"
_cell_formula_units_Z 20
_cell_length_a 5.294077
_cell_length_b 7.937649
_cell_length_c 25.680910
_cell_angle_alpha 90.000000
_cell_angle_beta 48.664138
_cell_angle_gamma 90.000000
_cell_volume 810.300767
_symmetry_space_group_name_H-M "P 21/C"
_symmetry_group_IT_number 14
_symmetry_cell_setting 'monoclinic'
loop_
_space_group_symop_operation_xyz
x,y,z
-x,1/2+y,1/2-z
-x,-y,-z
x,1/2-y,1/2+z
loop_
_atom_site_type_symbol
_atom_site_label
_atom_site_fract_x
_atom_site_fract_y
_atom_site_fract_z
Si Si1 0.146757 0.385271 0.273644
Si Si2 0.738437 0.851722 0.549776
Si Si3 0.390483 0.814049 0.997968
Si Si4 0.348464 0.768645 0.227565
Si Si5 0.293574 0.360743 0.145078
O O1 0.232440 0.580522 0.256675
O O2 0.274052 0.305712 0.308819
O O3 0.331425 0.293077 0.199189
O O4 0.762469 0.345860 0.312465
O O5 0.538987 0.796692 0.525264
O O6 0.992691 0.715042 0.540312
O O7 0.477193 0.960140 0.619245
O O8 0.000000 0.000000 0.500000
O O9 0.575339 0.754092 0.919334
O O10 0.500000 0.000000 0.000000
O O11 0.110868 0.879486 0.299566
#
# Coordination Sequence:
#
# PCOD9245947 Si02
#       5
#     4   4   4   4   4
#     4  10  22  40  62  86 119 158 200 254 300 358
#     4  10  21  39  66  86 123 162 198 239 302 372
#     4  11  23  40  61  95 126 153 205 259 290 358
#     4  10  22  40  62  84 122 151 207 251 300 357
#     4   9  23  39  64  85 125 162 201 236 322 359
#
# _framework density 24.682196000000001
#
# number of rings (size 3 to 8) (size 9 to 14) (size 15 to 20)
#    1.200    0.800    0.000    4.200    8.400    0.000 
#    7.200    0.000    0.000    0.000    0.000    0.000 
#    0.000    0.000    0.000    0.000    0.000    0.000 
#
# Total GULP energy -111525.960860 kJ/mol
# GULP energy per Si atom -5576.298043 kJ/mol
# Density = 2.462602 g / cm^3
# Si number density = 24.682196 Si / 1000 Ang^3
#
#
#
# Elastic Constant Matrix: (Units=GPa)
#
#
# Indices 1 2 3 4 5 6 
#
# 1 185.8546 33.5168 3.5156 0.0000 16.6715 0.0000
# 2 33.5168 98.9911 -14.4182 0.0000 -6.5357 0.0000
# 3 3.5156 -14.4182 93.9734 0.0000 -4.3543 0.0000
# 4 0.0000 0.0000 0.0000 27.3385 0.0000 1.5989
# 5 16.6715 -6.5357 -4.3543 0.0000 17.8407 0.0000
# 6 0.0000 0.0000 0.0000 1.5989 0.0000 48.9290
#
#
#
# Elastic Compliance Matrix: (Units=1/GPa)
#
#
# Indices 1 2 3 4 5 6 
#
# 1 0.006588 -0.002873 -0.001033 0.000000 -0.007461 0.000000
# 2 -0.002873 0.011910 0.002287 0.000000 0.007607 0.000000
# 3 -0.001033 0.002287 0.011242 0.000000 0.004547 0.000000
# 4 0.000000 0.000000 0.000000 0.036648 0.000000 -0.001198
# 5 -0.007461 0.007607 0.004547 0.000000 0.066919 0.000000
# 6 0.000000 0.000000 0.000000 -0.001198 0.000000 0.020477
#
#
# Mechanical properties :
#
#
# Convention : Reuss Voigt Hill
#
# Bulk Modulus (GPa) = 37.73445 47.11639 42.42542
# Shear Modulus (GPa) = 30.14665 42.56865 36.35765
#
# Velocity S-wave (km/s) = 3.49863 4.15742 3.84217
# Velocity P-wave (km/s) = 5.62511 6.49432 6.07528
#
# Compressibility (1/GPa) = 0.02650098
#
# Stress axis : x y z
#
# Youngs Moduli (GPa) = 151.80237 83.96177 88.95549
#
# Poissons Ratio (x) = 0.24126 0.09189
# Poissons Ratio (y) = 0.43620 -0.20347
# Poissons Ratio (z) = 0.15681 -0.19205
#
# Static dielectric constant tensor:
#      x y z
#    x 2.121890 0.000000 0.033760 
#    y 0.000000 2.001110 0.000000 
#    z 0.033760 0.000000 2.138880 
# 
# From -- ./inp_files/78575.got.cif
#   From: 2010.05.17/outbox.cif.g08.bks.cpg/sg14_40_cif.got.tgz:78575.got - 2010.06.03 17:49:19.
