data_PCOD9245276
_publ_section_title
;
Structure prediction by ZEFSAII (Michael W. Deem and Ramdas Pophale) SiO2 
 PCOD9245276
Probable space group: P 21/C
;
_chemical_formula_sum "Si O2"
_cell_formula_units_Z 28
_cell_length_a 8.942743
_cell_length_b 9.131820
_cell_length_c 17.199706
_cell_angle_alpha 90.000000
_cell_angle_beta 92.630486
_cell_angle_gamma 90.000000
_cell_volume 1403.108498
_symmetry_space_group_name_H-M "P 21/C"
_symmetry_group_IT_number 14
_symmetry_cell_setting 'monoclinic'
loop_
_space_group_symop_operation_xyz
x,y,z
-x,1/2+y,1/2-z
-x,-y,-z
x,1/2-y,1/2+z
loop_
_atom_site_type_symbol
_atom_site_label
_atom_site_fract_x
_atom_site_fract_y
_atom_site_fract_z
Si Si1 0.457005 0.509501 0.671176
Si Si2 0.449294 0.328835 0.831541
Si Si3 0.609174 0.263206 0.131677
Si Si4 0.177741 0.852473 0.218511
Si Si5 0.775331 0.989381 0.558523
Si Si6 0.317030 0.460677 0.116985
Si Si7 0.969803 0.454634 0.820846
O O1 0.444465 0.414970 0.750112
O O2 0.552539 0.656912 0.680151
O O3 0.550342 0.400925 0.617855
O O4 0.286187 0.568254 0.658207
O O5 0.321780 0.388154 0.885341
O O6 0.605459 0.380263 0.873791
O O7 0.708581 0.286766 0.212265
O O8 0.707775 0.347131 0.069622
O O9 0.454083 0.352284 0.133926
O O10 0.076662 0.714746 0.190807
O O11 0.074489 0.975317 0.257163
O O12 0.746768 0.941289 0.470553
O O13 0.940795 0.976963 0.596419
O O14 0.184131 0.455093 0.175321
#
# Coordination Sequence:
#
# PCOD9245276 Si02
#       7
#     4   4   4   4   4   4   4
#     4  12  19  36  60  91 120 142 197 256 306 340
#     4  11  19  35  61  87 116 151 198 249 296 347
#     4  10  21  37  61  89 115 150 201 249 293 341
#     4  11  23  37  58  91 120 149 193 249 303 355
#     4  10  22  40  58  87 119 160 206 232 289 366
#     4  11  20  39  62  83 119 164 201 241 282 361
#     4  11  23  38  59  89 120 157 190 241 309 351
#
# _framework density 19.955691999999999
#
# number of rings (size 3 to 8) (size 9 to 14) (size 15 to 20)
#    0.000    1.143    7.143    2.143    2.000    2.286 
#    0.000    2.857    0.000    0.857    0.000    0.000 
#    0.000    0.000    0.000    0.000    0.000    0.000 
#
# Total GULP energy -156108.541857 kJ/mol
# GULP energy per Si atom -5575.305066 kJ/mol
# Density = 1.991027 g / cm^3
# Si number density = 19.955692 Si / 1000 Ang^3
#
#
#
# Elastic Constant Matrix: (Units=GPa)
#
#
# Indices 1 2 3 4 5 6 
#
# 1 107.7108 38.4655 12.5514 0.0000 11.9616 0.0000
# 2 38.4655 147.0979 14.6277 0.0000 2.1747 0.0000
# 3 12.5514 14.6277 34.3626 0.0000 6.2285 0.0000
# 4 0.0000 0.0000 0.0000 10.0166 0.0000 -0.2644
# 5 11.9616 2.1747 6.2285 0.0000 20.5597 0.0000
# 6 0.0000 0.0000 0.0000 -0.2644 0.0000 32.8630
#
#
#
# Elastic Compliance Matrix: (Units=1/GPa)
#
#
# Indices 1 2 3 4 5 6 
#
# 1 0.011062 -0.002620 -0.001914 0.000000 -0.005579 0.000000
# 2 -0.002620 0.007720 -0.002600 0.000000 0.001495 0.000000
# 3 -0.001914 -0.002600 0.032437 0.000000 -0.008438 0.000000
# 4 0.000000 0.000000 0.000000 0.099855 0.000000 0.000803
# 5 -0.005579 0.001495 -0.008438 0.000000 0.054283 0.000000
# 6 0.000000 0.000000 0.000000 0.000803 0.000000 0.030436
#
#
# Mechanical properties :
#
#
# Convention : Reuss Voigt Hill
#
# Bulk Modulus (GPa) = 27.06339 46.71782 36.89061
# Shear Modulus (GPa) = 19.05646 27.58966 23.32306
#
# Velocity S-wave (km/s) = 3.09356 3.72229 3.42240
# Velocity P-wave (km/s) = 5.13336 6.47577 5.84324
#
# Compressibility (1/GPa) = 0.03695028
#
# Stress axis : x y z
#
# Youngs Moduli (GPa) = 90.39658 129.53764 30.82907
#
# Poissons Ratio (x) = 0.33938 0.05901
# Poissons Ratio (y) = 0.23683 0.08017
# Poissons Ratio (z) = 0.17303 0.33684
#
# Static dielectric constant tensor:
#      x y z
#    x 1.742120 0.000000 -0.014190 
#    y 0.000000 1.751850 0.000000 
#    z -0.014190 0.000000 1.716570 
# 
# From -- ./inp_files/54884.got.cif
#   From: 2010.05.17/outbox.cif.g08.bks.cpg/sg14_28_cif.got.tgz:54884.got - 2010.06.03 17:49:19.
