data_PCOD9245713
_publ_section_title
;
Structure prediction by ZEFSAII (Michael W. Deem and Ramdas Pophale) SiO2 
 PCOD9245713
Probable space group: P 21/C
;
_chemical_formula_sum "Si O2"
_cell_formula_units_Z 24
_cell_length_a 7.751385
_cell_length_b 14.340304
_cell_length_c 7.864206
_cell_angle_alpha 90.000000
_cell_angle_beta 91.945458
_cell_angle_gamma 90.000000
_cell_volume 873.659384
_symmetry_space_group_name_H-M "P 21/C"
_symmetry_group_IT_number 14
_symmetry_cell_setting 'monoclinic'
loop_
_space_group_symop_operation_xyz
x,y,z
-x,1/2+y,1/2-z
-x,-y,-z
x,1/2-y,1/2+z
loop_
_atom_site_type_symbol
_atom_site_label
_atom_site_fract_x
_atom_site_fract_y
_atom_site_fract_z
Si Si1 0.846141 0.864003 0.439115
Si Si2 0.184997 0.030080 0.079575
Si Si3 0.642208 0.129614 0.074971
Si Si4 0.985586 0.802210 0.790608
Si Si5 0.515688 0.200140 0.417169
Si Si6 0.305000 0.963978 0.454954
O O1 0.969823 0.842184 0.601623
O O2 0.928170 0.805360 0.290678
O O3 0.662486 0.821722 0.493965
O O4 0.812302 0.973929 0.421584
O O5 0.232767 0.988657 0.267085
O O6 0.156828 0.139713 0.106120
O O7 0.322138 0.978295 0.963545
O O8 0.000000 0.000000 0.000000
O O9 0.523478 0.153026 0.232459
O O10 0.828444 0.173807 0.128200
O O11 0.560679 0.190774 0.920326
O O12 0.668998 0.145007 0.518587
O O13 0.500000 0.000000 0.500000
#
# Coordination Sequence:
#
# PCOD9245713 Si02
#       6
#     4   4   4   4   4   4
#     4  10  21  39  59  84 117 155 197 242 293 352
#     4   9  20  39  60  85 119 157 200 246 296 357
#     4  11  22  38  60  89 120 158 200 248 299 355
#     4  10  21  39  59  84 117 155 197 242 293 352
#     4  11  22  38  60  89 120 158 200 248 299 355
#     4   9  20  39  60  85 119 157 200 246 296 357
#
# _framework density 27.470659999999999
#
# number of rings (size 3 to 8) (size 9 to 14) (size 15 to 20)
#    0.000    2.000    0.000    3.000    0.000    4.000 
#    0.000   26.667    0.000    0.000    0.000    0.000 
#    0.000    0.000    0.000    0.000    0.000    0.000 
#
# Total GULP energy -134390.900375 kJ/mol
# GULP energy per Si atom -5599.620849 kJ/mol
# Density = 2.740814 g / cm^3
# Si number density = 27.470660 Si / 1000 Ang^3
#
#
#
# Elastic Constant Matrix: (Units=GPa)
#
#
# Indices 1 2 3 4 5 6 
#
# 1 167.4880 31.9993 13.8878 0.0000 21.1766 0.0000
# 2 31.9993 75.1387 5.4134 0.0000 -1.0146 0.0000
# 3 13.8878 5.4134 94.3279 0.0000 12.6167 0.0000
# 4 0.0000 0.0000 0.0000 42.0849 0.0000 -2.7390
# 5 21.1766 -1.0146 12.6167 0.0000 33.7391 0.0000
# 6 0.0000 0.0000 0.0000 -2.7390 0.0000 41.6882
#
#
#
# Elastic Compliance Matrix: (Units=1/GPa)
#
#
# Indices 1 2 3 4 5 6 
#
# 1 0.007149 -0.003085 -0.000277 0.000000 -0.004476 0.000000
# 2 -0.003085 0.014712 -0.000746 0.000000 0.002658 0.000000
# 3 -0.000277 -0.000746 0.011226 0.000000 -0.004047 0.000000
# 4 0.000000 0.000000 0.000000 0.023864 0.000000 0.001568
# 5 -0.004476 0.002658 -0.004047 0.000000 0.034042 0.000000
# 6 0.000000 0.000000 0.000000 0.001568 0.000000 0.024091
#
#
# Mechanical properties :
#
#
# Convention : Reuss Voigt Hill
#
# Bulk Modulus (GPa) = 40.20509 48.83951 44.52230
# Shear Modulus (GPa) = 37.99718 42.54606 40.27162
#
# Velocity S-wave (km/s) = 3.72316 3.93973 3.83297
# Velocity P-wave (km/s) = 5.75760 6.20586 5.98593
#
# Compressibility (1/GPa) = 0.02487248
#
# Stress axis : x y z
#
# Youngs Moduli (GPa) = 139.88165 67.97114 89.07805
#
# Poissons Ratio (x) = 0.20969 0.02465
# Poissons Ratio (y) = 0.43154 0.06641
# Poissons Ratio (z) = 0.03871 0.05068
#
# Static dielectric constant tensor:
#      x y z
#    x 2.115850 0.000000 -0.037320 
#    y 0.000000 2.145810 0.000000 
#    z -0.037320 0.000000 2.162830 
# 
# From -- ./inp_files/8584.got.cif
#   From: 2010.05.17/outbox.cif.g08.bks.cpg/sg14_5_cif.got.tgz:8584.got - 2010.06.03 17:49:19.
