data_PCOD9245278
_publ_section_title
;
Structure prediction by ZEFSAII (Michael W. Deem and Ramdas Pophale) SiO2 
 PCOD9245278
Probable space group: P 21/C
;
_chemical_formula_sum "Si O2"
_cell_formula_units_Z 24
_cell_length_a 8.447172
_cell_length_b 12.398120
_cell_length_c 8.560068
_cell_angle_alpha 90.000000
_cell_angle_beta 95.091216
_cell_angle_gamma 90.000000
_cell_volume 892.950878
_symmetry_space_group_name_H-M "P 21/C"
_symmetry_group_IT_number 14
_symmetry_cell_setting 'monoclinic'
loop_
_space_group_symop_operation_xyz
x,y,z
-x,1/2+y,1/2-z
-x,-y,-z
x,1/2-y,1/2+z
loop_
_atom_site_type_symbol
_atom_site_label
_atom_site_fract_x
_atom_site_fract_y
_atom_site_fract_z
Si Si1 0.170049 0.880404 0.619487
Si Si2 0.080479 0.105587 0.939412
Si Si3 0.916339 0.674862 0.911321
Si Si4 0.325141 0.809081 0.325093
Si Si5 0.382740 0.312568 0.595389
Si Si6 0.520719 0.493655 0.816028
O O1 0.225117 0.772631 0.712042
O O2 0.980084 0.889286 0.571605
O O3 0.449407 0.763375 0.935186
O O4 0.290895 0.970415 0.695735
O O5 0.048215 0.128797 0.755965
O O6 0.729113 0.887285 0.019526
O O7 0.018388 0.204292 0.042976
O O8 0.000000 0.000000 0.000000
O O9 0.730058 0.707944 0.892172
O O10 0.219233 0.868017 0.443178
O O11 0.500000 0.000000 0.500000
O O12 0.429527 0.900162 0.246094
O O13 0.427350 0.387907 0.745904
#
# Coordination Sequence:
#
# PCOD9245278 Si02
#       6
#     4   4   4   4   4   4
#     4  10  21  37  61  89 121 164 211 264 327 385
#     4  10  24  42  68  94 134 174 217 272 338 383
#     4  10  23  40  67  95 132 171 225 272 327 393
#     4  10  21  39  63  88 126 164 210 268 323 386
#     4   9  23  39  65  92 125 166 220 262 323 388
#     4   9  20  35  63  85 119 166 206 249 329 392
#
# _framework density 26.877178000000001
#
# number of rings (size 3 to 8) (size 9 to 14) (size 15 to 20)
#    1.000    1.333    0.000    1.000   14.000    0.000 
#    0.000   10.000    0.000    0.000    0.000    0.000 
#    0.000    0.000    0.000    0.000    0.000    0.000 
#
# Total GULP energy -133973.034997 kJ/mol
# GULP energy per Si atom -5582.209792 kJ/mol
# Density = 2.681600 g / cm^3
# Si number density = 26.877178 Si / 1000 Ang^3
#
#
#
# Elastic Constant Matrix: (Units=GPa)
#
#
# Indices 1 2 3 4 5 6 
#
# 1 71.4577 21.6078 54.7474 0.0000 20.2504 0.0000
# 2 21.6078 118.2375 53.6272 0.0000 0.7122 0.0000
# 3 54.7474 53.6272 182.2040 0.0000 35.5774 0.0000
# 4 0.0000 0.0000 0.0000 39.4098 0.0000 -4.5645
# 5 20.2504 0.7122 35.5774 0.0000 33.1210 0.0000
# 6 0.0000 0.0000 0.0000 -4.5645 0.0000 39.1787
#
#
#
# Elastic Compliance Matrix: (Units=1/GPa)
#
#
# Indices 1 2 3 4 5 6 
#
# 1 0.019730 -0.001809 -0.003857 0.000000 -0.007881 0.000000
# 2 -0.001809 0.010286 -0.003362 0.000000 0.004496 0.000000
# 3 -0.003857 -0.003362 0.009063 0.000000 -0.007305 0.000000
# 4 0.000000 0.000000 0.000000 0.025722 0.000000 0.002997
# 5 -0.007881 0.004496 -0.007305 0.000000 0.042761 0.000000
# 6 0.000000 0.000000 0.000000 0.002997 0.000000 0.025873
#
#
# Mechanical properties :
#
#
# Convention : Reuss Voigt Hill
#
# Bulk Modulus (GPa) = 47.56590 70.20709 58.88650
# Shear Modulus (GPa) = 31.54641 38.46966 35.00803
#
# Velocity S-wave (km/s) = 3.42968 3.78737 3.61296
# Velocity P-wave (km/s) = 5.78097 6.73081 6.27389
#
# Compressibility (1/GPa) = 0.02102346
#
# Stress axis : x y z
#
# Youngs Moduli (GPa) = 50.68508 97.22191 110.33800
#
# Poissons Ratio (x) = 0.17585 0.42558
# Poissons Ratio (y) = 0.09168 0.37093
# Poissons Ratio (z) = 0.19550 0.32683
#
# Static dielectric constant tensor:
#      x y z
#    x 2.265010 0.000000 0.113560 
#    y 0.000000 2.181720 0.000000 
#    z 0.113560 0.000000 2.086990 
# 
# From -- ./inp_files/26150.got.cif
#   From: 2010.05.17/outbox.cif.g08.bks.cpg/sg14_14_cif.got.tgz:26150.got - 2010.06.03 17:49:19.
