data_PCOD9245819
_publ_section_title
;
Structure prediction by ZEFSAII (Michael W. Deem and Ramdas Pophale) SiO2 
 PCOD9245819
Probable space group: P 21/C
;
_chemical_formula_sum "Si O2"
_cell_formula_units_Z 28
_cell_length_a 14.461148
_cell_length_b 7.366738
_cell_length_c 12.462209
_cell_angle_alpha 90.000000
_cell_angle_beta 74.095088
_cell_angle_gamma 90.000000
_cell_volume 1276.793575
_symmetry_space_group_name_H-M "P 21/C"
_symmetry_group_IT_number 14
_symmetry_cell_setting 'monoclinic'
loop_
_space_group_symop_operation_xyz
x,y,z
-x,1/2+y,1/2-z
-x,-y,-z
x,1/2-y,1/2+z
loop_
_atom_site_type_symbol
_atom_site_label
_atom_site_fract_x
_atom_site_fract_y
_atom_site_fract_z
Si Si1 0.103218 0.077715 0.605064
Si Si2 0.032900 0.575578 0.347949
Si Si3 0.124493 0.695621 0.516525
Si Si4 0.489355 0.206655 0.922038
Si Si5 0.664701 0.274061 0.515122
Si Si6 0.403923 0.533276 0.262248
Si Si7 0.314671 0.379298 0.091811
O O1 0.112848 0.915298 0.515027
O O2 0.071254 0.959854 0.718043
O O3 0.029245 0.241695 0.614607
O O4 0.205881 0.169300 0.597390
O O5 0.965164 0.404661 0.398754
O O6 0.121089 0.603043 0.400975
O O7 0.226939 0.656183 0.539225
O O8 0.525241 0.388473 0.850226
O O9 0.460604 0.083114 0.831235
O O10 0.579365 0.148511 0.967431
O O11 0.397058 0.246445 0.024245
O O12 0.642428 0.311989 0.647208
O O13 0.668594 0.064742 0.480392
O O14 0.328995 0.420440 0.213599
#
# Coordination Sequence:
#
# PCOD9245819 Si02
#       7
#     4   4   4   4   4   4   4
#     4  11  22  42  65  94 125 164 207 262 319 377
#     4  11  22  41  66  89 128 160 212 258 324 370
#     4  10  23  41  64  92 123 168 205 264 310 381
#     4  11  22  39  61  89 127 162 206 256 304 372
#     4  10  21  39  63  87 121 162 207 249 315 368
#     4  11  21  38  61  86 123 166 201 249 309 363
#     4  10  23  40  60  90 127 158 206 259 308 371
#
# _framework density 21.929936999999999
#
# number of rings (size 3 to 8) (size 9 to 14) (size 15 to 20)
#    0.000    1.429    1.429    5.143    2.000    0.000 
#    0.000    1.429    0.000    0.000    0.000    0.000 
#    0.000    0.000    0.000    0.000    0.000    0.000 
#
# Total GULP energy -156286.285886 kJ/mol
# GULP energy per Si atom -5581.653067 kJ/mol
# Density = 2.188002 g / cm^3
# Si number density = 21.929937 Si / 1000 Ang^3
#
#
#
# Elastic Constant Matrix: (Units=GPa)
#
#
# Indices 1 2 3 4 5 6 
#
# 1 140.2541 38.3844 25.9308 0.0000 6.1756 0.0000
# 2 38.3844 64.4356 7.3086 0.0000 2.6487 0.0000
# 3 25.9308 7.3086 65.9239 0.0000 13.5838 0.0000
# 4 0.0000 0.0000 0.0000 25.7548 0.0000 7.4957
# 5 6.1756 2.6487 13.5838 0.0000 23.5374 0.0000
# 6 0.0000 0.0000 0.0000 7.4957 0.0000 24.5331
#
#
#
# Elastic Compliance Matrix: (Units=1/GPa)
#
#
# Indices 1 2 3 4 5 6 
#
# 1 0.009072 -0.005061 -0.002990 0.000000 -0.000085 0.000000
# 2 -0.005061 0.018556 0.000102 0.000000 -0.000819 0.000000
# 3 -0.002990 0.000102 0.018357 0.000000 -0.009821 0.000000
# 4 0.000000 0.000000 0.000000 0.042617 0.000000 -0.013021
# 5 -0.000085 -0.000819 -0.009821 0.000000 0.048268 0.000000
# 6 0.000000 0.000000 0.000000 -0.013021 0.000000 0.044740
#
#
# Mechanical properties :
#
#
# Convention : Reuss Voigt Hill
#
# Bulk Modulus (GPa) = 33.23539 45.98457 39.60998
# Shear Modulus (GPa) = 24.09208 28.03106 26.06157
#
# Velocity S-wave (km/s) = 3.31810 3.57908 3.45106
# Velocity P-wave (km/s) = 5.46515 6.17205 5.82932
#
# Compressibility (1/GPa) = 0.03008841
#
# Stress axis : x y z
#
# Youngs Moduli (GPa) = 110.23450 53.88950 54.47419
#
# Poissons Ratio (x) = 0.27275 0.16285
# Poissons Ratio (y) = 0.55794 -0.00558
# Poissons Ratio (z) = 0.32955 -0.00552
#
# Static dielectric constant tensor:
#      x y z
#    x 1.822220 0.000000 -0.012830 
#    y 0.000000 1.860010 0.000000 
#    z -0.012830 0.000000 1.785750 
# 
# From -- ./inp_files/31516.got.cif
#   From: 2010.05.17/outbox.cif.g08.bks.cpg/sg14_16_cif.got.tgz:31516.got - 2010.06.03 17:49:19.
