data_PCOD9245462
_publ_section_title
;
Structure prediction by ZEFSAII (Michael W. Deem and Ramdas Pophale) SiO2 
 PCOD9245462
Probable space group: P 21/C
;
_chemical_formula_sum "Si O2"
_cell_formula_units_Z 32
_cell_length_a 21.659202
_cell_length_b 11.459919
_cell_length_c 12.351611
_cell_angle_alpha 90.000000
_cell_angle_beta 31.193231
_cell_angle_gamma 90.000000
_cell_volume 1587.871223
_symmetry_space_group_name_H-M "P 21/C"
_symmetry_group_IT_number 14
_symmetry_cell_setting 'monoclinic'
loop_
_space_group_symop_operation_xyz
x,y,z
-x,1/2+y,1/2-z
-x,-y,-z
x,1/2-y,1/2+z
loop_
_atom_site_type_symbol
_atom_site_label
_atom_site_fract_x
_atom_site_fract_y
_atom_site_fract_z
Si Si1 0.412669 0.605937 0.809991
Si Si2 0.858319 0.356501 0.418949
Si Si3 0.249556 0.392425 0.400893
Si Si4 0.324755 0.151115 0.028341
Si Si5 0.412679 0.394058 0.951998
Si Si6 0.324744 0.651112 0.497417
Si Si7 0.249555 0.892431 0.350456
Si Si8 0.858322 0.643502 0.006074
O O1 0.555918 0.602405 0.592785
O O2 0.368548 0.500000 0.947191
O O3 0.365502 0.715895 0.947508
O O4 0.358132 0.612321 0.772665
O O5 0.820013 0.485728 0.521136
O O6 0.789723 0.352222 0.407273
O O7 0.818017 0.233495 0.536069
O O8 0.999999 0.354995 0.196520
O O9 0.294034 0.398890 0.457614
O O10 0.181972 0.266506 0.490157
O O11 0.358138 0.387661 0.152943
O O12 0.210291 0.147786 0.276440
O O13 0.365519 0.284107 0.955962
O O14 0.555928 0.397595 0.739448
O O15 0.294033 0.601105 0.660298
O O16 0.179977 0.014274 0.481205
#
# Coordination Sequence:
#
# PCOD9245462 Si02
#       8
#     4   4   4   4   4   4   4   4
#     4  10  21  38  60  90 124 156 198 252 310 368
#     4  11  24  41  62  89 121 162 209 251 296 358
#     4  11  23  41  64  90 123 162 201 251 311 359
#     4  10  23  38  60  91 121 159 204 251 302 365
#     4  10  21  38  60  90 124 156 198 252 310 368
#     4  10  23  38  60  91 121 159 204 251 302 365
#     4  11  23  41  64  90 123 162 201 251 311 359
#     4  11  24  41  62  89 121 162 209 251 296 358
#
# _framework density 20.152766
#
# number of rings (size 3 to 8) (size 9 to 14) (size 15 to 20)
#    0.000    1.500    0.000    4.500    0.000   15.000 
#    0.000    0.000    0.000    8.250    0.000    0.000 
#    0.000    0.000    0.000    0.000    0.000    0.000 
#
# Total GULP energy -178337.867492 kJ/mol
# GULP energy per Si atom -5573.058359 kJ/mol
# Density = 2.010690 g / cm^3
# Si number density = 20.152766 Si / 1000 Ang^3
#
#
#
# Elastic Constant Matrix: (Units=GPa)
#
#
# Indices 1 2 3 4 5 6 
#
# 1 58.0004 27.3430 70.7476 0.0000 -17.9452 0.0000
# 2 27.3430 173.9240 51.9596 0.0000 -22.2316 0.0000
# 3 70.7476 51.9596 116.9230 0.0000 -35.2367 0.0000
# 4 0.0000 0.0000 0.0000 24.0708 0.0000 -2.7155
# 5 -17.9452 -22.2316 -35.2367 0.0000 19.1772 0.0000
# 6 0.0000 0.0000 0.0000 -2.7155 0.0000 21.0743
#
#
#
# Elastic Compliance Matrix: (Units=1/GPa)
#
#
# Indices 1 2 3 4 5 6 
#
# 1 0.072226 0.000745 -0.052447 0.000000 -0.027917 0.000000
# 2 0.000745 0.006867 -0.002002 0.000000 0.004980 0.000000
# 3 -0.052447 -0.002002 0.057560 0.000000 0.054365 0.000000
# 4 0.000000 0.000000 0.000000 0.042157 0.000000 0.005432
# 5 -0.027917 0.004980 0.054365 0.000000 0.131686 0.000000
# 6 0.000000 0.000000 0.000000 0.005432 0.000000 0.048151
#
#
# Mechanical properties :
#
#
# Convention : Reuss Voigt Hill
#
# Bulk Modulus (GPa) = 34.19207 72.10529 53.14868
# Shear Modulus (GPa) = 10.50857 26.11760 18.31308
#
# Velocity S-wave (km/s) = 2.28600 3.60388 3.01776
# Velocity P-wave (km/s) = 4.89602 7.29207 6.21069
#
# Compressibility (1/GPa) = 0.02924655
#
# Stress axis : x y z
#
# Youngs Moduli (GPa) = 13.84548 145.62248 17.37311
#
# Poissons Ratio (x) = -0.10851 0.91116
# Poissons Ratio (y) = -0.01032 0.03478
# Poissons Ratio (z) = 0.72615 0.29149
#
# Static dielectric constant tensor:
#      x y z
#    x 1.673840 0.000000 -0.000610 
#    y 0.000000 1.849260 0.000000 
#    z -0.000610 0.000000 1.674530 
# 
# From -- ./inp_files/35257.got.cif
#   From: 2010.05.17/outbox.cif.g08.bks.cpg/sg14_18_cif.got.tgz:35257.got - 2010.06.03 17:49:19.
