data_PCOD9245125
_publ_section_title
;
Structure prediction by ZEFSAII (Michael W. Deem and Ramdas Pophale) SiO2 
 PCOD9245125
Probable space group: P 21/C
;
_chemical_formula_sum "Si O2"
_cell_formula_units_Z 28
_cell_length_a 12.332628
_cell_length_b 13.022439
_cell_length_c 7.348372
_cell_angle_alpha 90.000000
_cell_angle_beta 107.589851
_cell_angle_gamma 90.000000
_cell_volume 1124.976044
_symmetry_space_group_name_H-M "P 21/C"
_symmetry_group_IT_number 14
_symmetry_cell_setting 'monoclinic'
loop_
_space_group_symop_operation_xyz
x,y,z
-x,1/2+y,1/2-z
-x,-y,-z
x,1/2-y,1/2+z
loop_
_atom_site_type_symbol
_atom_site_label
_atom_site_fract_x
_atom_site_fract_y
_atom_site_fract_z
Si Si1 0.243598 0.666588 0.081104
Si Si2 0.922556 0.174903 0.210379
Si Si3 0.317606 0.181181 0.283912
Si Si4 0.602619 0.890987 0.296975
Si Si5 0.653186 0.131880 0.732171
Si Si6 0.083743 0.333172 0.496846
Si Si7 0.271647 0.028077 0.962378
O O1 0.155428 0.738160 0.923400
O O2 0.308850 0.607957 0.954230
O O3 0.160142 0.616543 0.189568
O O4 0.329569 0.746144 0.224094
O O5 0.015250 0.242065 0.367915
O O6 0.994276 0.116982 0.092683
O O7 0.391809 0.282797 0.309350
O O8 0.327164 0.129992 0.484100
O O9 0.188208 0.210605 0.170177
O O10 0.345000 0.101894 0.137527
O O11 0.473584 0.904590 0.291656
O O12 0.659168 0.972691 0.190052
O O13 0.731845 0.074495 0.919554
O O14 0.150657 0.412605 0.400646
#
# Coordination Sequence:
#
# PCOD9245125 Si02
#       7
#     4   4   4   4   4   4   4
#     4   9  21  37  61  80 117 164 216 238 302 385
#     4   9  16  36  60  87 108 166 201 247 315 360
#     4  10  21  36  62  97 121 160 212 242 316 384
#     4  12  20  38  63  89 130 169 202 246 317 370
#     4  11  23  43  57  89 127 169 206 262 300 360
#     4   9  18  33  60  87 123 146 198 268 305 352
#     4  10  24  39  60  97 131 150 216 260 305 372
#
# _framework density 24.889419
#
# number of rings (size 3 to 8) (size 9 to 14) (size 15 to 20)
#    0.857    1.143    1.429    3.000    0.000    1.714 
#    5.143    7.143    0.000    0.000    0.000    0.000 
#    0.000    0.000    0.000    0.000    0.000    0.000 
#
# Total GULP energy -156414.065713 kJ/mol
# GULP energy per Si atom -5586.216633 kJ/mol
# Density = 2.483277 g / cm^3
# Si number density = 24.889419 Si / 1000 Ang^3
#
#
#
# Elastic Constant Matrix: (Units=GPa)
#
#
# Indices 1 2 3 4 5 6 
#
# 1 184.9884 24.9169 44.0484 0.0000 -45.2529 0.0000
# 2 24.9169 58.6433 6.5711 0.0000 -10.0813 0.0000
# 3 44.0484 6.5711 116.8591 0.0000 -42.5937 0.0000
# 4 0.0000 0.0000 0.0000 25.7921 0.0000 -3.3357
# 5 -45.2529 -10.0813 -42.5937 0.0000 45.5612 0.0000
# 6 0.0000 0.0000 0.0000 -3.3357 0.0000 30.6240
#
#
#
# Elastic Compliance Matrix: (Units=1/GPa)
#
#
# Indices 1 2 3 4 5 6 
#
# 1 0.007352 -0.001954 -0.000239 0.000000 0.006646 0.000000
# 2 -0.001954 0.018279 0.000721 0.000000 0.002778 0.000000
# 3 -0.000239 0.000721 0.013012 0.000000 0.012087 0.000000
# 4 0.000000 0.000000 0.000000 0.039325 0.000000 0.004283
# 5 0.006646 0.002778 0.012087 0.000000 0.040465 0.000000
# 6 0.000000 0.000000 0.000000 0.004283 0.000000 0.033121
#
#
# Mechanical properties :
#
#
# Convention : Reuss Voigt Hill
#
# Bulk Modulus (GPa) = 28.01128 56.84041 42.42585
# Shear Modulus (GPa) = 30.04849 39.39244 34.72046
#
# Velocity S-wave (km/s) = 3.47836 3.98263 3.73901
# Velocity P-wave (km/s) = 5.23553 6.63590 5.97687
#
# Compressibility (1/GPa) = 0.03569990
#
# Stress axis : x y z
#
# Youngs Moduli (GPa) = 136.02312 54.70659 76.84955
#
# Poissons Ratio (x) = 0.10692 0.01835
# Poissons Ratio (y) = 0.26584 -0.05543
# Poissons Ratio (z) = 0.03247 -0.03946
#
# Static dielectric constant tensor:
#      x y z
#    x 1.993040 0.000000 -0.011300 
#    y 0.000000 2.018840 0.000000 
#    z -0.011300 0.000000 2.014100 
# 
# From -- ./inp_files/12889.got.cif
#   From: 2010.05.17/outbox.cif.g08.bks.cpg/sg14_7_cif.got.tgz:12889.got - 2010.06.03 17:49:19.
