data_PCOD9245622
_publ_section_title
;
Structure prediction by ZEFSAII (Michael W. Deem and Ramdas Pophale) SiO2 
 PCOD9245622
Probable space group: P 21/C
;
_chemical_formula_sum "Si O2"
_cell_formula_units_Z 24
_cell_length_a 9.563147
_cell_length_b 17.517367
_cell_length_c 14.053653
_cell_angle_alpha 90.000000
_cell_angle_beta 154.389108
_cell_angle_gamma 90.000000
_cell_volume 1017.656247
_symmetry_space_group_name_H-M "P 21/C"
_symmetry_group_IT_number 14
_symmetry_cell_setting 'monoclinic'
loop_
_space_group_symop_operation_xyz
x,y,z
-x,1/2+y,1/2-z
-x,-y,-z
x,1/2-y,1/2+z
loop_
_atom_site_type_symbol
_atom_site_label
_atom_site_fract_x
_atom_site_fract_y
_atom_site_fract_z
Si Si1 0.061423 0.652208 0.164121
Si Si2 0.638219 0.754065 0.553501
Si Si3 0.305303 0.051795 0.665595
Si Si4 0.808401 0.355290 0.081655
Si Si5 0.095448 0.982998 0.828408
Si Si6 0.320477 0.470457 0.748447
O O1 0.390064 0.697381 0.348753
O O2 0.153186 0.574497 0.276884
O O3 0.839598 0.698513 0.100978
O O4 0.850636 0.634729 0.941219
O O5 0.410444 0.808173 0.477341
O O6 0.909624 0.703448 0.775052
O O7 0.441257 0.036030 0.642519
O O8 0.000000 0.000000 0.500000
O O9 0.586688 0.031012 0.911284
O O10 0.001627 0.430356 0.240904
O O11 0.525705 0.395361 0.844450
O O12 0.797499 0.960457 0.716113
O O13 0.000000 0.500000 0.500000
#
# Coordination Sequence:
#
# PCOD9245622 Si02
#       6
#     4   4   4   4   4   4
#     4  11  22  45  65  99 133 175 223 277 336 400
#     4  10  24  37  69  94 140 175 208 273 355 406
#     4  11  24  38  65 102 129 164 232 285 319 379
#     4  11  20  41  66  98 128 177 218 273 337 399
#     4  11  22  40  74  96 125 177 232 276 323 393
#     4  10  21  38  65  96 130 167 225 278 325 385
#
# _framework density 23.583601000000002
#
# number of rings (size 3 to 8) (size 9 to 14) (size 15 to 20)
#    0.000    1.333    3.333    2.500    2.333    1.333 
#    0.000    1.667   29.333    0.000    0.000    0.000 
#    0.000    0.000    0.000    0.000    0.000    0.000 
#
# Total GULP energy -133737.179523 kJ/mol
# GULP energy per Si atom -5572.382480 kJ/mol
# Density = 2.352992 g / cm^3
# Si number density = 23.583601 Si / 1000 Ang^3
#
#
#
# Elastic Constant Matrix: (Units=GPa)
#
#
# Indices 1 2 3 4 5 6 
#
# 1 69.9542 28.7929 26.9949 0.0000 6.0476 0.0000
# 2 28.7929 122.2404 62.0941 0.0000 -1.5553 0.0000
# 3 26.9949 62.0941 165.1945 0.0000 12.6415 0.0000
# 4 0.0000 0.0000 0.0000 42.2790 0.0000 -0.8839
# 5 6.0476 -1.5553 12.6415 0.0000 29.9720 0.0000
# 6 0.0000 0.0000 0.0000 -0.8839 0.0000 19.1659
#
#
#
# Elastic Compliance Matrix: (Units=1/GPa)
#
#
# Indices 1 2 3 4 5 6 
#
# 1 0.016369 -0.003275 -0.001217 0.000000 -0.002959 0.000000
# 2 -0.003275 0.010909 -0.003781 0.000000 0.002822 0.000000
# 3 -0.001217 -0.003781 0.007926 0.000000 -0.003293 0.000000
# 4 0.000000 0.000000 0.000000 0.023675 0.000000 0.001092
# 5 -0.002959 0.002822 -0.003293 0.000000 0.035497 0.000000
# 6 0.000000 0.000000 0.000000 0.001092 0.000000 0.052226
#
#
# Mechanical properties :
#
#
# Convention : Reuss Voigt Hill
#
# Bulk Modulus (GPa) = 53.60155 65.90585 59.75370
# Shear Modulus (GPa) = 29.52169 34.25053 31.88611
#
# Velocity S-wave (km/s) = 3.54190 3.81504 3.68101
# Velocity P-wave (km/s) = 6.28525 6.88566 6.59230
#
# Compressibility (1/GPa) = 0.01865618
#
# Stress axis : x y z
#
# Youngs Moduli (GPa) = 61.09269 91.67135 126.17143
#
# Poissons Ratio (x) = 0.30020 0.15361
# Poissons Ratio (y) = 0.20006 0.47707
# Poissons Ratio (z) = 0.07438 0.34662
#
# Static dielectric constant tensor:
#      x y z
#    x 1.962430 0.000000 -0.085960 
#    y 0.000000 2.014240 0.000000 
#    z -0.085960 0.000000 1.453850 
# 
# From -- ./inp_files/58089.got.cif
#   From: 2010.05.17/outbox.cif.g08.bks.cpg/sg14_30_cif.got.tgz:58089.got - 2010.06.03 17:49:19.
