data_PCOD9245644
_publ_section_title
;
Structure prediction by ZEFSAII (Michael W. Deem and Ramdas Pophale) SiO2 
 PCOD9245644
Probable space group: P 21/C
;
_chemical_formula_sum "Si O2"
_cell_formula_units_Z 32
_cell_length_a 12.045864
_cell_length_b 11.562852
_cell_length_c 27.214602
_cell_angle_alpha 90.000000
_cell_angle_beta 155.802097
_cell_angle_gamma 90.000000
_cell_volume 1553.716803
_symmetry_space_group_name_H-M "P 21/C"
_symmetry_group_IT_number 14
_symmetry_cell_setting 'monoclinic'
loop_
_space_group_symop_operation_xyz
x,y,z
-x,1/2+y,1/2-z
-x,-y,-z
x,1/2-y,1/2+z
loop_
_atom_site_type_symbol
_atom_site_label
_atom_site_fract_x
_atom_site_fract_y
_atom_site_fract_z
Si Si1 0.180778 0.936250 0.143719
Si Si2 0.916927 0.740789 0.098350
Si Si3 0.353264 0.656886 0.338475
Si Si4 0.819736 0.682666 0.743401
Si Si5 0.260656 0.054892 0.273482
Si Si6 0.775593 0.534131 0.637828
Si Si7 0.382722 0.531127 0.618393
Si Si8 0.303686 0.513993 0.968450
O O1 0.352987 0.940839 0.163610
O O2 0.071681 0.809407 0.116565
O O3 0.327256 0.998562 0.248161
O O4 0.914508 0.013497 0.024456
O O5 0.138437 0.747919 0.231591
O O6 0.614928 0.796892 0.973959
O O7 0.840608 0.604626 0.071573
O O8 0.198838 0.564493 0.309934
O O9 0.467249 0.587651 0.336894
O O10 0.845332 0.814280 0.769250
O O11 0.778333 0.654012 0.668819
O O12 0.553730 0.630315 0.661481
O O13 0.080884 0.610218 0.865813
O O14 0.508134 0.051972 0.410729
O O15 0.014340 0.981299 0.196216
O O16 0.500000 0.500000 0.500000
O O17 0.500000 0.500000 0.000000
#
# Coordination Sequence:
#
# PCOD9245644 Si02
#       8
#     4   4   4   4   4   4   4   4
#     4  10  23  42  70 100 125 178 229 282 328 410
#     4  11  21  40  68  95 135 171 227 274 338 400
#     4  10  21  38  66  97 130 179 222 279 333 410
#     4  11  25  45  65  94 138 180 214 279 341 400
#     4  12  26  40  67 102 134 170 232 274 336 409
#     4  11  23  41  63  94 128 175 226 266 339 409
#     4   9  20  46  67  91 134 177 229 272 343 389
#     4  12  25  45  64  99 141 181 215 282 346 398
#
# _framework density 20.595773999999999
#
# number of rings (size 3 to 8) (size 9 to 14) (size 15 to 20)
#    0.000    1.250    3.750    3.000    5.250    4.000 
#    0.000    1.875    0.000    0.000    0.000    0.000 
#    0.000    0.000    0.000    0.000    0.000    0.000 
#
# Total GULP energy -178596.038030 kJ/mol
# GULP energy per Si atom -5581.126188 kJ/mol
# Density = 2.054890 g / cm^3
# Si number density = 20.595774 Si / 1000 Ang^3
#
#
#
# Elastic Constant Matrix: (Units=GPa)
#
#
# Indices 1 2 3 4 5 6 
#
# 1 100.1606 32.9579 11.5232 0.0000 -15.9255 0.0000
# 2 32.9579 120.7160 10.6456 0.0000 -2.8638 0.0000
# 3 11.5232 10.6456 82.9290 0.0000 -12.1717 0.0000
# 4 0.0000 0.0000 0.0000 30.3687 0.0000 -2.0831
# 5 -15.9255 -2.8638 -12.1717 0.0000 29.5319 0.0000
# 6 0.0000 0.0000 0.0000 -2.0831 0.0000 17.4089
#
#
#
# Elastic Compliance Matrix: (Units=1/GPa)
#
#
# Indices 1 2 3 4 5 6 
#
# 1 0.012005 -0.003101 -0.000387 0.000000 0.006013 0.000000
# 2 -0.003101 0.009184 -0.000918 0.000000 -0.001160 0.000000
# 3 -0.000387 -0.000918 0.012971 0.000000 0.005048 0.000000
# 4 0.000000 0.000000 0.000000 0.033201 0.000000 0.003973
# 5 0.006013 -0.001160 0.005048 0.000000 0.039073 0.000000
# 6 0.000000 0.000000 0.000000 0.003973 0.000000 0.057917
#
#
# Mechanical properties :
#
#
# Convention : Reuss Voigt Hill
#
# Bulk Modulus (GPa) = 39.45249 46.00654 42.72951
# Shear Modulus (GPa) = 27.53105 32.04051 29.78578
#
# Velocity S-wave (km/s) = 3.66010 3.94849 3.80703
# Velocity P-wave (km/s) = 6.08761 6.57068 6.33375
#
# Compressibility (1/GPa) = 0.02534694
#
# Stress axis : x y z
#
# Youngs Moduli (GPa) = 83.29870 108.88563 77.09404
#
# Poissons Ratio (x) = 0.33763 0.02987
# Poissons Ratio (y) = 0.25829 0.07080
# Poissons Ratio (z) = 0.03227 0.09999
#
# Static dielectric constant tensor:
#      x y z
#    x 1.712810 0.000000 -0.005330 
#    y 0.000000 1.764740 0.000000 
#    z -0.005330 0.000000 1.749410 
# 
# From -- ./inp_files/73314.got.cif
#   From: 2010.05.17/outbox.cif.g08.bks.cpg/sg14_37_cif.got.tgz:73314.got - 2010.06.03 17:49:19.
