data_PCOD9245098
_publ_section_title
;
Structure prediction by ZEFSAII (Michael W. Deem and Ramdas Pophale) SiO2 
 PCOD9245098
Probable space group: P 21/C
;
_chemical_formula_sum "Si O2"
_cell_formula_units_Z 32
_cell_length_a 12.838333
_cell_length_b 23.733395
_cell_length_c 10.235384
_cell_angle_alpha 90.000000
_cell_angle_beta 154.222605
_cell_angle_gamma 90.000000
_cell_volume 1356.244363
_symmetry_space_group_name_H-M "P 21/C"
_symmetry_group_IT_number 14
_symmetry_cell_setting 'monoclinic'
loop_
_space_group_symop_operation_xyz
x,y,z
-x,1/2+y,1/2-z
-x,-y,-z
x,1/2-y,1/2+z
loop_
_atom_site_type_symbol
_atom_site_label
_atom_site_fract_x
_atom_site_fract_y
_atom_site_fract_z
Si Si1 0.859148 0.709718 0.387674
Si Si2 0.084491 0.477148 0.455377
Si Si3 0.437548 0.911473 0.896255
Si Si4 0.845990 0.978773 0.447490
Si Si5 0.814388 0.698605 0.042991
Si Si6 0.692107 0.366132 0.483485
Si Si7 0.216638 0.866428 0.407937
Si Si8 0.524053 0.598648 0.015317
O O1 0.887015 0.724732 0.266950
O O2 0.757520 0.759538 0.359507
O O3 0.706537 0.651647 0.213859
O O4 0.092520 0.692245 0.735742
O O5 0.000000 0.500000 0.500000
O O6 0.350317 0.455665 0.781801
O O7 0.006033 0.521470 0.257293
O O8 0.965829 0.418045 0.272365
O O9 0.279800 0.894250 0.842857
O O10 0.704360 0.922469 0.249949
O O11 0.353048 0.972791 0.749691
O O12 0.401044 0.868573 0.736165
O O13 0.000000 0.000000 0.500000
O O14 0.058193 0.663262 0.279398
O O15 0.550462 0.671376 0.770221
O O16 0.593476 0.407591 0.258719
O O17 0.328072 0.883191 0.396620
#
# Coordination Sequence:
#
# PCOD9245098 Si02
#       8
#     4   4   4   4   4   4   4   4
#     4  10  24  43  64  93 127 164 213 270 323 395
#     4  10  21  36  60  92 124 169 218 263 328 381
#     4  10  23  38  61  94 128 174 218 266 329 383
#     4  10  21  38  59  91 133 167 220 270 316 391
#     4  11  26  43  68  96 129 166 219 269 329 389
#     4  11  25  43  65  99 130 169 219 270 323 392
#     4  10  21  40  62  88 130 167 214 266 329 386
#     4  10  21  41  63  88 128 168 211 271 323 385
#
# _framework density 23.594567999999999
#
# number of rings (size 3 to 8) (size 9 to 14) (size 15 to 20)
#    0.000    1.750    1.250    1.500    5.250    2.500 
#    0.000    0.000    0.000    0.000    0.000    0.000 
#    0.000    0.000    0.000    0.000    0.000    0.000 
#
# Total GULP energy -178505.256805 kJ/mol
# GULP energy per Si atom -5578.289275 kJ/mol
# Density = 2.354087 g / cm^3
# Si number density = 23.594568 Si / 1000 Ang^3
#
#
#
# Elastic Constant Matrix: (Units=GPa)
#
#
# Indices 1 2 3 4 5 6 
#
# 1 57.5280 28.6806 23.7486 0.0000 -4.3058 0.0000
# 2 28.6806 10.2262 60.5732 0.0000 -21.4027 0.0000
# 3 23.7486 60.5732 53.8148 0.0000 -2.4995 0.0000
# 4 0.0000 0.0000 0.0000 18.1994 0.0000 -13.4092
# 5 -4.3058 -21.4027 -2.4995 0.0000 37.1824 0.0000
# 6 0.0000 0.0000 0.0000 -13.4092 0.0000 29.5808
#
#
#
# Elastic Compliance Matrix: (Units=1/GPa)
#
#
# Indices 1 2 3 4 5 6 
#
# 1 0.021380 0.000109 -0.009469 0.000000 0.001902 0.000000
# 2 0.000109 -0.014863 0.016336 0.000000 -0.007445 0.000000
# 3 -0.009469 0.016336 0.004774 0.000000 0.008628 0.000000
# 4 0.000000 0.000000 0.000000 0.082502 0.000000 0.037399
# 5 0.001902 -0.007445 0.008628 0.000000 0.023409 0.000000
# 6 0.000000 0.000000 0.000000 0.037399 0.000000 0.050759
#
#
# Mechanical properties :
#
#
# Convention : Reuss Voigt Hill
#
# Bulk Modulus (GPa) = 39.61623 38.61932 39.11778
# Shear Modulus (GPa) = 30.78360 17.56363 24.17361
#
# Velocity S-wave (km/s) = 3.61597 2.73132 3.20432
# Velocity P-wave (km/s) = 5.85325 5.13325 5.50503
#
# Compressibility (1/GPa) = 0.02524218
#
# Stress axis : x y z
#
# Youngs Moduli (GPa) = 46.77265 -67.27956 209.45976
#
# Poissons Ratio (x) = 0.00734 1.98347
# Poissons Ratio (y) = -0.00510 -3.42175
# Poissons Ratio (z) = 0.44291 1.09908
#
# Static dielectric constant tensor:
#      x y z
#    x 1.789710 0.000000 -0.006110 
#    y 0.000000 1.928090 0.000000 
#    z -0.006110 0.000000 1.982030 
# 
# From -- ./inp_files/14684.got.cif
#   From: 2010.05.17/outbox.cif.g08.bks.cpg/sg14_8_cif.got.tgz:14684.got - 2010.06.03 17:49:19.
