data_PCOD9245704
_publ_section_title
;
Structure prediction by ZEFSAII (Michael W. Deem and Ramdas Pophale) SiO2 
 PCOD9245704
Probable space group: P 21/C
;
_chemical_formula_sum "Si O2"
_cell_formula_units_Z 32
_cell_length_a 6.792712
_cell_length_b 19.269690
_cell_length_c 9.436799
_cell_angle_alpha 90.000000
_cell_angle_beta 56.393457
_cell_angle_gamma 90.000000
_cell_volume 1028.758927
_symmetry_space_group_name_H-M "P 21/C"
_symmetry_group_IT_number 14
_symmetry_cell_setting 'monoclinic'
loop_
_space_group_symop_operation_xyz
x,y,z
-x,1/2+y,1/2-z
-x,-y,-z
x,1/2-y,1/2+z
loop_
_atom_site_type_symbol
_atom_site_label
_atom_site_fract_x
_atom_site_fract_y
_atom_site_fract_z
Si Si1 0.219919 0.877757 0.954132
Si Si2 0.758443 0.383600 0.027208
Si Si3 0.347161 0.156740 0.028658
Si Si4 0.633034 0.278704 0.848625
Si Si5 0.902868 0.723242 0.747741
Si Si6 0.829441 0.907449 0.409286
Si Si7 0.490550 0.494826 0.756975
Si Si8 0.922661 0.528575 0.310631
O O1 0.407230 0.871927 0.008652
O O2 0.351413 0.838366 0.772515
O O3 0.261203 0.959489 0.889906
O O4 0.011821 0.823669 0.079256
O O5 0.963785 0.391631 0.061253
O O6 0.536040 0.425858 0.181415
O O7 0.697629 0.310235 0.980816
O O8 0.874873 0.429901 0.856222
O O9 0.182175 0.091975 0.052724
O O10 0.219829 0.201619 0.205888
O O11 0.433282 0.220544 0.897588
O O12 0.878252 0.236468 0.734483
O O13 0.740722 0.666860 0.893858
O O14 0.630869 0.951546 0.567193
O O15 0.956654 0.952160 0.233865
O O16 0.302834 0.484696 0.703852
#
# Coordination Sequence:
#
# PCOD9245704 Si02
#       8
#     4   4   4   4   4   4   4   4
#     4  10  23  38  54  89 120 151 195 239 293 356
#     4   9  17  34  60  89 112 149 200 241 279 351
#     4  10  21  39  58  84 118 155 198 239 290 353
#     4  11  23  35  58  87 114 154 198 237 292 347
#     4  11  23  37  61  86 118 153 191 251 303 339
#     4   9  18  33  66  88 112 151 199 241 295 346
#     4   8  16  34  61  84 112 151 198 238 283 343
#     4   8  15  34  58  88 113 148 198 245 283 347
#
# _framework density 31.105442
#
# number of rings (size 3 to 8) (size 9 to 14) (size 15 to 20)
#    0.000    2.500    1.250    2.250    3.500    1.500 
#    0.000   10.000    0.000    3.750    0.000    0.000 
#    0.000    0.000    0.000    0.000    0.000    0.000 
#
# Total GULP energy -179039.172778 kJ/mol
# GULP energy per Si atom -5594.974149 kJ/mol
# Density = 3.103465 g / cm^3
# Si number density = 31.105442 Si / 1000 Ang^3
#
#
#
# Elastic Constant Matrix: (Units=GPa)
#
#
# Indices 1 2 3 4 5 6 
#
# 1 104.6503 22.6827 -0.6993 0.0000 -19.8322 0.0000
# 2 22.6827 208.0634 9.8078 0.0000 3.0817 0.0000
# 3 -0.6993 9.8078 70.4417 0.0000 -8.3007 0.0000
# 4 0.0000 0.0000 0.0000 57.4348 0.0000 -2.0766
# 5 -19.8322 3.0817 -8.3007 0.0000 36.4324 0.0000
# 6 0.0000 0.0000 0.0000 -2.0766 0.0000 52.5309
#
#
#
# Elastic Compliance Matrix: (Units=1/GPa)
#
#
# Indices 1 2 3 4 5 6 
#
# 1 0.011064 -0.001350 0.001049 0.000000 0.006376 0.000000
# 2 -0.001350 0.005015 -0.000872 0.000000 -0.001358 0.000000
# 3 0.001049 -0.000872 0.014801 0.000000 0.004017 0.000000
# 4 0.000000 0.000000 0.000000 0.017436 0.000000 0.000689
# 5 0.006376 -0.001358 0.004017 0.000000 0.031949 0.000000
# 6 0.000000 0.000000 0.000000 0.000689 0.000000 0.019064
#
#
# Mechanical properties :
#
#
# Convention : Reuss Voigt Hill
#
# Bulk Modulus (GPa) = 35.04541 49.63752 42.34146
# Shear Modulus (GPa) = 44.97038 52.70390 48.83714
#
# Velocity S-wave (km/s) = 3.80641 4.12073 3.96669
# Velocity P-wave (km/s) = 5.53258 6.21555 5.88398
#
# Compressibility (1/GPa) = 0.02853441
#
# Stress axis : x y z
#
# Youngs Moduli (GPa) = 90.38724 199.41780 67.56171
#
# Poissons Ratio (x) = 0.26922 -0.07088
# Poissons Ratio (y) = 0.12202 0.05889
# Poissons Ratio (z) = -0.09483 0.17381
#
# Static dielectric constant tensor:
#      x y z
#    x 2.358730 0.000000 0.008050 
#    y 0.000000 2.415980 0.000000 
#    z 0.008050 0.000000 2.632480 
# 
# From -- ./inp_files/26764.got.cif
#   From: 2010.05.17/outbox.cif.g08.bks.cpg/sg14_14_cif.got.tgz:26764.got - 2010.06.03 17:49:19.
