data_PCOD9245945
_publ_section_title
;
Structure prediction by ZEFSAII (Michael W. Deem and Ramdas Pophale) SiO2 
 PCOD9245945
Probable space group: P 21/C
;
_chemical_formula_sum "Si O2"
_cell_formula_units_Z 24
_cell_length_a 12.198711
_cell_length_b 6.077458
_cell_length_c 15.686645
_cell_angle_alpha 90.000000
_cell_angle_beta 110.862572
_cell_angle_gamma 90.000000
_cell_volume 1086.716217
_symmetry_space_group_name_H-M "P 21/C"
_symmetry_group_IT_number 14
_symmetry_cell_setting 'monoclinic'
loop_
_space_group_symop_operation_xyz
x,y,z
-x,1/2+y,1/2-z
-x,-y,-z
x,1/2-y,1/2+z
loop_
_atom_site_type_symbol
_atom_site_label
_atom_site_fract_x
_atom_site_fract_y
_atom_site_fract_z
Si Si1 0.834681 0.570739 0.390442
Si Si2 0.062308 0.813531 0.460823
Si Si3 0.337560 0.700132 0.764404
Si Si4 0.449159 0.895505 0.639522
Si Si5 0.263330 0.382285 0.985702
Si Si6 0.395089 0.054580 0.904931
O O1 0.873086 0.363883 0.460512
O O2 0.755687 0.480991 0.291474
O O3 0.769248 0.738408 0.438085
O O4 0.953895 0.683441 0.389313
O O5 0.157325 0.953002 0.434957
O O6 0.000000 0.000000 0.500000
O O7 0.354827 0.851079 0.686234
O O8 0.462821 0.587564 0.812902
O O9 0.325496 0.853072 0.843328
O O10 0.530711 0.685362 0.645689
O O11 0.376011 0.967952 0.537221
O O12 0.302539 0.214038 0.924450
O O13 0.500000 0.000000 0.000000
#
# Coordination Sequence:
#
# PCOD9245945 Si02
#       6
#     4   4   4   4   4   4
#     4  10  21  39  66 102 121 170 232 280 332 400
#     4   9  20  38  67 100 119 166 230 278 326 401
#     4  12  23  37  62  94 139 175 224 278 332 406
#     4  12  23  40  61  97 135 175 214 267 336 412
#     4  11  22  39  64  97 139 173 223 281 339 403
#     4  12  26  38  58 100 137 179 221 265 342 417
#
# _framework density 22.084883000000001
#
# number of rings (size 3 to 8) (size 9 to 14) (size 15 to 20)
#    0.000    1.000    5.000    2.500    0.000    0.000 
#    0.000    0.000    0.000    0.000   73.667    0.000 
#    0.000    0.000    0.000    0.000    0.000    0.000 
#
# Total GULP energy -134083.709311 kJ/mol
# GULP energy per Si atom -5586.821221 kJ/mol
# Density = 2.203462 g / cm^3
# Si number density = 22.084883 Si / 1000 Ang^3
#
#
#
# Elastic Constant Matrix: (Units=GPa)
#
#
# Indices 1 2 3 4 5 6 
#
# 1 111.4689 49.5052 50.6766 0.0000 21.6486 0.0000
# 2 49.5052 88.5597 32.0328 0.0000 4.6658 0.0000
# 3 50.6766 32.0328 70.2289 0.0000 2.5887 0.0000
# 4 0.0000 0.0000 0.0000 52.5589 0.0000 3.1757
# 5 21.6486 4.6658 2.5887 0.0000 23.7127 0.0000
# 6 0.0000 0.0000 0.0000 3.1757 0.0000 54.9521
#
#
#
# Elastic Compliance Matrix: (Units=1/GPa)
#
#
# Indices 1 2 3 4 5 6 
#
# 1 0.019673 -0.006288 -0.010755 0.000000 -0.015549 0.000000
# 2 -0.006288 0.015627 -0.002700 0.000000 0.002960 0.000000
# 3 -0.010755 -0.002700 0.022942 0.000000 0.007845 0.000000
# 4 0.000000 0.000000 0.000000 0.019093 0.000000 -0.001103
# 5 -0.015549 0.002960 0.007845 0.000000 0.054928 0.000000
# 6 0.000000 0.000000 0.000000 -0.001103 0.000000 0.018261
#
#
# Mechanical properties :
#
#
# Convention : Reuss Voigt Hill
#
# Bulk Modulus (GPa) = 53.31203 59.40962 56.36082
# Shear Modulus (GPa) = 25.47625 35.44761 30.46193
#
# Velocity S-wave (km/s) = 3.40010 4.01067 3.71794
# Velocity P-wave (km/s) = 6.29335 6.95746 6.63372
#
# Compressibility (1/GPa) = 0.01875749
#
# Stress axis : x y z
#
# Youngs Moduli (GPa) = 50.83168 63.99040 43.58866
#
# Poissons Ratio (x) = 0.40237 0.46877
# Poissons Ratio (y) = 0.31963 0.11768
# Poissons Ratio (z) = 0.54667 0.17276
#
# Static dielectric constant tensor:
#      x y z
#    x 1.821060 0.000000 0.019520 
#    y 0.000000 1.664190 0.000000 
#    z 0.019520 0.000000 2.052650 
# 
# From -- ./inp_files/56628.got.cif
#   From: 2010.05.17/outbox.cif.g08.bks.cpg/sg14_29_cif.got.tgz:56628.got - 2010.06.03 17:49:19.
