data_PCOD9245596
_publ_section_title
;
Structure prediction by ZEFSAII (Michael W. Deem and Ramdas Pophale) SiO2 
 PCOD9245596
Probable space group: P 21/C
;
_chemical_formula_sum "Si O2"
_cell_formula_units_Z 32
_cell_length_a 22.752915
_cell_length_b 9.042458
_cell_length_c 14.526225
_cell_angle_alpha 90.000000
_cell_angle_beta 25.659842
_cell_angle_gamma 90.000000
_cell_volume 1294.171143
_symmetry_space_group_name_H-M "P 21/C"
_symmetry_group_IT_number 14
_symmetry_cell_setting 'monoclinic'
loop_
_space_group_symop_operation_xyz
x,y,z
-x,1/2+y,1/2-z
-x,-y,-z
x,1/2-y,1/2+z
loop_
_atom_site_type_symbol
_atom_site_label
_atom_site_fract_x
_atom_site_fract_y
_atom_site_fract_z
Si Si1 0.077845 0.610906 0.049425
Si Si2 0.753574 0.660248 0.180242
Si Si3 0.641137 0.289466 0.269396
Si Si4 0.134445 0.785166 0.790070
Si Si5 0.479408 0.958174 0.902739
Si Si6 0.362695 0.584125 0.378725
Si Si7 0.786033 0.719152 0.446232
Si Si8 0.842284 0.598859 0.681656
O O1 0.927589 0.657696 0.287988
O O2 0.108494 0.437026 0.013176
O O3 0.199433 0.692210 0.932583
O O4 0.089405 0.662249 0.927236
O O5 0.651758 0.559379 0.383022
O O6 0.760354 0.815076 0.220999
O O7 0.720422 0.690308 0.121423
O O8 0.558626 0.317906 0.479905
O O9 0.595812 0.427999 0.268918
O O10 0.597713 0.143332 0.277131
O O11 0.244856 0.702229 0.573318
O O12 0.191321 0.926783 0.765089
O O13 0.000764 0.862203 0.935132
O O14 0.472848 0.916097 0.805163
O O15 0.300727 0.421158 0.461596
O O16 0.815035 0.824887 0.318887
#
# Coordination Sequence:
#
# PCOD9245596 Si02
#       8
#     4   4   4   4   4   4   4   4
#     4  10  22  42  65  97 139 186 214 288 349 406
#     4  11  22  41  65  92 135 181 218 290 343 391
#     4  10  24  44  72  94 131 183 229 280 334 410
#     4  10  21  38  64  94 137 179 223 269 349 408
#     4  10  23  51  68  96 137 180 230 283 345 389
#     4  12  23  45  72 101 131 181 234 279 347 421
#     4  11  25  37  66 106 139 177 234 272 358 420
#     4  10  22  38  58 100 142 174 217 285 332 417
#
# _framework density 24.72625
#
# number of rings (size 3 to 8) (size 9 to 14) (size 15 to 20)
#    0.000    1.500    3.750    0.750    8.750    3.000 
#    9.000    0.625    0.000    0.000    0.000    0.000 
#    0.000    0.000    0.000    0.000    0.000    0.000 
#
# Total GULP energy -179013.466464 kJ/mol
# GULP energy per Si atom -5594.170827 kJ/mol
# Density = 2.466997 g / cm^3
# Si number density = 24.726250 Si / 1000 Ang^3
#
#
#
# Elastic Constant Matrix: (Units=GPa)
#
#
# Indices 1 2 3 4 5 6 
#
# 1 64.6093 -10.9782 9.0046 0.0000 5.9191 0.0000
# 2 -10.9782 91.6891 9.1971 0.0000 9.1396 0.0000
# 3 9.0046 9.1971 38.2091 0.0000 -9.6125 0.0000
# 4 0.0000 0.0000 0.0000 17.4096 0.0000 13.2635
# 5 5.9191 9.1396 -9.6125 0.0000 25.5962 0.0000
# 6 0.0000 0.0000 0.0000 13.2635 0.0000 49.2074
#
#
#
# Elastic Compliance Matrix: (Units=1/GPa)
#
#
# Indices 1 2 3 4 5 6 
#
# 1 0.017834 0.003658 -0.007122 0.000000 -0.008105 0.000000
# 2 0.003658 0.012681 -0.005816 0.000000 -0.007558 0.000000
# 3 -0.007122 -0.005816 0.033337 0.000000 0.016243 0.000000
# 4 0.000000 0.000000 0.000000 0.072283 0.000000 -0.019483
# 5 -0.008105 -0.007558 0.016243 0.000000 0.049741 0.000000
# 6 0.000000 0.000000 0.000000 -0.019483 0.000000 0.025574
#
#
# Mechanical properties :
#
#
# Convention : Reuss Voigt Hill
#
# Bulk Modulus (GPa) = 22.07945 23.21716 22.64830
# Shear Modulus (GPa) = 20.39918 30.92825 25.66371
#
# Velocity S-wave (km/s) = 2.87540 3.54054 3.22516
# Velocity P-wave (km/s) = 4.46910 5.11116 4.80087
#
# Compressibility (1/GPa) = 0.04529099
#
# Stress axis : x y z
#
# Youngs Moduli (GPa) = 56.07163 78.85739 29.99711
#
# Poissons Ratio (x) = -0.28844 0.21365
# Poissons Ratio (y) = -0.20509 0.17446
# Poissons Ratio (z) = 0.39936 0.45862
#
# Static dielectric constant tensor:
#      x y z
#    x 2.012430 0.000000 -0.047600 
#    y 0.000000 1.929880 0.000000 
#    z -0.047600 0.000000 2.017360 
# 
# From -- ./inp_files/51341.got.cif
#   From: 2010.05.17/outbox.cif.g08.bks.cpg/sg14_26_cif.got.tgz:51341.got - 2010.06.03 17:49:19.
