data_PCOD9245308
_publ_section_title
;
Structure prediction by ZEFSAII (Michael W. Deem and Ramdas Pophale) SiO2 
 PCOD9245308
Probable space group: P 21/C
;
_chemical_formula_sum "Si O2"
_cell_formula_units_Z 26
_cell_length_a 14.899937
_cell_length_b 15.414573
_cell_length_c 9.735088
_cell_angle_alpha 90.000000
_cell_angle_beta 29.667653
_cell_angle_gamma 90.000000
_cell_volume 1106.708141
_symmetry_space_group_name_H-M "P 21/C"
_symmetry_group_IT_number 14
_symmetry_cell_setting 'monoclinic'
loop_
_space_group_symop_operation_xyz
x,y,z
-x,1/2+y,1/2-z
-x,-y,-z
x,1/2-y,1/2+z
loop_
_atom_site_type_symbol
_atom_site_label
_atom_site_fract_x
_atom_site_fract_y
_atom_site_fract_z
Si Si1 0.159172 0.852812 0.636617
Si Si2 0.385248 0.953490 0.775267
Si Si3 0.000000 0.000000 0.000000
Si Si4 0.725218 0.851404 0.396982
Si Si5 0.762712 0.295176 0.672668
Si Si6 0.552186 0.933729 0.053419
Si Si7 0.656051 0.766290 0.757811
O O1 0.146522 0.806878 0.801688
O O2 0.148370 0.779932 0.535544
O O3 0.364735 0.891356 0.356431
O O4 0.031904 0.935825 0.820467
O O5 0.516500 0.883226 0.672698
O O6 0.237344 0.892060 0.896681
O O7 0.500000 0.000000 0.500000
O O8 0.349936 0.020744 0.945975
O O9 0.839979 0.936430 0.264072
O O10 0.739266 0.783833 0.500278
O O11 0.756461 0.805705 0.211245
O O12 0.553228 0.266002 0.974306
O O13 0.658943 0.855352 0.840035
O O14 0.500000 0.000000 0.000000
#
# Coordination Sequence:
#
# PCOD9245308 Si02
#       7
#     4   4   2   4   4   4   4
#     4  11  23  39  61  88 121 166 196 251 297 367
#     4  11  19  34  60  95 124 150 190 246 310 356
#     4  12  24  44  60  78 122 168 216 240 296 364
#     4  11  23  39  61  88 121 166 196 251 297 367
#     4  10  21  37  62  94 122 148 198 252 313 352
#     4  11  19  34  60  95 124 150 190 246 310 356
#     4  10  21  37  62  94 122 148 198 252 313 352
#
# _framework density 23.493095
#
# number of rings (size 3 to 8) (size 9 to 14) (size 15 to 20)
#    0.000    1.231    4.615    2.769    4.308    1.231 
#    0.000    0.000    0.000    1.846    0.000    0.000 
#    0.000    0.000    0.000    0.000    0.000    0.000 
#
# Total GULP energy -144901.784612 kJ/mol
# GULP energy per Si atom -5573.145562 kJ/mol
# Density = 2.343962 g / cm^3
# Si number density = 23.493095 Si / 1000 Ang^3
#
#
#
# Elastic Constant Matrix: (Units=GPa)
#
#
# Indices 1 2 3 4 5 6 
#
# 1 70.2209 17.0120 14.2595 0.0000 19.9673 0.0000
# 2 17.0120 73.9552 -10.3177 0.0000 3.9387 0.0000
# 3 14.2595 -10.3177 35.8088 0.0000 9.0727 0.0000
# 4 0.0000 0.0000 0.0000 42.8348 0.0000 2.6866
# 5 19.9673 3.9387 9.0727 0.0000 28.3748 0.0000
# 6 0.0000 0.0000 0.0000 2.6866 0.0000 34.3958
#
#
#
# Elastic Compliance Matrix: (Units=1/GPa)
#
#
# Indices 1 2 3 4 5 6 
#
# 1 0.019955 -0.004896 -0.006498 0.000000 -0.011285 0.000000
# 2 -0.004896 0.015624 0.006668 0.000000 -0.000856 0.000000
# 3 -0.006498 0.006668 0.034289 0.000000 -0.007317 0.000000
# 4 0.000000 0.000000 0.000000 0.023460 0.000000 -0.001832
# 5 -0.011285 -0.000856 -0.007317 0.000000 0.045642 0.000000
# 6 0.000000 0.000000 0.000000 -0.001832 0.000000 0.029216
#
#
# Mechanical properties :
#
#
# Convention : Reuss Voigt Hill
#
# Bulk Modulus (GPa) = 16.55173 24.65473 20.60323
# Shear Modulus (GPa) = 25.28099 31.72314 28.50206
#
# Velocity S-wave (km/s) = 3.28396 3.67865 3.48690
# Velocity P-wave (km/s) = 4.63032 5.34421 5.00002
#
# Compressibility (1/GPa) = 0.06041665
#
# Stress axis : x y z
#
# Youngs Moduli (GPa) = 50.11187 64.00509 29.16415
#
# Poissons Ratio (x) = 0.31336 0.18950
# Poissons Ratio (y) = 0.24534 -0.19447
# Poissons Ratio (z) = 0.32562 -0.42679
#
# Static dielectric constant tensor:
#      x y z
#    x 2.054950 0.000000 -0.065590 
#    y 0.000000 1.958290 0.000000 
#    z -0.065590 0.000000 1.893950 
# 
# From -- ./inp_files/16149.got.cif
#   From: 2010.05.17/outbox.cif.g08.bks.cpg/sg14_9_cif.got.tgz:16149.got - 2010.06.03 17:49:19.
