data_PCOD9245036
_publ_section_title
;
Structure prediction by ZEFSAII (Michael W. Deem and Ramdas Pophale) SiO2 
 PCOD9245036
Probable space group: P 21/C
;
_chemical_formula_sum "Si O2"
_cell_formula_units_Z 28
_cell_length_a 14.180445
_cell_length_b 19.189313
_cell_length_c 7.829856
_cell_angle_alpha 90.000000
_cell_angle_beta 135.179551
_cell_angle_gamma 90.000000
_cell_volume 1501.837059
_symmetry_space_group_name_H-M "P 21/C"
_symmetry_group_IT_number 14
_symmetry_cell_setting 'monoclinic'
loop_
_space_group_symop_operation_xyz
x,y,z
-x,1/2+y,1/2-z
-x,-y,-z
x,1/2-y,1/2+z
loop_
_atom_site_type_symbol
_atom_site_label
_atom_site_fract_x
_atom_site_fract_y
_atom_site_fract_z
Si Si1 0.618961 0.594338 0.577602
Si Si2 0.696538 0.685315 0.007740
Si Si3 0.215962 0.715639 0.762035
Si Si4 0.215090 0.336427 0.502703
Si Si5 0.911891 0.344095 0.090267
Si Si6 0.661570 0.069520 0.151210
Si Si7 0.394009 0.674505 0.700414
O O1 0.677692 0.635837 0.817720
O O2 0.678458 0.622764 0.477443
O O3 0.457121 0.599157 0.379701
O O4 0.655414 0.513227 0.645063
O O5 0.546660 0.698718 0.888163
O O6 0.763885 0.755687 0.024425
O O7 0.768509 0.657048 0.271199
O O8 0.122855 0.768725 0.536709
O O9 0.124344 0.666936 0.758796
O O10 0.320688 0.672223 0.785683
O O11 0.308740 0.767473 0.990583
O O12 0.066127 0.360254 0.261354
O O13 0.805592 0.399210 0.881507
O O14 0.620486 0.101589 0.915661
#
# Coordination Sequence:
#
# PCOD9245036 Si02
#       7
#     4   4   4   4   4   4   4
#     4  10  23  43  63  86 123 156 199 253 291 355
#     4  11  22  36  61  92 119 152 198 245 303 348
#     4   9  18  32  57  86 117 147 196 249 293 343
#     4  12  23  37  61  88 122 156 193 245 301 353
#     4  10  21  36  57  87 119 156 196 239 299 356
#     4   9  21  43  61  84 118 159 199 243 301 349
#     4   9  18  33  58  88 112 151 195 248 297 346
#
# _framework density 18.643834999999999
#
# number of rings (size 3 to 8) (size 9 to 14) (size 15 to 20)
#    0.000    2.000    1.429    1.714    8.000    0.571 
#    5.143    2.857    0.000    0.000    0.000    0.000 
#    0.000    0.000    0.000    0.000    0.000    0.000 
#
# Total GULP energy -156151.295491 kJ/mol
# GULP energy per Si atom -5576.831982 kJ/mol
# Density = 1.860140 g / cm^3
# Si number density = 18.643835 Si / 1000 Ang^3
#
#
#
# Elastic Constant Matrix: (Units=GPa)
#
#
# Indices 1 2 3 4 5 6 
#
# 1 41.3619 12.1073 12.1765 0.0000 -1.3019 0.0000
# 2 12.1073 57.9106 11.4805 0.0000 5.1582 0.0000
# 3 12.1765 11.4805 67.1615 0.0000 15.1771 0.0000
# 4 0.0000 0.0000 0.0000 6.3562 0.0000 1.8280
# 5 -1.3019 5.1582 15.1771 0.0000 29.4516 0.0000
# 6 0.0000 0.0000 0.0000 1.8280 0.0000 6.0856
#
#
#
# Elastic Compliance Matrix: (Units=1/GPa)
#
#
# Indices 1 2 3 4 5 6 
#
# 1 0.027344 -0.005118 -0.005159 0.000000 0.004764 0.000000
# 2 -0.005118 0.018913 -0.001704 0.000000 -0.002661 0.000000
# 3 -0.005159 -0.001704 0.018222 0.000000 -0.009320 0.000000
# 4 0.000000 0.000000 0.000000 0.172203 0.000000 -0.051728
# 5 0.004764 -0.002661 -0.009320 0.000000 0.039433 0.000000
# 6 0.000000 0.000000 0.000000 -0.051728 0.000000 0.179860
#
#
# Mechanical properties :
#
#
# Convention : Reuss Voigt Hill
#
# Bulk Modulus (GPa) = 24.68121 26.44028 25.56075
# Shear Modulus (GPa) = 10.13289 17.09000 13.61145
#
# Velocity S-wave (km/s) = 2.33383 3.03092 2.70493
# Velocity P-wave (km/s) = 4.53094 5.14404 4.84719
#
# Compressibility (1/GPa) = 0.04051665
#
# Stress axis : x y z
#
# Youngs Moduli (GPa) = 36.57136 52.87412 54.87822
#
# Poissons Ratio (x) = 0.27063 0.28312
# Poissons Ratio (y) = 0.18718 0.09350
# Poissons Ratio (z) = 0.18867 0.09008
#
# Static dielectric constant tensor:
#      x y z
#    x 1.666270 0.000000 -0.022230 
#    y 0.000000 1.623120 0.000000 
#    z -0.022230 0.000000 1.675040 
# 
# From -- ./inp_files/14141.got.cif
#   From: 2010.05.17/outbox.cif.g08.bks.cpg/sg14_8_cif.got.tgz:14141.got - 2010.06.03 17:49:19.
