data_PCOD9245042
_publ_section_title
;
Structure prediction by ZEFSAII (Michael W. Deem and Ramdas Pophale) SiO2 
 PCOD9245042
Probable space group: P 21/C
;
_chemical_formula_sum "Si O2"
_cell_formula_units_Z 28
_cell_length_a 13.842060
_cell_length_b 7.942282
_cell_length_c 11.935690
_cell_angle_alpha 90.000000
_cell_angle_beta 55.729063
_cell_angle_gamma 90.000000
_cell_volume 1084.364969
_symmetry_space_group_name_H-M "P 21/C"
_symmetry_group_IT_number 14
_symmetry_cell_setting 'monoclinic'
loop_
_space_group_symop_operation_xyz
x,y,z
-x,1/2+y,1/2-z
-x,-y,-z
x,1/2-y,1/2+z
loop_
_atom_site_type_symbol
_atom_site_label
_atom_site_fract_x
_atom_site_fract_y
_atom_site_fract_z
Si Si1 0.646119 0.403364 0.755077
Si Si2 0.468865 0.944852 0.226510
Si Si3 0.850998 0.202850 0.676863
Si Si4 0.304802 0.376709 0.687047
Si Si5 0.937798 0.732239 0.121840
Si Si6 0.939022 0.467135 0.779630
Si Si7 0.311880 0.422218 0.031997
O O1 0.595792 0.531243 0.697028
O O2 0.775193 0.332431 0.650941
O O3 0.650976 0.480745 0.876874
O O4 0.561641 0.240425 0.797606
O O5 0.429685 0.085607 0.161614
O O6 0.383540 0.992881 0.386261
O O7 0.887547 0.294443 0.765645
O O8 0.971494 0.181013 0.532086
O O9 0.758390 0.057765 0.765809
O O10 0.200184 0.269230 0.816206
O O11 0.323644 0.272540 0.561466
O O12 0.959658 0.592041 0.204748
O O13 0.968978 0.911699 0.156548
O O14 0.825248 0.553476 0.908092
#
# Coordination Sequence:
#
# PCOD9245042 Si02
#       7
#     4   4   4   4   4   4   4
#     4  10  22  40  64  91 122 163 217 256 310 389
#     4  11  22  42  64  88 127 167 203 267 321 366
#     4  10  21  39  59  87 124 161 204 264 314 366
#     4  10  22  38  62  93 121 160 215 253 312 395
#     4  11  21  37  60  87 124 165 204 259 312 366
#     4  10  21  36  57  89 122 161 212 254 310 377
#     4  10  22  42  62  89 126 163 206 265 319 371
#
# _framework density 25.821566000000001
#
# number of rings (size 3 to 8) (size 9 to 14) (size 15 to 20)
#    0.000    1.714    0.000    4.714    0.000    2.286 
#    0.000   20.714    0.000    0.000    0.000    0.000 
#    0.000    0.000    0.000    0.000    0.000    0.000 
#
# Total GULP energy -156508.005229 kJ/mol
# GULP energy per Si atom -5589.571615 kJ/mol
# Density = 2.576279 g / cm^3
# Si number density = 25.821566 Si / 1000 Ang^3
#
#
#
# Elastic Constant Matrix: (Units=GPa)
#
#
# Indices 1 2 3 4 5 6 
#
# 1 113.3464 -9.6434 -3.6748 0.0000 -3.4184 0.0000
# 2 -9.6434 88.3214 22.5183 0.0000 11.5686 0.0000
# 3 -3.6748 22.5183 73.8700 0.0000 -11.2434 0.0000
# 4 0.0000 0.0000 0.0000 11.9437 0.0000 -4.1706
# 5 -3.4184 11.5686 -11.2434 0.0000 20.0965 0.0000
# 6 0.0000 0.0000 0.0000 -4.1706 0.0000 42.5746
#
#
#
# Elastic Compliance Matrix: (Units=1/GPa)
#
#
# Indices 1 2 3 4 5 6 
#
# 1 0.008937 0.000681 0.000447 0.000000 0.001378 0.000000
# 2 0.000681 0.014498 -0.006163 0.000000 -0.011678 0.000000
# 3 0.000447 -0.006163 0.017478 0.000000 0.013402 0.000000
# 4 0.000000 0.000000 0.000000 0.086692 0.000000 0.008492
# 5 0.001378 -0.011678 0.013402 0.000000 0.064215 0.000000
# 6 0.000000 0.000000 0.000000 0.008492 0.000000 0.024320
#
#
# Mechanical properties :
#
#
# Convention : Reuss Voigt Hill
#
# Bulk Modulus (GPa) = 32.42301 32.65976 32.54139
# Shear Modulus (GPa) = 21.14264 32.67880 26.91072
#
# Velocity S-wave (km/s) = 2.86457 3.56133 3.23178
# Velocity P-wave (km/s) = 4.85024 5.43935 5.15322
#
# Compressibility (1/GPa) = 0.03084229
#
# Stress axis : x y z
#
# Youngs Moduli (GPa) = 111.90040 68.97723 57.21464
#
# Poissons Ratio (x) = -0.04700 -0.02555
# Poissons Ratio (y) = -0.07625 0.35261
# Poissons Ratio (z) = -0.04997 0.42510
#
# Static dielectric constant tensor:
#      x y z
#    x 2.095290 0.000000 -0.010800 
#    y 0.000000 2.178680 0.000000 
#    z -0.010800 0.000000 1.977590 
# 
# From -- ./inp_files/31457.got.cif
#   From: 2010.05.17/outbox.cif.g08.bks.cpg/sg14_16_cif.got.tgz:31457.got - 2010.06.03 17:49:19.
