data_PCOD9245671
_publ_section_title
;
Structure prediction by ZEFSAII (Michael W. Deem and Ramdas Pophale) SiO2 
 PCOD9245671
Probable space group: P 21/C
;
_chemical_formula_sum "Si O2"
_cell_formula_units_Z 24
_cell_length_a 14.030377
_cell_length_b 8.180342
_cell_length_c 9.700971
_cell_angle_alpha 90.000000
_cell_angle_beta 90.286690
_cell_angle_gamma 90.000000
_cell_volume 1113.398345
_symmetry_space_group_name_H-M "P 21/C"
_symmetry_group_IT_number 14
_symmetry_cell_setting 'monoclinic'
loop_
_space_group_symop_operation_xyz
x,y,z
-x,1/2+y,1/2-z
-x,-y,-z
x,1/2-y,1/2+z
loop_
_atom_site_type_symbol
_atom_site_label
_atom_site_fract_x
_atom_site_fract_y
_atom_site_fract_z
Si Si1 0.726963 0.960242 0.314804
Si Si2 0.923648 0.407944 0.813608
Si Si3 0.761856 0.813343 0.026712
Si Si4 0.522106 0.567322 0.850439
Si Si5 0.027858 0.264126 0.558635
Si Si6 0.579558 0.940849 0.893280
O O1 0.736874 0.863591 0.460234
O O2 0.619096 0.020118 0.298654
O O3 0.809290 0.094167 0.304886
O O4 0.748366 0.832060 0.190413
O O5 0.949081 0.590173 0.867052
O O6 0.972353 0.371942 0.668567
O O7 0.965495 0.282277 0.925476
O O8 0.871263 0.840207 0.986336
O O9 0.684764 0.935431 0.958197
O O10 0.552018 0.755151 0.856836
O O11 0.435833 0.540777 0.745885
O O12 0.500000 0.500000 0.000000
O O13 0.500000 0.000000 0.000000
#
# Coordination Sequence:
#
# PCOD9245671 Si02
#       6
#     4   4   4   4   4   4
#     4  10  22  40  63  94 127 172 217 264 331 398
#     4  10  22  41  63  94 129 165 222 270 328 386
#     4  10  21  38  68  91 127 174 220 252 331 407
#     4  11  24  42  65  95 136 174 221 274 333 396
#     4  10  21  41  64  93 127 169 215 275 323 394
#     4  11  22  43  67  98 131 176 218 274 329 400
#
# _framework density 21.555627000000001
#
# number of rings (size 3 to 8) (size 9 to 14) (size 15 to 20)
#    0.000    1.667    1.667    3.000    7.000    2.667 
#    3.000    1.667    0.000    0.000    0.000    0.000 
#    0.000    0.000    0.000    0.000    0.000    0.000 
#
# Total GULP energy -134138.542364 kJ/mol
# GULP energy per Si atom -5589.105932 kJ/mol
# Density = 2.150657 g / cm^3
# Si number density = 21.555627 Si / 1000 Ang^3
#
#
#
# Elastic Constant Matrix: (Units=GPa)
#
#
# Indices 1 2 3 4 5 6 
#
# 1 145.6281 35.9648 40.4937 0.0000 -7.7821 0.0000
# 2 35.9648 40.1647 27.0916 0.0000 2.8297 0.0000
# 3 40.4937 27.0916 114.9584 0.0000 -5.5530 0.0000
# 4 0.0000 0.0000 0.0000 36.3571 0.0000 -0.4415
# 5 -7.7821 2.8297 -5.5530 0.0000 37.5612 0.0000
# 6 0.0000 0.0000 0.0000 -0.4415 0.0000 30.1439
#
#
#
# Elastic Compliance Matrix: (Units=1/GPa)
#
#
# Indices 1 2 3 4 5 6 
#
# 1 0.009220 -0.007490 -0.001373 0.000000 0.002271 0.000000
# 2 -0.007490 0.036095 -0.006118 0.000000 -0.005175 0.000000
# 3 -0.001373 -0.006118 0.010709 0.000000 0.001760 0.000000
# 4 0.000000 0.000000 0.000000 0.027510 0.000000 0.000403
# 5 0.002271 -0.005175 0.001760 0.000000 0.027744 0.000000
# 6 0.000000 0.000000 0.000000 0.000403 0.000000 0.033180
#
#
# Mechanical properties :
#
#
# Convention : Reuss Voigt Hill
#
# Bulk Modulus (GPa) = 38.36869 56.42794 47.39831
# Shear Modulus (GPa) = 27.30651 33.95919 30.63285
#
# Velocity S-wave (km/s) = 3.56306 3.97346 3.77385
# Velocity P-wave (km/s) = 5.89625 6.87647 6.40514
#
# Compressibility (1/GPa) = 0.02606292
#
# Stress axis : x y z
#
# Youngs Moduli (GPa) = 108.46514 27.70448 93.37749
#
# Poissons Ratio (x) = 0.20749 0.12819
# Poissons Ratio (y) = 0.81235 0.57130
# Poissons Ratio (z) = 0.14890 0.16950
#
# Static dielectric constant tensor:
#      x y z
#    x 1.811170 0.000000 0.027220 
#    y 0.000000 1.782460 0.000000 
#    z 0.027220 0.000000 1.767300 
# 
# From -- ./inp_files/15092.got.cif
#   From: 2010.05.17/outbox.cif.g08.bks.cpg/sg14_8_cif.got.tgz:15092.got - 2010.06.03 17:49:19.
