data_PCOD9245766
_publ_section_title
;
Structure prediction by ZEFSAII (Michael W. Deem and Ramdas Pophale) SiO2 
 PCOD9245766
Probable space group: P 21/C
;
_chemical_formula_sum "Si O2"
_cell_formula_units_Z 28
_cell_length_a 17.830545
_cell_length_b 8.594510
_cell_length_c 14.569949
_cell_angle_alpha 90.000000
_cell_angle_beta 33.028369
_cell_angle_gamma 90.000000
_cell_volume 1216.980104
_symmetry_space_group_name_H-M "P 21/C"
_symmetry_group_IT_number 14
_symmetry_cell_setting 'monoclinic'
loop_
_space_group_symop_operation_xyz
x,y,z
-x,1/2+y,1/2-z
-x,-y,-z
x,1/2-y,1/2+z
loop_
_atom_site_type_symbol
_atom_site_label
_atom_site_fract_x
_atom_site_fract_y
_atom_site_fract_z
Si Si1 0.297246 0.910674 0.656979
Si Si2 0.083875 0.356720 0.373192
Si Si3 0.210792 0.346414 0.907627
Si Si4 0.792705 0.452528 0.427953
Si Si5 0.012499 0.236920 0.253898
Si Si6 0.154836 0.920900 0.330495
Si Si7 0.412348 0.424293 0.223106
O O1 0.197378 0.761371 0.775913
O O2 0.428561 0.889395 0.457501
O O3 0.216485 0.056467 0.697522
O O4 0.354235 0.973468 0.696786
O O5 0.131859 0.254787 0.410010
O O6 0.013814 0.267669 0.361235
O O7 0.000000 0.500000 0.500000
O O8 0.234640 0.510689 0.835701
O O9 0.341716 0.244770 0.796240
O O10 0.110425 0.354793 0.096661
O O11 0.907297 0.575897 0.349255
O O12 0.788798 0.485563 0.323995
O O13 0.650082 0.486874 0.624730
O O14 0.860696 0.282743 0.374709
O O15 0.000000 0.000000 0.500000
#
# Coordination Sequence:
#
# PCOD9245766 Si02
#       7
#     4   4   4   4   4   4   4
#     4  10  23  42  66  88 127 170 216 260 318 398
#     4  11  21  38  64  90 124 170 210 262 323 385
#     4  10  21  39  61  90 128 160 207 266 324 379
#     4  11  24  38  63  93 130 162 214 266 324 391
#     4  11  22  37  61  92 127 165 206 265 325 379
#     4  12  23  39  62 101 132 156 212 282 329 374
#     4   9  22  46  62  87 123 179 216 248 320 402
#
# _framework density 23.007773
#
# number of rings (size 3 to 8) (size 9 to 14) (size 15 to 20)
#    0.000    1.429    2.857    3.429    4.000    0.571 
#    5.143    0.000    0.000    0.000    0.000    0.000 
#    0.000    0.000    0.000    0.000    0.000    0.000 
#
# Total GULP energy -156156.661383 kJ/mol
# GULP energy per Si atom -5577.023621 kJ/mol
# Density = 2.295541 g / cm^3
# Si number density = 23.007773 Si / 1000 Ang^3
#
#
#
# Elastic Constant Matrix: (Units=GPa)
#
#
# Indices 1 2 3 4 5 6 
#
# 1 31.4785 -4.1376 22.1682 0.0000 12.1315 0.0000
# 2 -4.1376 71.6796 21.5021 0.0000 -7.5439 0.0000
# 3 22.1682 21.5021 162.9185 0.0000 5.2378 0.0000
# 4 0.0000 0.0000 0.0000 35.0332 0.0000 -2.0804
# 5 12.1315 -7.5439 5.2378 0.0000 35.4833 0.0000
# 6 0.0000 0.0000 0.0000 -2.0804 0.0000 17.1702
#
#
#
# Elastic Compliance Matrix: (Units=1/GPa)
#
#
# Indices 1 2 3 4 5 6 
#
# 1 0.040849 0.002686 -0.005508 0.000000 -0.012582 0.000000
# 2 0.002686 0.015120 -0.002446 0.000000 0.002657 0.000000
# 3 -0.005508 -0.002446 0.007201 0.000000 0.000300 0.000000
# 4 0.000000 0.000000 0.000000 0.028751 0.000000 0.003484
# 5 -0.012582 0.002657 0.000300 0.000000 0.033005 0.000000
# 6 0.000000 0.000000 0.000000 0.003484 0.000000 0.058663
#
#
# Mechanical properties :
#
#
# Convention : Reuss Voigt Hill
#
# Bulk Modulus (GPa) = 18.99984 38.34910 28.67447
# Shear Modulus (GPa) = 23.62184 32.64025 28.13104
#
# Velocity S-wave (km/s) = 3.20768 3.77060 3.50047
# Velocity P-wave (km/s) = 4.68987 5.97165 5.36915
#
# Compressibility (1/GPa) = 0.05263202
#
# Stress axis : x y z
#
# Youngs Moduli (GPa) = 24.48052 66.13951 138.87388
#
# Poissons Ratio (x) = -0.17766 0.76496
# Poissons Ratio (y) = -0.06576 0.33974
# Poissons Ratio (z) = 0.13485 0.16181
#
# Static dielectric constant tensor:
#      x y z
#    x 1.866320 0.000000 -0.028350 
#    y 0.000000 1.993600 0.000000 
#    z -0.028350 0.000000 1.920110 
# 
# From -- ./inp_files/50029.got.cif
#   From: 2010.05.17/outbox.cif.g08.bks.cpg/sg14_26_cif.got.tgz:50029.got - 2010.06.03 17:49:19.
