data_PCOD9245976
_publ_section_title
;
Structure prediction by ZEFSAII (Michael W. Deem and Ramdas Pophale) SiO2 
 PCOD9245976
Probable space group: P 21/C
;
_chemical_formula_sum "Si O2"
_cell_formula_units_Z 28
_cell_length_a 22.398178
_cell_length_b 5.432303
_cell_length_c 11.354856
_cell_angle_alpha 90.000000
_cell_angle_beta 54.075087
_cell_angle_gamma 90.000000
_cell_volume 1118.790822
_symmetry_space_group_name_H-M "P 21/C"
_symmetry_group_IT_number 14
_symmetry_cell_setting 'monoclinic'
loop_
_space_group_symop_operation_xyz
x,y,z
-x,1/2+y,1/2-z
-x,-y,-z
x,1/2-y,1/2+z
loop_
_atom_site_type_symbol
_atom_site_label
_atom_site_fract_x
_atom_site_fract_y
_atom_site_fract_z
Si Si1 0.952198 0.974276 0.936936
Si Si2 0.458799 0.692772 0.129422
Si Si3 0.667596 0.456593 0.170912
Si Si4 0.404968 0.355732 0.399066
Si Si5 0.788066 0.319450 0.849877
Si Si6 0.252313 0.176569 0.215762
Si Si7 0.088809 0.532665 0.106269
O O1 0.906199 0.722361 0.972300
O O2 0.008790 0.976300 0.761362
O O3 0.906876 0.225537 0.979149
O O4 0.000000 0.000000 0.000000
O O5 0.381490 0.807400 0.176793
O O6 0.426581 0.567479 0.284265
O O7 0.527380 0.855908 0.089294
O O8 0.500000 0.500000 0.000000
O O9 0.607042 0.615129 0.170065
O O10 0.724644 0.627071 0.176471
O O11 0.718191 0.311239 0.020299
O O12 0.328518 0.350469 0.555574
O O13 0.774403 0.546477 0.776546
O O14 0.855030 0.413969 0.853150
O O15 0.795345 0.051412 0.781601
#
# Coordination Sequence:
#
# PCOD9245976 Si02
#       7
#     4   4   4   4   4   4   4
#     4  10  21  39  67 101 134 169 214 263 309 369
#     4  12  25  39  68  89 121 163 217 269 342 391
#     4  11  26  42  62  90 125 165 216 270 327 391
#     4  11  24  43  60  92 120 162 210 278 330 389
#     4  11  25  45  64  94 132 172 214 262 316 384
#     4  11  26  42  65  89 126 168 215 264 320 385
#     4  10  22  40  65  97 135 171 213 261 313 372
#
# _framework density 25.027018999999999
#
# number of rings (size 3 to 8) (size 9 to 14) (size 15 to 20)
#    0.000    1.143    2.857    2.143    8.000    3.429 
#    0.000    0.000    0.000    0.000    0.000    0.000 
#    0.000    0.000    0.000    0.000    0.000    0.000 
#
# Total GULP energy -156557.146620 kJ/mol
# GULP energy per Si atom -5591.326665 kJ/mol
# Density = 2.497006 g / cm^3
# Si number density = 25.027019 Si / 1000 Ang^3
#
#
#
# Elastic Constant Matrix: (Units=GPa)
#
#
# Indices 1 2 3 4 5 6 
#
# 1 62.1220 7.9754 -16.2065 0.0000 2.5497 0.0000
# 2 7.9754 100.2695 22.6013 0.0000 -2.0819 0.0000
# 3 -16.2065 22.6013 70.6879 0.0000 -12.5903 0.0000
# 4 0.0000 0.0000 0.0000 42.1335 0.0000 3.9593
# 5 2.5497 -2.0819 -12.5903 0.0000 35.8872 0.0000
# 6 0.0000 0.0000 0.0000 3.9593 0.0000 47.8675
#
#
#
# Elastic Compliance Matrix: (Units=1/GPa)
#
#
# Indices 1 2 3 4 5 6 
#
# 1 0.017688 -0.002508 0.004915 0.000000 0.000322 0.000000
# 2 -0.002508 0.011116 -0.004248 0.000000 -0.000667 0.000000
# 3 0.004915 -0.004248 0.017627 0.000000 0.005588 0.000000
# 4 0.000000 0.000000 0.000000 0.023920 0.000000 -0.001978
# 5 0.000322 -0.000667 0.005588 0.000000 0.029764 0.000000
# 6 0.000000 0.000000 0.000000 -0.001978 0.000000 0.021055
#
#
# Mechanical properties :
#
#
# Convention : Reuss Voigt Hill
#
# Bulk Modulus (GPa) = 23.39259 29.09108 26.24183
# Shear Modulus (GPa) = 35.94461 39.75827 37.85144
#
# Velocity S-wave (km/s) = 3.79388 3.99007 3.89321
# Velocity P-wave (km/s) = 5.34402 5.73381 5.54234
#
# Compressibility (1/GPa) = 0.04274859
#
# Stress axis : x y z
#
# Youngs Moduli (GPa) = 56.53469 89.95801 56.73092
#
# Poissons Ratio (x) = 0.22562 -0.27881
# Poissons Ratio (y) = 0.14179 0.24100
# Poissons Ratio (z) = -0.27784 0.38215
#
# Static dielectric constant tensor:
#      x y z
#    x 1.908420 0.000000 0.004110 
#    y 0.000000 2.144180 0.000000 
#    z 0.004110 0.000000 1.995780 
# 
# From -- ./inp_files/34593.got.cif
#   From: 2010.05.17/outbox.cif.g08.bks.cpg/sg14_18_cif.got.tgz:34593.got - 2010.06.03 17:49:19.
