data_PCOD9245907
_publ_section_title
;
Structure prediction by ZEFSAII (Michael W. Deem and Ramdas Pophale) SiO2 
 PCOD9245907
Probable space group: P 21/C
;
_chemical_formula_sum "Si O2"
_cell_formula_units_Z 30
_cell_length_a 14.085368
_cell_length_b 19.710084
_cell_length_c 8.002952
_cell_angle_alpha 90.000000
_cell_angle_beta 31.863633
_cell_angle_gamma 90.000000
_cell_volume 1172.892004
_symmetry_space_group_name_H-M "P 21/C"
_symmetry_group_IT_number 14
_symmetry_cell_setting 'monoclinic'
loop_
_space_group_symop_operation_xyz
x,y,z
-x,1/2+y,1/2-z
-x,-y,-z
x,1/2-y,1/2+z
loop_
_atom_site_type_symbol
_atom_site_label
_atom_site_fract_x
_atom_site_fract_y
_atom_site_fract_z
Si Si1 0.743125 0.918211 0.787663
Si Si2 0.000000 0.500000 0.000000
Si Si3 0.287351 0.034454 0.531113
Si Si4 0.132705 0.706979 0.292620
Si Si5 0.489084 0.348591 0.859516
Si Si6 0.554153 0.713486 0.712698
Si Si7 0.903441 0.345419 0.278137
Si Si8 0.925933 0.425498 0.752063
O O1 0.668534 0.938825 0.720464
O O2 0.769883 0.980264 0.871543
O O3 0.967648 0.909746 0.442296
O O4 0.664484 0.846001 0.956059
O O5 0.950650 0.462721 0.888856
O O6 0.410193 0.076666 0.469196
O O7 0.258674 0.953850 0.558250
O O8 0.089268 0.059093 0.882590
O O9 0.036487 0.778324 0.410265
O O10 0.095288 0.675009 0.529309
O O11 0.079071 0.654963 0.228308
O O12 0.347846 0.714837 0.956340
O O13 0.396669 0.293420 0.872607
O O14 0.701805 0.356842 0.520384
O O15 0.452383 0.312034 0.089131
#
# Coordination Sequence:
#
# PCOD9245907 Si02
#       8
#     4   2   4   4   4   4   4   4
#     4  11  22  41  61  93 120 165 206 257 305 375
#     4  10  24  40  60  92 126 160 210 256 300 372
#     4  10  21  39  65  86 124 164 209 254 312 364
#     4  10  22  42  61  95 123 166 197 267 302 374
#     4  10  21  41  59  91 123 166 199 264 306 376
#     4  10  22  38  63  90 129 154 212 251 318 361
#     4  10  23  39  63  91 128 158 211 249 321 363
#     4  10  21  41  63  90 127 164 210 258 308 370
#
# _framework density 25.577805000000001
#
# number of rings (size 3 to 8) (size 9 to 14) (size 15 to 20)
#    0.000    1.867    1.333    1.600    3.733    2.133 
#    2.400    2.667    0.000    0.000    0.000    0.000 
#    0.000    0.000    0.000    0.000    0.000    0.000 
#
# Total GULP energy -167305.253390 kJ/mol
# GULP energy per Si atom -5576.841780 kJ/mol
# Density = 2.551959 g / cm^3
# Si number density = 25.577805 Si / 1000 Ang^3
#
#
#
# Elastic Constant Matrix: (Units=GPa)
#
#
# Indices 1 2 3 4 5 6 
#
# 1 44.0023 38.0153 4.9430 0.0000 6.3010 0.0000
# 2 38.0153 122.9229 24.0454 0.0000 -0.4087 0.0000
# 3 4.9430 24.0454 49.2208 0.0000 5.6937 0.0000
# 4 0.0000 0.0000 0.0000 43.7603 0.0000 -6.8531
# 5 6.3010 -0.4087 5.6937 0.0000 14.8982 0.0000
# 6 0.0000 0.0000 0.0000 -6.8531 0.0000 45.7427
#
#
#
# Elastic Compliance Matrix: (Units=1/GPa)
#
#
# Indices 1 2 3 4 5 6 
#
# 1 0.034620 -0.011560 0.004082 0.000000 -0.016519 0.000000
# 2 -0.011560 0.012913 -0.006020 0.000000 0.007544 0.000000
# 3 0.004082 -0.006020 0.024133 0.000000 -0.011115 0.000000
# 4 0.000000 0.000000 0.000000 0.023401 0.000000 0.003506
# 5 -0.016519 0.007544 -0.011115 0.000000 0.078564 0.000000
# 6 0.000000 0.000000 0.000000 0.003506 0.000000 0.022387
#
#
# Mechanical properties :
#
#
# Convention : Reuss Voigt Hill
#
# Bulk Modulus (GPa) = 22.38667 38.90594 30.64630
# Shear Modulus (GPa) = 21.01682 30.82306 25.91994
#
# Velocity S-wave (km/s) = 2.86961 3.47518 3.18681
# Velocity P-wave (km/s) = 4.44420 5.59878 5.05457
#
# Compressibility (1/GPa) = 0.04466944
#
# Stress axis : x y z
#
# Youngs Moduli (GPa) = 28.88482 77.44174 41.43646
#
# Poissons Ratio (x) = 0.89523 -0.16912
# Poissons Ratio (y) = 0.33391 0.24945
# Poissons Ratio (z) = -0.11789 0.46620
#
# Static dielectric constant tensor:
#      x y z
#    x 2.053390 0.000000 -0.019330 
#    y 0.000000 2.347220 0.000000 
#    z -0.019330 0.000000 2.073510 
# 
# From -- ./inp_files/16932.got.cif
#   From: 2010.05.17/outbox.cif.g08.bks.cpg/sg14_9_cif.got.tgz:16932.got - 2010.06.03 17:49:19.
