data_PCOD9245479
_publ_section_title
;
Structure prediction by ZEFSAII (Michael W. Deem and Ramdas Pophale) SiO2 
 PCOD9245479
Probable space group: P 21/C
;
_chemical_formula_sum "Si O2"
_cell_formula_units_Z 16
_cell_length_a 9.248097
_cell_length_b 13.597079
_cell_length_c 4.867885
_cell_angle_alpha 90.000000
_cell_angle_beta 102.443331
_cell_angle_gamma 90.000000
_cell_volume 597.743448
_symmetry_space_group_name_H-M "P 21/C"
_symmetry_group_IT_number 14
_symmetry_cell_setting 'monoclinic'
loop_
_space_group_symop_operation_xyz
x,y,z
-x,1/2+y,1/2-z
-x,-y,-z
x,1/2-y,1/2+z
loop_
_atom_site_type_symbol
_atom_site_label
_atom_site_fract_x
_atom_site_fract_y
_atom_site_fract_z
Si Si1 0.272298 0.187648 0.103809
Si Si2 0.827153 0.317155 0.372758
Si Si3 0.130335 0.505213 0.270544
Si Si4 0.579352 0.398897 0.603290
O O1 0.234329 0.281290 0.896362
O O2 0.448661 0.165468 0.174200
O O3 0.195668 0.093409 0.933760
O O4 0.863758 0.270154 0.100515
O O5 0.905364 0.416245 0.502795
O O6 0.655599 0.343674 0.375209
O O7 0.273231 0.560637 0.182252
O O8 0.000000 0.500000 0.000000
O O9 0.500000 0.500000 0.500000
#
# Coordination Sequence:
#
# PCOD9245479 Si02
#       4
#     4   4   4   4
#     4  11  23  42  66  94 126 165 211 261 312 368
#     4  10  21  38  61  86 117 159 201 245 301 359
#     4   9  22  43  62  95 130 164 210 258 312 377
#     4   8  18  39  62  92 123 165 202 261 307 364
#
# _framework density 26.767337000000001
#
# number of rings (size 3 to 8) (size 9 to 14) (size 15 to 20)
#    1.500    1.000    0.000    1.500    0.000    4.000 
#    0.000    7.500    0.000    0.000    0.000    0.000 
#    0.000    0.000    0.000    0.000    0.000    0.000 
#
# Total GULP energy -89460.875362 kJ/mol
# GULP energy per Si atom -5591.304710 kJ/mol
# Density = 2.670641 g / cm^3
# Si number density = 26.767337 Si / 1000 Ang^3
#
#
#
# Elastic Constant Matrix: (Units=GPa)
#
#
# Indices 1 2 3 4 5 6 
#
# 1 127.4292 16.3281 41.4142 0.0000 40.5436 0.0000
# 2 16.3281 164.2337 55.8721 0.0000 28.3059 0.0000
# 3 41.4142 55.8721 113.9682 0.0000 27.9202 0.0000
# 4 0.0000 0.0000 0.0000 52.2047 0.0000 19.1993
# 5 40.5436 28.3059 27.9202 0.0000 49.6833 0.0000
# 6 0.0000 0.0000 0.0000 19.1993 0.0000 15.8939
#
#
#
# Elastic Compliance Matrix: (Units=1/GPa)
#
#
# Indices 1 2 3 4 5 6 
#
# 1 0.011204 0.001219 -0.002620 0.000000 -0.008366 0.000000
# 2 0.001219 0.007717 -0.003369 0.000000 -0.003498 0.000000
# 3 -0.002620 -0.003369 0.012042 0.000000 -0.002710 0.000000
# 4 0.000000 0.000000 0.000000 0.034468 0.000000 -0.041636
# 5 -0.008366 -0.003498 -0.002710 0.000000 0.030470 0.000000
# 6 0.000000 0.000000 0.000000 -0.041636 0.000000 0.113211
#
#
# Mechanical properties :
#
#
# Convention : Reuss Voigt Hill
#
# Bulk Modulus (GPa) = 46.67785 70.31779 58.49782
# Shear Modulus (GPa) = 22.14425 43.02416 32.58421
#
# Velocity S-wave (km/s) = 2.87938 4.01351 3.49279
# Velocity P-wave (km/s) = 5.34141 6.91410 6.17800
#
# Compressibility (1/GPa) = 0.02142344
#
# Stress axis : x y z
#
# Youngs Moduli (GPa) = 89.25134 129.58844 83.04341
#
# Poissons Ratio (x) = -0.15798 0.21755
# Poissons Ratio (y) = -0.10881 0.27979
# Poissons Ratio (z) = 0.23381 0.43660
#
# Static dielectric constant tensor:
#      x y z
#    x 2.229070 0.000000 0.016000 
#    y 0.000000 2.059910 0.000000 
#    z 0.016000 0.000000 2.070060 
# 
# From -- ./inp_files/868.got.cif
#   From: 2010.05.17/outbox.cif.g08.bks.cpg/sg14_1_cif.got.tgz:868.got - 2010.06.03 17:49:19.
