data_PCOD9245001
_publ_section_title
;
Structure prediction by ZEFSAII (Michael W. Deem and Ramdas Pophale) SiO2 
 PCOD9245001
Probable space group: P 21/C
;
_chemical_formula_sum "Si O2"
_cell_formula_units_Z 32
_cell_length_a 20.723265
_cell_length_b 9.022287
_cell_length_c 9.932351
_cell_angle_alpha 90.000000
_cell_angle_beta 74.214077
_cell_angle_gamma 90.000000
_cell_volume 1787.024599
_symmetry_space_group_name_H-M "P 21/C"
_symmetry_group_IT_number 14
_symmetry_cell_setting 'monoclinic'
loop_
_space_group_symop_operation_xyz
x,y,z
-x,1/2+y,1/2-z
-x,-y,-z
x,1/2-y,1/2+z
loop_
_atom_site_type_symbol
_atom_site_label
_atom_site_fract_x
_atom_site_fract_y
_atom_site_fract_z
Si Si1 0.682608 0.366237 0.774274
Si Si2 0.449245 0.357907 0.882749
Si Si3 0.182317 0.561294 0.960459
Si Si4 0.828780 0.208265 0.251845
Si Si5 0.333110 0.585845 0.908160
Si Si6 0.043127 0.418704 0.089245
Si Si7 0.429666 0.082512 0.704026
Si Si8 0.023328 0.602023 0.367324
O O1 0.763257 0.377100 0.733664
O O2 0.664394 0.221680 0.697571
O O3 0.643835 0.509741 0.742215
O O4 0.660949 0.351139 0.942969
O O5 0.390914 0.465470 0.859359
O O6 0.446060 0.202971 0.807464
O O7 0.518700 0.444886 0.820735
O O8 0.437917 0.346707 0.050212
O O9 0.176887 0.631224 0.814560
O O10 0.259164 0.512818 0.936680
O O11 0.172377 0.686329 0.085248
O O12 0.122198 0.446492 0.018445
O O13 0.899342 0.148440 0.160485
O O14 0.021911 0.504623 0.234904
O O15 0.021686 0.248837 0.112853
O O16 0.000000 0.500000 0.000000
O O17 0.000000 0.500000 0.500000
#
# Coordination Sequence:
#
# PCOD9245001 Si02
#       8
#     4   4   4   4   4   4   4   4
#     4   9  18  34  55  79 106 141 180 217 262 316
#     4  10  21  36  55  80 111 143 178 224 268 317
#     4   9  18  33  55  78 107 143 177 225 268 323
#     4   9  18  33  55  77 106 140 179 219 268 323
#     4   9  18  34  55  79 109 140 180 219 266 317
#     4  11  21  36  57  79 109 142 183 228 278 332
#     4  10  21  36  55  81 111 143 179 223 268 317
#     4  11  23  37  55  80 107 142 183 230 279 331
#
# _framework density 17.906860000000002
#
# number of rings (size 3 to 8) (size 9 to 14) (size 15 to 20)
#    0.000    2.250    1.250    1.500    1.750    1.500 
#    2.250    0.000    2.750    0.000    0.000    0.000 
#    0.000    0.000    0.000    0.000    0.000    0.000 
#
# Total GULP energy -178379.342555 kJ/mol
# GULP energy per Si atom -5574.354455 kJ/mol
# Density = 1.786610 g / cm^3
# Si number density = 17.906860 Si / 1000 Ang^3
#
#
#
# Elastic Constant Matrix: (Units=GPa)
#
#
# Indices 1 2 3 4 5 6 
#
# 1 75.3246 37.0956 32.6658 0.0000 -0.9634 0.0000
# 2 37.0956 84.1759 25.8047 0.0000 3.0463 0.0000
# 3 32.6658 25.8047 32.9721 0.0000 2.7135 0.0000
# 4 0.0000 0.0000 0.0000 25.5046 0.0000 4.0893
# 5 -0.9634 3.0463 2.7135 0.0000 18.6694 0.0000
# 6 0.0000 0.0000 0.0000 4.0893 0.0000 25.3037
#
#
#
# Elastic Compliance Matrix: (Units=1/GPa)
#
#
# Indices 1 2 3 4 5 6 
#
# 1 0.024942 -0.004570 -0.021559 0.000000 0.005166 0.000000
# 2 -0.004570 0.016478 -0.008227 0.000000 -0.001729 0.000000
# 3 -0.021559 -0.008227 0.058811 0.000000 -0.008318 0.000000
# 4 0.000000 0.000000 0.000000 0.040252 0.000000 -0.006505
# 5 0.005166 -0.001729 -0.008318 0.000000 0.055321 0.000000
# 6 0.000000 0.000000 0.000000 -0.006505 0.000000 0.040571
#
#
# Mechanical properties :
#
#
# Convention : Reuss Voigt Hill
#
# Bulk Modulus (GPa) = 31.72622 42.62276 37.17449
# Shear Modulus (GPa) = 15.84324 20.35596 18.09960
#
# Velocity S-wave (km/s) = 2.97771 3.37526 3.18270
# Velocity P-wave (km/s) = 5.43858 6.24852 5.85757
#
# Compressibility (1/GPa) = 0.03151967
#
# Stress axis : x y z
#
# Youngs Moduli (GPa) = 40.09335 60.68628 17.00376
#
# Poissons Ratio (x) = 0.27731 0.36659
# Poissons Ratio (y) = 0.18321 0.13989
# Poissons Ratio (z) = 0.86438 0.49926
#
# Static dielectric constant tensor:
#      x y z
#    x 1.645910 0.000000 0.009640 
#    y 0.000000 1.581590 0.000000 
#    z 0.009640 0.000000 1.615470 
# 
# From -- ./inp_files/18603.got.cif
#   From: 2010.05.17/outbox.cif.g08.bks.cpg/sg14_10_cif.got.tgz:18603.got - 2010.06.03 17:49:19.
