data_PCOD9245165
_publ_section_title
;
Structure prediction by ZEFSAII (Michael W. Deem and Ramdas Pophale) SiO2 
 PCOD9245165
Probable space group: P 21/C
;
_chemical_formula_sum "Si O2"
_cell_formula_units_Z 30
_cell_length_a 17.106451
_cell_length_b 5.539100
_cell_length_c 18.018497
_cell_angle_alpha 90.000000
_cell_angle_beta 140.773805
_cell_angle_gamma 90.000000
_cell_volume 1079.687908
_symmetry_space_group_name_H-M "P 21/C"
_symmetry_group_IT_number 14
_symmetry_cell_setting 'monoclinic'
loop_
_space_group_symop_operation_xyz
x,y,z
-x,1/2+y,1/2-z
-x,-y,-z
x,1/2-y,1/2+z
loop_
_atom_site_type_symbol
_atom_site_label
_atom_site_fract_x
_atom_site_fract_y
_atom_site_fract_z
Si Si1 0.433344 0.778648 0.114587
Si Si2 0.759865 0.826976 0.697175
Si Si3 0.500000 0.000000 0.500000
Si Si4 0.619342 0.443994 0.664089
Si Si5 0.652737 0.778429 0.395308
Si Si6 0.859317 0.303561 0.384778
Si Si7 0.080407 0.298187 0.928633
Si Si8 0.029719 0.805950 0.865530
O O1 0.533799 0.776136 0.254679
O O2 0.359374 0.532456 0.070578
O O3 0.528264 0.821078 0.114702
O O4 0.356654 0.025317 0.067247
O O5 0.649197 0.994974 0.591270
O O6 0.702811 0.561800 0.662362
O O7 0.884766 0.808753 0.746449
O O8 0.808806 0.949018 0.810578
O O9 0.469926 0.775638 0.417991
O O10 0.730497 0.347041 0.798294
O O11 0.778583 0.777203 0.440761
O O12 0.925524 0.320387 0.513034
O O13 0.965385 0.204659 0.403951
O O14 0.076912 0.545124 0.881263
O O15 0.070658 0.065671 0.869595
#
# Coordination Sequence:
#
# PCOD9245165 Si02
#       8
#     4   4   2   4   4   4   4   4
#     4  10  23  37  57  83 122 174 213 257 302 377
#     4  10  21  37  55  87 126 155 205 251 315 391
#     4  10  24  40  58  90 120 168 216 266 322 382
#     4  11  22  39  63  86 132 163 212 265 326 394
#     4  10  22  38  54  86 124 171 219 244 306 382
#     4  10  22  32  56  96 125 165 198 248 333 396
#     4  11  20  35  54  81 127 159 199 254 297 378
#     4  11  22  33  57  94 126 163 200 248 328 391
#
# _framework density 27.785805
#
# number of rings (size 3 to 8) (size 9 to 14) (size 15 to 20)
#    0.000    1.600    1.333    4.000    9.333    1.067 
#    0.000    0.000    0.000    0.000    0.000    7.467 
#    0.000    0.000    0.000    0.000    0.000    0.000 
#
# Total GULP energy -167154.432001 kJ/mol
# GULP energy per Si atom -5571.814400 kJ/mol
# Density = 2.772256 g / cm^3
# Si number density = 27.785805 Si / 1000 Ang^3
#
#
#
# Elastic Constant Matrix: (Units=GPa)
#
#
# Indices 1 2 3 4 5 6 
#
# 1 95.8295 32.7082 77.4567 0.0000 4.4937 0.0000
# 2 32.7082 166.1198 35.8495 0.0000 28.5223 0.0000
# 3 77.4567 35.8495 152.4352 0.0000 38.5433 0.0000
# 4 0.0000 0.0000 0.0000 37.3481 0.0000 22.5767
# 5 4.4937 28.5223 38.5433 0.0000 51.7393 0.0000
# 6 0.0000 0.0000 0.0000 22.5767 0.0000 13.9355
#
#
#
# Elastic Compliance Matrix: (Units=1/GPa)
#
#
# Indices 1 2 3 4 5 6 
#
# 1 0.020858 -0.003014 -0.012138 0.000000 0.008892 0.000000
# 2 -0.003014 0.007162 0.000960 0.000000 -0.004402 0.000000
# 3 -0.012138 0.000960 0.015240 0.000000 -0.010828 0.000000
# 4 0.000000 0.000000 0.000000 1.295540 0.000000 -2.098889
# 5 0.008892 -0.004402 -0.010828 0.000000 0.029048 0.000000
# 6 0.000000 0.000000 0.000000 -2.098889 0.000000 3.472145
#
#
# Mechanical properties :
#
#
# Convention : Reuss Voigt Hill
#
# Bulk Modulus (GPa) = 67.22409 78.49035 72.85722
# Shear Modulus (GPa) = 1.02599 38.49591 19.76095
#
# Velocity S-wave (km/s) = 0.60832 3.72620 2.66971
# Velocity P-wave (km/s) = 4.97389 6.84270 5.98173
#
# Compressibility (1/GPa) = 0.01487562
#
# Stress axis : x y z
#
# Youngs Moduli (GPa) = 47.94346 139.63080 65.61708
#
# Poissons Ratio (x) = 0.42087 0.79646
# Poissons Ratio (y) = 0.14451 -0.06301
# Poissons Ratio (z) = 0.58194 -0.13408
#
# Static dielectric constant tensor:
#      x y z
#    x 1.984320 0.000000 0.052640 
#    y 0.000000 1.947140 0.000000 
#    z 0.052640 0.000000 2.033800 
# 
# From -- ./inp_files/74525.got.cif
#   From: 2010.05.17/outbox.cif.g08.bks.cpg/sg14_38_cif.got.tgz:74525.got - 2010.06.03 17:49:19.
