data_PCOD9245635
_publ_section_title
;
Structure prediction by ZEFSAII (Michael W. Deem and Ramdas Pophale) SiO2 
 PCOD9245635
Probable space group: P 21/C
;
_chemical_formula_sum "Si O2"
_cell_formula_units_Z 28
_cell_length_a 9.258331
_cell_length_b 26.073368
_cell_length_c 8.206229
_cell_angle_alpha 90.000000
_cell_angle_beta 144.967154
_cell_angle_gamma 90.000000
_cell_volume 1137.156186
_symmetry_space_group_name_H-M "P 21/C"
_symmetry_group_IT_number 14
_symmetry_cell_setting 'monoclinic'
loop_
_space_group_symop_operation_xyz
x,y,z
-x,1/2+y,1/2-z
-x,-y,-z
x,1/2-y,1/2+z
loop_
_atom_site_type_symbol
_atom_site_label
_atom_site_fract_x
_atom_site_fract_y
_atom_site_fract_z
Si Si1 0.579735 0.833225 0.227468
Si Si2 0.360870 0.382193 0.572473
Si Si3 0.565586 0.425673 0.204258
Si Si4 0.171913 0.518167 0.811472
Si Si5 0.718432 0.994353 0.070538
Si Si6 0.086381 0.723943 0.144967
Si Si7 0.145711 0.826625 0.349654
O O1 0.630033 0.868808 0.113121
O O2 0.540186 0.871300 0.342750
O O3 0.817716 0.795457 0.466604
O O4 0.322166 0.803181 0.951958
O O5 0.384311 0.443230 0.616370
O O6 0.582596 0.350123 0.860294
O O7 0.089726 0.364589 0.385367
O O8 0.709963 0.432460 0.168894
O O9 0.736156 0.448978 0.507471
O O10 0.357984 0.470545 0.007423
O O11 0.000000 0.500000 0.500000
O O12 0.013537 0.522817 0.833589
O O13 0.500000 0.000000 0.000000
O O14 0.132932 0.784462 0.197416
O O15 0.085926 0.705640 0.958649
#
# Coordination Sequence:
#
# PCOD9245635 Si02
#       7
#     4   4   4   4   4   4   4
#     4  10  21  38  66  92 121 166 214 257 330 391
#     4  10  22  39  63  95 127 163 205 276 320 383
#     4  10  21  40  60  88 130 171 211 266 314 391
#     4   9  22  39  56  81 132 170 209 262 313 369
#     4  11  22  37  63  95 129 168 218 253 330 383
#     4  10  22  41  65  92 121 164 212 271 331 391
#     4  10  22  43  63  89 131 159 215 273 332 381
#
# _framework density 24.622827000000001
#
# number of rings (size 3 to 8) (size 9 to 14) (size 15 to 20)
#    0.000    2.000    1.429    0.857    6.000    1.714 
#    2.571    0.000    0.000    0.000    0.000    0.000 
#    0.000    0.000    0.000    0.000    0.000    0.000 
#
# Total GULP energy -156279.749748 kJ/mol
# GULP energy per Si atom -5581.419634 kJ/mol
# Density = 2.456678 g / cm^3
# Si number density = 24.622827 Si / 1000 Ang^3
#
#
#
# Elastic Constant Matrix: (Units=GPa)
#
#
# Indices 1 2 3 4 5 6 
#
# 1 133.8041 19.6563 28.9805 0.0000 29.1559 0.0000
# 2 19.6563 78.5446 19.7579 0.0000 1.6745 0.0000
# 3 28.9805 19.7579 82.6400 0.0000 22.4679 0.0000
# 4 0.0000 0.0000 0.0000 36.6797 0.0000 -1.8871
# 5 29.1559 1.6745 22.4679 0.0000 25.9101 0.0000
# 6 0.0000 0.0000 0.0000 -1.8871 0.0000 37.0018
#
#
#
# Elastic Compliance Matrix: (Units=1/GPa)
#
#
# Indices 1 2 3 4 5 6 
#
# 1 0.010313 -0.002355 0.000079 0.000000 -0.011521 0.000000
# 2 -0.002355 0.014212 -0.003981 0.000000 0.005184 0.000000
# 3 0.000079 -0.003981 0.016983 0.000000 -0.014558 0.000000
# 4 0.000000 0.000000 0.000000 0.027335 0.000000 0.001394
# 5 -0.011521 0.005184 -0.014558 0.000000 0.063848 0.000000
# 6 0.000000 0.000000 0.000000 0.001394 0.000000 0.027097
#
#
# Mechanical properties :
#
#
# Convention : Reuss Voigt Hill
#
# Bulk Modulus (GPa) = 34.49174 47.97533 41.23353
# Shear Modulus (GPa) = 27.47748 35.02460 31.25104
#
# Velocity S-wave (km/s) = 3.34419 3.77562 3.56643
# Velocity P-wave (km/s) = 5.38051 6.20753 5.80876
#
# Compressibility (1/GPa) = 0.02899245
#
# Stress axis : x y z
#
# Youngs Moduli (GPa) = 96.96546 70.36315 58.88267
#
# Poissons Ratio (x) = 0.16571 -0.00464
# Poissons Ratio (y) = 0.22836 0.23444
# Poissons Ratio (z) = -0.00764 0.28014
#
# Static dielectric constant tensor:
#      x y z
#    x 2.075790 0.000000 -0.011920 
#    y 0.000000 1.938310 0.000000 
#    z -0.011920 0.000000 2.102390 
# 
# From -- ./inp_files/11187.got.cif
#   From: 2010.05.17/outbox.cif.g08.bks.cpg/sg14_6_cif.got.tgz:11187.got - 2010.06.03 17:49:19.
