data_PCOD9245379
_publ_section_title
;
Structure prediction by ZEFSAII (Michael W. Deem and Ramdas Pophale) SiO2 
 PCOD9245379
Probable space group: P 21/C
;
_chemical_formula_sum "Si O2"
_cell_formula_units_Z 28
_cell_length_a 10.382346
_cell_length_b 8.931005
_cell_length_c 14.980581
_cell_angle_alpha 90.000000
_cell_angle_beta 113.746537
_cell_angle_gamma 90.000000
_cell_volume 1271.466569
_symmetry_space_group_name_H-M "P 21/C"
_symmetry_group_IT_number 14
_symmetry_cell_setting 'monoclinic'
loop_
_space_group_symop_operation_xyz
x,y,z
-x,1/2+y,1/2-z
-x,-y,-z
x,1/2-y,1/2+z
loop_
_atom_site_type_symbol
_atom_site_label
_atom_site_fract_x
_atom_site_fract_y
_atom_site_fract_z
Si Si1 0.615086 0.542984 0.299799
Si Si2 0.876320 0.155500 0.808590
Si Si3 0.906704 0.395056 0.662951
Si Si4 0.623800 0.848667 0.196644
Si Si5 0.078010 0.119025 0.646397
Si Si6 0.903301 0.655838 0.047250
Si Si7 0.317868 0.393114 0.476255
O O1 0.738614 0.429780 0.303470
O O2 0.611003 0.680575 0.229859
O O3 0.470298 0.452800 0.266907
O O4 0.639854 0.601242 0.408355
O O5 0.855935 0.291024 0.732051
O O6 0.962605 0.232297 0.913417
O O7 0.985294 0.035388 0.797045
O O8 0.776768 0.460627 0.570887
O O9 0.004355 0.277153 0.638427
O O10 0.787864 0.894441 0.251734
O O11 0.579871 0.874493 0.080755
O O12 0.140759 0.115573 0.564270
O O13 0.959125 0.991979 0.610288
O O14 0.780589 0.745545 0.060740
#
# Coordination Sequence:
#
# PCOD9245379 Si02
#       7
#     4   4   4   4   4   4   4
#     4  12  28  48  69  97 139 186 234 277 338 410
#     4  11  22  40  67 102 140 179 227 280 344 410
#     4  11  22  37  71 103 137 175 220 285 352 401
#     4  12  27  46  70  94 139 189 229 278 329 418
#     4  11  21  40  66 107 139 172 224 284 345 403
#     4  10  21  37  70 101 141 168 220 289 351 397
#     4  11  24  48  72 101 137 180 230 284 351 405
#
# _framework density 22.021813999999999
#
# number of rings (size 3 to 8) (size 9 to 14) (size 15 to 20)
#    0.000    0.857    2.857    4.714    6.000    2.286 
#    0.000    0.714    0.000    0.000    0.000    0.000 
#    0.000    0.000    0.000    0.000    0.000    0.000 
#
# Total GULP energy -156359.127040 kJ/mol
# GULP energy per Si atom -5584.254537 kJ/mol
# Density = 2.197169 g / cm^3
# Si number density = 22.021814 Si / 1000 Ang^3
#
#
#
# Elastic Constant Matrix: (Units=GPa)
#
#
# Indices 1 2 3 4 5 6 
#
# 1 51.9220 0.4994 -12.7317 0.0000 4.8478 0.0000
# 2 0.4994 108.7508 -0.0197 0.0000 10.1673 0.0000
# 3 -12.7317 -0.0197 89.8396 0.0000 -10.2243 0.0000
# 4 0.0000 0.0000 0.0000 19.4220 0.0000 -8.0369
# 5 4.8478 10.1673 -10.2243 0.0000 15.2310 0.0000
# 6 0.0000 0.0000 0.0000 -8.0369 0.0000 34.8859
#
#
#
# Elastic Compliance Matrix: (Units=1/GPa)
#
#
# Indices 1 2 3 4 5 6 
#
# 1 0.020301 0.000392 0.002287 0.000000 -0.005188 0.000000
# 2 0.000392 0.009869 -0.000765 0.000000 -0.007226 0.000000
# 3 0.002287 -0.000765 0.012376 0.000000 0.008090 0.000000
# 4 0.000000 0.000000 0.000000 0.056914 0.000000 0.013112
# 5 -0.005188 -0.007226 0.008090 0.000000 0.077562 0.000000
# 6 0.000000 0.000000 0.000000 0.013112 0.000000 0.031685
#
#
# Mechanical properties :
#
#
# Convention : Reuss Voigt Hill
#
# Bulk Modulus (GPa) = 21.56384 25.11206 23.33795
# Shear Modulus (GPa) = 22.69264 31.42539 27.05902
#
# Velocity S-wave (km/s) = 3.21356 3.78168 3.50914
# Velocity P-wave (km/s) = 4.85619 5.52233 5.19994
#
# Compressibility (1/GPa) = 0.04637393
#
# Stress axis : x y z
#
# Youngs Moduli (GPa) = 49.25868 101.32772 80.80459
#
# Poissons Ratio (x) = -0.03975 -0.18477
# Poissons Ratio (y) = -0.01932 0.06178
# Poissons Ratio (z) = -0.11263 0.07748
#
# Static dielectric constant tensor:
#      x y z
#    x 1.791590 0.000000 -0.029180 
#    y 0.000000 1.803480 0.000000 
#    z -0.029180 0.000000 1.864180 
# 
# From -- ./inp_files/43478.got.cif
#   From: 2010.05.17/outbox.cif.g08.bks.cpg/sg14_22_cif.got.tgz:43478.got - 2010.06.03 17:49:19.
