data_PCOD9245284
_publ_section_title
;
Structure prediction by ZEFSAII (Michael W. Deem and Ramdas Pophale) SiO2 
 PCOD9245284
Probable space group: P 21/C
;
_chemical_formula_sum "Si O2"
_cell_formula_units_Z 20
_cell_length_a 22.256236
_cell_length_b 5.175395
_cell_length_c 13.498030
_cell_angle_alpha 90.000000
_cell_angle_beta 148.649873
_cell_angle_gamma 90.000000
_cell_volume 808.893677
_symmetry_space_group_name_H-M "P 21/C"
_symmetry_group_IT_number 14
_symmetry_cell_setting 'monoclinic'
loop_
_space_group_symop_operation_xyz
x,y,z
-x,1/2+y,1/2-z
-x,-y,-z
x,1/2-y,1/2+z
loop_
_atom_site_type_symbol
_atom_site_label
_atom_site_fract_x
_atom_site_fract_y
_atom_site_fract_z
Si Si1 0.425499 0.091224 0.155895
Si Si2 0.956518 0.661905 0.817300
Si Si3 0.251057 0.730261 0.499170
Si Si4 0.159476 0.409253 0.023476
Si Si5 0.216153 0.383276 0.775747
O O1 0.502586 0.853090 0.225188
O O2 0.356242 0.971000 0.151367
O O3 0.319271 0.175800 0.936594
O O4 0.869675 0.422586 0.676245
O O5 0.933271 0.846780 0.692050
O O6 0.902807 0.800310 0.837104
O O7 0.089480 0.583261 0.003919
O O8 0.252332 0.930766 0.591685
O O9 0.257428 0.881209 0.402666
O O10 0.195271 0.147331 0.129714
#
# Coordination Sequence:
#
# PCOD9245284 Si02
#       5
#     4   4   4   4   4
#     4  11  22  45  73  93 130 178 222 285 344 381
#     4  10  21  37  61  91 140 179 209 271 326 392
#     4  10  22  41  63  96 131 176 221 276 327 395
#     4  11  21  40  61  99 136 176 220 266 331 399
#     4  10  23  39  67  96 127 178 227 271 326 409
#
# _framework density 24.725131000000001
#
# number of rings (size 3 to 8) (size 9 to 14) (size 15 to 20)
#    0.000    1.600    4.000    0.600    0.000    4.000 
#    0.000    2.000    0.000    0.000    0.000    0.000 
#    0.000    0.000    0.000    0.000    0.000    0.000 
#
# Total GULP energy -111668.091078 kJ/mol
# GULP energy per Si atom -5583.404554 kJ/mol
# Density = 2.466886 g / cm^3
# Si number density = 24.725131 Si / 1000 Ang^3
#
#
#
# Elastic Constant Matrix: (Units=GPa)
#
#
# Indices 1 2 3 4 5 6 
#
# 1 69.5739 33.5252 45.2571 0.0000 15.9502 0.0000
# 2 33.5252 120.4928 19.6941 0.0000 18.8844 0.0000
# 3 45.2571 19.6941 53.8710 0.0000 6.0116 0.0000
# 4 0.0000 0.0000 0.0000 24.6824 0.0000 22.2756
# 5 15.9502 18.8844 6.0116 0.0000 26.2258 0.0000
# 6 0.0000 0.0000 0.0000 22.2756 0.0000 52.3832
#
#
#
# Elastic Compliance Matrix: (Units=1/GPa)
#
#
# Indices 1 2 3 4 5 6 
#
# 1 0.038529 -0.003711 -0.029448 0.000000 -0.014011 0.000000
# 2 -0.003711 0.010123 -0.000022 0.000000 -0.005027 0.000000
# 3 -0.029448 -0.000022 0.042395 0.000000 0.008208 0.000000
# 4 0.000000 0.000000 0.000000 0.065747 0.000000 -0.027958
# 5 -0.014011 -0.005027 0.008208 0.000000 0.048390 0.000000
# 6 0.000000 0.000000 0.000000 -0.027958 0.000000 0.030979
#
#
# Mechanical properties :
#
#
# Convention : Reuss Voigt Hill
#
# Bulk Modulus (GPa) = 40.51208 48.98782 44.74995
# Shear Modulus (GPa) = 16.08985 30.35572 23.22278
#
# Velocity S-wave (km/s) = 2.55375 3.50770 3.06802
# Velocity P-wave (km/s) = 5.01159 6.02173 5.53973
#
# Compressibility (1/GPa) = 0.02468400
#
# Stress axis : x y z
#
# Youngs Moduli (GPa) = 25.95416 98.78152 23.58787
#
# Poissons Ratio (x) = 0.36659 0.69463
# Poissons Ratio (y) = 0.09632 0.00052
# Poissons Ratio (z) = 0.76431 0.00219
#
# Static dielectric constant tensor:
#      x y z
#    x 2.013510 0.000000 -0.019740 
#    y 0.000000 2.068940 0.000000 
#    z -0.019740 0.000000 1.922220 
# 
# From -- ./inp_files/34521.got.cif
#   From: 2010.05.17/outbox.cif.g08.bks.cpg/sg14_18_cif.got.tgz:34521.got - 2010.06.03 17:49:19.
