data_PCOD9245127
_publ_section_title
;
Structure prediction by ZEFSAII (Michael W. Deem and Ramdas Pophale) SiO2 
 PCOD9245127
Probable space group: P 21/C
;
_chemical_formula_sum "Si O2"
_cell_formula_units_Z 32
_cell_length_a 7.448368
_cell_length_b 12.616148
_cell_length_c 17.727074
_cell_angle_alpha 90.000000
_cell_angle_beta 66.841814
_cell_angle_gamma 90.000000
_cell_volume 1531.581558
_symmetry_space_group_name_H-M "P 21/C"
_symmetry_group_IT_number 14
_symmetry_cell_setting 'monoclinic'
loop_
_space_group_symop_operation_xyz
x,y,z
-x,1/2+y,1/2-z
-x,-y,-z
x,1/2-y,1/2+z
loop_
_atom_site_type_symbol
_atom_site_label
_atom_site_fract_x
_atom_site_fract_y
_atom_site_fract_z
Si Si1 0.851791 0.657727 0.550135
Si Si2 0.537538 0.280031 0.857950
Si Si3 0.519098 0.002748 0.278539
Si Si4 0.878757 0.692216 0.371607
Si Si5 0.069577 0.478001 0.332454
Si Si6 0.759659 0.313156 0.179647
Si Si7 0.757088 0.164290 0.944978
Si Si8 0.471231 0.860419 0.874393
O O1 0.671115 0.722837 0.611705
O O2 0.832736 0.655441 0.464363
O O3 0.869651 0.544783 0.589988
O O4 0.054968 0.710547 0.542492
O O5 0.519856 0.401923 0.838098
O O6 0.672042 0.224799 0.773455
O O7 0.631014 0.251363 0.922853
O O8 0.504736 0.054600 0.196730
O O9 0.733748 0.946694 0.244294
O O10 0.338596 0.925168 0.320674
O O11 0.021114 0.597984 0.319804
O O12 0.681827 0.690576 0.357068
O O13 0.007622 0.798184 0.354422
O O14 0.865803 0.413009 0.366159
O O15 0.673265 0.228604 0.134592
O O16 0.622598 0.106226 0.029572
#
# Coordination Sequence:
#
# PCOD9245127 Si02
#       8
#     4   4   4   4   4   4   4   4
#     4  10  21  38  65  92 126 159 209 271 317 381
#     4  11  22  41  65  93 127 166 217 264 321 381
#     4  11  24  43  63  92 136 173 212 265 328 389
#     4  12  22  39  66  96 130 164 217 258 331 387
#     4  10  21  36  62  97 126 159 205 265 330 380
#     4  11  23  44  61  91 135 170 207 271 317 390
#     4  10  22  39  68  93 127 163 209 274 328 375
#     4  11  24  41  67  92 127 171 209 268 333 378
#
# _framework density 20.893436000000001
#
# number of rings (size 3 to 8) (size 9 to 14) (size 15 to 20)
#    0.750    0.500    6.250    0.375    3.500    3.500 
#    0.000    1.250    0.000    0.000    0.000    0.000 
#    0.000    0.000    0.000    0.000    0.000    0.000 
#
# Total GULP energy -178409.755912 kJ/mol
# GULP energy per Si atom -5575.304872 kJ/mol
# Density = 2.084588 g / cm^3
# Si number density = 20.893436 Si / 1000 Ang^3
#
#
#
# Elastic Constant Matrix: (Units=GPa)
#
#
# Indices 1 2 3 4 5 6 
#
# 1 117.5272 28.6544 23.3321 0.0000 -16.5568 0.0000
# 2 28.6544 61.7128 4.1686 0.0000 -5.3403 0.0000
# 3 23.3321 4.1686 35.2718 0.0000 -10.6060 0.0000
# 4 0.0000 0.0000 0.0000 25.7254 0.0000 -9.6413
# 5 -16.5568 -5.3403 -10.6060 0.0000 27.9665 0.0000
# 6 0.0000 0.0000 0.0000 -9.6413 0.0000 28.1423
#
#
#
# Elastic Compliance Matrix: (Units=1/GPa)
#
#
# Indices 1 2 3 4 5 6 
#
# 1 0.011281 -0.004532 -0.005845 0.000000 0.003596 0.000000
# 2 -0.004532 0.018337 0.001215 0.000000 0.001279 0.000000
# 3 -0.005845 0.001215 0.035107 0.000000 0.010085 0.000000
# 4 0.000000 0.000000 0.000000 0.044598 0.000000 0.015279
# 5 0.003596 0.001279 0.010085 0.000000 0.041955 0.000000
# 6 0.000000 0.000000 0.000000 0.015279 0.000000 0.040768
#
#
# Mechanical properties :
#
#
# Convention : Reuss Voigt Hill
#
# Bulk Modulus (GPa) = 21.55116 36.31355 28.93235
# Shear Modulus (GPa) = 22.13995 26.92395 24.53195
#
# Velocity S-wave (km/s) = 3.25877 3.59365 3.43030
# Velocity P-wave (km/s) = 4.94941 5.88533 5.43755
#
# Compressibility (1/GPa) = 0.04640122
#
# Stress axis : x y z
#
# Youngs Moduli (GPa) = 88.64788 54.53484 28.48456
#
# Poissons Ratio (x) = 0.24714 0.16649
# Poissons Ratio (y) = 0.40173 -0.03462
# Poissons Ratio (z) = 0.51815 -0.06628
#
# Static dielectric constant tensor:
#      x y z
#    x 1.771530 0.000000 -0.015480 
#    y 0.000000 1.771700 0.000000 
#    z -0.015480 0.000000 1.788830 
# 
# From -- ./inp_files/65420.got.cif
#   From: 2010.05.17/outbox.cif.g08.bks.cpg/sg14_33_cif.got.tgz:65420.got - 2010.06.03 17:49:19.
