data_PCOD9245568
_publ_section_title
;
Structure prediction by ZEFSAII (Michael W. Deem and Ramdas Pophale) SiO2 
 PCOD9245568
Probable space group: P 21/C
;
_chemical_formula_sum "Si O2"
_cell_formula_units_Z 32
_cell_length_a 28.885156
_cell_length_b 8.717094
_cell_length_c 21.838970
_cell_angle_alpha 90.000000
_cell_angle_beta 163.342890
_cell_angle_gamma 90.000000
_cell_volume 1576.233692
_symmetry_space_group_name_H-M "P 21/C"
_symmetry_group_IT_number 14
_symmetry_cell_setting 'monoclinic'
loop_
_space_group_symop_operation_xyz
x,y,z
-x,1/2+y,1/2-z
-x,-y,-z
x,1/2-y,1/2+z
loop_
_atom_site_type_symbol
_atom_site_label
_atom_site_fract_x
_atom_site_fract_y
_atom_site_fract_z
Si Si1 0.341153 0.797147 0.562164
Si Si2 0.092414 0.894441 0.829803
Si Si3 0.581386 0.603788 0.781647
Si Si4 0.495203 0.839791 0.030865
Si Si5 0.933594 0.140088 0.876508
Si Si6 0.852273 0.153569 0.385289
Si Si7 0.180374 0.184072 0.610605
Si Si8 0.924267 0.762693 0.222224
O O1 0.229064 0.689994 0.463008
O O2 0.465759 0.697677 0.680674
O O3 0.222330 0.883955 0.363740
O O4 0.427157 0.925008 0.712148
O O5 0.922165 0.867854 0.578697
O O6 0.062482 0.819921 0.857546
O O7 0.120283 0.075802 0.866238
O O8 0.532523 0.632453 0.649556
O O9 0.765405 0.659756 0.023511
O O10 0.645890 0.755995 0.190394
O O11 0.314515 0.775149 0.799791
O O12 0.500000 0.000000 0.000000
O O13 0.886910 0.279717 0.862614
O O14 0.077664 0.190480 0.015066
O O15 0.000000 0.000000 0.000000
O O16 0.001430 0.195819 0.617855
O O17 0.819926 0.970654 0.348091
#
# Coordination Sequence:
#
# PCOD9245568 Si02
#       8
#     4   4   4   4   4   4   4   4
#     4  11  25  41  64  93 128 173 209 271 327 381
#     4  10  21  38  63  94 128 164 220 260 317 378
#     4  12  23  45  66  92 133 166 221 269 320 385
#     4  10  21  41  66  93 120 167 216 261 306 379
#     4  11  22  41  61  95 132 161 204 266 324 374
#     4  10  21  40  64  91 125 169 212 251 314 389
#     4   9  20  39  64  89 120 171 211 248 312 379
#     4  11  22  39  66  94 128 172 215 262 315 387
#
# _framework density 20.301558
#
# number of rings (size 3 to 8) (size 9 to 14) (size 15 to 20)
#    0.000    1.500    2.500    2.625    3.500    1.000 
#    9.000    1.875    0.000    0.000    0.000    0.000 
#    0.000    0.000    0.000    0.000    0.000    0.000 
#
# Total GULP energy -178738.087711 kJ/mol
# GULP energy per Si atom -5585.565241 kJ/mol
# Density = 2.025535 g / cm^3
# Si number density = 20.301558 Si / 1000 Ang^3
#
#
#
# Elastic Constant Matrix: (Units=GPa)
#
#
# Indices 1 2 3 4 5 6 
#
# 1 41.8452 13.8423 29.8404 0.0000 26.0182 0.0000
# 2 13.8423 47.2430 -1.7902 0.0000 -0.9950 0.0000
# 3 29.8404 -1.7902 58.5853 0.0000 12.9733 0.0000
# 4 0.0000 0.0000 0.0000 22.4188 0.0000 -2.0884
# 5 26.0182 -0.9950 12.9733 0.0000 32.6014 0.0000
# 6 0.0000 0.0000 0.0000 -2.0884 0.0000 26.0744
#
#
#
# Elastic Compliance Matrix: (Units=1/GPa)
#
#
# Indices 1 2 3 4 5 6 
#
# 1 0.109762 -0.035237 -0.040957 0.000000 -0.072375 0.000000
# 2 -0.035237 0.032509 0.013702 0.000000 0.023661 0.000000
# 3 -0.040957 0.013702 0.034016 0.000000 0.019569 0.000000
# 4 0.000000 0.000000 0.000000 0.044941 0.000000 0.003599
# 5 -0.072375 0.023661 0.019569 0.000000 0.081369 0.000000
# 6 0.000000 0.000000 0.000000 0.003599 0.000000 0.038640
#
#
# Mechanical properties :
#
#
# Convention : Reuss Voigt Hill
#
# Bulk Modulus (GPa) = 19.49223 25.71763 22.60493
# Shear Modulus (GPa) = 10.34509 23.27098 16.80804
#
# Velocity S-wave (km/s) = 2.25982 3.38933 2.88048
# Velocity P-wave (km/s) = 4.05354 5.29264 4.71398
#
# Compressibility (1/GPa) = 0.05130249
#
# Stress axis : x y z
#
# Youngs Moduli (GPa) = 9.11066 30.76058 29.39801
#
# Poissons Ratio (x) = 1.08390 1.20405
# Poissons Ratio (y) = 0.32103 -0.40280
# Poissons Ratio (z) = 0.37314 -0.42147
#
# Static dielectric constant tensor:
#      x y z
#    x 1.730160 0.000000 -0.008110 
#    y 0.000000 1.687330 0.000000 
#    z -0.008110 0.000000 1.740870 
# 
# From -- ./inp_files/70512.got.cif
#   From: 2010.05.17/outbox.cif.g08.bks.cpg/sg14_36_cif.got.tgz:70512.got - 2010.06.03 17:49:19.
