data_PCOD9245144
_publ_section_title
;
Structure prediction by ZEFSAII (Michael W. Deem and Ramdas Pophale) SiO2 
 PCOD9245144
Probable space group: P 21/C
;
_chemical_formula_sum "Si O2"
_cell_formula_units_Z 20
_cell_length_a 21.031768
_cell_length_b 5.180113
_cell_length_c 18.568220
_cell_angle_alpha 90.000000
_cell_angle_beta 30.349037
_cell_angle_gamma 90.000000
_cell_volume 1022.128958
_symmetry_space_group_name_H-M "P 21/C"
_symmetry_group_IT_number 14
_symmetry_cell_setting 'monoclinic'
loop_
_space_group_symop_operation_xyz
x,y,z
-x,1/2+y,1/2-z
-x,-y,-z
x,1/2-y,1/2+z
loop_
_atom_site_type_symbol
_atom_site_label
_atom_site_fract_x
_atom_site_fract_y
_atom_site_fract_z
Si Si1 0.917093 0.749533 0.095770
Si Si2 0.606621 0.252606 0.939728
Si Si3 0.412880 0.136957 0.324481
Si Si4 0.277385 0.250464 0.599091
Si Si5 0.332726 0.103276 0.240136
O O1 0.861794 0.738412 0.231171
O O2 0.795597 0.729898 0.162088
O O3 0.000000 0.500000 0.000000
O O4 0.000000 0.000000 0.000000
O O5 0.662440 0.506678 0.919122
O O6 0.652851 0.011493 0.943975
O O7 0.655199 0.171591 0.813151
O O8 0.456311 0.252966 0.090527
O O9 0.507451 0.383161 0.230587
O O10 0.306420 0.203171 0.487482
O O11 0.351291 0.088363 0.306993
#
# Coordination Sequence:
#
# PCOD9245144 Si02
#       5
#     4   4   4   4   4
#     4  11  25  42  62  85 119 170 218 248 285 355
#     4  10  21  36  64  94 122 160 199 264 324 371
#     4  12  23  38  60  99 131 155 192 259 341 389
#     4  11  21  41  62  92 128 158 204 262 318 376
#     4  10  22  39  63  93 127 159 209 257 317 372
#
# _framework density 19.567001000000001
#
# number of rings (size 3 to 8) (size 9 to 14) (size 15 to 20)
#    0.000    1.200    4.000    2.400    0.000   13.600 
#    0.000    2.000    0.000    0.000    0.000    0.000 
#    0.000    0.000    0.000    0.000    0.000    0.000 
#
# Total GULP energy -111786.802868 kJ/mol
# GULP energy per Si atom -5589.340143 kJ/mol
# Density = 1.952247 g / cm^3
# Si number density = 19.567001 Si / 1000 Ang^3
#
#
#
# Elastic Constant Matrix: (Units=GPa)
#
#
# Indices 1 2 3 4 5 6 
#
# 1 132.8088 22.8659 52.8364 0.0000 31.6919 0.0000
# 2 22.8659 135.9383 43.8185 0.0000 -8.2775 0.0000
# 3 52.8364 43.8185 148.4971 0.0000 9.7654 0.0000
# 4 0.0000 0.0000 0.0000 33.2537 0.0000 -2.4346
# 5 31.6919 -8.2775 9.7654 0.0000 46.6249 0.0000
# 6 0.0000 0.0000 0.0000 -2.4346 0.0000 18.1778
#
#
#
# Elastic Compliance Matrix: (Units=1/GPa)
#
#
# Indices 1 2 3 4 5 6 
#
# 1 0.010522 -0.001235 -0.002935 0.000000 -0.006757 0.000000
# 2 -0.001235 0.008458 -0.002241 0.000000 0.002811 0.000000
# 3 -0.002935 -0.002241 0.008451 0.000000 -0.000173 0.000000
# 4 0.000000 0.000000 0.000000 0.030370 0.000000 0.004068
# 5 -0.006757 0.002811 -0.000173 0.000000 0.026576 0.000000
# 6 0.000000 0.000000 0.000000 0.004068 0.000000 0.055557
#
#
# Mechanical properties :
#
#
# Convention : Reuss Voigt Hill
#
# Bulk Modulus (GPa) = 68.45397 72.92066 70.68731
# Shear Modulus (GPa) = 31.72078 39.45950 35.59014
#
# Velocity S-wave (km/s) = 4.03070 4.49557 4.26947
# Velocity P-wave (km/s) = 7.53143 8.01841 7.77873
#
# Compressibility (1/GPa) = 0.01460836
#
# Stress axis : x y z
#
# Youngs Moduli (GPa) = 95.03569 118.23749 118.32788
#
# Poissons Ratio (x) = 0.14606 0.34730
# Poissons Ratio (y) = 0.11740 0.26517
# Poissons Ratio (z) = 0.27894 0.26497
#
# Static dielectric constant tensor:
#      x y z
#    x 1.687930 0.000000 0.033540 
#    y 0.000000 1.725270 0.000000 
#    z 0.033540 0.000000 1.702620 
# 
# From -- ./inp_files/59949.got.cif
#   From: 2010.05.17/outbox.cif.g08.bks.cpg/sg14_30_cif.got.tgz:59949.got - 2010.06.03 17:49:19.
