data_PCOD9245877
_publ_section_title
;
Structure prediction by ZEFSAII (Michael W. Deem and Ramdas Pophale) SiO2 
 PCOD9245877
Probable space group: P 21/C
;
_chemical_formula_sum "Si O2"
_cell_formula_units_Z 20
_cell_length_a 10.276830
_cell_length_b 7.359172
_cell_length_c 16.870184
_cell_angle_alpha 90.000000
_cell_angle_beta 35.867148
_cell_angle_gamma 90.000000
_cell_volume 747.544803
_symmetry_space_group_name_H-M "P 21/C"
_symmetry_group_IT_number 14
_symmetry_cell_setting 'monoclinic'
loop_
_space_group_symop_operation_xyz
x,y,z
-x,1/2+y,1/2-z
-x,-y,-z
x,1/2-y,1/2+z
loop_
_atom_site_type_symbol
_atom_site_label
_atom_site_fract_x
_atom_site_fract_y
_atom_site_fract_z
Si Si1 0.388743 0.924601 0.217658
Si Si2 0.935596 0.927553 0.116682
Si Si3 0.710330 0.904618 0.941428
Si Si4 0.997218 0.417320 0.846333
Si Si5 0.545748 0.149614 0.631904
O O1 0.146910 0.908628 0.294905
O O2 0.485406 0.133478 0.158996
O O3 0.381291 0.884319 0.313526
O O4 0.574991 0.807919 0.078934
O O5 0.958271 0.710918 0.100370
O O6 0.682785 0.960004 0.264246
O O7 0.105540 0.983478 0.100832
O O8 0.000000 0.000000 0.000000
O O9 0.868078 0.828344 0.793879
O O10 0.500000 0.000000 0.000000
O O11 0.732295 0.412061 0.976265
#
# Coordination Sequence:
#
# PCOD9245877 Si02
#       5
#     4   4   4   4   4
#     4  10  21  39  64  91 132 174 206 270 323 387
#     4  11  21  41  69  92 132 173 212 270 328 385
#     4  10  21  42  62  89 133 174 203 263 332 377
#     4  10  22  38  65  95 130 165 220 265 327 382
#     4  11  20  39  65  96 129 166 224 262 320 388
#
# _framework density 26.754248
#
# number of rings (size 3 to 8) (size 9 to 14) (size 15 to 20)
#    0.000    1.600    4.000    0.600    0.000    0.800 
#    3.600    8.000    0.000    0.000    0.000    0.000 
#    0.000    0.000    0.000    0.000    0.000    0.000 
#
# Total GULP energy -111540.376592 kJ/mol
# GULP energy per Si atom -5577.018830 kJ/mol
# Density = 2.669335 g / cm^3
# Si number density = 26.754248 Si / 1000 Ang^3
#
#
#
# Elastic Constant Matrix: (Units=GPa)
#
#
# Indices 1 2 3 4 5 6 
#
# 1 123.4705 17.9048 68.9695 0.0000 -8.8277 0.0000
# 2 17.9048 62.1091 43.8099 0.0000 -6.0190 0.0000
# 3 68.9695 43.8099 289.2519 0.0000 -28.9065 0.0000
# 4 0.0000 0.0000 0.0000 31.8617 0.0000 -2.7878
# 5 -8.8277 -6.0190 -28.9065 0.0000 52.8296 0.0000
# 6 0.0000 0.0000 0.0000 -2.7878 0.0000 24.7823
#
#
#
# Elastic Compliance Matrix: (Units=1/GPa)
#
#
# Indices 1 2 3 4 5 6 
#
# 1 0.009437 -0.001259 -0.002027 0.000000 0.000324 0.000000
# 2 -0.001259 0.018212 -0.002403 0.000000 0.000550 0.000000
# 3 -0.002027 -0.002403 0.004489 0.000000 0.001844 0.000000
# 4 0.000000 0.000000 0.000000 0.031698 0.000000 0.003566
# 5 0.000324 0.000550 0.001844 0.000000 0.020054 0.000000
# 6 0.000000 0.000000 0.000000 0.003566 0.000000 0.040752
#
#
# Mechanical properties :
#
#
# Convention : Reuss Voigt Hill
#
# Bulk Modulus (GPa) = 48.17199 81.79999 64.98599
# Shear Modulus (GPa) = 34.97938 44.83787 39.90863
#
# Velocity S-wave (km/s) = 3.61977 4.09824 3.86641
# Velocity P-wave (km/s) = 5.95942 7.28251 6.65394
#
# Compressibility (1/GPa) = 0.02075895
#
# Stress axis : x y z
#
# Youngs Moduli (GPa) = 105.96355 54.90845 222.77879
#
# Poissons Ratio (x) = 0.06915 0.45159
# Poissons Ratio (y) = 0.13344 0.53538
# Poissons Ratio (z) = 0.21480 0.13196
#
# Static dielectric constant tensor:
#      x y z
#    x 2.098520 0.000000 -0.075480 
#    y 0.000000 2.235120 0.000000 
#    z -0.075480 0.000000 2.194310 
# 
# From -- ./inp_files/23765.got.cif
#   From: 2010.05.17/outbox.cif.g08.bks.cpg/sg14_12_cif.got.tgz:23765.got - 2010.06.03 17:49:19.
