data_PCOD9245158
_publ_section_title
;
Structure prediction by ZEFSAII (Michael W. Deem and Ramdas Pophale) SiO2 
 PCOD9245158
Probable space group: P 21/C
;
_chemical_formula_sum "Si O2"
_cell_formula_units_Z 16
_cell_length_a 10.632057
_cell_length_b 14.924307
_cell_length_c 8.726034
_cell_angle_alpha 90.000000
_cell_angle_beta 149.548365
_cell_angle_gamma 90.000000
_cell_volume 701.736846
_symmetry_space_group_name_H-M "P 21/C"
_symmetry_group_IT_number 14
_symmetry_cell_setting 'monoclinic'
loop_
_space_group_symop_operation_xyz
x,y,z
-x,1/2+y,1/2-z
-x,-y,-z
x,1/2-y,1/2+z
loop_
_atom_site_type_symbol
_atom_site_label
_atom_site_fract_x
_atom_site_fract_y
_atom_site_fract_z
Si Si1 0.741195 0.548802 0.188647
Si Si2 0.031391 0.701827 0.622180
Si Si3 0.324694 0.155642 0.667675
Si Si4 0.630032 0.214145 0.264612
O O1 0.793990 0.644079 0.326733
O O2 0.500000 0.500000 0.000000
O O3 0.704932 0.569929 0.970934
O O4 0.823374 0.335661 0.079048
O O5 0.939159 0.801574 0.565739
O O6 0.000000 0.500000 0.500000
O O7 0.214434 0.713798 0.671833
O O8 0.454953 0.230436 0.695562
O O9 0.482477 0.152900 0.989512
#
# Coordination Sequence:
#
# PCOD9245158 Si02
#       4
#     4   4   4   4
#     4  12  27  44  66 103 144 176 214 286 359 392
#     4  11  21  41  68 100 127 182 230 275 323 412
#     4  11  21  41  68 100 127 182 230 275 323 412
#     4  10  21  36  72  97 128 164 252 270 313 384
#
# _framework density 22.800568999999999
#
# number of rings (size 3 to 8) (size 9 to 14) (size 15 to 20)
#    0.000    1.000    5.000    1.500    7.000    0.000 
#    0.000    2.500    0.000    0.000    0.000    0.000 
#    0.000    0.000    0.000    0.000    0.000    0.000 
#
# Total GULP energy -89436.661374 kJ/mol
# GULP energy per Si atom -5589.791336 kJ/mol
# Density = 2.274867 g / cm^3
# Si number density = 22.800569 Si / 1000 Ang^3
#
#
#
# Elastic Constant Matrix: (Units=GPa)
#
#
# Indices 1 2 3 4 5 6 
#
# 1 86.5901 -1.9752 20.6678 0.0000 -0.0248 0.0000
# 2 -1.9752 19.2623 -3.4573 0.0000 3.6950 0.0000
# 3 20.6678 -3.4573 160.1955 0.0000 -31.8319 0.0000
# 4 0.0000 0.0000 0.0000 45.3887 0.0000 3.4213
# 5 -0.0248 3.6950 -31.8319 0.0000 50.0340 0.0000
# 6 0.0000 0.0000 0.0000 3.4213 0.0000 29.8472
#
#
#
# Elastic Compliance Matrix: (Units=1/GPa)
#
#
# Indices 1 2 3 4 5 6 
#
# 1 0.011995 0.001144 -0.001761 0.000000 -0.001199 0.000000
# 2 0.001144 0.052794 0.000249 0.000000 -0.003740 0.000000
# 3 -0.001761 0.000249 0.007408 0.000000 0.004694 0.000000
# 4 0.000000 0.000000 0.000000 0.022224 0.000000 -0.002547
# 5 -0.001199 -0.003740 0.004694 0.000000 0.023248 0.000000
# 6 0.000000 0.000000 0.000000 -0.002547 0.000000 0.033796
#
#
# Mechanical properties :
#
#
# Convention : Reuss Voigt Hill
#
# Bulk Modulus (GPa) = 13.99397 32.94651 23.47024
# Shear Modulus (GPa) = 28.40562 41.77483 35.09022
#
# Velocity S-wave (km/s) = 3.53346 4.28504 3.92727
# Velocity P-wave (km/s) = 4.77472 6.24207 5.55704
#
# Compressibility (1/GPa) = 0.07145937
#
# Stress axis : x y z
#
# Youngs Moduli (GPa) = 83.36983 18.94147 134.99700
#
# Poissons Ratio (x) = -0.02167 0.23774
# Poissons Ratio (y) = -0.09536 -0.03356
# Poissons Ratio (z) = 0.14682 -0.00471
#
# Static dielectric constant tensor:
#      x y z
#    x 1.820380 0.000000 -0.003100 
#    y 0.000000 1.967600 0.000000 
#    z -0.003100 0.000000 1.893730 
# 
# From -- ./inp_files/8045.got.cif
#   From: 2010.05.17/outbox.cif.g08.bks.cpg/sg14_5_cif.got.tgz:8045.got - 2010.06.03 17:49:19.
