data_PCOD9245692
_publ_section_title
;
Structure prediction by ZEFSAII (Michael W. Deem and Ramdas Pophale) SiO2 
 PCOD9245692
Probable space group: P 21/C
;
_chemical_formula_sum "Si O2"
_cell_formula_units_Z 28
_cell_length_a 12.896260
_cell_length_b 22.246293
_cell_length_c 5.079407
_cell_angle_alpha 90.000000
_cell_angle_beta 118.134052
_cell_angle_gamma 90.000000
_cell_volume 1285.072350
_symmetry_space_group_name_H-M "P 21/C"
_symmetry_group_IT_number 14
_symmetry_cell_setting 'monoclinic'
loop_
_space_group_symop_operation_xyz
x,y,z
-x,1/2+y,1/2-z
-x,-y,-z
x,1/2-y,1/2+z
loop_
_atom_site_type_symbol
_atom_site_label
_atom_site_fract_x
_atom_site_fract_y
_atom_site_fract_z
Si Si1 0.325734 0.287933 0.775687
Si Si2 0.604873 0.090883 0.475020
Si Si3 0.240441 0.401635 0.343964
Si Si4 0.531692 0.934754 0.164922
Si Si5 0.191684 0.988324 0.141721
Si Si6 0.390394 0.714170 0.827352
Si Si7 0.976516 0.556434 0.163481
O O1 0.292517 0.235162 0.526679
O O2 0.275146 0.348931 0.587341
O O3 0.467711 0.293877 0.965445
O O4 0.511283 0.069962 0.587138
O O5 0.702440 0.039685 0.569375
O O6 0.662091 0.150552 0.658939
O O7 0.546723 0.105688 0.126741
O O8 0.337918 0.409459 0.231287
O O9 0.243674 0.467498 0.484368
O O10 0.106243 0.395543 0.080066
O O11 0.500000 0.000000 0.000000
O O12 0.107454 0.030934 0.209610
O O13 0.107044 0.935093 0.932570
O O14 0.358986 0.764259 0.002134
O O15 0.000000 0.500000 0.000000
#
# Coordination Sequence:
#
# PCOD9245692 Si02
#       7
#     4   4   4   4   4   4   4
#     4  10  23  37  56  84 119 161 207 243 294 357
#     4  12  24  38  60  91 125 162 199 247 305 368
#     4  11  22  37  62  85 126 160 198 254 306 362
#     4  12  24  35  55  96 131 156 190 244 315 371
#     4  10  22  39  62  89 122 159 203 248 309 370
#     4  10  21  39  56  81 120 165 208 244 291 362
#     4   9  21  40  60  88 115 159 202 243 303 361
#
# _framework density 21.788658999999999
#
# number of rings (size 3 to 8) (size 9 to 14) (size 15 to 20)
#    0.000    1.429    2.857    2.143   10.000    0.000 
#    0.000    0.000    0.000    1.714    0.000    0.000 
#    0.000    0.000    0.000    0.000    0.000    0.000 
#
# Total GULP energy -156371.255764 kJ/mol
# GULP energy per Si atom -5584.687706 kJ/mol
# Density = 2.173907 g / cm^3
# Si number density = 21.788659 Si / 1000 Ang^3
#
#
#
# Elastic Constant Matrix: (Units=GPa)
#
#
# Indices 1 2 3 4 5 6 
#
# 1 56.9738 5.5610 29.3161 0.0000 2.1772 0.0000
# 2 5.5610 63.7829 -2.0376 0.0000 6.6373 0.0000
# 3 29.3161 -2.0376 81.4874 0.0000 9.4809 0.0000
# 4 0.0000 0.0000 0.0000 36.8083 0.0000 0.4763
# 5 2.1772 6.6373 9.4809 0.0000 32.0048 0.0000
# 6 0.0000 0.0000 0.0000 0.4763 0.0000 17.5188
#
#
#
# Elastic Compliance Matrix: (Units=1/GPa)
#
#
# Indices 1 2 3 4 5 6 
#
# 1 0.021889 -0.002311 -0.008094 0.000000 0.001388 0.000000
# 2 -0.002311 0.016321 0.001673 0.000000 -0.003723 0.000000
# 3 -0.008094 0.001673 0.015745 0.000000 -0.004460 0.000000
# 4 0.000000 0.000000 0.000000 0.027177 0.000000 -0.000739
# 5 0.001388 -0.003723 -0.004460 0.000000 0.033244 0.000000
# 6 0.000000 0.000000 0.000000 -0.000739 0.000000 0.057102
#
#
# Mechanical properties :
#
#
# Convention : Reuss Voigt Hill
#
# Bulk Modulus (GPa) = 27.40568 29.76922 28.58745
# Shear Modulus (GPa) = 24.86241 28.56003 26.71122
#
# Velocity S-wave (km/s) = 3.38164 3.62439 3.50512
# Velocity P-wave (km/s) = 5.27755 5.58635 5.43415
#
# Compressibility (1/GPa) = 0.03648879
#
# Stress axis : x y z
#
# Youngs Moduli (GPa) = 45.68407 61.27236 63.51359
#
# Poissons Ratio (x) = 0.14163 0.51410
# Poissons Ratio (y) = 0.10560 -0.10625
# Poissons Ratio (z) = 0.36978 -0.10250
#
# Static dielectric constant tensor:
#      x y z
#    x 1.925020 0.000000 -0.068120 
#    y 0.000000 1.911790 0.000000 
#    z -0.068120 0.000000 1.908010 
# 
# From -- ./inp_files/2995.got.cif
#   From: 2010.05.17/outbox.cif.g08.bks.cpg/sg14_2_cif.got.tgz:2995.got - 2010.06.03 17:49:19.
