data_PCOD9245090
_publ_section_title
;
Structure prediction by ZEFSAII (Michael W. Deem and Ramdas Pophale) SiO2 
 PCOD9245090
Probable space group: P 21/C
;
_chemical_formula_sum "Si O2"
_cell_formula_units_Z 28
_cell_length_a 8.721742
_cell_length_b 8.458506
_cell_length_c 29.597447
_cell_angle_alpha 90.000000
_cell_angle_beta 36.404241
_cell_angle_gamma 90.000000
_cell_volume 1295.854114
_symmetry_space_group_name_H-M "P 21/C"
_symmetry_group_IT_number 14
_symmetry_cell_setting 'monoclinic'
loop_
_space_group_symop_operation_xyz
x,y,z
-x,1/2+y,1/2-z
-x,-y,-z
x,1/2-y,1/2+z
loop_
_atom_site_type_symbol
_atom_site_label
_atom_site_fract_x
_atom_site_fract_y
_atom_site_fract_z
Si Si1 0.091131 0.844383 0.760083
Si Si2 0.318748 0.375548 0.518577
Si Si3 0.895753 0.393440 0.848491
Si Si4 0.581190 0.430145 0.282468
Si Si5 0.299312 0.956211 0.937089
Si Si6 0.906203 0.921750 0.162604
Si Si7 0.581315 0.687405 0.923234
O O1 0.328235 0.733683 0.717157
O O2 0.066629 0.855671 0.712933
O O3 0.829821 0.765554 0.840309
O O4 0.116339 0.006348 0.781884
O O5 0.500000 0.500000 0.500000
O O6 0.381339 0.400931 0.451567
O O7 0.376158 0.222009 0.533727
O O8 0.039244 0.445960 0.598791
O O9 0.156169 0.492217 0.798953
O O10 0.922433 0.236337 0.872520
O O11 0.637358 0.501060 0.907657
O O12 0.455874 0.533070 0.353120
O O13 0.371133 0.395560 0.293920
O O14 0.354423 0.790809 0.951983
O O15 0.000000 0.000000 0.000000
#
# Coordination Sequence:
#
# PCOD9245090 Si02
#       7
#     4   4   4   4   4   4   4
#     4  10  21  36  60  90 119 156 201 247 314 368
#     4   9  20  36  60  83 113 159 206 239 292 374
#     4  11  22  38  63  90 122 153 201 263 311 369
#     4  11  22  37  60  92 121 155 205 259 314 363
#     4  11  20  38  63  85 122 164 208 248 305 373
#     4  11  21  38  60  91 122 157 195 257 321 363
#     4   9  20  38  58  90 112 154 208 248 297 366
#
# _framework density 21.607371000000001
#
# number of rings (size 3 to 8) (size 9 to 14) (size 15 to 20)
#    0.000    1.714    2.857    2.571    4.000    0.000 
#    0.000    4.286    0.000    1.714    0.000    0.000 
#    0.000    0.000    0.000    0.000    0.000    0.000 
#
# Total GULP energy -156025.204983 kJ/mol
# GULP energy per Si atom -5572.328749 kJ/mol
# Density = 2.155819 g / cm^3
# Si number density = 21.607371 Si / 1000 Ang^3
#
#
#
# Elastic Constant Matrix: (Units=GPa)
#
#
# Indices 1 2 3 4 5 6 
#
# 1 105.1808 34.4725 19.0222 0.0000 -10.8820 0.0000
# 2 34.4725 90.7757 22.6266 0.0000 -1.6929 0.0000
# 3 19.0222 22.6266 54.5957 0.0000 -1.9169 0.0000
# 4 0.0000 0.0000 0.0000 31.2087 0.0000 -2.4129
# 5 -10.8820 -1.6929 -1.9169 0.0000 39.7256 0.0000
# 6 0.0000 0.0000 0.0000 -2.4129 0.0000 28.2548
#
#
#
# Elastic Compliance Matrix: (Units=1/GPa)
#
#
# Indices 1 2 3 4 5 6 
#
# 1 0.011444 -0.003706 -0.002351 0.000000 0.002863 0.000000
# 2 -0.003706 0.013489 -0.004322 0.000000 -0.000649 0.000000
# 3 -0.002351 -0.004322 0.020933 0.000000 0.000182 0.000000
# 4 0.000000 0.000000 0.000000 0.032255 0.000000 0.002755
# 5 0.002863 -0.000649 0.000182 0.000000 0.025938 0.000000
# 6 0.000000 0.000000 0.000000 0.002755 0.000000 0.035628
#
#
# Mechanical properties :
#
#
# Convention : Reuss Voigt Hill
#
# Bulk Modulus (GPa) = 39.82801 44.75496 42.29148
# Shear Modulus (GPa) = 29.61859 31.46654 30.54257
#
# Velocity S-wave (km/s) = 3.70640 3.82027 3.76377
# Velocity P-wave (km/s) = 6.06541 6.34170 6.20509
#
# Compressibility (1/GPa) = 0.02510796
#
# Stress axis : x y z
#
# Youngs Moduli (GPa) = 87.38547 74.13543 47.77173
#
# Poissons Ratio (x) = 0.27478 0.11229
# Poissons Ratio (y) = 0.32389 0.20645
# Poissons Ratio (z) = 0.20540 0.32039
#
# Static dielectric constant tensor:
#      x y z
#    x 1.802660 0.000000 0.031520 
#    y 0.000000 1.904450 0.000000 
#    z 0.031520 0.000000 1.952480 
# 
# From -- ./inp_files/64514.got.cif
#   From: 2010.05.17/outbox.cif.g08.bks.cpg/sg14_33_cif.got.tgz:64514.got - 2010.06.03 17:49:19.
