data_PCOD9245414
_publ_section_title
;
Structure prediction by ZEFSAII (Michael W. Deem and Ramdas Pophale) SiO2 
 PCOD9245414
Probable space group: P 21/C
;
_chemical_formula_sum "Si O2"
_cell_formula_units_Z 32
_cell_length_a 10.142379
_cell_length_b 16.299688
_cell_length_c 12.704109
_cell_angle_alpha 90.000000
_cell_angle_beta 46.025934
_cell_angle_gamma 90.000000
_cell_volume 1511.426991
_symmetry_space_group_name_H-M "P 21/C"
_symmetry_group_IT_number 14
_symmetry_cell_setting 'monoclinic'
loop_
_space_group_symop_operation_xyz
x,y,z
-x,1/2+y,1/2-z
-x,-y,-z
x,1/2-y,1/2+z
loop_
_atom_site_type_symbol
_atom_site_label
_atom_site_fract_x
_atom_site_fract_y
_atom_site_fract_z
Si Si1 0.228668 0.174912 0.625957
Si Si2 0.915281 0.242718 0.430507
Si Si3 0.613300 0.246211 0.927931
Si Si4 0.926601 0.518646 0.157687
Si Si5 0.465756 0.424722 0.598941
Si Si6 0.919884 0.337260 0.135684
Si Si7 0.782954 0.079816 0.081665
Si Si8 0.105650 0.998285 0.770592
O O1 0.440191 0.197683 0.498698
O O2 0.206295 0.083772 0.686816
O O3 0.116481 0.180664 0.578840
O O4 0.105301 0.235291 0.767129
O O5 0.748168 0.223430 0.445168
O O6 0.935699 0.170620 0.502694
O O7 0.857361 0.328622 0.518621
O O8 0.524931 0.160295 0.013828
O O9 0.757562 0.224331 0.757185
O O10 0.747170 0.572865 0.256312
O O11 0.866669 0.423878 0.217072
O O12 0.055539 0.540902 0.185271
O O13 0.000000 0.500000 0.000000
O O14 0.500000 0.500000 0.500000
O O15 0.586032 0.432354 0.637857
O O16 0.789776 0.055968 0.200675
O O17 0.918896 0.022166 0.936790
#
# Coordination Sequence:
#
# PCOD9245414 Si02
#       8
#     4   4   4   4   4   4   4   4
#     4   9  20  37  58  84 113 153 193 235 285 344
#     4   9  20  37  55  84 118 146 190 240 288 337
#     4  10  21  38  59  82 115 154 193 240 283 348
#     4  11  23  38  58  87 119 153 187 245 298 346
#     4  11  19  38  61  85 110 148 202 235 284 350
#     4  10  21  40  56  82 122 151 187 243 291 337
#     4   9  18  36  63  86 113 150 191 243 283 342
#     4   9  18  38  60  86 118 148 190 239 292 341
#
# _framework density 21.172044
#
# number of rings (size 3 to 8) (size 9 to 14) (size 15 to 20)
#    0.000    2.250    2.500    1.500    1.750    3.000 
#   11.250    0.625    0.000    0.000    0.000    0.000 
#    0.000    0.000    0.000    0.000    0.000    0.000 
#
# Total GULP energy -178584.281101 kJ/mol
# GULP energy per Si atom -5580.758784 kJ/mol
# Density = 2.112386 g / cm^3
# Si number density = 21.172044 Si / 1000 Ang^3
#
#
#
# Elastic Constant Matrix: (Units=GPa)
#
#
# Indices 1 2 3 4 5 6 
#
# 1 103.7967 25.4435 61.1036 0.0000 -1.8779 0.0000
# 2 25.4435 35.2959 8.5535 0.0000 -9.5988 0.0000
# 3 61.1036 8.5535 71.1851 0.0000 2.6539 0.0000
# 4 0.0000 0.0000 0.0000 32.8658 0.0000 -2.0772
# 5 -1.8779 -9.5988 2.6539 0.0000 36.8606 0.0000
# 6 0.0000 0.0000 0.0000 -2.0772 0.0000 32.4420
#
#
#
# Elastic Compliance Matrix: (Units=1/GPa)
#
#
# Indices 1 2 3 4 5 6 
#
# 1 0.023952 -0.012873 -0.018984 0.000000 -0.000765 0.000000
# 2 -0.012873 0.038572 0.006082 0.000000 0.008951 0.000000
# 3 -0.018984 0.006082 0.029669 0.000000 -0.001520 0.000000
# 4 0.000000 0.000000 0.000000 0.030550 0.000000 0.001956
# 5 -0.000765 0.008951 -0.001520 0.000000 0.029531 0.000000
# 6 0.000000 0.000000 0.000000 0.001956 0.000000 0.030950
#
#
# Mechanical properties :
#
#
# Convention : Reuss Voigt Hill
#
# Bulk Modulus (GPa) = 24.60536 44.49768 34.55152
# Shear Modulus (GPa) = 20.13508 28.11214 24.12361
#
# Velocity S-wave (km/s) = 3.08721 3.64785 3.37917
# Velocity P-wave (km/s) = 4.93505 6.22938 5.61960
#
# Compressibility (1/GPa) = 0.04064155
#
# Stress axis : x y z
#
# Youngs Moduli (GPa) = 41.75060 25.92536 33.70484
#
# Poissons Ratio (x) = 0.33375 0.63986
# Poissons Ratio (y) = 0.53748 -0.20499
# Poissons Ratio (z) = 0.79260 -0.15767
#
# Static dielectric constant tensor:
#      x y z
#    x 1.742730 0.000000 0.025270 
#    y 0.000000 1.834500 0.000000 
#    z 0.025270 0.000000 1.771490 
# 
# From -- ./inp_files/26770.got.cif
#   From: 2010.05.17/outbox.cif.g08.bks.cpg/sg14_14_cif.got.tgz:26770.got - 2010.06.03 17:49:19.
