data_PCOD9245336
_publ_section_title
;
Structure prediction by ZEFSAII (Michael W. Deem and Ramdas Pophale) SiO2 
 PCOD9245336
Probable space group: P 21/C
;
_chemical_formula_sum "Si O2"
_cell_formula_units_Z 20
_cell_length_a 12.807060
_cell_length_b 16.723664
_cell_length_c 10.838671
_cell_angle_alpha 90.000000
_cell_angle_beta 156.911969
_cell_angle_gamma 90.000000
_cell_volume 910.339836
_symmetry_space_group_name_H-M "P 21/C"
_symmetry_group_IT_number 14
_symmetry_cell_setting 'monoclinic'
loop_
_space_group_symop_operation_xyz
x,y,z
-x,1/2+y,1/2-z
-x,-y,-z
x,1/2-y,1/2+z
loop_
_atom_site_type_symbol
_atom_site_label
_atom_site_fract_x
_atom_site_fract_y
_atom_site_fract_z
Si Si1 0.456805 0.639758 0.901913
Si Si2 0.654852 0.325294 0.714508
Si Si3 0.848352 0.580815 0.803359
Si Si4 0.564438 0.080885 0.342937
Si Si5 0.065470 0.053901 0.191937
O O1 0.410874 0.733219 0.870452
O O2 0.207893 0.595603 0.564673
O O3 0.468921 0.599911 0.050549
O O4 0.729199 0.622087 0.127825
O O5 0.413705 0.385062 0.410929
O O6 0.678469 0.345785 0.886542
O O7 0.930217 0.350541 0.953296
O O8 0.720762 0.567624 0.529368
O O9 0.000000 0.500000 0.000000
O O10 0.760362 0.005989 0.535943
O O11 0.000000 0.000000 0.000000
#
# Coordination Sequence:
#
# PCOD9245336 Si02
#       5
#     4   4   4   4   4
#     4  11  22  40  62  94 123 156 209 258 303 355
#     4  10  23  40  60  89 130 158 201 257 303 356
#     4  10  22  42  62  85 125 165 201 241 304 369
#     4   9  23  38  66  85 128 161 202 249 307 355
#     4  10  21  37  64  89 118 160 208 252 297 366
#
# _framework density 21.969818
#
# number of rings (size 3 to 8) (size 9 to 14) (size 15 to 20)
#    1.200    0.800    0.000    4.200    8.400    0.000 
#    3.600    0.000    0.000    0.000    0.000    0.000 
#    0.000    0.000    0.000    0.000    0.000    0.000 
#
# Total GULP energy -111575.843516 kJ/mol
# GULP energy per Si atom -5578.792176 kJ/mol
# Density = 2.191981 g / cm^3
# Si number density = 21.969818 Si / 1000 Ang^3
#
#
#
# Elastic Constant Matrix: (Units=GPa)
#
#
# Indices 1 2 3 4 5 6 
#
# 1 18.9610 -16.8535 13.3750 0.0000 4.9762 0.0000
# 2 -16.8535 109.8993 54.2997 0.0000 -10.6918 0.0000
# 3 13.3750 54.2997 125.5587 0.0000 23.7745 0.0000
# 4 0.0000 0.0000 0.0000 36.1544 0.0000 8.9558
# 5 4.9762 -10.6918 23.7745 0.0000 23.7074 0.0000
# 6 0.0000 0.0000 0.0000 8.9558 0.0000 27.7644
#
#
#
# Elastic Compliance Matrix: (Units=1/GPa)
#
#
# Indices 1 2 3 4 5 6 
#
# 1 0.091351 0.028722 -0.025890 0.000000 0.019742 0.000000
# 2 0.028722 0.024775 -0.018205 0.000000 0.023401 0.000000
# 3 -0.025890 -0.018205 0.023603 0.000000 -0.026445 0.000000
# 4 0.000000 0.000000 0.000000 0.030061 0.000000 -0.009697
# 5 0.019742 0.023401 -0.026445 0.000000 0.075111 0.000000
# 6 0.000000 0.000000 0.000000 -0.009697 0.000000 0.039145
#
#
# Mechanical properties :
#
#
# Convention : Reuss Voigt Hill
#
# Bulk Modulus (GPa) = 9.17585 39.56237 24.36911
# Shear Modulus (GPa) = 14.24014 31.09845 22.66930
#
# Velocity S-wave (km/s) = 2.54868 3.76641 3.21571
# Velocity P-wave (km/s) = 3.58422 6.07956 4.99038
#
# Compressibility (1/GPa) = 0.10898173
#
# Stress axis : x y z
#
# Youngs Moduli (GPa) = 10.94681 40.36288 42.36801
#
# Poissons Ratio (x) = -1.15929 1.09692
# Poissons Ratio (y) = -0.31441 0.77131
# Poissons Ratio (z) = 0.28342 0.73480
#
# Static dielectric constant tensor:
#      x y z
#    x 1.849420 0.000000 -0.011870 
#    y 0.000000 1.782000 0.000000 
#    z -0.011870 0.000000 1.831220 
# 
# From -- ./inp_files/33019.got.cif
#   From: 2010.05.17/outbox.cif.g08.bks.cpg/sg14_17_cif.got.tgz:33019.got - 2010.06.03 17:49:19.
