data_PCOD9245621
_publ_section_title
;
Structure prediction by ZEFSAII (Michael W. Deem and Ramdas Pophale) SiO2 
 PCOD9245621
Probable space group: P 21/C
;
_chemical_formula_sum "Si O2"
_cell_formula_units_Z 32
_cell_length_a 17.374308
_cell_length_b 12.957601
_cell_length_c 15.116229
_cell_angle_alpha 90.000000
_cell_angle_beta 153.051245
_cell_angle_gamma 90.000000
_cell_volume 1542.265576
_symmetry_space_group_name_H-M "P 21/C"
_symmetry_group_IT_number 14
_symmetry_cell_setting 'monoclinic'
loop_
_space_group_symop_operation_xyz
x,y,z
-x,1/2+y,1/2-z
-x,-y,-z
x,1/2-y,1/2+z
loop_
_atom_site_type_symbol
_atom_site_label
_atom_site_fract_x
_atom_site_fract_y
_atom_site_fract_z
Si Si1 0.586884 0.737520 0.284378
Si Si2 0.959347 0.742669 0.126063
Si Si3 0.551226 0.616749 0.071428
Si Si4 0.379379 0.823052 0.840152
Si Si5 0.962447 0.295120 0.096521
Si Si6 0.717723 0.384166 0.563527
Si Si7 0.053883 0.379972 0.559970
Si Si8 0.306270 0.113166 0.937335
O O1 0.760765 0.788012 0.424218
O O2 0.633447 0.695007 0.427782
O O3 0.550128 0.647749 0.174463
O O4 0.425652 0.811724 0.126206
O O5 0.997392 0.797108 0.258587
O O6 0.091632 0.650063 0.260405
O O7 0.996852 0.817790 0.081513
O O8 0.429906 0.702676 0.903539
O O9 0.500000 0.500000 0.000000
O O10 0.741914 0.628636 0.229824
O O11 0.311327 0.866223 0.862351
O O12 0.226119 0.834444 0.614697
O O13 0.552171 0.880614 0.992533
O O14 0.979551 0.182372 0.067750
O O15 0.116691 0.360031 0.211120
O O16 0.692423 0.502494 0.515823
O O17 0.000000 0.500000 0.500000
#
# Coordination Sequence:
#
# PCOD9245621 Si02
#       8
#     4   4   4   4   4   4   4   4
#     4   9  23  42  62  92 132 163 213 276 316 393
#     4  10  23  43  64  96 131 170 224 271 327 400
#     4  10  21  38  65  95 130 168 210 270 336 384
#     4  11  22  40  63  94 131 170 220 262 324 398
#     4  11  23  42  68  93 133 176 216 278 327 393
#     4  11  23  41  68  90 131 175 211 268 332 389
#     4  11  22  42  69  97 135 172 223 277 334 395
#     4  11  24  42  62  97 128 169 220 266 323 393
#
# _framework density 20.748695999999999
#
# number of rings (size 3 to 8) (size 9 to 14) (size 15 to 20)
#    0.000    1.500    2.500    1.875    1.750    6.500 
#    0.000    0.000    0.000    0.000    0.000    0.000 
#    0.000    0.000    0.000    0.000    0.000    0.000 
#
# Total GULP energy -178733.705207 kJ/mol
# GULP energy per Si atom -5585.428288 kJ/mol
# Density = 2.070147 g / cm^3
# Si number density = 20.748696 Si / 1000 Ang^3
#
#
#
# Elastic Constant Matrix: (Units=GPa)
#
#
# Indices 1 2 3 4 5 6 
#
# 1 38.5585 -9.4713 5.9561 0.0000 8.6166 0.0000
# 2 -9.4713 58.2809 8.8441 0.0000 9.4188 0.0000
# 3 5.9561 8.8441 91.5773 0.0000 5.5263 0.0000
# 4 0.0000 0.0000 0.0000 14.9230 0.0000 6.6047
# 5 8.6166 9.4188 5.5263 0.0000 27.6306 0.0000
# 6 0.0000 0.0000 0.0000 6.6047 0.0000 14.3612
#
#
#
# Elastic Compliance Matrix: (Units=1/GPa)
#
#
# Indices 1 2 3 4 5 6 
#
# 1 0.030581 0.007141 -0.001980 0.000000 -0.011575 0.000000
# 2 0.007141 0.020004 -0.001873 0.000000 -0.008671 0.000000
# 3 -0.001980 -0.001873 0.011290 0.000000 -0.001002 0.000000
# 4 0.000000 0.000000 0.000000 0.084136 0.000000 -0.038694
# 5 -0.011575 -0.008671 -0.001002 0.000000 0.042958 0.000000
# 6 0.000000 0.000000 0.000000 -0.038694 0.000000 0.087428
#
#
# Mechanical properties :
#
#
# Convention : Reuss Voigt Hill
#
# Bulk Modulus (GPa) = 14.60901 22.11939 18.36420
# Shear Modulus (GPa) = 17.08591 23.58880 20.33735
#
# Velocity S-wave (km/s) = 2.87273 3.37542 3.13417
# Velocity P-wave (km/s) = 4.24966 5.08676 4.68693
#
# Compressibility (1/GPa) = 0.06845093
#
# Stress axis : x y z
#
# Youngs Moduli (GPa) = 32.69980 49.98906 88.57491
#
# Poissons Ratio (x) = -0.35697 0.17539
# Poissons Ratio (y) = -0.23351 0.16591
# Poissons Ratio (z) = 0.06475 0.09363
#
# Static dielectric constant tensor:
#      x y z
#    x 1.794490 0.000000 0.020180 
#    y 0.000000 1.732790 0.000000 
#    z 0.020180 0.000000 1.757190 
# 
# From -- ./inp_files/49037.got.cif
#   From: 2010.05.17/outbox.cif.g08.bks.cpg/sg14_25_cif.got.tgz:49037.got - 2010.06.03 17:49:19.
