data_PCOD9245424
_publ_section_title
;
Structure prediction by ZEFSAII (Michael W. Deem and Ramdas Pophale) SiO2 
 PCOD9245424
Probable space group: P 21/C
;
_chemical_formula_sum "Si O2"
_cell_formula_units_Z 24
_cell_length_a 9.917008
_cell_length_b 8.483151
_cell_length_c 12.390440
_cell_angle_alpha 90.000000
_cell_angle_beta 94.918166
_cell_angle_gamma 90.000000
_cell_volume 1038.538589
_symmetry_space_group_name_H-M "P 21/C"
_symmetry_group_IT_number 14
_symmetry_cell_setting 'monoclinic'
loop_
_space_group_symop_operation_xyz
x,y,z
-x,1/2+y,1/2-z
-x,-y,-z
x,1/2-y,1/2+z
loop_
_atom_site_type_symbol
_atom_site_label
_atom_site_fract_x
_atom_site_fract_y
_atom_site_fract_z
Si Si1 0.625156 0.435197 0.310075
Si Si2 0.885311 0.291170 0.449486
Si Si3 0.352568 0.201486 0.027246
Si Si4 0.140615 0.463563 0.369360
Si Si5 0.214528 0.025420 0.628200
Si Si6 0.492454 0.130023 0.361471
O O1 0.762784 0.364787 0.368696
O O2 0.583093 0.571645 0.391084
O O3 0.518862 0.293523 0.300220
O O4 0.627126 0.525377 0.196763
O O5 0.878569 0.372494 0.566644
O O6 0.864165 0.103991 0.448580
O O7 0.019999 0.350241 0.399990
O O8 0.236835 0.300971 0.081565
O O9 0.277608 0.112309 0.925006
O O10 0.460630 0.317326 0.980512
O O11 0.150021 0.476883 0.242177
O O12 0.367949 0.960887 0.644510
#
# Coordination Sequence:
#
# PCOD9245424 Si02
#       6
#     4   4   4   4   4   4
#     4  10  21  38  59  86 119 163 202 250 309 361
#     4   9  23  42  63  87 120 160 204 256 306 361
#     4  11  22  37  59  87 122 160 202 252 308 364
#     4  10  22  43  62  87 124 160 203 256 309 362
#     4  11  24  39  63  93 120 161 207 251 307 367
#     4  11  22  37  58  87 122 158 203 251 304 367
#
# _framework density 23.109397000000001
#
# number of rings (size 3 to 8) (size 9 to 14) (size 15 to 20)
#    0.000    1.667    0.000    4.000    0.000   11.333 
#    0.000    0.000    0.000    0.000    0.000    0.000 
#    0.000    0.000    0.000    0.000    0.000    0.000 
#
# Total GULP energy -134211.697434 kJ/mol
# GULP energy per Si atom -5592.154060 kJ/mol
# Density = 2.305680 g / cm^3
# Si number density = 23.109397 Si / 1000 Ang^3
#
#
#
# Elastic Constant Matrix: (Units=GPa)
#
#
# Indices 1 2 3 4 5 6 
#
# 1 53.3666 4.2268 7.8861 0.0000 -9.9519 0.0000
# 2 4.2268 90.7479 16.0654 0.0000 5.6306 0.0000
# 3 7.8861 16.0654 36.3714 0.0000 -8.8970 0.0000
# 4 0.0000 0.0000 0.0000 38.0107 0.0000 12.4657
# 5 -9.9519 5.6306 -8.8970 0.0000 27.6225 0.0000
# 6 0.0000 0.0000 0.0000 12.4657 0.0000 30.4492
#
#
#
# Elastic Compliance Matrix: (Units=1/GPa)
#
#
# Indices 1 2 3 4 5 6 
#
# 1 0.020429 -0.000959 -0.002342 0.000000 0.006801 0.000000
# 2 -0.000959 0.012536 -0.006555 0.000000 -0.005012 0.000000
# 3 -0.002342 -0.006555 0.033671 0.000000 0.011337 0.000000
# 4 0.000000 0.000000 0.000000 0.030388 0.000000 -0.012441
# 5 0.006801 -0.005012 0.011337 0.000000 0.043326 0.000000
# 6 0.000000 0.000000 0.000000 -0.012441 0.000000 0.037935
#
#
# Mechanical properties :
#
#
# Convention : Reuss Voigt Hill
#
# Bulk Modulus (GPa) = 21.31171 26.31584 23.81377
# Shear Modulus (GPa) = 23.40412 29.37031 26.38722
#
# Velocity S-wave (km/s) = 3.18583 3.56887 3.38278
# Velocity P-wave (km/s) = 4.77230 5.32867 5.05814
#
# Compressibility (1/GPa) = 0.04692255
#
# Stress axis : x y z
#
# Youngs Moduli (GPa) = 48.95082 79.77230 29.69939
#
# Poissons Ratio (x) = 0.07649 0.06956
# Poissons Ratio (y) = 0.04694 0.19469
# Poissons Ratio (z) = 0.11465 0.52292
#
# Static dielectric constant tensor:
#      x y z
#    x 1.837140 0.000000 0.010880 
#    y 0.000000 1.909570 0.000000 
#    z 0.010880 0.000000 1.864850 
# 
# From -- ./inp_files/28114.got.cif
#   From: 2010.05.17/outbox.cif.g08.bks.cpg/sg14_15_cif.got.tgz:28114.got - 2010.06.03 17:49:19.
