data_PCOD9245802
_publ_section_title
;
Structure prediction by ZEFSAII (Michael W. Deem and Ramdas Pophale) SiO2 
 PCOD9245802
Probable space group: P 21/C
;
_chemical_formula_sum "Si O2"
_cell_formula_units_Z 32
_cell_length_a 16.152329
_cell_length_b 11.213115
_cell_length_c 13.103270
_cell_angle_alpha 90.000000
_cell_angle_beta 35.100504
_cell_angle_gamma 90.000000
_cell_volume 1364.640843
_symmetry_space_group_name_H-M "P 21/C"
_symmetry_group_IT_number 14
_symmetry_cell_setting 'monoclinic'
loop_
_space_group_symop_operation_xyz
x,y,z
-x,1/2+y,1/2-z
-x,-y,-z
x,1/2-y,1/2+z
loop_
_atom_site_type_symbol
_atom_site_label
_atom_site_fract_x
_atom_site_fract_y
_atom_site_fract_z
Si Si1 0.190703 0.913660 0.394323
Si Si2 0.731812 0.467047 0.762291
Si Si3 0.613010 0.368307 0.491771
Si Si4 0.858420 0.640011 0.502855
Si Si5 0.661158 0.882370 0.013800
Si Si6 0.525208 0.693682 0.008284
Si Si7 0.180752 0.671503 0.126202
Si Si8 0.901416 0.850601 0.603954
O O1 0.320520 0.909616 0.184080
O O2 0.230354 0.878126 0.467587
O O3 0.064046 0.830717 0.476350
O O4 0.114873 0.043129 0.461670
O O5 0.853664 0.510559 0.561309
O O6 0.627970 0.580579 0.886936
O O7 0.786540 0.419246 0.814754
O O8 0.633002 0.362375 0.816390
O O9 0.581547 0.490049 0.583774
O O10 0.488885 0.279173 0.577784
O O11 0.733280 0.291787 0.431106
O O12 0.725727 0.640388 0.559196
O O13 0.845002 0.733472 0.607706
O O14 0.007211 0.676957 0.298527
O O15 0.572173 0.773909 0.056078
O O16 0.802707 0.888127 0.798223
#
# Coordination Sequence:
#
# PCOD9245802 Si02
#       8
#     4   4   4   4   4   4   4   4
#     4  10  21  40  63  96 130 173 208 261 336 387
#     4  10  24  44  63  94 132 168 217 272 321 387
#     4  10  23  43  66  95 131 170 223 273 315 389
#     4  12  23  40  66 103 128 169 218 271 336 392
#     4  11  23  43  66  96 125 174 224 267 322 390
#     4  10  22  47  65  85 134 175 215 269 317 380
#     4  11  23  40  70  97 134 170 206 277 338 392
#     4  10  21  39  62  92 137 165 212 267 321 395
#
# _framework density 23.449394000000002
#
# number of rings (size 3 to 8) (size 9 to 14) (size 15 to 20)
#    0.000    1.500    3.750    0.750    1.750    2.000 
#   11.250    0.000    0.000    0.000    0.000    0.000 
#    0.000    0.000    0.000    0.000    0.000    0.000 
#
# Total GULP energy -178995.344326 kJ/mol
# GULP energy per Si atom -5593.604510 kJ/mol
# Density = 2.339602 g / cm^3
# Si number density = 23.449394 Si / 1000 Ang^3
#
#
#
# Elastic Constant Matrix: (Units=GPa)
#
#
# Indices 1 2 3 4 5 6 
#
# 1 129.7745 50.2084 2.7944 0.0000 8.2954 0.0000
# 2 50.2084 83.9790 -9.4035 0.0000 -8.1057 0.0000
# 3 2.7944 -9.4035 35.3188 0.0000 2.4805 0.0000
# 4 0.0000 0.0000 0.0000 20.6016 0.0000 -8.6682
# 5 8.2954 -8.1057 2.4805 0.0000 26.8788 0.0000
# 6 0.0000 0.0000 0.0000 -8.6682 0.0000 31.7641
#
#
#
# Elastic Compliance Matrix: (Units=1/GPa)
#
#
# Indices 1 2 3 4 5 6 
#
# 1 0.010936 -0.007329 -0.002440 0.000000 -0.005360 0.000000
# 2 -0.007329 0.017506 0.004742 0.000000 0.007104 0.000000
# 3 -0.002440 0.004742 0.029809 0.000000 -0.000568 0.000000
# 4 0.000000 0.000000 0.000000 0.054836 0.000000 0.014964
# 5 -0.005360 0.007104 -0.000568 0.000000 0.041053 0.000000
# 6 0.000000 0.000000 0.000000 0.014964 0.000000 0.035566
#
#
# Mechanical properties :
#
#
# Convention : Reuss Voigt Hill
#
# Bulk Modulus (GPa) = 20.74821 37.36343 29.05582
# Shear Modulus (GPa) = 23.16667 29.54709 26.35688
#
# Velocity S-wave (km/s) = 3.14657 3.55355 3.35623
# Velocity P-wave (km/s) = 4.69771 5.72758 5.23802
#
# Compressibility (1/GPa) = 0.04819692
#
# Stress axis : x y z
#
# Youngs Moduli (GPa) = 91.43746 57.12247 33.54688
#
# Poissons Ratio (x) = 0.41866 0.08186
# Poissons Ratio (y) = 0.67016 -0.15908
# Poissons Ratio (z) = 0.22313 -0.27087
#
# Static dielectric constant tensor:
#      x y z
#    x 1.867720 0.000000 -0.050820 
#    y 0.000000 1.914450 0.000000 
#    z -0.050820 0.000000 1.931720 
# 
# From -- ./inp_files/32388.got.cif
#   From: 2010.05.17/outbox.cif.g08.bks.cpg/sg14_17_cif.got.tgz:32388.got - 2010.06.03 17:49:19.
