data_PCOD9245569
_publ_section_title
;
Structure prediction by ZEFSAII (Michael W. Deem and Ramdas Pophale) SiO2 
 PCOD9245569
Probable space group: P 21/C
;
_chemical_formula_sum "Si O2"
_cell_formula_units_Z 32
_cell_length_a 11.116985
_cell_length_b 9.258114
_cell_length_c 27.012206
_cell_angle_alpha 90.000000
_cell_angle_beta 148.518060
_cell_angle_gamma 90.000000
_cell_volume 1451.881701
_symmetry_space_group_name_H-M "P 21/C"
_symmetry_group_IT_number 14
_symmetry_cell_setting 'monoclinic'
loop_
_space_group_symop_operation_xyz
x,y,z
-x,1/2+y,1/2-z
-x,-y,-z
x,1/2-y,1/2+z
loop_
_atom_site_type_symbol
_atom_site_label
_atom_site_fract_x
_atom_site_fract_y
_atom_site_fract_z
Si Si1 0.534743 0.649796 0.636446
Si Si2 0.631037 0.418032 0.863099
Si Si3 0.952164 0.821756 0.654119
Si Si4 0.904039 0.903220 0.533864
Si Si5 0.156717 0.064886 0.010624
Si Si6 0.532991 0.329411 0.500711
Si Si7 0.844015 0.037399 0.809059
Si Si8 0.995369 0.803065 0.783570
O O1 0.439329 0.757438 0.644969
O O2 0.416374 0.496063 0.605025
O O3 0.444420 0.693532 0.550113
O O4 0.808759 0.675723 0.727328
O O5 0.409449 0.495537 0.762757
O O6 0.847722 0.428246 0.903498
O O7 0.711434 0.498478 0.941244
O O8 0.931106 0.932450 0.601693
O O9 0.702337 0.745401 0.565837
O O10 0.134627 0.702787 0.699325
O O11 0.001448 0.850310 0.728535
O O12 0.846782 0.737293 0.498241
O O13 0.030565 0.007966 0.916806
O O14 0.000000 0.000000 0.000000
O O15 0.500000 0.500000 0.500000
O O16 0.751080 0.271406 0.607305
O O17 0.902683 0.937889 0.782856
#
# Coordination Sequence:
#
# PCOD9245569 Si02
#       8
#     4   4   4   4   4   4   4   4
#     4  10  21  40  64  98 128 166 221 263 333 390
#     4  10  22  43  64  90 133 176 205 278 342 379
#     4  10  22  38  62  95 125 172 226 261 328 393
#     4  10  22  43  64  91 135 170 219 273 326 400
#     4  11  20  41  67  94 124 172 224 268 324 397
#     4  11  19  39  65  92 131 173 212 277 324 388
#     4  10  21  42  61  88 134 167 215 272 328 393
#     4  10  21  38  63  94 131 168 215 270 329 382
#
# _framework density 22.040362999999999
#
# number of rings (size 3 to 8) (size 9 to 14) (size 15 to 20)
#    0.000    1.750    3.750    0.750    1.750    0.000 
#    6.750    4.375    0.000    0.000    0.000    0.000 
#    0.000    0.000    0.000    0.000    0.000    0.000 
#
# Total GULP energy -178811.911129 kJ/mol
# GULP energy per Si atom -5587.872223 kJ/mol
# Density = 2.199020 g / cm^3
# Si number density = 22.040363 Si / 1000 Ang^3
#
#
#
# Elastic Constant Matrix: (Units=GPa)
#
#
# Indices 1 2 3 4 5 6 
#
# 1 53.0791 1.6137 5.3147 0.0000 -18.6682 0.0000
# 2 1.6137 38.6306 27.2679 0.0000 8.4471 0.0000
# 3 5.3147 27.2679 108.8533 0.0000 8.3595 0.0000
# 4 0.0000 0.0000 0.0000 22.1269 0.0000 -3.1011
# 5 -18.6682 8.4471 8.3595 0.0000 30.9401 0.0000
# 6 0.0000 0.0000 0.0000 -3.1011 0.0000 21.9294
#
#
#
# Elastic Compliance Matrix: (Units=1/GPa)
#
#
# Indices 1 2 3 4 5 6 
#
# 1 0.024871 -0.003496 -0.001598 0.000000 0.016393 0.000000
# 2 -0.003496 0.033313 -0.007469 0.000000 -0.009186 0.000000
# 3 -0.001598 -0.007469 0.011287 0.000000 -0.001974 0.000000
# 4 0.000000 0.000000 0.000000 0.046108 0.000000 0.006520
# 5 0.016393 -0.009186 -0.001974 0.000000 0.045253 0.000000
# 6 0.000000 0.000000 0.000000 0.006520 0.000000 0.046523
#
#
# Mechanical properties :
#
#
# Convention : Reuss Voigt Hill
#
# Bulk Modulus (GPa) = 22.54926 29.88396 26.21661
# Shear Modulus (GPa) = 20.22151 26.09040 23.15596
#
# Velocity S-wave (km/s) = 3.03227 3.44431 3.24484
# Velocity P-wave (km/s) = 4.74475 5.42272 5.09502
#
# Compressibility (1/GPa) = 0.04434735
#
# Stress axis : x y z
#
# Youngs Moduli (GPa) = 40.20674 30.01841 88.59569
#
# Poissons Ratio (x) = 0.10494 0.14153
# Poissons Ratio (y) = 0.14056 0.66170
# Poissons Ratio (z) = 0.06423 0.22420
#
# Static dielectric constant tensor:
#      x y z
#    x 1.832040 0.000000 0.005290 
#    y 0.000000 1.823920 0.000000 
#    z 0.005290 0.000000 1.796340 
# 
# From -- ./inp_files/80023.got.cif
#   From: 2010.05.17/outbox.cif.g08.bks.cpg/sg14_41_cif.got.tgz:80023.got - 2010.06.03 17:49:19.
