data_PCOD9245993
_publ_section_title
;
Structure prediction by ZEFSAII (Michael W. Deem and Ramdas Pophale) SiO2 
 PCOD9245993
Probable space group: P 21/C
;
_chemical_formula_sum "Si O2"
_cell_formula_units_Z 24
_cell_length_a 12.598506
_cell_length_b 5.270552
_cell_length_c 15.121168
_cell_angle_alpha 90.000000
_cell_angle_beta 99.058463
_cell_angle_gamma 90.000000
_cell_volume 991.539447
_symmetry_space_group_name_H-M "P 21/C"
_symmetry_group_IT_number 14
_symmetry_cell_setting 'monoclinic'
loop_
_space_group_symop_operation_xyz
x,y,z
-x,1/2+y,1/2-z
-x,-y,-z
x,1/2-y,1/2+z
loop_
_atom_site_type_symbol
_atom_site_label
_atom_site_fract_x
_atom_site_fract_y
_atom_site_fract_z
Si Si1 0.649270 0.378818 0.936412
Si Si2 0.217514 0.993684 0.949329
Si Si3 0.933948 0.616358 0.732011
Si Si4 0.236435 0.277637 0.643155
Si Si5 0.422834 0.232302 0.426130
Si Si6 0.571391 0.451381 0.246448
O O1 0.696169 0.518134 0.857668
O O2 0.546191 0.187889 0.923802
O O3 0.748585 0.277903 0.006816
O O4 0.592048 0.610294 0.980262
O O5 0.124247 0.034803 0.866865
O O6 0.326297 0.070967 0.910912
O O7 0.198728 0.149896 0.038645
O O8 0.853101 0.726778 0.795717
O O9 0.987656 0.356159 0.774278
O O10 0.319423 0.495901 0.684705
O O11 0.398172 0.020303 0.349893
O O12 0.511522 0.182076 0.241000
#
# Coordination Sequence:
#
# PCOD9245993 Si02
#       6
#     4   4   4   4   4   4
#     4  10  22  42  70 110 152 194 241 290 368 451
#     4  11  25  46  78 105 151 195 243 310 369 443
#     4  12  32  54  79 108 141 193 259 323 377 427
#     4  11  26  47  73 110 147 195 248 305 374 436
#     4  10  21  39  68 108 154 199 230 287 358 456
#     4  12  25  40  68 111 154 198 240 289 358 452
#
# _framework density 24.204785000000001
#
# number of rings (size 3 to 8) (size 9 to 14) (size 15 to 20)
#    0.000    1.000    3.333    1.500    9.333    1.333 
#    0.000    0.000    0.000    0.000    0.000    0.000 
#    0.000    0.000    0.000    0.000    0.000    0.000 
#
# Total GULP energy -134035.787833 kJ/mol
# GULP energy per Si atom -5584.824493 kJ/mol
# Density = 2.414969 g / cm^3
# Si number density = 24.204785 Si / 1000 Ang^3
#
#
#
# Elastic Constant Matrix: (Units=GPa)
#
#
# Indices 1 2 3 4 5 6 
#
# 1 77.9516 22.7872 42.1407 0.0000 25.9963 0.0000
# 2 22.7872 108.7306 6.2437 0.0000 16.0679 0.0000
# 3 42.1407 6.2437 109.6403 0.0000 18.7185 0.0000
# 4 0.0000 0.0000 0.0000 36.0644 0.0000 4.1366
# 5 25.9963 16.0679 18.7185 0.0000 41.3931 0.0000
# 6 0.0000 0.0000 0.0000 4.1366 0.0000 24.8714
#
#
#
# Elastic Compliance Matrix: (Units=1/GPa)
#
#
# Indices 1 2 3 4 5 6 
#
# 1 0.019666 -0.002495 -0.005931 0.000000 -0.008700 0.000000
# 2 -0.002495 0.010074 0.000851 0.000000 -0.002728 0.000000
# 3 -0.005931 0.000851 0.011674 0.000000 -0.001884 0.000000
# 4 0.000000 0.000000 0.000000 0.028267 0.000000 -0.004701
# 5 -0.008700 -0.002728 -0.001884 0.000000 0.031534 0.000000
# 6 0.000000 0.000000 0.000000 -0.004701 0.000000 0.040989
#
#
# Mechanical properties :
#
#
# Convention : Reuss Voigt Hill
#
# Bulk Modulus (GPa) = 38.07609 48.74065 43.40837
# Shear Modulus (GPa) = 30.10084 35.47585 32.78835
#
# Velocity S-wave (km/s) = 3.53028 3.83254 3.68451
# Velocity P-wave (km/s) = 5.69053 6.30595 6.00613
#
# Compressibility (1/GPa) = 0.02626320
#
# Stress axis : x y z
#
# Youngs Moduli (GPa) = 50.85014 99.26250 85.66298
#
# Poissons Ratio (x) = 0.24768 0.50808
# Poissons Ratio (y) = 0.12688 -0.07291
# Poissons Ratio (z) = 0.30160 -0.08449
#
# Static dielectric constant tensor:
#      x y z
#    x 1.961030 0.000000 0.055010 
#    y 0.000000 2.032390 0.000000 
#    z 0.055010 0.000000 2.048230 
# 
# From -- ./inp_files/45712.got.cif
#   From: 2010.05.17/outbox.cif.g08.bks.cpg/sg14_23_cif.got.tgz:45712.got - 2010.06.03 17:49:19.
