data_PCOD9245753
_publ_section_title
;
Structure prediction by ZEFSAII (Michael W. Deem and Ramdas Pophale) SiO2 
 PCOD9245753
Probable space group: P 21/C
;
_chemical_formula_sum "Si O2"
_cell_formula_units_Z 32
_cell_length_a 13.968708
_cell_length_b 8.750282
_cell_length_c 13.653387
_cell_angle_alpha 90.000000
_cell_angle_beta 60.455437
_cell_angle_gamma 90.000000
_cell_volume 1451.858139
_symmetry_space_group_name_H-M "P 21/C"
_symmetry_group_IT_number 14
_symmetry_cell_setting 'monoclinic'
loop_
_space_group_symop_operation_xyz
x,y,z
-x,1/2+y,1/2-z
-x,-y,-z
x,1/2-y,1/2+z
loop_
_atom_site_type_symbol
_atom_site_label
_atom_site_fract_x
_atom_site_fract_y
_atom_site_fract_z
Si Si1 0.050452 0.000728 0.128092
Si Si2 0.642566 0.784746 0.455070
Si Si3 0.672574 0.063263 0.310784
Si Si4 0.162976 0.382560 0.741559
Si Si5 0.845273 0.627298 0.615166
Si Si6 0.492011 0.207230 0.811804
Si Si7 0.475089 0.632810 0.399762
Si Si8 0.761751 0.176317 0.882189
O O1 0.133487 0.857856 0.102591
O O2 0.936076 0.947862 0.142114
O O3 0.054366 0.084346 0.231530
O O4 0.110826 0.102584 0.015502
O O5 0.762273 0.730945 0.361592
O O6 0.618966 0.771852 0.581488
O O7 0.556719 0.666956 0.448183
O O8 0.622188 0.947223 0.415391
O O9 0.587108 0.185538 0.310820
O O10 0.758196 0.163834 0.329930
O O11 0.732914 0.963298 0.196761
O O12 0.157563 0.302163 0.848144
O O13 0.225693 0.543874 0.706472
O O14 0.499350 0.237628 0.693533
O O15 0.498680 0.029401 0.836415
O O16 0.350491 0.648361 0.501137
#
# Coordination Sequence:
#
# PCOD9245753 Si02
#       8
#     4   4   4   4   4   4   4   4
#     4   9  21  39  67  90 121 157 202 263 317 373
#     4  11  22  40  58  87 124 169 200 253 305 370
#     4  11  23  36  63  90 123 159 211 254 309 375
#     4   9  21  38  63  84 121 164 200 250 312 372
#     4  10  21  41  65  90 119 160 208 254 323 379
#     4  12  23  38  59  87 123 165 206 257 302 368
#     4  12  24  38  61  87 125 167 210 247 313 361
#     4  10  21  39  61  87 123 158 202 259 303 372
#
# _framework density 22.040721000000001
#
# number of rings (size 3 to 8) (size 9 to 14) (size 15 to 20)
#    0.750    0.750    2.500    3.000    3.500    3.000 
#    0.000    0.000    2.750    2.250    0.000    0.000 
#    0.000    0.000    0.000    0.000    0.000    0.000 
#
# Total GULP energy -178708.330440 kJ/mol
# GULP energy per Si atom -5584.635326 kJ/mol
# Density = 2.199056 g / cm^3
# Si number density = 22.040721 Si / 1000 Ang^3
#
#
#
# Elastic Constant Matrix: (Units=GPa)
#
#
# Indices 1 2 3 4 5 6 
#
# 1 47.0883 3.1263 -9.4860 0.0000 2.1718 0.0000
# 2 3.1263 100.3039 30.9895 0.0000 6.3242 0.0000
# 3 -9.4860 30.9895 53.6211 0.0000 4.2481 0.0000
# 4 0.0000 0.0000 0.0000 27.7333 0.0000 6.5357
# 5 2.1718 6.3242 4.2481 0.0000 24.8006 0.0000
# 6 0.0000 0.0000 0.0000 6.5357 0.0000 30.2116
#
#
#
# Elastic Compliance Matrix: (Units=1/GPa)
#
#
# Indices 1 2 3 4 5 6 
#
# 1 0.022599 -0.002251 0.005485 0.000000 -0.002344 0.000000
# 2 -0.002251 0.012452 -0.007460 0.000000 -0.001700 0.000000
# 3 0.005485 -0.007460 0.024146 0.000000 -0.002714 0.000000
# 4 0.000000 0.000000 0.000000 0.037995 0.000000 -0.008219
# 5 -0.002344 -0.001700 -0.002714 0.000000 0.041425 0.000000
# 6 0.000000 0.000000 0.000000 -0.008219 0.000000 0.034878
#
#
# Mechanical properties :
#
#
# Convention : Reuss Voigt Hill
#
# Bulk Modulus (GPa) = 19.70655 27.80809 23.75732
# Shear Modulus (GPa) = 25.14301 28.30802 26.72552
#
# Velocity S-wave (km/s) = 3.38117 3.58767 3.48595
# Velocity P-wave (km/s) = 4.91970 5.45948 5.19660
#
# Compressibility (1/GPa) = 0.05074455
#
# Stress axis : x y z
#
# Youngs Moduli (GPa) = 44.24932 80.30938 41.41468
#
# Poissons Ratio (x) = 0.18078 -0.22715
# Poissons Ratio (y) = 0.09961 0.30895
# Poissons Ratio (z) = -0.24270 0.59910
#
# Static dielectric constant tensor:
#      x y z
#    x 1.840890 0.000000 0.015350 
#    y 0.000000 1.829630 0.000000 
#    z 0.015350 0.000000 1.808090 
# 
# From -- ./inp_files/46498.got.cif
#   From: 2010.05.17/outbox.cif.g08.bks.cpg/sg14_24_cif.got.tgz:46498.got - 2010.06.03 17:49:19.
