data_PCOD9245804
_publ_section_title
;
Structure prediction by ZEFSAII (Michael W. Deem and Ramdas Pophale) SiO2 
 PCOD9245804
Probable space group: P 21/C
;
_chemical_formula_sum "Si O2"
_cell_formula_units_Z 24
_cell_length_a 11.489493
_cell_length_b 5.726977
_cell_length_c 15.454272
_cell_angle_alpha 90.000000
_cell_angle_beta 75.181938
_cell_angle_gamma 90.000000
_cell_volume 983.073089
_symmetry_space_group_name_H-M "P 21/C"
_symmetry_group_IT_number 14
_symmetry_cell_setting 'monoclinic'
loop_
_space_group_symop_operation_xyz
x,y,z
-x,1/2+y,1/2-z
-x,-y,-z
x,1/2-y,1/2+z
loop_
_atom_site_type_symbol
_atom_site_label
_atom_site_fract_x
_atom_site_fract_y
_atom_site_fract_z
Si Si1 0.642958 0.029156 0.648118
Si Si2 0.882319 0.293386 0.059704
Si Si3 0.034400 0.622427 0.135923
Si Si4 0.437001 0.754911 0.997188
Si Si5 0.612230 0.182529 0.316487
Si Si6 0.826661 0.950107 0.223335
O O1 0.777414 0.004367 0.584021
O O2 0.600966 0.243060 0.594375
O O3 0.649551 0.115044 0.744328
O O4 0.532516 0.848862 0.660821
O O5 0.998612 0.390749 0.088696
O O6 0.837873 0.087204 0.130433
O O7 0.910320 0.229783 0.955048
O O8 0.114298 0.581486 0.205271
O O9 0.909638 0.726116 0.196160
O O10 0.346898 0.743656 0.094616
O O11 0.500000 0.500000 0.000000
O O12 0.500000 0.000000 0.000000
O O13 0.684843 0.951039 0.272852
#
# Coordination Sequence:
#
# PCOD9245804 Si02
#       6
#     4   4   4   4   4   4
#     4  10  21  39  62  93 130 165 218 272 340 409
#     4  10  23  41  63  92 125 170 217 279 332 415
#     4  11  22  41  65  88 128 164 225 274 340 396
#     4  10  21  41  62  92 134 176 219 269 331 406
#     4  10  22  37  64  95 130 169 219 271 343 406
#     4  11  22  41  64  95 125 170 222 277 341 410
#
# _framework density 24.413240999999999
#
# number of rings (size 3 to 8) (size 9 to 14) (size 15 to 20)
#    0.000    1.667    1.667    2.500    2.333    0.000 
#    6.000    0.000    3.667    0.000    0.000    0.000 
#    0.000    0.000    0.000    0.000    0.000    0.000 
#
# Total GULP energy -133660.034870 kJ/mol
# GULP energy per Si atom -5569.168120 kJ/mol
# Density = 2.435768 g / cm^3
# Si number density = 24.413241 Si / 1000 Ang^3
#
#
#
# Elastic Constant Matrix: (Units=GPa)
#
#
# Indices 1 2 3 4 5 6 
#
# 1 74.0652 27.1335 2.9042 0.0000 -4.6599 0.0000
# 2 27.1335 60.0075 23.0443 0.0000 6.7893 0.0000
# 3 2.9042 23.0443 136.8151 0.0000 6.9386 0.0000
# 4 0.0000 0.0000 0.0000 14.7380 0.0000 4.3514
# 5 -4.6599 6.7893 6.9386 0.0000 39.6376 0.0000
# 6 0.0000 0.0000 0.0000 4.3514 0.0000 32.8791
#
#
#
# Elastic Compliance Matrix: (Units=1/GPa)
#
#
# Indices 1 2 3 4 5 6 
#
# 1 0.016691 -0.008246 0.000871 0.000000 0.003222 0.000000
# 2 -0.008246 0.022150 -0.003344 0.000000 -0.004178 0.000000
# 3 0.000871 -0.003344 0.007890 0.000000 -0.000706 0.000000
# 4 0.000000 0.000000 0.000000 0.070611 0.000000 -0.009345
# 5 0.003222 -0.004178 -0.000706 0.000000 0.026447 0.000000
# 6 0.000000 0.000000 0.000000 -0.009345 0.000000 0.031651
#
#
# Mechanical properties :
#
#
# Convention : Reuss Voigt Hill
#
# Bulk Modulus (GPa) = 39.53664 41.89464 40.71564
# Shear Modulus (GPa) = 24.35350 31.97131 28.16241
#
# Velocity S-wave (km/s) = 3.16183 3.62275 3.40011
# Velocity P-wave (km/s) = 5.43686 5.89041 5.66818
#
# Compressibility (1/GPa) = 0.02529300
#
# Stress axis : x y z
#
# Youngs Moduli (GPa) = 59.91175 45.14631 126.74806
#
# Poissons Ratio (x) = 0.37229 -0.11043
# Poissons Ratio (y) = 0.49406 0.42383
# Poissons Ratio (z) = -0.05220 0.15096
#
# Static dielectric constant tensor:
#      x y z
#    x 2.058150 0.000000 -0.040530 
#    y 0.000000 1.845600 0.000000 
#    z -0.040530 0.000000 1.979970 
# 
# From -- ./inp_files/56545.got.cif
#   From: 2010.05.17/outbox.cif.g08.bks.cpg/sg14_29_cif.got.tgz:56545.got - 2010.06.03 17:49:19.
