data_PCOD9245685
_publ_section_title
;
Structure prediction by ZEFSAII (Michael W. Deem and Ramdas Pophale) SiO2 
 PCOD9245685
Probable space group: P 21/C
;
_chemical_formula_sum "Si O2"
_cell_formula_units_Z 28
_cell_length_a 9.192743
_cell_length_b 14.086844
_cell_length_c 17.890487
_cell_angle_alpha 90.000000
_cell_angle_beta 150.665278
_cell_angle_gamma 90.000000
_cell_volume 1135.005699
_symmetry_space_group_name_H-M "P 21/C"
_symmetry_group_IT_number 14
_symmetry_cell_setting 'monoclinic'
loop_
_space_group_symop_operation_xyz
x,y,z
-x,1/2+y,1/2-z
-x,-y,-z
x,1/2-y,1/2+z
loop_
_atom_site_type_symbol
_atom_site_label
_atom_site_fract_x
_atom_site_fract_y
_atom_site_fract_z
Si Si1 0.214092 0.697712 0.043351
Si Si2 0.671043 0.785552 0.044191
Si Si3 0.345163 0.055151 0.569585
Si Si4 0.301941 0.102020 0.342095
Si Si5 0.752743 0.528154 0.807708
Si Si6 0.283347 0.741012 0.744099
Si Si7 0.682698 0.110817 0.995144
O O1 0.514968 0.657620 0.140991
O O2 0.242725 0.715238 0.144479
O O3 0.186807 0.800724 0.993371
O O4 0.939973 0.628341 0.897569
O O5 0.666095 0.676842 0.074990
O O6 0.591389 0.852248 0.077521
O O7 0.980062 0.800102 0.141559
O O8 0.418622 0.804484 0.870153
O O9 0.341861 0.004590 0.650063
O O10 0.475039 0.156586 0.648430
O O11 0.537798 0.999562 0.595238
O O12 0.002982 0.045130 0.392475
O O13 0.959742 0.082108 0.169859
O O14 0.465498 0.537776 0.628153
#
# Coordination Sequence:
#
# PCOD9245685 Si02
#       7
#     4   4   4   4   4   4   4
#     4  10  21  38  70  94 124 170 222 273 305 382
#     4  11  25  42  65  95 131 173 216 265 321 398
#     4  10  23  41  65  98 129 170 213 271 329 384
#     4  10  23  43  65  94 128 175 218 256 331 389
#     4  10  21  41  67 100 129 166 220 264 331 379
#     4  12  24  42  66 100 130 164 223 273 328 367
#     4  11  21  41  67  93 123 177 219 261 307 398
#
# _framework density 24.669481000000001
#
# number of rings (size 3 to 8) (size 9 to 14) (size 15 to 20)
#    0.000    1.429    2.857    2.571    6.000    1.143 
#    0.000    3.571    0.000    0.000    0.000    0.000 
#    0.000    0.000    0.000    0.000    0.000    0.000 
#
# Total GULP energy -156601.079846 kJ/mol
# GULP energy per Si atom -5592.895709 kJ/mol
# Density = 2.461333 g / cm^3
# Si number density = 24.669481 Si / 1000 Ang^3
#
#
#
# Elastic Constant Matrix: (Units=GPa)
#
#
# Indices 1 2 3 4 5 6 
#
# 1 110.4740 16.8038 39.6360 0.0000 -5.7826 0.0000
# 2 16.8038 68.2956 4.9406 0.0000 5.9072 0.0000
# 3 39.6360 4.9406 104.7520 0.0000 3.2073 0.0000
# 4 0.0000 0.0000 0.0000 28.8115 0.0000 5.4791
# 5 -5.7826 5.9072 3.2073 0.0000 31.2655 0.0000
# 6 0.0000 0.0000 0.0000 5.4791 0.0000 39.5861
#
#
#
# Elastic Compliance Matrix: (Units=1/GPa)
#
#
# Indices 1 2 3 4 5 6 
#
# 1 0.011114 -0.002692 -0.004170 0.000000 0.002992 0.000000
# 2 -0.002692 0.015577 0.000390 0.000000 -0.003481 0.000000
# 3 -0.004170 0.000390 0.011167 0.000000 -0.001991 0.000000
# 4 0.000000 0.000000 0.000000 0.035647 0.000000 -0.004934
# 5 0.002992 -0.003481 -0.001991 0.000000 0.033399 0.000000
# 6 0.000000 0.000000 0.000000 -0.004934 0.000000 0.025944
#
#
# Mechanical properties :
#
#
# Convention : Reuss Voigt Hill
#
# Bulk Modulus (GPa) = 40.13564 45.14249 42.63907
# Shear Modulus (GPa) = 32.44726 34.74203 33.59464
#
# Velocity S-wave (km/s) = 3.63061 3.75680 3.69425
# Velocity P-wave (km/s) = 5.82064 6.09563 5.95972
#
# Compressibility (1/GPa) = 0.02491551
#
# Stress axis : x y z
#
# Youngs Moduli (GPa) = 89.97627 64.19580 89.55181
#
# Poissons Ratio (x) = 0.17279 0.37343
# Poissons Ratio (y) = 0.24219 -0.03496
# Poissons Ratio (z) = 0.37520 -0.02506
#
# Static dielectric constant tensor:
#      x y z
#    x 1.956820 0.000000 0.030660 
#    y 0.000000 2.070260 0.000000 
#    z 0.030660 0.000000 1.952620 
# 
# From -- ./inp_files/56160.got.cif
#   From: 2010.05.17/outbox.cif.g08.bks.cpg/sg14_29_cif.got.tgz:56160.got - 2010.06.03 17:49:19.
