data_PCOD9245676
_publ_section_title
;
Structure prediction by ZEFSAII (Michael W. Deem and Ramdas Pophale) SiO2 
 PCOD9245676
Probable space group: P 21/C
;
_chemical_formula_sum "Si O2"
_cell_formula_units_Z 24
_cell_length_a 19.163226
_cell_length_b 10.302393
_cell_length_c 11.779976
_cell_angle_alpha 90.000000
_cell_angle_beta 154.853300
_cell_angle_gamma 90.000000
_cell_volume 988.271061
_symmetry_space_group_name_H-M "P 21/C"
_symmetry_group_IT_number 14
_symmetry_cell_setting 'monoclinic'
loop_
_space_group_symop_operation_xyz
x,y,z
-x,1/2+y,1/2-z
-x,-y,-z
x,1/2-y,1/2+z
loop_
_atom_site_type_symbol
_atom_site_label
_atom_site_fract_x
_atom_site_fract_y
_atom_site_fract_z
Si Si1 0.763255 0.232052 0.623140
Si Si2 0.497934 0.394414 0.595654
Si Si3 0.936641 0.886278 0.823146
Si Si4 0.129721 0.941875 0.901005
Si Si5 0.427006 0.827640 0.460139
Si Si6 0.265314 0.354095 0.451381
O O1 0.665162 0.110197 0.420012
O O2 0.922673 0.214577 0.933895
O O3 0.827586 0.322579 0.618274
O O4 0.632255 0.271433 0.526861
O O5 0.500000 0.500000 0.500000
O O6 0.511894 0.253865 0.556405
O O7 0.332604 0.395248 0.427669
O O8 0.968133 0.928289 0.740053
O O9 0.774814 0.799447 0.603005
O O10 0.000000 0.000000 0.000000
O O11 0.280502 0.926331 0.213821
O O12 0.126766 0.064244 0.813007
O O13 0.581288 0.893935 0.743811
#
# Coordination Sequence:
#
# PCOD9245676 Si02
#       6
#     4   4   4   4   4   4
#     4   9  21  43  61  94 133 172 216 280 345 401
#     4  10  21  38  69 100 129 168 227 290 336 405
#     4  11  27  42  61  94 141 180 221 275 341 420
#     4  10  22  43  68  89 132 176 222 288 337 404
#     4   9  20  40  66  97 130 163 221 283 344 396
#     4  11  24  40  68 101 127 182 230 273 349 415
#
# _framework density 24.284835000000001
#
# number of rings (size 3 to 8) (size 9 to 14) (size 15 to 20)
#    0.000    2.000    0.000    1.500    7.000    0.667 
#    6.000    0.000    0.000    0.000    0.000    0.000 
#    0.000    0.000    0.000    0.000    0.000    0.000 
#
# Total GULP energy -133650.227928 kJ/mol
# GULP energy per Si atom -5568.759497 kJ/mol
# Density = 2.422956 g / cm^3
# Si number density = 24.284835 Si / 1000 Ang^3
#
#
#
# Elastic Constant Matrix: (Units=GPa)
#
#
# Indices 1 2 3 4 5 6 
#
# 1 169.7147 48.4754 8.4650 0.0000 10.6123 0.0000
# 2 48.4754 82.1134 -0.7754 0.0000 13.6157 0.0000
# 3 8.4650 -0.7754 43.0282 0.0000 1.9463 0.0000
# 4 0.0000 0.0000 0.0000 19.7744 0.0000 -7.8136
# 5 10.6123 13.6157 1.9463 0.0000 13.9305 0.0000
# 6 0.0000 0.0000 0.0000 -7.8136 0.0000 43.6760
#
#
#
# Elastic Compliance Matrix: (Units=1/GPa)
#
#
# Indices 1 2 3 4 5 6 
#
# 1 0.007202 -0.004044 -0.001429 0.000000 -0.001334 0.000000
# 2 -0.004044 0.016840 0.001715 0.000000 -0.013618 0.000000
# 3 -0.001429 0.001715 0.023729 0.000000 -0.003903 0.000000
# 4 0.000000 0.000000 0.000000 0.054417 0.000000 0.009735
# 5 -0.001334 -0.013618 -0.003903 0.000000 0.086657 0.000000
# 6 0.000000 0.000000 0.000000 0.009735 0.000000 0.024637
#
#
# Mechanical properties :
#
#
# Convention : Reuss Voigt Hill
#
# Bulk Modulus (GPa) = 24.84187 45.24291 35.04239
# Shear Modulus (GPa) = 21.32942 31.38893 26.35918
#
# Velocity S-wave (km/s) = 2.96683 3.59908 3.29814
# Velocity P-wave (km/s) = 4.68910 5.99514 5.38189
#
# Compressibility (1/GPa) = 0.04025462
#
# Stress axis : x y z
#
# Youngs Moduli (GPa) = 138.84956 59.38257 42.14211
#
# Poissons Ratio (x) = 0.24014 0.06024
# Poissons Ratio (y) = 0.56150 -0.07228
# Poissons Ratio (z) = 0.19847 -0.10184
#
# Static dielectric constant tensor:
#      x y z
#    x 2.311680 0.000000 0.156610 
#    y 0.000000 2.054290 0.000000 
#    z 0.156610 0.000000 2.103140 
# 
# From -- ./inp_files/28533.got.cif
#   From: 2010.05.17/outbox.cif.g08.bks.cpg/sg14_15_cif.got.tgz:28533.got - 2010.06.03 17:49:19.
