data_PCOD9245981
_publ_section_title
;
Structure prediction by ZEFSAII (Michael W. Deem and Ramdas Pophale) SiO2 
 PCOD9245981
Probable space group: P 21/C
;
_chemical_formula_sum "Si O2"
_cell_formula_units_Z 24
_cell_length_a 17.653059
_cell_length_b 9.279573
_cell_length_c 22.195821
_cell_angle_alpha 90.000000
_cell_angle_beta 162.641778
_cell_angle_gamma 90.000000
_cell_volume 1084.770384
_symmetry_space_group_name_H-M "P 21/C"
_symmetry_group_IT_number 14
_symmetry_cell_setting 'monoclinic'
loop_
_space_group_symop_operation_xyz
x,y,z
-x,1/2+y,1/2-z
-x,-y,-z
x,1/2-y,1/2+z
loop_
_atom_site_type_symbol
_atom_site_label
_atom_site_fract_x
_atom_site_fract_y
_atom_site_fract_z
Si Si1 0.942754 0.197442 0.283651
Si Si2 0.483776 0.074829 0.422927
Si Si3 0.342965 0.288579 0.987478
Si Si4 0.151825 0.465863 0.052992
Si Si5 0.126655 0.214292 0.697945
Si Si6 0.489854 0.517269 0.581240
O O1 0.721653 0.315306 0.105957
O O2 0.180789 0.237110 0.423670
O O3 0.036481 0.154535 0.421537
O O4 0.803074 0.054375 0.151928
O O5 0.217101 0.161322 0.220076
O O6 0.500000 0.000000 0.500000
O O7 0.523634 0.943582 0.407795
O O8 0.162174 0.279991 0.790970
O O9 0.525592 0.153999 0.112871
O O10 0.420980 0.424410 0.285795
O O11 0.000000 0.500000 0.000000
O O12 0.127584 0.621498 0.001916
O O13 0.344429 0.094243 0.845382
#
# Coordination Sequence:
#
# PCOD9245981 Si02
#       6
#     4   4   4   4   4   4
#     4  11  22  40  62  87 126 167 207 259 311 367
#     4   9  21  33  61  90 121 158 200 253 315 361
#     4  11  20  37  64  93 123 162 200 263 322 363
#     4  10  22  37  65  89 111 163 219 246 293 382
#     4   9  19  38  61  86 118 161 210 245 300 381
#     4  10  21  39  67  87 120 166 214 248 301 385
#
# _framework density 22.124497000000002
#
# number of rings (size 3 to 8) (size 9 to 14) (size 15 to 20)
#    0.000    2.000    1.667    1.500   11.667    0.000 
#    3.000    2.500   11.000    0.000    0.000    0.000 
#    0.000    0.000    0.000    0.000    0.000    0.000 
#
# Total GULP energy -133608.438945 kJ/mol
# GULP energy per Si atom -5567.018289 kJ/mol
# Density = 2.207414 g / cm^3
# Si number density = 22.124497 Si / 1000 Ang^3
#
#
#
# Elastic Constant Matrix: (Units=GPa)
#
#
# Indices 1 2 3 4 5 6 
#
# 1 84.5017 18.7164 18.9677 0.0000 3.0680 0.0000
# 2 18.7164 97.2688 -3.8191 0.0000 7.2085 0.0000
# 3 18.9677 -3.8191 42.8985 0.0000 -16.4781 0.0000
# 4 0.0000 0.0000 0.0000 19.3861 0.0000 -2.2618
# 5 3.0680 7.2085 -16.4781 0.0000 32.7484 0.0000
# 6 0.0000 0.0000 0.0000 -2.2618 0.0000 28.0339
#
#
#
# Elastic Compliance Matrix: (Units=1/GPa)
#
#
# Indices 1 2 3 4 5 6 
#
# 1 0.014575 -0.002765 -0.008654 0.000000 -0.005111 0.000000
# 2 -0.002765 0.010976 0.001700 0.000000 -0.001302 0.000000
# 3 -0.008654 0.001700 0.034034 0.000000 0.017562 0.000000
# 4 0.000000 0.000000 0.000000 0.052074 0.000000 0.004201
# 5 -0.005111 -0.001302 0.017562 0.000000 0.040138 0.000000
# 6 0.000000 0.000000 0.000000 0.004201 0.000000 0.036010
#
#
# Mechanical properties :
#
#
# Convention : Reuss Voigt Hill
#
# Bulk Modulus (GPa) = 24.90871 32.48878 28.69874
# Shear Modulus (GPa) = 22.66274 28.75394 25.70834
#
# Velocity S-wave (km/s) = 3.20398 3.60897 3.41249
# Velocity P-wave (km/s) = 4.99702 5.66415 5.34101
#
# Compressibility (1/GPa) = 0.04014661
#
# Stress axis : x y z
#
# Youngs Moduli (GPa) = 68.61253 91.10690 29.38232
#
# Poissons Ratio (x) = 0.25195 0.25426
# Poissons Ratio (y) = 0.18974 -0.04995
# Poissons Ratio (z) = 0.59374 -0.15488
#
# Static dielectric constant tensor:
#      x y z
#    x 1.848650 0.000000 -0.043580 
#    y 0.000000 2.414300 0.000000 
#    z -0.043580 0.000000 1.979480 
# 
# From -- ./inp_files/74281.got.cif
#   From: 2010.05.17/outbox.cif.g08.bks.cpg/sg14_38_cif.got.tgz:74281.got - 2010.06.03 17:49:19.
