data_PCOD9245834
_publ_section_title
;
Structure prediction by ZEFSAII (Michael W. Deem and Ramdas Pophale) SiO2 
 PCOD9245834
Probable space group: P 21/C
;
_chemical_formula_sum "Si O2"
_cell_formula_units_Z 32
_cell_length_a 11.726164
_cell_length_b 9.305573
_cell_length_c 18.243695
_cell_angle_alpha 90.000000
_cell_angle_beta 124.408457
_cell_angle_gamma 90.000000
_cell_volume 1642.410376
_symmetry_space_group_name_H-M "P 21/C"
_symmetry_group_IT_number 14
_symmetry_cell_setting 'monoclinic'
loop_
_space_group_symop_operation_xyz
x,y,z
-x,1/2+y,1/2-z
-x,-y,-z
x,1/2-y,1/2+z
loop_
_atom_site_type_symbol
_atom_site_label
_atom_site_fract_x
_atom_site_fract_y
_atom_site_fract_z
Si Si1 0.536237 0.146706 0.214066
Si Si2 0.842285 0.247315 0.593307
Si Si3 0.813374 0.418199 0.728736
Si Si4 0.338563 0.164698 0.900764
Si Si5 0.658384 0.969221 0.537282
Si Si6 0.361191 0.424721 0.141663
Si Si7 0.066651 0.061820 0.598167
Si Si8 0.621840 0.450498 0.447737
O O1 0.666516 0.144303 0.205000
O O2 0.473933 0.303429 0.198058
O O3 0.589240 0.077151 0.308364
O O4 0.418666 0.040015 0.138796
O O5 0.867009 0.333019 0.677801
O O6 0.753493 0.348481 0.506148
O O7 0.974344 0.186064 0.599580
O O8 0.750094 0.109534 0.582281
O O9 0.773097 0.578033 0.686725
O O10 0.915572 0.437341 0.833948
O O11 0.299687 0.327316 0.903001
O O12 0.487645 0.147479 0.916331
O O13 0.360179 0.073311 0.983339
O O14 0.666152 0.933177 0.454129
O O15 0.500000 0.000000 0.500000
O O16 0.220497 0.388796 0.133175
O O17 0.000000 0.000000 0.500000
#
# Coordination Sequence:
#
# PCOD9245834 Si02
#       8
#     4   4   4   4   4   4   4   4
#     4  10  21  39  63  90 124 159 206 267 327 368
#     4  11  22  38  64  92 122 168 217 254 307 390
#     4   9  22  42  66  90 120 168 215 258 318 380
#     4   9  17  33  58  90 121 153 197 268 319 349
#     4  12  21  33  61  97 123 154 220 269 305 364
#     4  11  24  39  61  90 127 168 206 259 326 379
#     4  11  24  44  62  89 135 178 200 249 334 392
#     4   9  17  34  59  85 122 158 198 255 320 369
#
# _framework density 19.483560000000001
#
# number of rings (size 3 to 8) (size 9 to 14) (size 15 to 20)
#    0.000    1.750    3.750    1.500    1.750    2.000 
#    0.000    1.875    0.000    0.000    0.000    0.000 
#    0.000    0.000    0.000    0.000    0.000    0.000 
#
# Total GULP energy -178689.256726 kJ/mol
# GULP energy per Si atom -5584.039273 kJ/mol
# Density = 1.943921 g / cm^3
# Si number density = 19.483560 Si / 1000 Ang^3
#
#
#
# Elastic Constant Matrix: (Units=GPa)
#
#
# Indices 1 2 3 4 5 6 
#
# 1 72.2628 21.4071 18.8597 0.0000 -11.5416 0.0000
# 2 21.4071 60.9899 18.2074 0.0000 -6.5341 0.0000
# 3 18.8597 18.2074 86.2557 0.0000 -6.3017 0.0000
# 4 0.0000 0.0000 0.0000 20.9084 0.0000 -3.5846
# 5 -11.5416 -6.5341 -6.3017 0.0000 18.4017 0.0000
# 6 0.0000 0.0000 0.0000 -3.5846 0.0000 35.9789
#
#
#
# Elastic Compliance Matrix: (Units=1/GPa)
#
#
# Indices 1 2 3 4 5 6 
#
# 1 0.017061 -0.004440 -0.002181 0.000000 0.008377 0.000000
# 2 -0.004440 0.019129 -0.002846 0.000000 0.003033 0.000000
# 3 -0.002181 -0.002846 0.012818 0.000000 0.002011 0.000000
# 4 0.000000 0.000000 0.000000 0.048659 0.000000 0.004848
# 5 0.008377 0.003033 0.002011 0.000000 0.061363 0.000000
# 6 0.000000 0.000000 0.000000 0.004848 0.000000 0.028277
#
#
# Mechanical properties :
#
#
# Convention : Reuss Voigt Hill
#
# Bulk Modulus (GPa) = 33.25016 37.38409 35.31712
# Shear Modulus (GPa) = 23.11991 25.79341 24.45666
#
# Velocity S-wave (km/s) = 3.44850 3.64243 3.54679
# Velocity P-wave (km/s) = 5.74099 6.07609 5.91092
#
# Compressibility (1/GPa) = 0.03007504
#
# Stress axis : x y z
#
# Youngs Moduli (GPa) = 58.61387 52.27693 78.01578
#
# Poissons Ratio (x) = 0.23209 0.17017
# Poissons Ratio (y) = 0.26022 0.22199
# Poissons Ratio (z) = 0.12785 0.14875
#
# Static dielectric constant tensor:
#      x y z
#    x 1.676260 0.000000 -0.000070 
#    y 0.000000 1.663740 0.000000 
#    z -0.000070 0.000000 1.709910 
# 
# From -- ./inp_files/57303.got.cif
#   From: 2010.05.17/outbox.cif.g08.bks.cpg/sg14_29_cif.got.tgz:57303.got - 2010.06.03 17:49:19.
