data_PCOD9245543
_publ_section_title
;
Structure prediction by ZEFSAII (Michael W. Deem and Ramdas Pophale) SiO2 
 PCOD9245543
Probable space group: P 21/C
;
_chemical_formula_sum "Si O2"
_cell_formula_units_Z 16
_cell_length_a 5.465881
_cell_length_b 4.893444
_cell_length_c 22.035469
_cell_angle_alpha 90.000000
_cell_angle_beta 96.859722
_cell_angle_gamma 90.000000
_cell_volume 585.163242
_symmetry_space_group_name_H-M "P 21/C"
_symmetry_group_IT_number 14
_symmetry_cell_setting 'monoclinic'
loop_
_space_group_symop_operation_xyz
x,y,z
-x,1/2+y,1/2-z
-x,-y,-z
x,1/2-y,1/2+z
loop_
_atom_site_type_symbol
_atom_site_label
_atom_site_fract_x
_atom_site_fract_y
_atom_site_fract_z
Si Si1 0.489539 0.839393 0.847105
Si Si2 0.728730 0.173961 0.954168
Si Si3 0.783655 0.673480 0.575452
Si Si4 0.178371 0.521517 0.756179
O O1 0.668992 0.910255 0.909001
O O2 0.253763 0.016892 0.862940
O O3 0.360522 0.565405 0.819245
O O4 0.645003 0.941870 0.794153
O O5 0.470762 0.332790 0.942994
O O6 0.961152 0.319408 0.930513
O O7 0.777260 0.060938 0.022446
O O8 0.038926 0.806014 0.740152
#
# Coordination Sequence:
#
# PCOD9245543 Si02
#       4
#     4   4   4   4
#     4  10  21  38  62  96 137 178 232 282 346 414
#     4   8  15  30  57  91 127 171 223 280 342 408
#     4   8  15  30  57  91 127 171 223 280 342 408
#     4  12  26  44  68 100 142 188 236 288 350 416
#
# _framework density 27.342797000000001
#
# number of rings (size 3 to 8) (size 9 to 14) (size 15 to 20)
#    1.500    1.000    0.000    3.000    0.000    0.000 
#    0.000    0.000    0.000    6.000    0.000   56.000 
#    0.000    0.000    0.000    0.000    0.000    0.000 
#
# Total GULP energy -89339.739215 kJ/mol
# GULP energy per Si atom -5583.733701 kJ/mol
# Density = 2.728056 g / cm^3
# Si number density = 27.342797 Si / 1000 Ang^3
#
#
#
# Elastic Constant Matrix: (Units=GPa)
#
#
# Indices 1 2 3 4 5 6 
#
# 1 220.7104 22.9401 20.3984 0.0000 -37.0077 0.0000
# 2 22.9401 78.9043 24.2146 0.0000 3.6689 0.0000
# 3 20.3984 24.2146 113.3277 0.0000 3.5748 0.0000
# 4 0.0000 0.0000 0.0000 20.4811 0.0000 12.4717
# 5 -37.0077 3.6689 3.5748 0.0000 49.6789 0.0000
# 6 0.0000 0.0000 0.0000 12.4717 0.0000 34.5563
#
#
#
# Elastic Compliance Matrix: (Units=1/GPa)
#
#
# Indices 1 2 3 4 5 6 
#
# 1 0.005478 -0.001548 -0.000789 0.000000 0.004252 0.000000
# 2 -0.001548 0.014032 -0.002656 0.000000 -0.001998 0.000000
# 3 -0.000789 -0.002656 0.009568 0.000000 -0.001080 0.000000
# 4 0.000000 0.000000 0.000000 0.062578 0.000000 -0.022585
# 5 0.004252 -0.001998 -0.001080 0.000000 0.023522 0.000000
# 6 0.000000 0.000000 0.000000 -0.022585 0.000000 0.037089
#
#
# Mechanical properties :
#
#
# Convention : Reuss Voigt Hill
#
# Bulk Modulus (GPa) = 52.38471 60.89430 56.63950
# Shear Modulus (GPa) = 29.65295 43.96923 36.81109
#
# Velocity S-wave (km/s) = 3.29673 4.01443 3.67315
# Velocity P-wave (km/s) = 5.80442 6.61865 6.22487
#
# Compressibility (1/GPa) = 0.01908954
#
# Stress axis : x y z
#
# Youngs Moduli (GPa) = 182.56354 71.26682 104.51812
#
# Poissons Ratio (x) = 0.11032 0.08249
# Poissons Ratio (y) = 0.28260 0.27765
# Poissons Ratio (z) = 0.14410 0.18932
#
# Static dielectric constant tensor:
#      x y z
#    x 2.247560 0.000000 0.071560 
#    y 0.000000 2.045380 0.000000 
#    z 0.071560 0.000000 2.112220 
# 
# From -- ./inp_files/70833.got.cif
#   From: 2010.05.17/outbox.cif.g08.bks.cpg/sg14_36_cif.got.tgz:70833.got - 2010.06.03 17:49:19.
