data_PCOD9245683
_publ_section_title
;
Structure prediction by ZEFSAII (Michael W. Deem and Ramdas Pophale) SiO2 
 PCOD9245683
Probable space group: P 21/C
;
_chemical_formula_sum "Si O2"
_cell_formula_units_Z 28
_cell_length_a 8.570218
_cell_length_b 10.333027
_cell_length_c 15.004512
_cell_angle_alpha 90.000000
_cell_angle_beta 121.375457
_cell_angle_gamma 90.000000
_cell_volume 1134.446922
_symmetry_space_group_name_H-M "P 21/C"
_symmetry_group_IT_number 14
_symmetry_cell_setting 'monoclinic'
loop_
_space_group_symop_operation_xyz
x,y,z
-x,1/2+y,1/2-z
-x,-y,-z
x,1/2-y,1/2+z
loop_
_atom_site_type_symbol
_atom_site_label
_atom_site_fract_x
_atom_site_fract_y
_atom_site_fract_z
Si Si1 0.415653 0.784318 0.897770
Si Si2 0.035699 0.264950 0.485981
Si Si3 0.373998 0.741057 0.087244
Si Si4 0.006970 0.689098 0.733119
Si Si5 0.701845 0.557496 0.976119
Si Si6 0.183146 0.439773 0.789779
Si Si7 0.378907 0.131471 0.192819
O O1 0.210254 0.740816 0.815410
O O2 0.550310 0.666032 0.912711
O O3 0.482130 0.894468 0.847944
O O4 0.436361 0.800924 0.010839
O O5 0.829843 0.291628 0.454470
O O6 0.043410 0.300924 0.384838
O O7 0.111394 0.117487 0.508335
O O8 0.187225 0.337979 0.587749
O O9 0.337021 0.587034 0.064366
O O10 0.515215 0.737258 0.212163
O O11 0.014635 0.536997 0.754501
O O12 0.879006 0.791987 0.743606
O O13 0.713869 0.554194 0.086686
O O14 0.310383 0.474617 0.744209
#
# Coordination Sequence:
#
# PCOD9245683 Si02
#       7
#     4   4   4   4   4   4   4
#     4  11  21  40  65 104 136 179 239 292 352 417
#     4  10  24  41  65 102 143 182 232 288 368 425
#     4  12  20  40  70  98 137 184 238 297 344 412
#     4  11  23  44  73 102 144 191 235 293 362 425
#     4  10  21  38  70 104 130 180 251 297 335 419
#     4  11  23  44  70 104 143 186 239 298 353 422
#     4  11  24  40  64 104 142 184 230 298 355 424
#
# _framework density 24.681629999999998
#
# number of rings (size 3 to 8) (size 9 to 14) (size 15 to 20)
#    0.000    1.143    4.286    2.571    0.000    0.571 
#    2.571    0.000    0.000    8.571    0.000    0.000 
#    0.000    0.000    0.000    0.000    0.000    0.000 
#
# Total GULP energy -156336.809696 kJ/mol
# GULP energy per Si atom -5583.457489 kJ/mol
# Density = 2.462545 g / cm^3
# Si number density = 24.681630 Si / 1000 Ang^3
#
#
#
# Elastic Constant Matrix: (Units=GPa)
#
#
# Indices 1 2 3 4 5 6 
#
# 1 97.5299 7.5018 24.9485 0.0000 7.1296 0.0000
# 2 7.5018 37.0072 -0.0349 0.0000 -6.0112 0.0000
# 3 24.9485 -0.0349 131.6858 0.0000 19.5240 0.0000
# 4 0.0000 0.0000 0.0000 20.7735 0.0000 5.5907
# 5 7.1296 -6.0112 19.5240 0.0000 38.1231 0.0000
# 6 0.0000 0.0000 0.0000 5.5907 0.0000 18.3339
#
#
#
# Elastic Compliance Matrix: (Units=1/GPa)
#
#
# Indices 1 2 3 4 5 6 
#
# 1 0.011032 -0.002481 -0.001869 0.000000 -0.001497 0.000000
# 2 -0.002481 0.028349 -0.000275 0.000000 0.005075 0.000000
# 3 -0.001869 -0.000275 0.008552 0.000000 -0.004073 0.000000
# 4 0.000000 0.000000 0.000000 0.052442 0.000000 -0.015992
# 5 -0.001497 0.005075 -0.004073 0.000000 0.029397 0.000000
# 6 0.000000 0.000000 0.000000 -0.015992 0.000000 0.059420
#
#
# Mechanical properties :
#
#
# Convention : Reuss Voigt Hill
#
# Bulk Modulus (GPa) = 25.85131 36.78377 31.31754
# Shear Modulus (GPa) = 23.65912 31.03327 27.34620
#
# Velocity S-wave (km/s) = 3.09944 3.54975 3.33221
# Velocity P-wave (km/s) = 4.82756 5.63353 5.24604
#
# Compressibility (1/GPa) = 0.03868275
#
# Stress axis : x y z
#
# Youngs Moduli (GPa) = 90.64890 35.27490 116.93547
#
# Poissons Ratio (x) = 0.08752 0.21851
# Poissons Ratio (y) = 0.22492 0.03214
# Poissons Ratio (z) = 0.16939 0.00969
#
# Static dielectric constant tensor:
#      x y z
#    x 2.018470 0.000000 0.001650 
#    y 0.000000 2.053170 0.000000 
#    z 0.001650 0.000000 1.937360 
# 
# From -- ./inp_files/40395.got.cif
#   From: 2010.05.17/outbox.cif.g08.bks.cpg/sg14_21_cif.got.tgz:40395.got - 2010.06.03 17:49:19.
