data_PCOD9245994
_publ_section_title
;
Structure prediction by ZEFSAII (Michael W. Deem and Ramdas Pophale) SiO2 
 PCOD9245994
Probable space group: P 21/C
;
_chemical_formula_sum "Si O2"
_cell_formula_units_Z 28
_cell_length_a 18.935550
_cell_length_b 5.270146
_cell_length_c 13.435777
_cell_angle_alpha 90.000000
_cell_angle_beta 59.640299
_cell_angle_gamma 90.000000
_cell_volume 1156.933544
_symmetry_space_group_name_H-M "P 21/C"
_symmetry_group_IT_number 14
_symmetry_cell_setting 'monoclinic'
loop_
_space_group_symop_operation_xyz
x,y,z
-x,1/2+y,1/2-z
-x,-y,-z
x,1/2-y,1/2+z
loop_
_atom_site_type_symbol
_atom_site_label
_atom_site_fract_x
_atom_site_fract_y
_atom_site_fract_z
Si Si1 0.106572 0.495867 0.985801
Si Si2 0.750540 0.369235 0.967289
Si Si3 0.116757 0.859867 0.252713
Si Si4 0.600995 0.436500 0.660861
Si Si5 0.473586 0.302034 0.119429
Si Si6 0.623058 0.670823 0.979127
Si Si7 0.979756 0.498002 0.369271
O O1 0.186570 0.514697 0.998534
O O2 0.062330 0.233332 0.043379
O O3 0.050667 0.739000 0.057484
O O4 0.124831 0.522196 0.855764
O O5 0.799865 0.162666 0.868453
O O6 0.712665 0.556659 0.911411
O O7 0.673401 0.256257 0.082778
O O8 0.074800 0.579777 0.296664
O O9 0.055264 0.994166 0.218476
O O10 0.587303 0.498051 0.785029
O O11 0.511994 0.365845 0.679432
O O12 0.623122 0.685078 0.582671
O O13 0.417653 0.159767 0.078414
O O14 0.555828 0.445372 0.025277
#
# Coordination Sequence:
#
# PCOD9245994 Si02
#       7
#     4   4   4   4   4   4   4
#     4  11  26  47  74 106 144 189 242 289 354 424
#     4  10  26  41  61 102 138 170 231 281 354 427
#     4  11  24  48  73 103 146 189 228 305 355 413
#     4  11  21  42  61  96 125 172 223 282 335 420
#     4  10  21  39  68  86 123 168 223 272 338 399
#     4  10  22  41  63  92 126 169 220 277 335 418
#     4  11  25  46  75 107 138 189 252 285 340 435
#
# _framework density 24.201906999999999
#
# number of rings (size 3 to 8) (size 9 to 14) (size 15 to 20)
#    0.000    1.429    1.429    3.000    6.000    3.429 
#    2.571    0.000    0.000    0.000    0.000    0.000 
#    0.000    0.000    0.000    0.000    0.000    0.000 
#
# Total GULP energy -156465.540717 kJ/mol
# GULP energy per Si atom -5588.055026 kJ/mol
# Density = 2.414682 g / cm^3
# Si number density = 24.201907 Si / 1000 Ang^3
#
#
#
# Elastic Constant Matrix: (Units=GPa)
#
#
# Indices 1 2 3 4 5 6 
#
# 1 126.2222 10.4816 27.3764 0.0000 1.2372 0.0000
# 2 10.4816 71.4255 -0.9534 0.0000 -6.7677 0.0000
# 3 27.3764 -0.9534 89.0986 0.0000 5.4292 0.0000
# 4 0.0000 0.0000 0.0000 19.7622 0.0000 -0.4065
# 5 1.2372 -6.7677 5.4292 0.0000 40.3296 0.0000
# 6 0.0000 0.0000 0.0000 -0.4065 0.0000 27.5079
#
#
#
# Elastic Compliance Matrix: (Units=1/GPa)
#
#
# Indices 1 2 3 4 5 6 
#
# 1 0.008608 -0.001311 -0.002651 0.000000 -0.000127 0.000000
# 2 -0.001311 0.014426 0.000410 0.000000 0.002406 0.000000
# 3 -0.002651 0.000410 0.012133 0.000000 -0.001483 0.000000
# 4 0.000000 0.000000 0.000000 0.050617 0.000000 0.000748
# 5 -0.000127 0.002406 -0.001483 0.000000 0.025403 0.000000
# 6 0.000000 0.000000 0.000000 0.000748 0.000000 0.036364
#
#
# Mechanical properties :
#
#
# Convention : Reuss Voigt Hill
#
# Bulk Modulus (GPa) = 35.63222 40.06171 37.84696
# Shear Modulus (GPa) = 30.48625 34.17603 32.33114
#
# Velocity S-wave (km/s) = 3.55302 3.76190 3.65895
# Velocity P-wave (km/s) = 5.62022 5.95468 5.78986
#
# Compressibility (1/GPa) = 0.02806449
#
# Stress axis : x y z
#
# Youngs Moduli (GPa) = 116.17631 69.31752 82.42084
#
# Poissons Ratio (x) = 0.09085 0.21850
# Poissons Ratio (y) = 0.15226 -0.03383
# Poissons Ratio (z) = 0.30799 -0.02845
#
# Static dielectric constant tensor:
#      x y z
#    x 1.964080 0.000000 0.062840 
#    y 0.000000 2.036170 0.000000 
#    z 0.062840 0.000000 2.011740 
# 
# From -- ./inp_files/47910.got.cif
#   From: 2010.05.17/outbox.cif.g08.bks.cpg/sg14_24_cif.got.tgz:47910.got - 2010.06.03 17:49:19.
