data_PCOD9245004
_publ_section_title
;
Structure prediction by ZEFSAII (Michael W. Deem and Ramdas Pophale) SiO2 
 PCOD9245004
Probable space group: P 21/C
;
_chemical_formula_sum "Si O2"
_cell_formula_units_Z 28
_cell_length_a 22.064801
_cell_length_b 10.154503
_cell_length_c 4.960081
_cell_angle_alpha 90.000000
_cell_angle_beta 67.667653
_cell_angle_gamma 90.000000
_cell_volume 1027.985533
_symmetry_space_group_name_H-M "P 21/C"
_symmetry_group_IT_number 14
_symmetry_cell_setting 'monoclinic'
loop_
_space_group_symop_operation_xyz
x,y,z
-x,1/2+y,1/2-z
-x,-y,-z
x,1/2-y,1/2+z
loop_
_atom_site_type_symbol
_atom_site_label
_atom_site_fract_x
_atom_site_fract_y
_atom_site_fract_z
Si Si1 0.181840 0.567971 0.573008
Si Si2 0.538907 0.152227 0.169266
Si Si3 0.261441 0.158806 0.780313
Si Si4 0.900560 0.407154 0.753355
Si Si5 0.045633 0.172702 0.102788
Si Si6 0.326999 0.659315 0.407577
Si Si7 0.398428 0.153445 0.405195
O O1 0.200448 0.436794 0.371395
O O2 0.147800 0.655327 0.394195
O O3 0.254216 0.603883 0.560301
O O4 0.136778 0.554924 0.910079
O O5 0.538784 0.269355 0.390000
O O6 0.468365 0.080736 0.310454
O O7 0.607806 0.079549 0.106677
O O8 0.260291 0.219293 0.079173
O O9 0.329300 0.084982 0.585617
O O10 0.966550 0.331185 0.722517
O O11 0.929198 0.534059 0.545872
O O12 0.067051 0.287448 0.863213
O O13 0.331107 0.714722 0.099623
O O14 0.397551 0.274096 0.620179
#
# Coordination Sequence:
#
# PCOD9245004 Si02
#       7
#     4   4   4   4   4   4   4
#     4  12  24  39  59  88 124 154 188 232 280 340
#     4   8  14  27  48  72 101 141 189 240 287 328
#     4  10  21  36  55  81 114 154 196 237 287 342
#     4  11  26  42  62  94 121 148 190 232 275 336
#     4  11  24  45  70  92 118 151 188 231 278 330
#     4  10  21  36  55  81 114 154 196 237 287 342
#     4   8  14  27  48  72 101 141 189 240 287 328
#
# _framework density 27.237739999999999
#
# number of rings (size 3 to 8) (size 9 to 14) (size 15 to 20)
#    0.000    2.000    0.000    3.429    0.000    9.143 
#    0.000    0.714    0.000    0.000    0.000   22.000 
#    0.000    0.000    0.000    0.000    0.000    0.000 
#
# Total GULP energy -156790.762913 kJ/mol
# GULP energy per Si atom -5599.670104 kJ/mol
# Density = 2.717575 g / cm^3
# Si number density = 27.237740 Si / 1000 Ang^3
#
#
#
# Elastic Constant Matrix: (Units=GPa)
#
#
# Indices 1 2 3 4 5 6 
#
# 1 125.7772 18.0731 45.6879 0.0000 -10.9634 0.0000
# 2 18.0731 52.9337 16.5186 0.0000 -8.3224 0.0000
# 3 45.6879 16.5186 148.4196 0.0000 -2.0766 0.0000
# 4 0.0000 0.0000 0.0000 22.3235 0.0000 2.1062
# 5 -10.9634 -8.3224 -2.0766 0.0000 43.4378 0.0000
# 6 0.0000 0.0000 0.0000 2.1062 0.0000 41.8064
#
#
#
# Elastic Compliance Matrix: (Units=1/GPa)
#
#
# Indices 1 2 3 4 5 6 
#
# 1 0.009364 -0.002089 -0.002624 0.000000 0.001838 0.000000
# 2 -0.002089 0.020633 -0.001606 0.000000 0.003349 0.000000
# 3 -0.002624 -0.001606 0.007716 0.000000 -0.000601 0.000000
# 4 0.000000 0.000000 0.000000 0.045010 0.000000 -0.002268
# 5 0.001838 0.003349 -0.000601 0.000000 0.024098 0.000000
# 6 0.000000 0.000000 0.000000 -0.002268 0.000000 0.024034
#
#
# Mechanical properties :
#
#
# Convention : Reuss Voigt Hill
#
# Bulk Modulus (GPa) = 39.88386 54.18775 47.03580
# Shear Modulus (GPa) = 32.92672 37.97027 35.44850
#
# Velocity S-wave (km/s) = 3.48064 3.73772 3.61147
# Velocity P-wave (km/s) = 5.55228 6.21007 5.89037
#
# Compressibility (1/GPa) = 0.02507280
#
# Stress axis : x y z
#
# Youngs Moduli (GPa) = 106.78915 48.46670 129.60302
#
# Poissons Ratio (x) = 0.10126 0.34012
# Poissons Ratio (y) = 0.22312 0.20819
# Poissons Ratio (z) = 0.28025 0.07785
#
# Static dielectric constant tensor:
#      x y z
#    x 2.220050 0.000000 -0.054540 
#    y 0.000000 2.140490 0.000000 
#    z -0.054540 0.000000 2.025350 
# 
# From -- ./inp_files/4358.got.cif
#   From: 2010.05.17/outbox.cif.g08.bks.cpg/sg14_3_cif.got.tgz:4358.got - 2010.06.03 17:49:19.
