data_PCOD9245418
_publ_section_title
;
Structure prediction by ZEFSAII (Michael W. Deem and Ramdas Pophale) SiO2 
 PCOD9245418
Probable space group: P 21/C
;
_chemical_formula_sum "Si O2"
_cell_formula_units_Z 24
_cell_length_a 13.969836
_cell_length_b 7.834580
_cell_length_c 9.342739
_cell_angle_alpha 90.000000
_cell_angle_beta 79.002851
_cell_angle_gamma 90.000000
_cell_volume 1003.764935
_symmetry_space_group_name_H-M "P 21/C"
_symmetry_group_IT_number 14
_symmetry_cell_setting 'monoclinic'
loop_
_space_group_symop_operation_xyz
x,y,z
-x,1/2+y,1/2-z
-x,-y,-z
x,1/2-y,1/2+z
loop_
_atom_site_type_symbol
_atom_site_label
_atom_site_fract_x
_atom_site_fract_y
_atom_site_fract_z
Si Si1 0.282473 0.769525 0.968727
Si Si2 0.601311 0.412381 0.317734
Si Si3 0.725397 0.912713 0.361538
Si Si4 0.609359 0.766130 0.145807
Si Si5 0.053216 0.089025 0.696457
Si Si6 0.059400 0.731329 0.523514
O O1 0.336859 0.904868 0.054026
O O2 0.275296 0.601628 0.072582
O O3 0.171552 0.816264 0.959690
O O4 0.343891 0.704211 0.816260
O O5 0.593151 0.598080 0.249447
O O6 0.494672 0.335662 0.373762
O O7 0.665376 0.897109 0.232823
O O8 0.674136 0.797111 0.496012
O O9 0.836171 0.854079 0.307049
O O10 0.993841 0.095554 0.860481
O O11 0.999045 0.211572 0.599445
O O12 0.058301 0.904893 0.620005
#
# Coordination Sequence:
#
# PCOD9245418 Si02
#       6
#     4   4   4   4   4   4
#     4  10  22  39  58  83 116 151 188 232 281 334
#     4  11  23  39  60  85 114 149 189 233 282 336
#     4  10  22  39  58  83 116 151 188 232 281 334
#     4  11  23  39  60  85 114 149 189 233 282 336
#     4  10  21  38  59  84 115 150 189 233 280 332
#     4  10  21  38  59  84 115 150 189 233 280 332
#
# _framework density 23.909980000000001
#
# number of rings (size 3 to 8) (size 9 to 14) (size 15 to 20)
#    0.000    1.667    0.000    4.000    0.000   11.333 
#    0.000    0.000    0.000    0.000    0.000    0.000 
#    0.000    0.000    0.000    0.000    0.000    0.000 
#
# Total GULP energy -134585.696896 kJ/mol
# GULP energy per Si atom -5607.737371 kJ/mol
# Density = 2.385556 g / cm^3
# Si number density = 23.909980 Si / 1000 Ang^3
#
#
#
# Elastic Constant Matrix: (Units=GPa)
#
#
# Indices 1 2 3 4 5 6 
#
# 1 162.9549 25.1728 34.1837 0.0000 -13.2694 0.0000
# 2 25.1728 76.3130 10.3765 0.0000 -0.1726 0.0000
# 3 34.1837 10.3765 99.3914 0.0000 7.8971 0.0000
# 4 0.0000 0.0000 0.0000 16.3160 0.0000 -45.5709
# 5 -13.2694 -0.1726 7.8971 0.0000 32.9603 0.0000
# 6 0.0000 0.0000 0.0000 -45.5709 0.0000 -47.4518
#
#
#
# Elastic Compliance Matrix: (Units=1/GPa)
#
#
# Indices 1 2 3 4 5 6 
#
# 1 0.007280 -0.002044 -0.002571 0.000000 0.003536 0.000000
# 2 -0.002044 0.013872 -0.000699 0.000000 -0.000583 0.000000
# 3 -0.002571 -0.000699 0.011317 0.000000 -0.003750 0.000000
# 4 0.000000 0.000000 0.000000 0.016644 0.000000 -0.015985
# 5 0.003536 -0.000583 -0.003750 0.000000 0.032659 0.000000
# 6 0.000000 0.000000 0.000000 -0.015985 0.000000 -0.005723
#
#
# Mechanical properties :
#
#
# Convention : Reuss Voigt Hill
#
# Bulk Modulus (GPa) = 45.78759 53.12504 49.45631
# Shear Modulus (GPa) = 53.21640 18.29332 35.75486
#
# Velocity S-wave (km/s) = 4.72285 2.76903 3.87123
# Velocity P-wave (km/s) = 6.99514 5.70003 6.38053
#
# Compressibility (1/GPa) = 0.02183998
#
# Stress axis : x y z
#
# Youngs Moduli (GPa) = 137.36818 72.08873 88.36623
#
# Poissons Ratio (x) = 0.14733 0.22722
# Poissons Ratio (y) = 0.28074 0.06177
# Poissons Ratio (z) = 0.35322 0.05039
#
# Static dielectric constant tensor:
#      x y z
#    x 1.842920 0.000000 0.002270 
#    y 0.000000 1.953170 0.000000 
#    z 0.002270 0.000000 1.870020 
# 
# From -- ./inp_files/15003.got.cif
#   From: 2010.05.17/outbox.cif.g08.bks.cpg/sg14_8_cif.got.tgz:15003.got - 2010.06.03 17:49:19.
