data_PCOD9245771
_publ_section_title
;
Structure prediction by ZEFSAII (Michael W. Deem and Ramdas Pophale) SiO2 
 PCOD9245771
Probable space group: P 21/C
;
_chemical_formula_sum "Si O2"
_cell_formula_units_Z 32
_cell_length_a 11.695052
_cell_length_b 16.167792
_cell_length_c 14.878587
_cell_angle_alpha 90.000000
_cell_angle_beta 28.969855
_cell_angle_gamma 90.000000
_cell_volume 1362.615473
_symmetry_space_group_name_H-M "P 21/C"
_symmetry_group_IT_number 14
_symmetry_cell_setting 'monoclinic'
loop_
_space_group_symop_operation_xyz
x,y,z
-x,1/2+y,1/2-z
-x,-y,-z
x,1/2-y,1/2+z
loop_
_atom_site_type_symbol
_atom_site_label
_atom_site_fract_x
_atom_site_fract_y
_atom_site_fract_z
Si Si1 0.482414 0.092038 0.200287
Si Si2 0.756462 0.916659 0.370177
Si Si3 0.629751 0.090671 0.739727
Si Si4 0.750144 0.099621 0.319725
Si Si5 0.165122 0.358665 0.646808
Si Si6 0.930971 0.808653 0.601438
Si Si7 0.086817 0.630141 0.477252
Si Si8 0.171275 0.552587 0.699927
O O1 0.248722 0.141590 0.337209
O O2 0.656387 0.131608 0.152842
O O3 0.429180 0.997283 0.264282
O O4 0.630702 0.084818 0.005369
O O5 0.508463 0.870389 0.531480
O O6 0.927630 0.903937 0.337355
O O7 0.708023 0.015295 0.403482
O O8 0.911058 0.901570 0.174763
O O9 0.748773 0.068925 0.754309
O O10 0.826132 0.141087 0.552191
O O11 0.391052 0.140363 0.926188
O O12 0.890890 0.081232 0.130814
O O13 0.922376 0.155771 0.260328
O O14 0.180508 0.300555 0.722579
O O15 0.159132 0.453860 0.689012
O O16 0.999716 0.721445 0.513363
#
# Coordination Sequence:
#
# PCOD9245771 Si02
#       8
#     4   4   4   4   4   4   4   4
#     4  10  21  42  65  90 126 164 214 271 308 371
#     4   9  21  40  66  91 123 171 213 265 304 368
#     4  11  21  38  69  96 120 164 217 269 313 365
#     4  10  22  41  66  90 124 176 216 248 308 387
#     4  10  21  39  61  92 127 155 209 264 311 367
#     4  12  25  39  62  97 127 168 208 258 330 380
#     4  11  26  42  59  96 135 166 207 262 328 381
#     4   9  17  38  67  96 117 154 217 269 313 353
#
# _framework density 23.484247
#
# number of rings (size 3 to 8) (size 9 to 14) (size 15 to 20)
#    0.000    1.750    2.500    2.250    1.750    6.000 
#    4.500    0.000    0.000    0.000    0.000    0.000 
#    0.000    0.000    0.000    0.000    0.000    0.000 
#
# Total GULP energy -178981.956322 kJ/mol
# GULP energy per Si atom -5593.186135 kJ/mol
# Density = 2.343080 g / cm^3
# Si number density = 23.484247 Si / 1000 Ang^3
#
#
#
# Elastic Constant Matrix: (Units=GPa)
#
#
# Indices 1 2 3 4 5 6 
#
# 1 55.7017 -2.6752 27.4195 0.0000 0.7402 0.0000
# 2 -2.6752 45.5990 24.4259 0.0000 -8.7890 0.0000
# 3 27.4195 24.4259 84.2752 0.0000 -15.7789 0.0000
# 4 0.0000 0.0000 0.0000 21.3928 0.0000 1.6565
# 5 0.7402 -8.7890 -15.7789 0.0000 34.6812 0.0000
# 6 0.0000 0.0000 0.0000 1.6565 0.0000 1.2233
#
#
#
# Elastic Compliance Matrix: (Units=1/GPa)
#
#
# Indices 1 2 3 4 5 6 
#
# 1 0.023180 0.006010 -0.009937 0.000000 -0.003493 0.000000
# 2 0.006010 0.027902 -0.009556 0.000000 0.002595 0.000000
# 3 -0.009937 -0.009556 0.019081 0.000000 0.006471 0.000000
# 4 0.000000 0.000000 0.000000 0.052220 0.000000 -0.070714
# 5 -0.003493 0.002595 0.006471 0.000000 0.032510 0.000000
# 6 0.000000 0.000000 0.000000 -0.070714 0.000000 0.913217
#
#
# Mechanical properties :
#
#
# Convention : Reuss Voigt Hill
#
# Bulk Modulus (GPa) = 23.15138 31.54624 27.34881
# Shear Modulus (GPa) = 4.50663 20.55317 12.52990
#
# Velocity S-wave (km/s) = 1.38678 2.96157 2.31237
# Velocity P-wave (km/s) = 3.52759 5.01564 4.33593
#
# Compressibility (1/GPa) = 0.04319398
#
# Stress axis : x y z
#
# Youngs Moduli (GPa) = 43.14138 35.83956 52.40944
#
# Poissons Ratio (x) = -0.21539 0.52082
# Poissons Ratio (y) = -0.25927 0.50085
# Poissons Ratio (z) = 0.42872 0.34250
#
# Static dielectric constant tensor:
#      x y z
#    x 1.864970 0.000000 -0.013350 
#    y 0.000000 1.899710 0.000000 
#    z -0.013350 0.000000 1.904690 
# 
# From -- ./inp_files/45419.got.cif
#   From: 2010.05.17/outbox.cif.g08.bks.cpg/sg14_23_cif.got.tgz:45419.got - 2010.06.03 17:49:19.
