data_PCOD9245665
_publ_section_title
;
Structure prediction by ZEFSAII (Michael W. Deem and Ramdas Pophale) SiO2 
 PCOD9245665
Probable space group: P 21/C
;
_chemical_formula_sum "Si O2"
_cell_formula_units_Z 32
_cell_length_a 8.064562
_cell_length_b 11.993737
_cell_length_c 15.160511
_cell_angle_alpha 90.000000
_cell_angle_beta 81.063134
_cell_angle_gamma 90.000000
_cell_volume 1448.587047
_symmetry_space_group_name_H-M "P 21/C"
_symmetry_group_IT_number 14
_symmetry_cell_setting 'monoclinic'
loop_
_space_group_symop_operation_xyz
x,y,z
-x,1/2+y,1/2-z
-x,-y,-z
x,1/2-y,1/2+z
loop_
_atom_site_type_symbol
_atom_site_label
_atom_site_fract_x
_atom_site_fract_y
_atom_site_fract_z
Si Si1 0.910700 0.051770 0.646310
Si Si2 0.664358 0.456115 0.323809
Si Si3 0.655575 0.098871 0.147729
Si Si4 0.473697 0.258850 0.797724
Si Si5 0.084185 0.841926 0.545838
Si Si6 0.230849 0.093536 0.737428
Si Si7 0.573918 0.439614 0.910121
Si Si8 0.888336 0.404584 0.466187
O O1 0.747048 0.043018 0.720414
O O2 0.902263 0.126354 0.558834
O O3 0.056739 0.097688 0.699562
O O4 0.965905 0.930886 0.604787
O O5 0.533150 0.554408 0.349736
O O6 0.552755 0.345638 0.341476
O O7 0.806281 0.453134 0.385257
O O8 0.620291 0.198644 0.218789
O O9 0.744269 0.126245 0.049389
O O10 0.763282 0.999603 0.185345
O O11 0.310013 0.209593 0.763265
O O12 0.448903 0.359089 0.867942
O O13 0.265986 0.865146 0.574559
O O14 0.027219 0.714429 0.561529
O O15 0.362022 0.037111 0.658992
O O16 0.500000 0.500000 0.000000
O O17 0.000000 0.500000 0.500000
#
# Coordination Sequence:
#
# PCOD9245665 Si02
#       8
#     4   4   4   4   4   4   4   4
#     4  10  22  44  68 100 134 180 230 282 352 408
#     4  11  23  43  67  95 133 178 225 284 337 412
#     4  10  23  41  64  96 132 171 231 273 339 416
#     4  10  21  40  67  96 133 179 220 292 346 396
#     4  10  23  44  69  96 141 180 229 287 340 420
#     4   9  21  40  61  98 132 171 227 280 341 416
#     4  10  21  38  68 100 132 178 235 289 347 416
#     4  12  25  44  66  97 139 187 221 280 351 416
#
# _framework density 22.090492000000001
#
# number of rings (size 3 to 8) (size 9 to 14) (size 15 to 20)
#    0.000    1.750    1.250    1.875    7.000    1.000 
#    9.000    0.000    0.000    0.000    0.000    0.000 
#    0.000    0.000    0.000    0.000    0.000    0.000 
#
# Total GULP energy -178935.197006 kJ/mol
# GULP energy per Si atom -5591.724906 kJ/mol
# Density = 2.204021 g / cm^3
# Si number density = 22.090492 Si / 1000 Ang^3
#
#
#
# Elastic Constant Matrix: (Units=GPa)
#
#
# Indices 1 2 3 4 5 6 
#
# 1 72.1397 35.3292 24.2266 0.0000 20.7313 0.0000
# 2 35.3292 100.2861 16.6852 0.0000 17.0224 0.0000
# 3 24.2266 16.6852 100.3513 0.0000 6.4961 0.0000
# 4 0.0000 0.0000 0.0000 24.8510 0.0000 12.4988
# 5 20.7313 17.0224 6.4961 0.0000 43.6909 0.0000
# 6 0.0000 0.0000 0.0000 12.4988 0.0000 26.9370
#
#
#
# Elastic Compliance Matrix: (Units=1/GPa)
#
#
# Indices 1 2 3 4 5 6 
#
# 1 0.019458 -0.005147 -0.003407 0.000000 -0.006721 0.000000
# 2 -0.005147 0.012274 -0.000653 0.000000 -0.002243 0.000000
# 3 -0.003407 -0.000653 0.010880 0.000000 0.000253 0.000000
# 4 0.000000 0.000000 0.000000 0.052489 0.000000 -0.024355
# 5 -0.006721 -0.002243 0.000253 0.000000 0.026913 0.000000
# 6 0.000000 0.000000 0.000000 -0.024355 0.000000 0.048424
#
#
# Mechanical properties :
#
#
# Convention : Reuss Voigt Hill
#
# Bulk Modulus (GPa) = 41.32541 47.25100 44.28820
# Shear Modulus (GPa) = 25.39124 32.19821 28.79472
#
# Velocity S-wave (km/s) = 3.39399 3.82194 3.61430
# Velocity P-wave (km/s) = 5.84010 6.39629 6.12451
#
# Compressibility (1/GPa) = 0.02419819
#
# Stress axis : x y z
#
# Youngs Moduli (GPa) = 51.39191 81.47262 91.91518
#
# Poissons Ratio (x) = 0.41936 0.31313
# Poissons Ratio (y) = 0.26453 0.06002
# Poissons Ratio (z) = 0.17508 0.05320
#
# Static dielectric constant tensor:
#      x y z
#    x 1.829710 0.000000 0.004330 
#    y 0.000000 1.801510 0.000000 
#    z 0.004330 0.000000 1.823740 
# 
# From -- ./inp_files/40340.got.cif
#   From: 2010.05.17/outbox.cif.g08.bks.cpg/sg14_21_cif.got.tgz:40340.got - 2010.06.03 17:49:19.
