data_PCOD9245404
_publ_section_title
;
Structure prediction by ZEFSAII (Michael W. Deem and Ramdas Pophale) SiO2 
 PCOD9245404
Probable space group: P 21/C
;
_chemical_formula_sum "Si O2"
_cell_formula_units_Z 20
_cell_length_a 10.879024
_cell_length_b 11.513009
_cell_length_c 12.789191
_cell_angle_alpha 90.000000
_cell_angle_beta 144.761344
_cell_angle_gamma 90.000000
_cell_volume 924.241021
_symmetry_space_group_name_H-M "P 21/C"
_symmetry_group_IT_number 14
_symmetry_cell_setting 'monoclinic'
loop_
_space_group_symop_operation_xyz
x,y,z
-x,1/2+y,1/2-z
-x,-y,-z
x,1/2-y,1/2+z
loop_
_atom_site_type_symbol
_atom_site_label
_atom_site_fract_x
_atom_site_fract_y
_atom_site_fract_z
Si Si1 0.716098 0.205930 0.740876
Si Si2 0.235866 0.541243 0.138554
Si Si3 0.585506 0.146940 0.439761
Si Si4 0.363878 0.896863 0.085274
Si Si5 0.136143 0.087590 0.022365
O O1 0.693282 0.342650 0.749286
O O2 0.588256 0.132037 0.565453
O O3 0.651071 0.145104 0.804779
O O4 0.965184 0.187406 0.885193
O O5 0.270634 0.572353 0.039564
O O6 0.402711 0.440671 0.280417
O O7 0.000000 0.500000 0.000000
O O8 0.679312 0.278479 0.503786
O O9 0.348923 0.134602 0.226668
O O10 0.211372 0.009300 0.976535
O O11 0.000000 0.000000 0.000000
#
# Coordination Sequence:
#
# PCOD9245404 Si02
#       5
#     4   4   4   4   4
#     4  10  21  38  61  85 111 152 195 233 286 342
#     4  10  21  38  58  85 120 150 188 240 287 339
#     4  10  21  38  60  85 115 151 192 235 282 342
#     4   9  20  38  56  83 118 147 187 240 282 334
#     4   9  19  36  56  81 113 145 187 237 281 335
#
# _framework density 21.639378000000001
#
# number of rings (size 3 to 8) (size 9 to 14) (size 15 to 20)
#    0.000    2.400    0.000    1.200    0.000    9.600 
#    0.000   28.000    0.000    0.000    0.000    0.000 
#    0.000    0.000    0.000    0.000    0.000    0.000 
#
# Total GULP energy -111412.008649 kJ/mol
# GULP energy per Si atom -5570.600432 kJ/mol
# Density = 2.159013 g / cm^3
# Si number density = 21.639378 Si / 1000 Ang^3
#
#
#
# Elastic Constant Matrix: (Units=GPa)
#
#
# Indices 1 2 3 4 5 6 
#
# 1 49.6555 12.1388 19.6827 0.0000 16.3814 0.0000
# 2 12.1388 59.0766 13.3465 0.0000 5.1331 0.0000
# 3 19.6827 13.3465 63.4614 0.0000 17.0397 0.0000
# 4 0.0000 0.0000 0.0000 18.9738 0.0000 20.8956
# 5 16.3814 5.1331 17.0397 0.0000 43.5139 0.0000
# 6 0.0000 0.0000 0.0000 20.8956 0.0000 19.3182
#
#
#
# Elastic Compliance Matrix: (Units=1/GPa)
#
#
# Indices 1 2 3 4 5 6 
#
# 1 0.025398 -0.003415 -0.005252 0.000000 -0.007102 0.000000
# 2 -0.003415 0.018250 -0.002845 0.000000 0.000247 0.000000
# 3 -0.005252 -0.002845 0.019404 0.000000 -0.005286 0.000000
# 4 0.000000 0.000000 0.000000 -0.275637 0.000000 0.298143
# 5 -0.007102 0.000247 -0.005286 0.000000 0.027695 0.000000
# 6 0.000000 0.000000 0.000000 0.298143 0.000000 -0.270722
#
#
# Mechanical properties :
#
#
# Convention : Reuss Voigt Hill
#
# Bulk Modulus (GPa) = 24.98274 29.16993 27.07634
# Shear Modulus (GPa) = -11.92628 24.82955 6.45163
#
# Velocity S-wave (km/s) = -2.35018 3.39104 1.72856
# Velocity P-wave (km/s) = 2.05077 5.37043 4.06492
#
# Compressibility (1/GPa) = 0.04002763
#
# Stress axis : x y z
#
# Youngs Moduli (GPa) = 39.37241 54.79376 51.53519
#
# Poissons Ratio (x) = 0.18713 0.27068
# Poissons Ratio (y) = 0.13446 0.14663
# Poissons Ratio (z) = 0.20679 0.15590
#
# Static dielectric constant tensor:
#      x y z
#    x 1.822640 0.000000 -0.052720 
#    y 0.000000 1.963660 0.000000 
#    z -0.052720 0.000000 1.812140 
# 
# From -- ./inp_files/23763.got.cif
#   From: 2010.05.17/outbox.cif.g08.bks.cpg/sg14_12_cif.got.tgz:23763.got - 2010.06.03 17:49:19.
