data_PCOD9245051
_publ_section_title
;
Structure prediction by ZEFSAII (Michael W. Deem and Ramdas Pophale) SiO2 
 PCOD9245051
Probable space group: P 21/C
;
_chemical_formula_sum "Si O2"
_cell_formula_units_Z 32
_cell_length_a 10.986046
_cell_length_b 21.119289
_cell_length_c 10.898409
_cell_angle_alpha 90.000000
_cell_angle_beta 28.333768
_cell_angle_gamma 90.000000
_cell_volume 1200.101535
_symmetry_space_group_name_H-M "P 21/C"
_symmetry_group_IT_number 14
_symmetry_cell_setting 'monoclinic'
loop_
_space_group_symop_operation_xyz
x,y,z
-x,1/2+y,1/2-z
-x,-y,-z
x,1/2-y,1/2+z
loop_
_atom_site_type_symbol
_atom_site_label
_atom_site_fract_x
_atom_site_fract_y
_atom_site_fract_z
Si Si1 0.146687 0.913258 0.327215
Si Si2 0.662327 0.217494 0.101231
Si Si3 0.163148 0.136778 0.608910
Si Si4 0.828176 0.072048 0.290416
Si Si5 0.140847 0.138481 0.182655
Si Si6 0.833666 0.453188 0.533211
Si Si7 0.547765 0.287197 0.441388
Si Si8 0.529663 0.022759 0.791964
O O1 0.920233 0.908793 0.430081
O O2 0.346854 0.857093 0.118037
O O3 0.284864 0.976626 0.253593
O O4 0.024239 0.888882 0.561530
O O5 0.701688 0.257599 0.190910
O O6 0.437206 0.168069 0.342419
O O7 0.939205 0.189709 0.818803
O O8 0.551514 0.246890 0.070802
O O9 0.077718 0.092217 0.797086
O O10 0.675086 0.037956 0.535036
O O11 0.952320 0.136481 0.232444
O O12 0.691449 0.072136 0.280545
O O13 0.061532 0.024356 0.052343
O O14 0.277331 0.200159 0.114250
O O15 0.356789 0.085620 0.964232
O O16 0.645693 0.461637 0.582148
#
# Coordination Sequence:
#
# PCOD9245051 Si02
#       8
#     4   4   4   4   4   4   4   4
#     4   9  19  39  62  84 122 159 205 252 314 370
#     4  11  26  44  67  95 127 163 214 260 325 377
#     4  11  25  43  62  92 130 163 206 264 313 374
#     4   9  19  36  57  89 123 164 212 250 313 372
#     4   9  17  36  62  87 117 161 200 255 311 371
#     4  10  21  36  58  84 128 168 205 262 306 366
#     4  10  22  42  66  89 124 163 203 267 316 381
#     4   9  18  34  59  89 117 163 212 250 309 371
#
# _framework density 26.664411999999999
#
# number of rings (size 3 to 8) (size 9 to 14) (size 15 to 20)
#    0.000    2.250    1.250    0.375    3.500    1.500 
#    6.750    5.625    0.000    0.000    0.000    0.000 
#    0.000    0.000    0.000    0.000    0.000    0.000 
#
# Total GULP energy -178558.011455 kJ/mol
# GULP energy per Si atom -5579.937858 kJ/mol
# Density = 2.660372 g / cm^3
# Si number density = 26.664412 Si / 1000 Ang^3
#
#
#
# Elastic Constant Matrix: (Units=GPa)
#
#
# Indices 1 2 3 4 5 6 
#
# 1 94.3667 46.5498 20.9715 0.0000 16.7367 0.0000
# 2 46.5498 54.9004 22.2812 0.0000 -3.9517 0.0000
# 3 20.9715 22.2812 86.7243 0.0000 -1.0311 0.0000
# 4 0.0000 0.0000 0.0000 50.7021 0.0000 -7.4759
# 5 16.7367 -3.9517 -1.0311 0.0000 44.5341 0.0000
# 6 0.0000 0.0000 0.0000 -7.4759 0.0000 43.0248
#
#
#
# Elastic Compliance Matrix: (Units=1/GPa)
#
#
# Indices 1 2 3 4 5 6 
#
# 1 0.021865 -0.019045 -0.000512 0.000000 -0.009919 0.000000
# 2 -0.019045 0.037051 -0.004791 0.000000 0.010334 0.000000
# 3 -0.000512 -0.004791 0.012886 0.000000 0.000066 0.000000
# 4 0.000000 0.000000 0.000000 0.020242 0.000000 0.003517
# 5 -0.009919 0.010334 0.000066 0.000000 0.027101 0.000000
# 6 0.000000 0.000000 0.000000 0.003517 0.000000 0.023854
#
#
# Mechanical properties :
#
#
# Convention : Reuss Voigt Hill
#
# Bulk Modulus (GPa) = 43.27879 46.17738 44.72809
# Shear Modulus (GPa) = 25.07571 37.39812 31.23691
#
# Velocity S-wave (km/s) = 3.06995 3.74912 3.42641
# Velocity P-wave (km/s) = 5.36957 6.00806 5.69777
#
# Compressibility (1/GPa) = 0.02310601
#
# Stress axis : x y z
#
# Youngs Moduli (GPa) = 45.73604 26.98972 77.60180
#
# Poissons Ratio (x) = 0.51402 0.03974
# Poissons Ratio (y) = 0.87104 0.37178
# Poissons Ratio (z) = 0.02342 0.12930
#
# Static dielectric constant tensor:
#      x y z
#    x 2.258800 0.000000 -0.052710 
#    y 0.000000 2.163630 0.000000 
#    z -0.052710 0.000000 2.110030 
# 
# From -- ./inp_files/30814.got.cif
#   From: 2010.05.17/outbox.cif.g08.bks.cpg/sg14_16_cif.got.tgz:30814.got - 2010.06.03 17:49:19.
