data_PCOD9245040
_publ_section_title
;
Structure prediction by ZEFSAII (Michael W. Deem and Ramdas Pophale) SiO2 
 PCOD9245040
Probable space group: P 21/C
;
_chemical_formula_sum "Si O2"
_cell_formula_units_Z 24
_cell_length_a 16.853577
_cell_length_b 7.353556
_cell_length_c 19.816102
_cell_angle_alpha 90.000000
_cell_angle_beta 22.442138
_cell_angle_gamma 90.000000
_cell_volume 937.534002
_symmetry_space_group_name_H-M "P 21/C"
_symmetry_group_IT_number 14
_symmetry_cell_setting 'monoclinic'
loop_
_space_group_symop_operation_xyz
x,y,z
-x,1/2+y,1/2-z
-x,-y,-z
x,1/2-y,1/2+z
loop_
_atom_site_type_symbol
_atom_site_label
_atom_site_fract_x
_atom_site_fract_y
_atom_site_fract_z
Si Si1 0.467361 0.144841 0.132779
Si Si2 0.877489 0.674434 0.675463
Si Si3 0.082069 0.990136 0.254672
Si Si4 0.939354 0.887598 0.879249
Si Si5 0.521017 0.952417 0.731209
Si Si6 0.318420 0.778673 0.297334
O O1 0.327326 0.291910 0.206280
O O2 0.458054 0.180343 0.219814
O O3 0.372168 0.937658 0.202599
O O4 0.700815 0.119208 0.925246
O O5 0.898491 0.489388 0.700137
O O6 0.091703 0.697248 0.464347
O O7 0.881554 0.842871 0.724458
O O8 0.016791 0.068524 0.233391
O O9 0.932276 0.827539 0.395269
O O10 0.715543 0.975190 0.070393
O O11 0.500815 0.865001 0.672553
O O12 0.675959 0.111238 0.635007
#
# Coordination Sequence:
#
# PCOD9245040 Si02
#       6
#     4   4   4   4   4   4
#     4   9  21  37  56  84 118 150 194 242 293 342
#     4  11  21  37  60  83 119 155 189 245 294 341
#     4  11  21  37  60  83 117 154 198 239 286 351
#     4  10  21  36  57  88 113 152 197 237 286 349
#     4   8  19  35  55  86 112 145 197 237 284 347
#     4   9  19  35  60  81 112 152 195 236 290 346
#
# _framework density 25.599070000000001
#
# number of rings (size 3 to 8) (size 9 to 14) (size 15 to 20)
#    1.000    1.333    1.667    1.000    2.333    0.667 
#    0.000    1.667    0.000    5.000    0.000    0.000 
#    0.000    0.000    0.000    0.000    0.000    0.000 
#
# Total GULP energy -134078.454329 kJ/mol
# GULP energy per Si atom -5586.602264 kJ/mol
# Density = 2.554081 g / cm^3
# Si number density = 25.599070 Si / 1000 Ang^3
#
#
#
# Elastic Constant Matrix: (Units=GPa)
#
#
# Indices 1 2 3 4 5 6 
#
# 1 60.1946 32.1148 9.5856 0.0000 2.3404 0.0000
# 2 32.1148 101.0752 -11.6870 0.0000 -0.1416 0.0000
# 3 9.5856 -11.6870 47.0175 0.0000 -3.0812 0.0000
# 4 0.0000 0.0000 0.0000 32.4274 0.0000 -1.5680
# 5 2.3404 -0.1416 -3.0812 0.0000 11.8753 0.0000
# 6 0.0000 0.0000 0.0000 -1.5680 0.0000 44.6705
#
#
#
# Elastic Compliance Matrix: (Units=1/GPa)
#
#
# Indices 1 2 3 4 5 6 
#
# 1 0.022128 -0.007834 -0.006867 0.000000 -0.006236 0.000000
# 2 -0.007834 0.012967 0.005017 0.000000 0.003000 0.000000
# 3 -0.006867 0.005017 0.024424 0.000000 0.007750 0.000000
# 4 0.000000 0.000000 0.000000 0.030891 0.000000 0.001084
# 5 -0.006236 0.003000 0.007750 0.000000 0.087484 0.000000
# 6 0.000000 0.000000 0.000000 0.001084 0.000000 0.022424
#
#
# Mechanical properties :
#
#
# Convention : Reuss Voigt Hill
#
# Bulk Modulus (GPa) = 24.90616 29.81268 27.35942
# Shear Modulus (GPa) = 21.45287 29.67957 25.56622
#
# Velocity S-wave (km/s) = 2.89802 3.40869 3.16368
# Velocity P-wave (km/s) = 4.57695 5.21186 4.90469
#
# Compressibility (1/GPa) = 0.04015072
#
# Stress axis : x y z
#
# Youngs Moduli (GPa) = 45.19135 77.11954 40.94396
#
# Poissons Ratio (x) = 0.60412 0.28117
# Poissons Ratio (y) = 0.35401 -0.20541
# Poissons Ratio (z) = 0.31034 -0.38689
#
# Static dielectric constant tensor:
#      x y z
#    x 1.964080 0.000000 -0.020790 
#    y 0.000000 2.078620 0.000000 
#    z -0.020790 0.000000 2.074280 
# 
# From -- ./inp_files/77877.got.cif
#   From: 2010.05.17/outbox.cif.g08.bks.cpg/sg14_39_cif.got.tgz:77877.got - 2010.06.03 17:49:19.
