data_PCOD9245160
_publ_section_title
;
Structure prediction by ZEFSAII (Michael W. Deem and Ramdas Pophale) SiO2 
 PCOD9245160
Probable space group: P 21/C
;
_chemical_formula_sum "Si O2"
_cell_formula_units_Z 28
_cell_length_a 6.248729
_cell_length_b 15.346026
_cell_length_c 13.620012
_cell_angle_alpha 90.000000
_cell_angle_beta 106.145843
_cell_angle_gamma 90.000000
_cell_volume 1254.550752
_symmetry_space_group_name_H-M "P 21/C"
_symmetry_group_IT_number 14
_symmetry_cell_setting 'monoclinic'
loop_
_space_group_symop_operation_xyz
x,y,z
-x,1/2+y,1/2-z
-x,-y,-z
x,1/2-y,1/2+z
loop_
_atom_site_type_symbol
_atom_site_label
_atom_site_fract_x
_atom_site_fract_y
_atom_site_fract_z
Si Si1 0.564900 0.567335 0.092689
Si Si2 0.187823 0.282251 0.181699
Si Si3 0.822828 0.988894 0.892989
Si Si4 0.721291 0.198634 0.550816
Si Si5 0.563659 0.090731 0.724453
Si Si6 0.537437 0.353214 0.633908
Si Si7 0.005555 0.371358 0.767329
O O1 0.524845 0.508074 0.182715
O O2 0.826615 0.592705 0.128676
O O3 0.500000 0.500000 0.000000
O O4 0.413289 0.651453 0.052901
O O5 0.333672 0.365522 0.227047
O O6 0.360570 0.213907 0.157570
O O7 0.077207 0.228403 0.255649
O O8 0.988292 0.304811 0.081447
O O9 0.604650 0.938671 0.905880
O O10 0.932674 0.929694 0.820765
O O11 0.742306 0.078795 0.832934
O O12 0.000000 0.000000 0.000000
O O13 0.657422 0.145288 0.643234
O O14 0.645181 0.298140 0.558422
O O15 0.740546 0.370705 0.734537
#
# Coordination Sequence:
#
# PCOD9245160 Si02
#       7
#     4   4   4   4   4   4   4
#     4   9  18  34  58  88 110 141 185 231 289 340
#     4   9  18  36  56  80 113 149 184 226 278 344
#     4  10  21  37  54  82 108 148 198 234 272 333
#     4   9  18  36  57  83 114 143 182 233 285 341
#     4   9  19  35  55  82 113 143 186 232 282 333
#     4   9  19  38  56  76 114 151 183 232 282 334
#     4   9  19  38  57  78 117 149 183 233 286 338
#
# _framework density 22.318747999999999
#
# number of rings (size 3 to 8) (size 9 to 14) (size 15 to 20)
#    0.000    2.857    0.000    0.000    0.000    4.571 
#   15.429   10.000    0.000    0.000    0.000    0.000 
#    0.000    0.000    0.000    0.000    0.000    0.000 
#
# Total GULP energy -156143.883896 kJ/mol
# GULP energy per Si atom -5576.567282 kJ/mol
# Density = 2.226795 g / cm^3
# Si number density = 22.318748 Si / 1000 Ang^3
#
#
#
# Elastic Constant Matrix: (Units=GPa)
#
#
# Indices 1 2 3 4 5 6 
#
# 1 101.6113 35.5790 44.8452 0.0000 44.5228 0.0000
# 2 35.5790 49.1507 25.0126 0.0000 16.4085 0.0000
# 3 44.8452 25.0126 119.3310 0.0000 42.8652 0.0000
# 4 0.0000 0.0000 0.0000 34.0900 0.0000 11.3065
# 5 44.5228 16.4085 42.8652 0.0000 44.1651 0.0000
# 6 0.0000 0.0000 0.0000 11.3065 0.0000 37.6006
#
#
#
# Elastic Compliance Matrix: (Units=1/GPa)
#
#
# Indices 1 2 3 4 5 6 
#
# 1 0.020732 -0.009305 0.000652 0.000000 -0.018076 0.000000
# 2 -0.009305 0.027990 -0.003077 0.000000 0.001967 0.000000
# 3 0.000652 -0.003077 0.013211 0.000000 -0.012337 0.000000
# 4 0.000000 0.000000 0.000000 0.032584 0.000000 -0.009798
# 5 -0.018076 0.001967 -0.012337 0.000000 0.052108 0.000000
# 6 0.000000 0.000000 0.000000 -0.009798 0.000000 0.029542
#
#
# Mechanical properties :
#
#
# Convention : Reuss Voigt Hill
#
# Bulk Modulus (GPa) = 25.99104 53.44076 39.71590
# Shear Modulus (GPa) = 23.53495 34.14822 28.84158
#
# Velocity S-wave (km/s) = 3.25082 3.91580 3.59870
# Velocity P-wave (km/s) = 5.07554 6.66640 5.92461
#
# Compressibility (1/GPa) = 0.03847479
#
# Stress axis : x y z
#
# Youngs Moduli (GPa) = 48.23486 35.72689 75.69186
#
# Poissons Ratio (x) = 0.33243 -0.04937
# Poissons Ratio (y) = 0.44882 0.23289
# Poissons Ratio (z) = -0.03146 0.10993
#
# Static dielectric constant tensor:
#      x y z
#    x 1.875920 0.000000 -0.005470 
#    y 0.000000 1.843660 0.000000 
#    z -0.005470 0.000000 1.867200 
# 
# From -- ./inp_files/37786.got.cif
#   From: 2010.05.17/outbox.cif.g08.bks.cpg/sg14_19_cif.got.tgz:37786.got - 2010.06.03 17:49:19.
