data_PCOD9245066
_publ_section_title
;
Structure prediction by ZEFSAII (Michael W. Deem and Ramdas Pophale) SiO2 
 PCOD9245066
Probable space group: P 21/C
;
_chemical_formula_sum "Si O2"
_cell_formula_units_Z 32
_cell_length_a 14.660889
_cell_length_b 5.915709
_cell_length_c 17.173941
_cell_angle_alpha 90.000000
_cell_angle_beta 70.645372
_cell_angle_gamma 90.000000
_cell_volume 1405.310391
_symmetry_space_group_name_H-M "P 21/C"
_symmetry_group_IT_number 14
_symmetry_cell_setting 'monoclinic'
loop_
_space_group_symop_operation_xyz
x,y,z
-x,1/2+y,1/2-z
-x,-y,-z
x,1/2-y,1/2+z
loop_
_atom_site_type_symbol
_atom_site_label
_atom_site_fract_x
_atom_site_fract_y
_atom_site_fract_z
Si Si1 0.396787 0.803652 0.955034
Si Si2 0.392137 0.323265 0.590890
Si Si3 0.634244 0.467961 0.231359
Si Si4 0.053427 0.093139 0.822974
Si Si5 0.022891 0.090997 0.645116
Si Si6 0.761962 0.469260 0.919808
Si Si7 0.250895 0.881881 0.744165
Si Si8 0.411702 0.422597 0.293955
O O1 0.503959 0.697513 0.933176
O O2 0.391340 0.920741 0.873063
O O3 0.305437 0.647870 0.997873
O O4 0.396386 0.996445 0.020539
O O5 0.377644 0.451679 0.675947
O O6 0.301730 0.169364 0.597656
O O7 0.734699 0.334335 0.204874
O O8 0.524770 0.374401 0.248576
O O9 0.637290 0.682599 0.175355
O O10 0.023022 0.096684 0.740054
O O11 0.168664 0.053745 0.792495
O O12 0.013147 0.847438 0.866831
O O13 0.026597 0.345580 0.861895
O O14 0.133442 0.055484 0.586491
O O15 0.771632 0.315390 0.838427
O O16 0.357199 0.984263 0.732581
#
# Coordination Sequence:
#
# PCOD9245066 Si02
#       8
#     4   4   4   4   4   4   4   4
#     4  10  23  38  54  89 128 159 198 254 301 367
#     4  10  21  36  59  86 120 161 206 248 299 367
#     4  11  21  37  58  85 121 160 208 248 301 366
#     4   9  20  36  56  93 121 152 202 269 323 362
#     4   9  20  35  60  89 124 151 202 270 320 366
#     4  11  21  36  64  87 117 160 206 251 313 373
#     4  11  22  35  63  87 118 160 204 254 310 373
#     4  11  23  37  57  87 125 160 200 251 302 366
#
# _framework density 22.770769000000001
#
# number of rings (size 3 to 8) (size 9 to 14) (size 15 to 20)
#    0.000    1.750    3.750    0.375    3.500    2.000 
#    0.000    0.000    0.000    1.500    0.000    0.000 
#    0.000    0.000    0.000    0.000    0.000    0.000 
#
# Total GULP energy -178264.446775 kJ/mol
# GULP energy per Si atom -5570.763962 kJ/mol
# Density = 2.271894 g / cm^3
# Si number density = 22.770769 Si / 1000 Ang^3
#
#
#
# Elastic Constant Matrix: (Units=GPa)
#
#
# Indices 1 2 3 4 5 6 
#
# 1 54.5216 19.5604 30.0165 0.0000 -7.3576 0.0000
# 2 19.5604 69.5049 16.9088 0.0000 0.2742 0.0000
# 3 30.0165 16.9088 57.0279 0.0000 -3.9779 0.0000
# 4 0.0000 0.0000 0.0000 22.7211 0.0000 1.4351
# 5 -7.3576 0.2742 -3.9779 0.0000 23.4901 0.0000
# 6 0.0000 0.0000 0.0000 1.4351 0.0000 40.9402
#
#
#
# Elastic Compliance Matrix: (Units=1/GPa)
#
#
# Indices 1 2 3 4 5 6 
#
# 1 0.028048 -0.004786 -0.012879 0.000000 0.006660 0.000000
# 2 -0.004786 0.016345 -0.002474 0.000000 -0.002109 0.000000
# 3 -0.012879 -0.002474 0.025064 0.000000 0.000239 0.000000
# 4 0.000000 0.000000 0.000000 0.044110 0.000000 -0.001546
# 5 0.006660 -0.002109 0.000239 0.000000 0.044722 0.000000
# 6 0.000000 0.000000 0.000000 -0.001546 0.000000 0.024480
#
#
# Mechanical properties :
#
#
# Convention : Reuss Voigt Hill
#
# Bulk Modulus (GPa) = 34.27268 34.89175 34.58221
# Shear Modulus (GPa) = 21.48005 25.06820 23.27413
#
# Velocity S-wave (km/s) = 3.07468 3.32157 3.20051
# Velocity P-wave (km/s) = 5.26201 5.48332 5.37380
#
# Compressibility (1/GPa) = 0.02917776
#
# Stress axis : x y z
#
# Youngs Moduli (GPa) = 35.65333 61.18200 39.89715
#
# Poissons Ratio (x) = 0.29285 0.51384
# Poissons Ratio (y) = 0.17065 0.09870
# Poissons Ratio (z) = 0.45919 0.15136
#
# Static dielectric constant tensor:
#      x y z
#    x 1.841650 0.000000 -0.011080 
#    y 0.000000 2.121140 0.000000 
#    z -0.011080 0.000000 1.844930 
# 
# From -- ./inp_files/58640.got.cif
#   From: 2010.05.17/outbox.cif.g08.bks.cpg/sg14_30_cif.got.tgz:58640.got - 2010.06.03 17:49:19.
