data_PCOD9245266
_publ_section_title
;
Structure prediction by ZEFSAII (Michael W. Deem and Ramdas Pophale) SiO2 
 PCOD9245266
Probable space group: P 21/C
;
_chemical_formula_sum "Si O2"
_cell_formula_units_Z 32
_cell_length_a 28.831901
_cell_length_b 7.838923
_cell_length_c 11.331677
_cell_angle_alpha 90.000000
_cell_angle_beta 27.725536
_cell_angle_gamma 90.000000
_cell_volume 1191.510144
_symmetry_space_group_name_H-M "P 21/C"
_symmetry_group_IT_number 14
_symmetry_cell_setting 'monoclinic'
loop_
_space_group_symop_operation_xyz
x,y,z
-x,1/2+y,1/2-z
-x,-y,-z
x,1/2-y,1/2+z
loop_
_atom_site_type_symbol
_atom_site_label
_atom_site_fract_x
_atom_site_fract_y
_atom_site_fract_z
Si Si1 0.373327 0.984726 0.970301
Si Si2 0.724207 0.651685 0.844162
Si Si3 0.079663 0.167992 0.649670
Si Si4 0.400321 0.460117 0.096765
Si Si5 0.181125 0.701693 0.893118
Si Si6 0.053194 0.343536 0.944306
Si Si7 0.794277 0.119421 0.912306
Si Si8 0.397030 0.431100 0.680589
O O1 0.484581 0.005915 0.672377
O O2 0.316397 0.155840 0.062534
O O3 0.382052 0.980896 0.090980
O O4 0.300521 0.828221 0.112826
O O5 0.838664 0.680079 0.553932
O O6 0.654553 0.563124 0.904748
O O7 0.699527 0.554309 0.019263
O O8 0.045523 0.198215 0.862092
O O9 0.021051 0.182367 0.654183
O O10 0.127962 0.979909 0.539584
O O11 0.325587 0.594241 0.324772
O O12 0.403661 0.270337 0.141131
O O13 0.159132 0.727869 0.801703
O O14 0.173367 0.812196 0.031105
O O15 0.165037 0.424200 0.699413
O O16 0.000000 0.500000 0.000000
O O17 0.500000 0.500000 0.500000
#
# Coordination Sequence:
#
# PCOD9245266 Si02
#       8
#     4   4   4   4   4   4   4   4
#     4  10  23  37  55  90 132 181 236 289 342 401
#     4  10  21  37  60  90 130 184 230 279 346 419
#     4  10  23  47  74 105 141 188 227 286 361 431
#     4  11  22  38  58  88 138 178 236 299 345 399
#     4  10  25  42  67  98 144 184 237 285 351 419
#     4  11  25  47  78 109 141 182 234 290 363 438
#     4  11  25  46  67 104 140 184 234 298 360 428
#     4  11  22  35  57  86 121 177 245 287 341 410
#
# _framework density 26.856676
#
# number of rings (size 3 to 8) (size 9 to 14) (size 15 to 20)
#    0.000    1.500    2.500    2.250    7.000    7.000 
#    0.000    1.250    0.000    0.000    0.000    0.000 
#    0.000    0.000    0.000    0.000    0.000    0.000 
#
# Total GULP energy -178854.159962 kJ/mol
# GULP energy per Si atom -5589.192499 kJ/mol
# Density = 2.679555 g / cm^3
# Si number density = 26.856676 Si / 1000 Ang^3
#
#
#
# Elastic Constant Matrix: (Units=GPa)
#
#
# Indices 1 2 3 4 5 6 
#
# 1 169.2777 41.5492 29.5670 0.0000 24.9630 0.0000
# 2 41.5492 92.6349 31.8853 0.0000 17.8966 0.0000
# 3 29.5670 31.8853 76.6238 0.0000 24.2274 0.0000
# 4 0.0000 0.0000 0.0000 33.9679 0.0000 -1.1614
# 5 24.9630 17.8966 24.2274 0.0000 45.4767 0.0000
# 6 0.0000 0.0000 0.0000 -1.1614 0.0000 39.4808
#
#
#
# Elastic Compliance Matrix: (Units=1/GPa)
#
#
# Indices 1 2 3 4 5 6 
#
# 1 0.007007 -0.002345 -0.000966 0.000000 -0.002409 0.000000
# 2 -0.002345 0.013646 -0.004188 0.000000 -0.001852 0.000000
# 3 -0.000966 -0.004188 0.017410 0.000000 -0.007097 0.000000
# 4 0.000000 0.000000 0.000000 0.029469 0.000000 0.000867
# 5 -0.002409 -0.001852 -0.007097 0.000000 0.027821 0.000000
# 6 0.000000 0.000000 0.000000 0.000867 0.000000 0.025354
#
#
# Mechanical properties :
#
#
# Convention : Reuss Voigt Hill
#
# Bulk Modulus (GPa) = 43.35675 60.50439 51.93057
# Shear Modulus (GPa) = 34.86872 39.48741 37.17807
#
# Velocity S-wave (km/s) = 3.60714 3.83861 3.72467
# Velocity P-wave (km/s) = 5.79028 6.49801 6.15433
#
# Compressibility (1/GPa) = 0.02306446
#
# Stress axis : x y z
#
# Youngs Moduli (GPa) = 142.71459 73.28066 57.43702
#
# Poissons Ratio (x) = 0.17183 0.05551
# Poissons Ratio (y) = 0.33464 0.24056
# Poissons Ratio (z) = 0.13793 0.30692
#
# Static dielectric constant tensor:
#      x y z
#    x 2.176560 0.000000 0.017000 
#    y 0.000000 2.072440 0.000000 
#    z 0.017000 0.000000 2.208820 
# 
# From -- ./inp_files/36479.got.cif
#   From: 2010.05.17/outbox.cif.g08.bks.cpg/sg14_19_cif.got.tgz:36479.got - 2010.06.03 17:49:19.
