data_PCOD9245430
_publ_section_title
;
Structure prediction by ZEFSAII (Michael W. Deem and Ramdas Pophale) SiO2 
 PCOD9245430
Probable space group: P 21/C
;
_chemical_formula_sum "Si O2"
_cell_formula_units_Z 32
_cell_length_a 8.112252
_cell_length_b 18.551500
_cell_length_c 8.929411
_cell_angle_alpha 90.000000
_cell_angle_beta 90.341554
_cell_angle_gamma 90.000000
_cell_volume 1343.802857
_symmetry_space_group_name_H-M "P 21/C"
_symmetry_group_IT_number 14
_symmetry_cell_setting 'monoclinic'
loop_
_space_group_symop_operation_xyz
x,y,z
-x,1/2+y,1/2-z
-x,-y,-z
x,1/2-y,1/2+z
loop_
_atom_site_type_symbol
_atom_site_label
_atom_site_fract_x
_atom_site_fract_y
_atom_site_fract_z
Si Si1 0.057212 0.545872 0.857550
Si Si2 0.664943 0.298096 0.459326
Si Si3 0.564288 0.460103 0.148394
Si Si4 0.740290 0.925233 0.156031
Si Si5 0.600924 0.625035 0.374783
Si Si6 0.125718 0.703568 0.823007
Si Si7 0.457202 0.158742 0.440541
Si Si8 0.765189 0.719610 0.833738
O O1 0.244656 0.524511 0.813560
O O2 0.077828 0.629613 0.905506
O O3 0.910281 0.545873 0.731791
O O4 0.000000 0.500000 0.000000
O O5 0.560603 0.363729 0.523971
O O6 0.761715 0.259834 0.592645
O O7 0.791772 0.318918 0.331972
O O8 0.548907 0.232970 0.400114
O O9 0.421085 0.462875 0.272747
O O10 0.500000 0.500000 0.000000
O O11 0.554389 0.377689 0.079751
O O12 0.727622 0.840986 0.208507
O O13 0.723308 0.922123 0.976563
O O14 0.556225 0.607415 0.203745
O O15 0.668278 0.706192 0.349167
O O16 0.950801 0.741233 0.802711
O O17 0.280629 0.178407 0.511417
#
# Coordination Sequence:
#
# PCOD9245430 Si02
#       8
#     4   4   4   4   4   4   4   4
#     4  11  22  40  63  91 118 163 228 268 300 372
#     4  11  21  37  59  91 129 167 204 256 332 398
#     4  11  21  41  67  86 115 164 222 266 308 367
#     4  10  22  38  61  90 118 164 208 260 313 376
#     4  11  21  37  58  89 130 164 197 255 326 395
#     4  11  23  36  59  95 128 161 207 266 326 382
#     4  10  21  38  59  90 122 169 205 255 321 393
#     4   9  21  35  57  87 126 164 202 244 315 390
#
# _framework density 23.813018
#
# number of rings (size 3 to 8) (size 9 to 14) (size 15 to 20)
#    0.000    1.500    3.750    2.250    7.000    0.000 
#    0.000    0.625    0.000    0.750    0.000    0.000 
#    0.000    0.000    0.000    0.000    0.000    0.000 
#
# Total GULP energy -178692.378898 kJ/mol
# GULP energy per Si atom -5584.136841 kJ/mol
# Density = 2.375882 g / cm^3
# Si number density = 23.813018 Si / 1000 Ang^3
#
#
#
# Elastic Constant Matrix: (Units=GPa)
#
#
# Indices 1 2 3 4 5 6 
#
# 1 170.0372 7.9091 57.4593 0.0000 -3.4559 0.0000
# 2 7.9091 29.6491 5.2142 0.0000 -7.9018 0.0000
# 3 57.4593 5.2142 127.0570 0.0000 8.5201 0.0000
# 4 0.0000 0.0000 0.0000 32.5716 0.0000 -1.0806
# 5 -3.4559 -7.9018 8.5201 0.0000 23.9376 0.0000
# 6 0.0000 0.0000 0.0000 -1.0806 0.0000 29.3386
#
#
#
# Elastic Compliance Matrix: (Units=1/GPa)
#
#
# Indices 1 2 3 4 5 6 
#
# 1 0.007070 -0.000792 -0.003295 0.000000 0.001932 0.000000
# 2 -0.000792 0.037794 -0.002071 0.000000 0.013099 0.000000
# 3 -0.003295 -0.002071 0.009756 0.000000 -0.004632 0.000000
# 4 0.000000 0.000000 0.000000 0.030739 0.000000 0.001132
# 5 0.001932 0.013099 -0.004632 0.000000 0.048027 0.000000
# 6 0.000000 0.000000 0.000000 0.001132 0.000000 0.034126
#
#
# Mechanical properties :
#
#
# Convention : Reuss Voigt Hill
#
# Bulk Modulus (GPa) = 23.63761 51.98982 37.81372
# Shear Modulus (GPa) = 25.78248 34.24696 30.01472
#
# Velocity S-wave (km/s) = 3.29402 3.79642 3.55411
# Velocity P-wave (km/s) = 4.94118 6.41070 5.72330
#
# Compressibility (1/GPa) = 0.04230546
#
# Stress axis : x y z
#
# Youngs Moduli (GPa) = 141.43340 26.45901 102.50121
#
# Poissons Ratio (x) = 0.02095 0.33770
# Poissons Ratio (y) = 0.11199 0.21231
# Poissons Ratio (z) = 0.46596 0.05480
#
# Static dielectric constant tensor:
#      x y z
#    x 1.937580 0.000000 0.048340 
#    y 0.000000 2.007750 0.000000 
#    z 0.048340 0.000000 1.929740 
# 
# From -- ./inp_files/10686.got.cif
#   From: 2010.05.17/outbox.cif.g08.bks.cpg/sg14_6_cif.got.tgz:10686.got - 2010.06.03 17:49:19.
