data_PCOD9245161
_publ_section_title
;
Structure prediction by ZEFSAII (Michael W. Deem and Ramdas Pophale) SiO2 
 PCOD9245161
Probable space group: P 21/C
;
_chemical_formula_sum "Si O2"
_cell_formula_units_Z 24
_cell_length_a 9.194965
_cell_length_b 8.553767
_cell_length_c 23.802620
_cell_angle_alpha 90.000000
_cell_angle_beta 47.850838
_cell_angle_gamma 90.000000
_cell_volume 1387.985812
_symmetry_space_group_name_H-M "P 21/C"
_symmetry_group_IT_number 14
_symmetry_cell_setting 'monoclinic'
loop_
_space_group_symop_operation_xyz
x,y,z
-x,1/2+y,1/2-z
-x,-y,-z
x,1/2-y,1/2+z
loop_
_atom_site_type_symbol
_atom_site_label
_atom_site_fract_x
_atom_site_fract_y
_atom_site_fract_z
Si Si1 0.021443 0.153525 0.919448
Si Si2 0.004353 0.182836 0.796894
Si Si3 0.630516 0.736957 0.971171
Si Si4 0.317800 0.056658 0.935604
Si Si5 0.794128 0.406280 0.928280
Si Si6 0.274300 0.088366 0.163489
O O1 0.060587 0.112536 0.843731
O O2 0.206343 0.128159 0.911159
O O3 0.942131 0.331247 0.935139
O O4 0.842392 0.052104 0.991119
O O5 0.183436 0.260746 0.717598
O O6 0.867150 0.329311 0.851141
O O7 0.878061 0.055694 0.796304
O O8 0.778810 0.591194 0.932488
O O9 0.691179 0.866513 0.910476
O O10 0.619923 0.813332 0.035069
O O11 0.421315 0.666541 0.006798
O O12 0.513920 0.963264 0.868650
#
# Coordination Sequence:
#
# PCOD9245161 Si02
#       6
#     4   4   4   4   4   4
#     4   9  20  38  57  83 112 148 188 235 281 348
#     4  10  21  37  54  83 116 145 193 231 288 343
#     4  11  18  33  62  86 108 144 195 236 281 323
#     4  11  19  36  64  81 113 151 188 236 284 341
#     4   9  19  35  56  86 111 141 191 240 271 340
#     4  12  20  36  59  84 111 153 189 241 286 339
#
# _framework density 17.291243000000001
#
# number of rings (size 3 to 8) (size 9 to 14) (size 15 to 20)
#    1.000    0.667    5.000    1.500    0.000    0.667 
#    0.000    1.667    3.667    0.000    0.000    0.000 
#    0.000    0.000    0.000    0.000    0.000    0.000 
#
# Total GULP energy -133612.199614 kJ/mol
# GULP energy per Si atom -5567.174984 kJ/mol
# Density = 1.725189 g / cm^3
# Si number density = 17.291243 Si / 1000 Ang^3
#
#
#
# Elastic Constant Matrix: (Units=GPa)
#
#
# Indices 1 2 3 4 5 6 
#
# 1 109.0013 32.2428 40.3971 0.0000 -15.4172 0.0000
# 2 32.2428 49.1047 7.3796 0.0000 -18.2666 0.0000
# 3 40.3971 7.3796 56.7912 0.0000 -6.7916 0.0000
# 4 0.0000 0.0000 0.0000 40.3371 0.0000 -4.3794
# 5 -15.4172 -18.2666 -6.7916 0.0000 15.2348 0.0000
# 6 0.0000 0.0000 0.0000 -4.3794 0.0000 24.6059
#
#
#
# Elastic Compliance Matrix: (Units=1/GPa)
#
#
# Indices 1 2 3 4 5 6 
#
# 1 0.015374 -0.008047 -0.009701 0.000000 0.001585 0.000000
# 2 -0.008047 0.040988 0.005600 0.000000 0.043497 0.000000
# 3 -0.009701 0.005600 0.024728 0.000000 0.007922 0.000000
# 4 0.000000 0.000000 0.000000 0.025280 0.000000 0.004499
# 5 0.001585 0.043497 0.007922 0.000000 0.122928 0.000000
# 6 0.000000 0.000000 0.000000 0.004499 0.000000 0.041441
#
#
# Mechanical properties :
#
#
# Convention : Reuss Voigt Hill
#
# Bulk Modulus (GPa) = 17.60745 41.65957 29.63351
# Shear Modulus (GPa) = 15.92528 25.02742 20.47635
#
# Velocity S-wave (km/s) = 3.03810 3.80860 3.44496
# Velocity P-wave (km/s) = 4.74465 6.59438 5.74445
#
# Compressibility (1/GPa) = 0.05679415
#
# Stress axis : x y z
#
# Youngs Moduli (GPa) = 65.04498 24.39746 40.43939
#
# Poissons Ratio (x) = 0.19634 0.39229
# Poissons Ratio (y) = 0.52345 -0.22647
# Poissons Ratio (z) = 0.63098 -0.13663
#
# Static dielectric constant tensor:
#      x y z
#    x 1.567980 0.000000 -0.005730 
#    y 0.000000 1.596730 0.000000 
#    z -0.005730 0.000000 1.604580 
# 
# From -- ./inp_files/76161.got.cif
#   From: 2010.05.17/outbox.cif.g08.bks.cpg/sg14_39_cif.got.tgz:76161.got - 2010.06.03 17:49:19.
