data_PCOD9245906
_publ_section_title
;
Structure prediction by ZEFSAII (Michael W. Deem and Ramdas Pophale) SiO2 
 PCOD9245906
Probable space group: P 21/C
;
_chemical_formula_sum "Si O2"
_cell_formula_units_Z 16
_cell_length_a 9.728677
_cell_length_b 5.131040
_cell_length_c 28.357719
_cell_angle_alpha 90.000000
_cell_angle_beta 25.957714
_cell_angle_gamma 90.000000
_cell_volume 619.604634
_symmetry_space_group_name_H-M "P 21/C"
_symmetry_group_IT_number 14
_symmetry_cell_setting 'monoclinic'
loop_
_space_group_symop_operation_xyz
x,y,z
-x,1/2+y,1/2-z
-x,-y,-z
x,1/2-y,1/2+z
loop_
_atom_site_type_symbol
_atom_site_label
_atom_site_fract_x
_atom_site_fract_y
_atom_site_fract_z
Si Si1 0.630370 0.661356 0.234132
Si Si2 0.724704 0.615639 0.987249
Si Si3 0.448074 0.892982 0.146284
Si Si4 0.206176 0.305103 0.630306
O O1 0.558457 0.950016 0.239022
O O2 0.524314 0.601053 0.320481
O O3 0.992212 0.579395 0.113202
O O4 0.739353 0.836515 0.942274
O O5 0.739828 0.731721 0.035313
O O6 0.395928 0.462989 0.082579
O O7 0.168047 0.710810 0.250359
O O8 0.315453 0.016564 0.139146
#
# Coordination Sequence:
#
# PCOD9245906 Si02
#       4
#     4   4   4   4
#     4  11  29  48  65  97 138 185 234 268 315 402
#     4  10  23  41  67  98 133 174 214 287 335 398
#     4  11  22  40  72  95 137 172 218 283 341 401
#     4  10  21  39  65 106 129 161 224 277 357 396
#
# _framework density 25.822915999999999
#
# number of rings (size 3 to 8) (size 9 to 14) (size 15 to 20)
#    0.000    1.500    2.500    0.750    7.000    2.000 
#    0.000    0.000    0.000    0.000    0.000    0.000 
#    0.000    0.000    0.000    0.000    0.000    0.000 
#
# Total GULP energy -89477.538428 kJ/mol
# GULP energy per Si atom -5592.346152 kJ/mol
# Density = 2.576414 g / cm^3
# Si number density = 25.822916 Si / 1000 Ang^3
#
#
#
# Elastic Constant Matrix: (Units=GPa)
#
#
# Indices 1 2 3 4 5 6 
#
# 1 90.9476 31.3096 49.8582 0.0000 19.7130 0.0000
# 2 31.3096 53.1373 19.3248 0.0000 4.6558 0.0000
# 3 49.8582 19.3248 118.5543 0.0001 35.6214 0.0001
# 4 0.0000 0.0000 0.0001 13.8593 0.0000 -13.0958
# 5 19.7130 4.6558 35.6214 0.0000 53.8707 0.0000
# 6 0.0000 0.0000 0.0001 -13.0958 0.0000 56.2840
#
#
#
# Elastic Compliance Matrix: (Units=1/GPa)
#
#
# Indices 1 2 3 4 5 6 
#
# 1 0.017069 -0.007964 -0.005254 0.000000 -0.002084 0.000000
# 2 -0.007964 0.023733 -0.000972 0.000000 0.001506 0.000000
# 3 -0.005254 -0.000972 0.012729 0.000000 -0.006410 0.000000
# 4 0.000000 0.000000 0.000000 0.092487 0.000000 0.021519
# 5 -0.002084 0.001506 -0.006410 0.000000 0.023434 0.000000
# 6 0.000000 0.000000 0.000000 0.021519 0.000000 0.022774
#
#
# Mechanical properties :
#
#
# Convention : Reuss Voigt Hill
#
# Bulk Modulus (GPa) = 39.75922 51.51380 45.63651
# Shear Modulus (GPa) = 21.83495 35.61259 28.72377
#
# Velocity S-wave (km/s) = 2.91101 3.71766 3.33879
# Velocity P-wave (km/s) = 5.17001 6.19840 5.70742
#
# Compressibility (1/GPa) = 0.02515140
#
# Stress axis : x y z
#
# Youngs Moduli (GPa) = 58.58553 42.13499 78.56026
#
# Poissons Ratio (x) = 0.33557 0.41277
# Poissons Ratio (y) = 0.46658 0.07634
# Poissons Ratio (z) = 0.30782 0.04094
#
# Static dielectric constant tensor:
#      x y z
#    x 2.107500 0.000000 0.020290 
#    y 0.000000 2.095010 0.000000 
#    z 0.020290 0.000000 2.114150 
# 
# From -- ./inp_files/22444.got.cif
#   From: 2010.05.17/outbox.cif.g08.bks.cpg/sg14_12_cif.got.tgz:22444.got - 2010.06.03 17:49:19.
