data_PCOD9245880
_publ_section_title
;
Structure prediction by ZEFSAII (Michael W. Deem and Ramdas Pophale) SiO2 
 PCOD9245880
Probable space group: P 21/C
;
_chemical_formula_sum "Si O2"
_cell_formula_units_Z 32
_cell_length_a 8.047691
_cell_length_b 30.224651
_cell_length_c 5.208806
_cell_angle_alpha 90.000000
_cell_angle_beta 84.920646
_cell_angle_gamma 90.000000
_cell_volume 1262.007549
_symmetry_space_group_name_H-M "P 21/C"
_symmetry_group_IT_number 14
_symmetry_cell_setting 'monoclinic'
loop_
_space_group_symop_operation_xyz
x,y,z
-x,1/2+y,1/2-z
-x,-y,-z
x,1/2-y,1/2+z
loop_
_atom_site_type_symbol
_atom_site_label
_atom_site_fract_x
_atom_site_fract_y
_atom_site_fract_z
Si Si1 0.294496 0.862409 0.863937
Si Si2 0.367417 0.766847 0.662612
Si Si3 0.032919 0.048604 0.746939
Si Si4 0.978820 0.768862 0.562469
Si Si5 0.565304 0.091598 0.654639
Si Si6 0.718470 0.587126 0.439860
Si Si7 0.041860 0.366073 0.887689
Si Si8 0.283705 0.001669 0.338780
O O1 0.365158 0.813282 0.812520
O O2 0.385902 0.890163 0.627854
O O3 0.101496 0.861070 0.808443
O O4 0.326023 0.883986 0.136524
O O5 0.442513 0.766380 0.365205
O O6 0.173101 0.757797 0.605562
O O7 0.005726 0.090302 0.560807
O O8 0.178289 0.018605 0.598761
O O9 0.103844 0.067824 0.997103
O O10 0.864698 0.021546 0.803973
O O11 0.902709 0.737833 0.354845
O O12 0.968964 0.819240 0.467712
O O13 0.592081 0.038756 0.640464
O O14 0.381989 0.099619 0.794260
O O15 0.773274 0.626847 0.252073
O O16 0.640541 0.544946 0.305818
#
# Coordination Sequence:
#
# PCOD9245880 Si02
#       8
#     4   4   4   4   4   4   4   4
#     4  11  24  41  65  96 126 166 211 259 319 381
#     4   9  17  34  61  91 122 152 201 262 313 366
#     4  10  21  39  64  92 122 166 219 264 318 371
#     4   9  19  33  58  94 123 153 198 258 315 370
#     4  12  26  41  63  93 131 169 212 263 318 375
#     4  11  25  39  63  90 128 174 210 267 314 380
#     4  10  22  39  65  93 125 165 210 262 317 374
#     4  10  22  40  61  92 121 168 220 265 316 370
#
# _framework density 25.356424000000001
#
# number of rings (size 3 to 8) (size 9 to 14) (size 15 to 20)
#    0.000    1.750    1.250    2.250    7.000    2.500 
#    0.000    0.000    0.000    4.500    0.000    0.000 
#    0.000    0.000    0.000    0.000    0.000    0.000 
#
# Total GULP energy -178898.300590 kJ/mol
# GULP energy per Si atom -5590.571893 kJ/mol
# Density = 2.529871 g / cm^3
# Si number density = 25.356424 Si / 1000 Ang^3
#
#
#
# Elastic Constant Matrix: (Units=GPa)
#
#
# Indices 1 2 3 4 5 6 
#
# 1 45.3004 11.0595 12.2928 0.0000 -9.2121 0.0000
# 2 11.0595 90.9879 26.4084 0.0000 0.6125 0.0000
# 3 12.2928 26.4084 97.9737 0.0000 3.2788 0.0000
# 4 0.0000 0.0000 0.0000 33.6387 0.0000 2.8848
# 5 -9.2121 0.6125 3.2788 0.0000 32.1535 0.0000
# 6 0.0000 0.0000 0.0000 2.8848 0.0000 10.5138
#
#
#
# Elastic Compliance Matrix: (Units=1/GPa)
#
#
# Indices 1 2 3 4 5 6 
#
# 1 0.024896 -0.002275 -0.002760 0.000000 0.007458 0.000000
# 2 -0.002275 0.012132 -0.002965 0.000000 -0.000581 0.000000
# 3 -0.002760 -0.002965 0.011416 0.000000 -0.001898 0.000000
# 4 0.000000 0.000000 0.000000 0.030444 0.000000 -0.008353
# 5 0.007458 -0.000581 -0.001898 0.000000 0.033442 0.000000
# 6 0.000000 0.000000 0.000000 -0.008353 0.000000 0.097405
#
#
# Mechanical properties :
#
#
# Convention : Reuss Voigt Hill
#
# Bulk Modulus (GPa) = 30.82366 37.08704 33.95535
# Shear Modulus (GPa) = 21.13728 27.56128 24.34928
#
# Velocity S-wave (km/s) = 2.89036 3.30048 3.10220
# Velocity P-wave (km/s) = 4.82923 5.40206 5.12365
#
# Compressibility (1/GPa) = 0.03244261
#
# Stress axis : x y z
#
# Youngs Moduli (GPa) = 40.16743 82.42994 87.59722
#
# Poissons Ratio (x) = 0.18754 0.24177
# Poissons Ratio (y) = 0.09139 0.25973
# Poissons Ratio (z) = 0.11086 0.24441
#
# Static dielectric constant tensor:
#      x y z
#    x 2.068780 0.000000 -0.011570 
#    y 0.000000 2.014240 0.000000 
#    z -0.011570 0.000000 2.049070 
# 
# From -- ./inp_files/2230.got.cif
#   From: 2010.05.17/outbox.cif.g08.bks.cpg/sg14_2_cif.got.tgz:2230.got - 2010.06.03 17:49:19.
