data_PCOD9245566
_publ_section_title
;
Structure prediction by ZEFSAII (Michael W. Deem and Ramdas Pophale) SiO2 
 PCOD9245566
Probable space group: P 21/C
;
_chemical_formula_sum "Si O2"
_cell_formula_units_Z 24
_cell_length_a 13.400409
_cell_length_b 21.032448
_cell_length_c 7.690361
_cell_angle_alpha 90.000000
_cell_angle_beta 33.363094
_cell_angle_gamma 90.000000
_cell_volume 1191.988825
_symmetry_space_group_name_H-M "P 21/C"
_symmetry_group_IT_number 14
_symmetry_cell_setting 'monoclinic'
loop_
_space_group_symop_operation_xyz
x,y,z
-x,1/2+y,1/2-z
-x,-y,-z
x,1/2-y,1/2+z
loop_
_atom_site_type_symbol
_atom_site_label
_atom_site_fract_x
_atom_site_fract_y
_atom_site_fract_z
Si Si1 0.153450 0.047884 0.336415
Si Si2 0.820218 0.399614 0.876827
Si Si3 0.466911 0.497750 0.843607
Si Si4 0.818061 0.594706 0.824780
Si Si5 0.069043 0.840742 0.449957
Si Si6 0.938637 0.303049 0.431747
O O1 0.130194 0.058768 0.574189
O O2 0.111489 0.115756 0.306714
O O3 0.317379 0.951679 0.494192
O O4 0.347405 0.017906 0.016847
O O5 0.029813 0.421650 0.540441
O O6 0.802594 0.379720 0.103618
O O7 0.813345 0.337920 0.758607
O O8 0.950110 0.272083 0.933480
O O9 0.500000 0.500000 0.000000
O O10 0.380825 0.428676 0.931119
O O11 0.863144 0.667494 0.807940
O O12 0.120321 0.826273 0.174548
O O13 0.000000 0.000000 0.500000
#
# Coordination Sequence:
#
# PCOD9245566 Si02
#       6
#     4   4   4   4   4   4
#     4  11  23  38  63  93 125 170 215 261 319 371
#     4  10  21  38  63  93 122 163 208 255 323 377
#     4  12  23  37  61  93 132 165 211 265 311 379
#     4   9  20  38  59  90 127 160 208 256 316 379
#     4  11  19  39  68  87 126 168 211 261 318 385
#     4   9  20  35  67  90 119 168 206 256 320 378
#
# _framework density 20.134416000000002
#
# number of rings (size 3 to 8) (size 9 to 14) (size 15 to 20)
#    1.000    0.667    1.667    4.000    0.000    0.000 
#    0.000    0.000   14.667    0.000    0.000    0.000 
#    0.000    0.000    0.000    0.000    0.000    0.000 
#
# Total GULP energy -133703.242434 kJ/mol
# GULP energy per Si atom -5570.968435 kJ/mol
# Density = 2.008859 g / cm^3
# Si number density = 20.134416 Si / 1000 Ang^3
#
#
#
# Elastic Constant Matrix: (Units=GPa)
#
#
# Indices 1 2 3 4 5 6 
#
# 1 102.0851 37.1085 27.3217 0.0000 25.8413 0.0000
# 2 37.1085 90.3297 26.2116 0.0000 1.7666 0.0000
# 3 27.3217 26.2116 58.8374 0.0000 5.8592 0.0000
# 4 0.0000 0.0000 0.0000 21.5563 0.0000 10.8378
# 5 25.8413 1.7666 5.8592 0.0000 39.9931 0.0000
# 6 0.0000 0.0000 0.0000 10.8378 0.0000 30.0031
#
#
#
# Elastic Compliance Matrix: (Units=1/GPa)
#
#
# Indices 1 2 3 4 5 6 
#
# 1 0.014791 -0.004784 -0.003863 0.000000 -0.008780 0.000000
# 2 -0.004784 0.014264 -0.004443 0.000000 0.003112 0.000000
# 3 -0.003863 -0.004443 0.020805 0.000000 -0.000356 0.000000
# 4 0.000000 0.000000 0.000000 0.056685 0.000000 -0.020476
# 5 -0.008780 0.003112 -0.000356 0.000000 0.030592 0.000000
# 6 0.000000 0.000000 0.000000 -0.020476 0.000000 0.040726
#
#
# Mechanical properties :
#
#
# Convention : Reuss Voigt Hill
#
# Bulk Modulus (GPa) = 42.22917 48.05954 45.14436
# Shear Modulus (GPa) = 23.59208 29.01787 26.30497
#
# Velocity S-wave (km/s) = 3.42677 3.80044 3.61843
# Velocity P-wave (km/s) = 6.05608 6.57107 6.31883
#
# Compressibility (1/GPa) = 0.02368031
#
# Stress axis : x y z
#
# Youngs Moduli (GPa) = 67.60877 70.10574 48.06632
#
# Poissons Ratio (x) = 0.33536 0.18568
# Poissons Ratio (y) = 0.32342 0.21356
# Poissons Ratio (z) = 0.26117 0.31149
#
# Static dielectric constant tensor:
#      x y z
#    x 1.716010 0.000000 0.050090 
#    y 0.000000 1.773240 0.000000 
#    z 0.050090 0.000000 1.812540 
# 
# From -- ./inp_files/19139.got.cif
#   From: 2010.05.17/outbox.cif.g08.bks.cpg/sg14_10_cif.got.tgz:19139.got - 2010.06.03 17:49:19.
