data_PCOD9245679
_publ_section_title
;
Structure prediction by ZEFSAII (Michael W. Deem and Ramdas Pophale) SiO2 
 PCOD9245679
Probable space group: P 21/C
;
_chemical_formula_sum "Si O2"
_cell_formula_units_Z 32
_cell_length_a 29.590981
_cell_length_b 5.103659
_cell_length_c 18.010040
_cell_angle_alpha 90.000000
_cell_angle_beta 26.822078
_cell_angle_gamma 90.000000
_cell_volume 1227.285003
_symmetry_space_group_name_H-M "P 21/C"
_symmetry_group_IT_number 14
_symmetry_cell_setting 'monoclinic'
loop_
_space_group_symop_operation_xyz
x,y,z
-x,1/2+y,1/2-z
-x,-y,-z
x,1/2-y,1/2+z
loop_
_atom_site_type_symbol
_atom_site_label
_atom_site_fract_x
_atom_site_fract_y
_atom_site_fract_z
Si Si1 0.292701 0.776960 0.955768
Si Si2 0.064655 0.249586 0.665941
Si Si3 0.046436 0.316724 0.856370
Si Si4 0.409893 0.222073 0.691435
Si Si5 0.567922 0.943779 0.649042
Si Si6 0.379098 0.604437 0.088087
Si Si7 0.760268 0.088979 0.611955
Si Si8 0.126032 0.805560 0.808116
O O1 0.363064 0.542069 0.884460
O O2 0.212227 0.728935 0.006607
O O3 0.359250 0.009140 0.821780
O O4 0.228657 0.816731 0.126118
O O5 0.095516 0.281305 0.705273
O O6 0.020018 0.525182 0.708133
O O7 0.158920 0.127482 0.485373
O O8 0.050460 0.621985 0.870870
O O9 0.110392 0.108958 0.811386
O O10 0.928888 0.236258 0.032734
O O11 0.521488 0.287546 0.555467
O O12 0.340878 0.465831 0.773470
O O13 0.407761 0.091495 0.612336
O O14 0.476724 0.153580 0.782228
O O15 0.625021 0.978942 0.486807
O O16 0.277564 0.739324 0.264380
#
# Coordination Sequence:
#
# PCOD9245679 Si02
#       8
#     4   4   4   4   4   4   4   4
#     4  11  23  40  70  99 130 186 232 282 340 419
#     4  12  27  44  69 100 140 185 228 298 358 410
#     4  10  21  42  65  93 132 165 221 285 341 401
#     4  10  21  42  71 100 134 184 233 285 345 422
#     4  12  27  45  66 100 146 181 221 284 351 406
#     4  10  23  41  69 104 140 180 230 290 348 418
#     4  11  24  42  72  98 138 184 246 284 347 435
#     4  10  21  38  69  95 123 172 225 279 331 407
#
# _framework density 26.073812
#
# number of rings (size 3 to 8) (size 9 to 14) (size 15 to 20)
#    0.000    1.250    2.500    2.625    5.250    1.000 
#    0.000    0.000    0.000    0.000    0.000    0.000 
#    0.000    0.000    0.000    0.000    0.000    0.000 
#
# Total GULP energy -178619.215328 kJ/mol
# GULP energy per Si atom -5581.850479 kJ/mol
# Density = 2.601447 g / cm^3
# Si number density = 26.073812 Si / 1000 Ang^3
#
#
#
# Elastic Constant Matrix: (Units=GPa)
#
#
# Indices 1 2 3 4 5 6 
#
# 1 46.4203 13.3760 15.9445 0.0000 7.3217 0.0000
# 2 13.3760 80.0933 1.2109 0.0000 7.2273 0.0000
# 3 15.9445 1.2109 86.8938 0.0000 23.0909 0.0000
# 4 0.0000 0.0000 0.0000 28.9250 0.0000 1.2274
# 5 7.3217 7.2273 23.0909 0.0000 35.5767 0.0000
# 6 0.0000 0.0000 0.0000 1.2274 0.0000 26.8663
#
#
#
# Elastic Compliance Matrix: (Units=1/GPa)
#
#
# Indices 1 2 3 4 5 6 
#
# 1 0.024271 -0.003845 -0.003964 0.000000 -0.001641 0.000000
# 2 -0.003845 0.013355 0.001245 0.000000 -0.002730 0.000000
# 3 -0.003964 0.001245 0.014584 0.000000 -0.008903 0.000000
# 4 0.000000 0.000000 0.000000 0.034639 0.000000 -0.001582
# 5 -0.001641 -0.002730 -0.008903 0.000000 0.034779 0.000000
# 6 0.000000 0.000000 0.000000 -0.001582 0.000000 0.037294
#
#
# Mechanical properties :
#
#
# Convention : Reuss Voigt Hill
#
# Bulk Modulus (GPa) = 25.58771 30.49669 28.04220
# Shear Modulus (GPa) = 27.01570 30.46533 28.74052
#
# Velocity S-wave (km/s) = 3.22238 3.42193 3.32365
# Velocity P-wave (km/s) = 4.86619 5.22824 5.05046
#
# Compressibility (1/GPa) = 0.03908126
#
# Stress axis : x y z
#
# Youngs Moduli (GPa) = 41.20197 74.87761 68.56773
#
# Poissons Ratio (x) = 0.28793 0.27179
# Poissons Ratio (y) = 0.15844 -0.08536
# Poissons Ratio (z) = 0.16332 -0.09321
#
# Static dielectric constant tensor:
#      x y z
#    x 2.066150 0.000000 0.045590 
#    y 0.000000 2.186160 0.000000 
#    z 0.045590 0.000000 2.311400 
# 
# From -- ./inp_files/62454.got.cif
#   From: 2010.05.17/outbox.cif.g08.bks.cpg/sg14_32_cif.got.tgz:62454.got - 2010.06.03 17:49:19.
