data_PCOD9245550
_publ_section_title
;
Structure prediction by ZEFSAII (Michael W. Deem and Ramdas Pophale) SiO2 
 PCOD9245550
Probable space group: P 21/C
;
_chemical_formula_sum "Si O2"
_cell_formula_units_Z 24
_cell_length_a 13.340767
_cell_length_b 8.993884
_cell_length_c 16.947880
_cell_angle_alpha 90.000000
_cell_angle_beta 27.106408
_cell_angle_gamma 90.000000
_cell_volume 926.551496
_symmetry_space_group_name_H-M "P 21/C"
_symmetry_group_IT_number 14
_symmetry_cell_setting 'monoclinic'
loop_
_space_group_symop_operation_xyz
x,y,z
-x,1/2+y,1/2-z
-x,-y,-z
x,1/2-y,1/2+z
loop_
_atom_site_type_symbol
_atom_site_label
_atom_site_fract_x
_atom_site_fract_y
_atom_site_fract_z
Si Si1 0.089151 0.418944 0.023018
Si Si2 0.686711 0.789168 0.781605
Si Si3 0.386471 0.918684 0.413973
Si Si4 0.392558 0.683213 0.631427
Si Si5 0.299478 0.116246 0.938402
Si Si6 0.185283 0.508309 0.220438
O O1 0.837250 0.398016 0.219171
O O2 0.184506 0.567088 0.995639
O O3 0.151402 0.378464 0.889168
O O4 0.070345 0.037285 0.119284
O O5 0.469298 0.743137 0.883039
O O6 0.593028 0.536628 0.713630
O O7 0.791708 0.634957 0.739930
O O8 0.574830 0.849365 0.938215
O O9 0.221762 0.215812 0.473088
O O10 0.308986 0.998133 0.549003
O O11 0.512336 0.635786 0.628030
O O12 0.301475 0.852850 0.683833
#
# Coordination Sequence:
#
# PCOD9245550 Si02
#       6
#     4   4   4   4   4   4
#     4  10  22  37  59  89 119 154 195 240 291 345
#     4  10  21  38  64  88 114 155 199 242 287 345
#     4  10  21  39  60  87 120 153 192 243 293 344
#     4  10  21  39  60  87 120 154 195 241 291 348
#     4  10  22  37  60  89 118 153 195 243 290 345
#     4  10  21  38  63  88 115 156 199 239 289 347
#
# _framework density 25.902498999999999
#
# number of rings (size 3 to 8) (size 9 to 14) (size 15 to 20)
#    0.000    2.000    0.000    4.000    0.000   12.000 
#    0.000    5.000    0.000    0.000    0.000    0.000 
#    0.000    0.000    0.000    0.000    0.000    0.000 
#
# Total GULP energy -134175.037258 kJ/mol
# GULP energy per Si atom -5590.626552 kJ/mol
# Density = 2.584354 g / cm^3
# Si number density = 25.902499 Si / 1000 Ang^3
#
#
#
# Elastic Constant Matrix: (Units=GPa)
#
#
# Indices 1 2 3 4 5 6 
#
# 1 140.9340 31.9876 49.1033 0.0000 -11.0738 0.0000
# 2 31.9876 82.4559 35.8443 0.0000 5.6211 0.0000
# 3 49.1033 35.8443 147.4256 0.0000 -2.7894 0.0000
# 4 0.0000 0.0000 0.0000 45.1378 0.0000 -1.9651
# 5 -11.0738 5.6211 -2.7894 0.0000 44.1754 0.0000
# 6 0.0000 0.0000 0.0000 -1.9651 0.0000 39.4946
#
#
#
# Elastic Compliance Matrix: (Units=1/GPa)
#
#
# Indices 1 2 3 4 5 6 
#
# 1 0.008628 -0.002546 -0.002210 0.000000 0.002347 0.000000
# 2 -0.002546 0.014480 -0.002723 0.000000 -0.002653 0.000000
# 3 -0.002210 -0.002723 0.008187 0.000000 0.000309 0.000000
# 4 0.000000 0.000000 0.000000 0.022202 0.000000 0.001105
# 5 0.002347 -0.002653 0.000309 0.000000 0.023583 0.000000
# 6 0.000000 0.000000 0.000000 0.001105 0.000000 0.025375
#
#
# Mechanical properties :
#
#
# Convention : Reuss Voigt Hill
#
# Bulk Modulus (GPa) = 61.21239 67.18731 64.19985
# Shear Modulus (GPa) = 40.69714 42.68690 41.69202
#
# Velocity S-wave (km/s) = 3.96809 4.06394 4.01630
# Velocity P-wave (km/s) = 6.68412 6.92933 6.80783
#
# Compressibility (1/GPa) = 0.01633656
#
# Stress axis : x y z
#
# Youngs Moduli (GPa) = 115.90233 69.06120 122.14378
#
# Poissons Ratio (x) = 0.17585 0.26996
# Poissons Ratio (y) = 0.29512 0.33256
# Poissons Ratio (z) = 0.25617 0.18803
#
# Static dielectric constant tensor:
#      x y z
#    x 2.082440 0.000000 0.020560 
#    y 0.000000 2.247500 0.000000 
#    z 0.020560 0.000000 1.964470 
# 
# From -- ./inp_files/44252.got.cif
#   From: 2010.05.17/outbox.cif.g08.bks.cpg/sg14_23_cif.got.tgz:44252.got - 2010.06.03 17:49:19.
