data_PCOD9245928
_publ_section_title
;
Structure prediction by ZEFSAII (Michael W. Deem and Ramdas Pophale) SiO2 
 PCOD9245928
Probable space group: P 21/C
;
_chemical_formula_sum "Si O2"
_cell_formula_units_Z 28
_cell_length_a 31.163141
_cell_length_b 7.753427
_cell_length_c 29.915414
_cell_angle_alpha 90.000000
_cell_angle_beta 9.506086
_cell_angle_gamma 90.000000
_cell_volume 1193.753758
_symmetry_space_group_name_H-M "P 21/C"
_symmetry_group_IT_number 14
_symmetry_cell_setting 'monoclinic'
loop_
_space_group_symop_operation_xyz
x,y,z
-x,1/2+y,1/2-z
-x,-y,-z
x,1/2-y,1/2+z
loop_
_atom_site_type_symbol
_atom_site_label
_atom_site_fract_x
_atom_site_fract_y
_atom_site_fract_z
Si Si1 0.774473 0.456799 0.939864
Si Si2 0.226537 0.363038 0.544565
Si Si3 0.795235 0.868162 0.687675
Si Si4 0.000209 0.532211 0.446581
Si Si5 0.491365 0.166063 0.437591
Si Si6 0.586632 0.524416 0.311085
Si Si7 0.858442 0.352710 0.292797
O O1 0.971627 0.400261 0.776736
O O2 0.862398 0.341753 0.807343
O O3 0.484893 0.392878 0.249656
O O4 0.780111 0.665254 0.930813
O O5 0.234240 0.511045 0.574141
O O6 0.953912 0.733793 0.494034
O O7 0.608138 0.948687 0.842579
O O8 0.636914 0.755600 0.886472
O O9 0.000000 0.000000 0.500000
O O10 0.000000 0.500000 0.500000
O O11 0.756708 0.429523 0.676836
O O12 0.269544 0.465269 0.150478
O O13 0.543018 0.319952 0.350364
O O14 0.351368 0.622794 0.530481
O O15 0.854884 0.583335 0.014089
#
# Coordination Sequence:
#
# PCOD9245928 Si02
#       7
#     4   4   4   4   4   4   4
#     4  12  23  45  78 105 134 179 233 274 333 415
#     4  12  23  45  78 104 133 181 228 279 329 417
#     4  11  23  43  72  95 127 185 238 279 337 411
#     4  10  21  39  65  94 120 158 231 293 323 388
#     4  11  23  43  67  92 128 179 230 275 333 403
#     4  12  26  44  65  98 143 177 218 288 351 392
#     4  12  26  45  68 106 148 173 225 288 346 403
#
# _framework density 23.455425000000002
#
# number of rings (size 3 to 8) (size 9 to 14) (size 15 to 20)
#    0.000    0.571    2.857    7.286    0.000    4.571 
#    7.714    0.000    0.000    0.000    0.000    0.000 
#    0.000    0.000    0.000    0.000    0.000    0.000 
#
# Total GULP energy -156751.155125 kJ/mol
# GULP energy per Si atom -5598.255540 kJ/mol
# Density = 2.340204 g / cm^3
# Si number density = 23.455425 Si / 1000 Ang^3
#
#
#
# Elastic Constant Matrix: (Units=GPa)
#
#
# Indices 1 2 3 4 5 6 
#
# 1 48.3888 12.6052 5.2892 0.0000 -17.3778 0.0000
# 2 12.6052 112.1180 -4.8967 0.0000 -17.2815 0.0000
# 3 5.2892 -4.8967 102.0755 0.0000 -12.7519 0.0000
# 4 0.0000 0.0000 0.0000 48.5469 0.0000 3.5370
# 5 -17.3778 -17.2815 -12.7519 0.0000 41.3811 0.0000
# 6 0.0000 0.0000 0.0000 3.5370 0.0000 49.2081
#
#
#
# Elastic Compliance Matrix: (Units=1/GPa)
#
#
# Indices 1 2 3 4 5 6 
#
# 1 0.024500 -0.001260 -0.000115 0.000000 0.009727 0.000000
# 2 -0.001260 0.009695 0.001009 0.000000 0.003831 0.000000
# 3 -0.000115 0.001009 0.010294 0.000000 0.003545 0.000000
# 4 0.000000 0.000000 0.000000 0.020707 0.000000 -0.001488
# 5 0.009727 0.003831 0.003545 0.000000 0.030943 0.000000
# 6 0.000000 0.000000 0.000000 -0.001488 0.000000 0.020429
#
#
# Mechanical properties :
#
#
# Convention : Reuss Voigt Hill
#
# Bulk Modulus (GPa) = 22.85343 32.06418 27.45881
# Shear Modulus (GPa) = 37.91162 44.46619 41.18891
#
# Velocity S-wave (km/s) = 4.02472 4.35877 4.19507
# Velocity P-wave (km/s) = 5.60021 6.24754 5.93271
#
# Compressibility (1/GPa) = 0.04375710
#
# Stress axis : x y z
#
# Youngs Moduli (GPa) = 40.81636 103.14202 97.14474
#
# Poissons Ratio (x) = 0.12998 0.01115
# Poissons Ratio (y) = 0.05144 -0.09801
# Poissons Ratio (z) = 0.00469 -0.10406
#
# Static dielectric constant tensor:
#      x y z
#    x 2.336240 0.000000 -0.067130 
#    y 0.000000 1.186160 0.000000 
#    z -0.067130 0.000000 1.874520 
# 
# From -- ./inp_files/80955.got.cif
#   From: 2010.05.17/outbox.cif.g08.bks.cpg/sg14_41_cif.got.tgz:80955.got - 2010.06.03 17:49:19.
