data_PCOD9245327
_publ_section_title
;
Structure prediction by ZEFSAII (Michael W. Deem and Ramdas Pophale) SiO2 
 PCOD9245327
Probable space group: P 21/C
;
_chemical_formula_sum "Si O2"
_cell_formula_units_Z 28
_cell_length_a 12.239618
_cell_length_b 7.410423
_cell_length_c 27.775318
_cell_angle_alpha 90.000000
_cell_angle_beta 150.239386
_cell_angle_gamma 90.000000
_cell_volume 1250.494655
_symmetry_space_group_name_H-M "P 21/C"
_symmetry_group_IT_number 14
_symmetry_cell_setting 'monoclinic'
loop_
_space_group_symop_operation_xyz
x,y,z
-x,1/2+y,1/2-z
-x,-y,-z
x,1/2-y,1/2+z
loop_
_atom_site_type_symbol
_atom_site_label
_atom_site_fract_x
_atom_site_fract_y
_atom_site_fract_z
Si Si1 0.763749 0.257186 0.240732
Si Si2 0.118263 0.341720 0.224617
Si Si3 0.823283 0.628550 0.645951
Si Si4 0.127903 0.658568 0.451931
Si Si5 0.420505 0.769401 0.645901
Si Si6 0.676990 0.454402 0.300935
Si Si7 0.532736 0.849638 0.953329
O O1 0.709157 0.292563 0.275051
O O2 0.560093 0.268776 0.125840
O O3 0.949610 0.399190 0.295480
O O4 0.865295 0.058676 0.272772
O O5 0.109211 0.288515 0.277155
O O6 0.350667 0.270574 0.293396
O O7 0.928098 0.270472 0.117294
O O8 0.674107 0.456740 0.602809
O O9 0.667438 0.736931 0.548960
O O10 0.234582 0.780233 0.534438
O O11 0.303482 0.500975 0.506508
O O12 0.899306 0.572584 0.382961
O O13 0.363981 0.608655 0.660906
O O14 0.472230 0.937576 0.699984
#
# Coordination Sequence:
#
# PCOD9245327 Si02
#       7
#     4   4   4   4   4   4   4
#     4  11  22  41  65  97 126 171 219 270 320 383
#     4  10  24  38  65  94 135 165 222 263 319 386
#     4  10  21  37  63  94 128 171 209 263 317 382
#     4  11  22  45  65  96 132 174 215 260 332 382
#     4  11  23  44  64  97 125 174 211 271 323 384
#     4  11  25  43  72  91 133 165 220 266 331 381
#     4  10  22  40  65  90 134 172 213 264 325 383
#
# _framework density 22.391138000000002
#
# number of rings (size 3 to 8) (size 9 to 14) (size 15 to 20)
#    0.000    1.429    4.286    1.286    6.000    1.143 
#    0.000    4.286    0.000    0.000    0.000    0.000 
#    0.000    0.000    0.000    0.000    0.000    0.000 
#
# Total GULP energy -156480.299296 kJ/mol
# GULP energy per Si atom -5588.582118 kJ/mol
# Density = 2.234017 g / cm^3
# Si number density = 22.391138 Si / 1000 Ang^3
#
#
#
# Elastic Constant Matrix: (Units=GPa)
#
#
# Indices 1 2 3 4 5 6 
#
# 1 83.6849 -5.9631 38.6005 0.0000 -17.4699 0.0000
# 2 -5.9631 26.9912 26.6913 0.0000 -2.3280 0.0000
# 3 38.6005 26.6913 182.1062 0.0000 -32.3765 0.0000
# 4 0.0000 0.0000 0.0000 34.0198 0.0000 -3.5948
# 5 -17.4699 -2.3280 -32.3765 0.0000 29.4973 0.0000
# 6 0.0000 0.0000 0.0000 -3.5948 0.0000 24.9762
#
#
#
# Elastic Compliance Matrix: (Units=1/GPa)
#
#
# Indices 1 2 3 4 5 6 
#
# 1 0.015175 0.007005 -0.003165 0.000000 0.006067 0.000000
# 2 0.007005 0.047030 -0.008673 0.000000 -0.001659 0.000000
# 3 -0.003165 -0.008673 0.008670 0.000000 0.006958 0.000000
# 4 0.000000 0.000000 0.000000 0.029849 0.000000 0.004296
# 5 0.006067 -0.001659 0.006958 0.000000 0.045000 0.000000
# 6 0.000000 0.000000 0.000000 0.004296 0.000000 0.040656
#
#
# Mechanical properties :
#
#
# Convention : Reuss Voigt Hill
#
# Bulk Modulus (GPa) = 16.33696 45.71555 31.02626
# Shear Modulus (GPa) = 23.10002 33.26222 28.18112
#
# Velocity S-wave (km/s) = 3.21543 3.85841 3.55150
# Velocity P-wave (km/s) = 4.59318 6.34909 5.54113
#
# Compressibility (1/GPa) = 0.06121088
#
# Stress axis : x y z
#
# Youngs Moduli (GPa) = 65.89775 21.26280 115.33512
#
# Poissons Ratio (x) = -0.14896 0.36502
# Poissons Ratio (y) = -0.46164 1.00032
# Poissons Ratio (z) = 0.20855 0.18442
#
# Static dielectric constant tensor:
#      x y z
#    x 1.811730 0.000000 -0.017410 
#    y 0.000000 1.885010 0.000000 
#    z -0.017410 0.000000 1.834240 
# 
# From -- ./inp_files/77132.got.cif
#   From: 2010.05.17/outbox.cif.g08.bks.cpg/sg14_39_cif.got.tgz:77132.got - 2010.06.03 17:49:19.
