data_PCOD9245177
_publ_section_title
;
Structure prediction by ZEFSAII (Michael W. Deem and Ramdas Pophale) SiO2 
 PCOD9245177
Probable space group: P 21/C
;
_chemical_formula_sum "Si O2"
_cell_formula_units_Z 24
_cell_length_a 13.799947
_cell_length_b 12.001882
_cell_length_c 15.323730
_cell_angle_alpha 90.000000
_cell_angle_beta 160.127962
_cell_angle_gamma 90.000000
_cell_volume 862.717832
_symmetry_space_group_name_H-M "P 21/C"
_symmetry_group_IT_number 14
_symmetry_cell_setting 'monoclinic'
loop_
_space_group_symop_operation_xyz
x,y,z
-x,1/2+y,1/2-z
-x,-y,-z
x,1/2-y,1/2+z
loop_
_atom_site_type_symbol
_atom_site_label
_atom_site_fract_x
_atom_site_fract_y
_atom_site_fract_z
Si Si1 0.612453 0.732886 0.744554
Si Si2 0.744269 0.842526 0.189449
Si Si3 0.530458 0.841901 0.832451
Si Si4 0.124420 0.031359 0.446206
Si Si5 0.940900 0.463448 0.301213
Si Si6 0.067415 0.651274 0.541672
O O1 0.532650 0.662155 0.592167
O O2 0.406799 0.769425 0.647149
O O3 0.842432 0.654453 0.988626
O O4 0.747490 0.842281 0.813914
O O5 0.024722 0.774483 0.462110
O O6 0.851120 0.962254 0.248548
O O7 0.594515 0.786469 0.979459
O O8 0.372988 0.958984 0.701862
O O9 0.844060 0.876085 0.061867
O O10 0.178490 0.021522 0.388021
O O11 0.083883 0.562805 0.478619
O O12 0.774327 0.394818 0.237276
#
# Coordination Sequence:
#
# PCOD9245177 Si02
#       6
#     4   4   4   4   4   4
#     4   9  20  38  57  81 119 145 187 239 277 332
#     4   9  20  38  58  79 115 152 185 230 283 341
#     4  10  21  37  56  87 116 146 189 239 284 327
#     4  11  21  35  60  85 113 152 191 230 287 336
#     4   9  18  37  58  79 114 149 187 232 279 335
#     4   8  17  36  59  78 109 154 186 226 282 327
#
# _framework density 27.819061000000001
#
# number of rings (size 3 to 8) (size 9 to 14) (size 15 to 20)
#    1.000    1.667    0.000    1.500    0.000    2.000 
#    3.000   10.833    0.000    0.000    0.000    0.000 
#    0.000    0.000    0.000    0.000    0.000    0.000 
#
# Total GULP energy -133615.803356 kJ/mol
# GULP energy per Si atom -5567.325140 kJ/mol
# Density = 2.775574 g / cm^3
# Si number density = 27.819061 Si / 1000 Ang^3
#
#
#
# Elastic Constant Matrix: (Units=GPa)
#
#
# Indices 1 2 3 4 5 6 
#
# 1 138.4905 33.2882 46.4950 0.0000 -57.0378 0.0000
# 2 33.2882 133.1583 20.1045 0.0000 -6.9714 0.0000
# 3 46.4950 20.1045 94.0817 0.0000 -33.2046 0.0000
# 4 0.0000 0.0000 0.0000 -2.2702 0.0000 6.8962
# 5 -57.0378 -6.9714 -33.2046 0.0000 41.0326 0.0000
# 6 0.0000 0.0000 0.0000 6.8962 0.0000 37.3785
#
#
#
# Elastic Compliance Matrix: (Units=1/GPa)
#
#
# Indices 1 2 3 4 5 6 
#
# 1 0.018212 -0.003325 0.000624 0.000000 0.025256 0.000000
# 2 -0.003325 0.008367 -0.001784 0.000000 -0.004643 0.000000
# 3 0.000624 -0.001784 0.015259 0.000000 0.012912 0.000000
# 4 0.000000 0.000000 0.000000 -0.282281 0.000000 0.052080
# 5 0.025256 -0.004643 0.012912 0.000000 0.069138 0.000000
# 6 0.000000 0.000000 0.000000 0.052080 0.000000 0.017145
#
#
# Mechanical properties :
#
#
# Convention : Reuss Voigt Hill
#
# Bulk Modulus (GPa) = 30.42400 62.83396 46.62898
# Shear Modulus (GPa) = -37.24844 32.95104 -2.14870
#
# Velocity S-wave (km/s) = -3.66314 3.44536 -0.87981
# Velocity P-wave (km/s) = 2.63275 6.20185 3.97062
#
# Compressibility (1/GPa) = 0.03286879
#
# Stress axis : x y z
#
# Youngs Moduli (GPa) = 54.90827 119.51397 65.53491
#
# Poissons Ratio (x) = 0.39736 -0.04087
# Poissons Ratio (y) = 0.18256 0.11690
# Poissons Ratio (z) = -0.03425 0.21318
#
# Static dielectric constant tensor:
#      x y z
#    x 2.387950 0.000000 0.006980 
#    y 0.000000 2.272100 0.000000 
#    z 0.006980 0.000000 2.238570 
# 
# From -- ./inp_files/47309.got.cif
#   From: 2010.05.17/outbox.cif.g08.bks.cpg/sg14_24_cif.got.tgz:47309.got - 2010.06.03 17:49:19.
