data_PCOD9245715
_publ_section_title
;
Structure prediction by ZEFSAII (Michael W. Deem and Ramdas Pophale) SiO2 
 PCOD9245715
Probable space group: P 21/C
;
_chemical_formula_sum "Si O2"
_cell_formula_units_Z 20
_cell_length_a 8.605274
_cell_length_b 9.512014
_cell_length_c 10.509832
_cell_angle_alpha 90.000000
_cell_angle_beta 66.370731
_cell_angle_gamma 90.000000
_cell_volume 788.140022
_symmetry_space_group_name_H-M "P 21/C"
_symmetry_group_IT_number 14
_symmetry_cell_setting 'monoclinic'
loop_
_space_group_symop_operation_xyz
x,y,z
-x,1/2+y,1/2-z
-x,-y,-z
x,1/2-y,1/2+z
loop_
_atom_site_type_symbol
_atom_site_label
_atom_site_fract_x
_atom_site_fract_y
_atom_site_fract_z
Si Si1 0.693782 0.923974 0.564486
Si Si2 0.620734 0.684640 0.411138
Si Si3 0.795267 0.421281 0.266002
Si Si4 0.353703 0.857327 0.805718
Si Si5 0.166407 0.424272 0.246904
O O1 0.670046 0.762243 0.524753
O O2 0.818279 0.988977 0.627704
O O3 0.509151 0.944515 0.689165
O O4 0.747445 0.989699 0.411066
O O5 0.680508 0.525622 0.386855
O O6 0.433682 0.695430 0.412224
O O7 0.736298 0.776507 0.275119
O O8 0.704831 0.278550 0.253384
O O9 0.972496 0.397015 0.276724
O O10 0.200416 0.967603 0.848827
#
# Coordination Sequence:
#
# PCOD9245715 Si02
#       5
#     4   4   4   4   4
#     4   9  22  40  61  85 119 157 193 231 300 351
#     4   9  21  37  60  85 120 155 194 235 287 350
#     4  11  21  37  62  91 116 154 194 246 284 342
#     4  11  21  35  64  85 114 155 204 234 282 352
#     4  10  21  39  59  86 121 151 194 238 298 340
#
# _framework density 25.376201999999999
#
# number of rings (size 3 to 8) (size 9 to 14) (size 15 to 20)
#    1.200    0.800    0.000    4.800    2.800    0.800 
#    0.000    0.000    0.000    7.200    0.000    0.000 
#    0.000    0.000    0.000    0.000    0.000    0.000 
#
# Total GULP energy -111552.632571 kJ/mol
# GULP energy per Si atom -5577.631629 kJ/mol
# Density = 2.531844 g / cm^3
# Si number density = 25.376202 Si / 1000 Ang^3
#
#
#
# Elastic Constant Matrix: (Units=GPa)
#
#
# Indices 1 2 3 4 5 6 
#
# 1 157.6842 79.5646 23.7767 0.0000 23.0169 0.0000
# 2 79.5646 138.3906 1.1589 0.0000 10.3435 0.0000
# 3 23.7767 1.1589 54.3764 0.0000 9.7043 0.0000
# 4 0.0000 0.0000 0.0000 25.7955 0.0000 8.2042
# 5 23.0169 10.3435 9.7043 0.0000 21.0725 0.0000
# 6 0.0000 0.0000 0.0000 8.2042 0.0000 33.9527
#
#
#
# Elastic Compliance Matrix: (Units=1/GPa)
#
#
# Indices 1 2 3 4 5 6 
#
# 1 0.010746 -0.005591 -0.003241 0.000000 -0.007501 0.000000
# 2 -0.005591 0.010424 0.002229 0.000000 -0.000037 0.000000
# 3 -0.003241 0.002229 0.021054 0.000000 -0.007250 0.000000
# 4 0.000000 0.000000 0.000000 0.041994 0.000000 -0.010147
# 5 -0.007501 -0.000037 -0.007250 0.000000 0.059005 0.000000
# 6 0.000000 0.000000 0.000000 -0.010147 0.000000 0.031905
#
#
# Mechanical properties :
#
#
# Convention : Reuss Voigt Hill
#
# Bulk Modulus (GPa) = 34.46032 62.16129 48.31081
# Shear Modulus (GPa) = 25.25170 32.56087 28.90629
#
# Velocity S-wave (km/s) = 3.15793 3.58596 3.37873
# Velocity P-wave (km/s) = 5.18710 6.45713 5.85664
#
# Compressibility (1/GPa) = 0.02901888
#
# Stress axis : x y z
#
# Youngs Moduli (GPa) = 93.05493 95.93079 47.49724
#
# Poissons Ratio (x) = 0.53631 0.15394
# Poissons Ratio (y) = 0.52023 -0.10587
# Poissons Ratio (z) = 0.30160 -0.21382
#
# Static dielectric constant tensor:
#      x y z
#    x 2.009620 0.000000 0.024320 
#    y 0.000000 1.954000 0.000000 
#    z 0.024320 0.000000 2.138600 
# 
# From -- ./inp_files/38735.got.cif
#   From: 2010.05.17/outbox.cif.g08.bks.cpg/sg14_20_cif.got.tgz:38735.got - 2010.06.03 17:49:19.
