data_PCOD9245332
_publ_section_title
;
Structure prediction by ZEFSAII (Michael W. Deem and Ramdas Pophale) SiO2 
 PCOD9245332
Probable space group: P 21/C
;
_chemical_formula_sum "Si O2"
_cell_formula_units_Z 28
_cell_length_a 11.175477
_cell_length_b 19.508678
_cell_length_c 8.944050
_cell_angle_alpha 90.000000
_cell_angle_beta 138.283516
_cell_angle_gamma 90.000000
_cell_volume 1297.598642
_symmetry_space_group_name_H-M "P 21/C"
_symmetry_group_IT_number 14
_symmetry_cell_setting 'monoclinic'
loop_
_space_group_symop_operation_xyz
x,y,z
-x,1/2+y,1/2-z
-x,-y,-z
x,1/2-y,1/2+z
loop_
_atom_site_type_symbol
_atom_site_label
_atom_site_fract_x
_atom_site_fract_y
_atom_site_fract_z
Si Si1 0.653651 0.398479 0.429149
Si Si2 0.818555 0.972037 0.910942
Si Si3 0.614439 0.443557 0.702735
Si Si4 0.985238 0.171132 0.219441
Si Si5 0.815595 0.753416 0.345381
Si Si6 0.309372 0.151648 0.037437
Si Si7 0.270572 0.438880 0.990984
O O1 0.719264 0.467639 0.407833
O O2 0.704928 0.402899 0.652218
O O3 0.778092 0.337994 0.485788
O O4 0.440024 0.394449 0.208052
O O5 0.831846 0.905631 0.031376
O O6 0.701377 0.949582 0.658701
O O7 0.000000 0.000000 0.000000
O O8 0.500000 0.500000 0.500000
O O9 0.487605 0.392674 0.676107
O O10 0.729015 0.489247 0.921861
O O11 0.095627 0.199905 0.183723
O O12 0.030950 0.218059 0.402235
O O13 0.083303 0.098946 0.343272
O O14 0.681432 0.711827 0.329874
O O15 0.740405 0.812979 0.167024
#
# Coordination Sequence:
#
# PCOD9245332 Si02
#       7
#     4   4   4   4   4   4   4
#     4  11  23  40  63  99 133 159 216 272 335 389
#     4  12  22  38  65 100 131 166 213 273 335 389
#     4  10  21  37  63  99 132 164 209 280 333 394
#     4  11  23  43  65  94 127 171 220 262 332 392
#     4  10  23  41  68  85 132 184 214 268 312 401
#     4  11  21  42  63  98 129 173 228 260 329 400
#     4  11  22  39  66 100 129 169 207 277 339 385
#
# _framework density 21.578320999999999
#
# number of rings (size 3 to 8) (size 9 to 14) (size 15 to 20)
#    0.000    1.143    5.714    2.143    0.000    1.714 
#    0.000    5.714    0.000    0.000    0.000    0.000 
#    0.000    0.000    0.000    0.000    0.000    0.000 
#
# Total GULP energy -156271.219674 kJ/mol
# GULP energy per Si atom -5581.114988 kJ/mol
# Density = 2.152921 g / cm^3
# Si number density = 21.578321 Si / 1000 Ang^3
#
#
#
# Elastic Constant Matrix: (Units=GPa)
#
#
# Indices 1 2 3 4 5 6 
#
# 1 86.9515 18.5572 27.1721 0.0000 -13.1731 0.0000
# 2 18.5572 58.8563 19.9711 0.0000 -11.6536 0.0000
# 3 27.1721 19.9711 65.4803 0.0000 -14.3438 0.0000
# 4 0.0000 0.0000 0.0000 29.6385 0.0000 -10.8117
# 5 -13.1731 -11.6536 -14.3438 0.0000 34.6014 0.0000
# 6 0.0000 0.0000 0.0000 -10.8117 0.0000 27.2606
#
#
#
# Elastic Compliance Matrix: (Units=1/GPa)
#
#
# Indices 1 2 3 4 5 6 
#
# 1 0.013780 -0.002320 -0.004435 0.000000 0.002626 0.000000
# 2 -0.002320 0.019967 -0.004232 0.000000 0.004087 0.000000
# 3 -0.004435 -0.004232 0.019491 0.000000 0.004966 0.000000
# 4 0.000000 0.000000 0.000000 0.039447 0.000000 0.015645
# 5 0.002626 0.004087 0.004966 0.000000 0.033336 0.000000
# 6 0.000000 0.000000 0.000000 0.015645 0.000000 0.042888
#
#
# Mechanical properties :
#
#
# Convention : Reuss Voigt Hill
#
# Bulk Modulus (GPa) = 31.98592 38.07657 35.03125
# Shear Modulus (GPa) = 24.83818 28.00596 26.42207
#
# Velocity S-wave (km/s) = 3.39642 3.60651 3.50304
# Velocity P-wave (km/s) = 5.49875 5.91833 5.71239
#
# Compressibility (1/GPa) = 0.03126375
#
# Stress axis : x y z
#
# Youngs Moduli (GPa) = 72.57103 50.08210 51.30628
#
# Poissons Ratio (x) = 0.11618 0.22756
# Poissons Ratio (y) = 0.16834 0.21712
# Poissons Ratio (z) = 0.32187 0.21194
#
# Static dielectric constant tensor:
#      x y z
#    x 1.805260 0.000000 -0.020680 
#    y 0.000000 1.878200 0.000000 
#    z -0.020680 0.000000 1.790630 
# 
# From -- ./inp_files/14358.got.cif
#   From: 2010.05.17/outbox.cif.g08.bks.cpg/sg14_8_cif.got.tgz:14358.got - 2010.06.03 17:49:19.
