data_PCOD9245128
_publ_section_title
;
Structure prediction by ZEFSAII (Michael W. Deem and Ramdas Pophale) SiO2 
 PCOD9245128
Probable space group: P 21/C
;
_chemical_formula_sum "Si O2"
_cell_formula_units_Z 24
_cell_length_a 24.130142
_cell_length_b 9.298337
_cell_length_c 10.725613
_cell_angle_alpha 90.000000
_cell_angle_beta 151.802372
_cell_angle_gamma 90.000000
_cell_volume 1137.109322
_symmetry_space_group_name_H-M "P 21/C"
_symmetry_group_IT_number 14
_symmetry_cell_setting 'monoclinic'
loop_
_space_group_symop_operation_xyz
x,y,z
-x,1/2+y,1/2-z
-x,-y,-z
x,1/2-y,1/2+z
loop_
_atom_site_type_symbol
_atom_site_label
_atom_site_fract_x
_atom_site_fract_y
_atom_site_fract_z
Si Si1 0.463559 0.150082 0.290016
Si Si2 0.867787 0.805895 0.015653
Si Si3 0.054587 0.654164 0.078238
Si Si4 0.945117 0.423382 0.274828
Si Si5 0.218537 0.022712 0.742462
Si Si6 0.398868 0.369602 0.945866
O O1 0.442660 0.185826 0.395780
O O2 0.571367 0.039520 0.491171
O O3 0.456737 0.280956 0.176839
O O4 0.352963 0.049880 0.032739
O O5 0.842085 0.680514 0.863482
O O6 0.741481 0.848813 0.818495
O O7 0.957665 0.763715 0.302652
O O8 0.947841 0.927701 0.111440
O O9 0.082145 0.757753 0.246378
O O10 0.168249 0.606158 0.225433
O O11 0.000000 0.500000 0.000000
O O12 0.000000 0.500000 0.500000
O O13 0.825662 0.487916 0.984011
#
# Coordination Sequence:
#
# PCOD9245128 Si02
#       6
#     4   4   4   4   4   4
#     4  10  23  46  66  98 128 175 219 279 327 393
#     4  10  21  36  63  86 122 172 207 257 321 384
#     4  11  20  35  57  85 122 160 199 254 312 375
#     4  11  22  37  58  94 127 165 214 258 318 392
#     4  10  21  38  60  89 124 164 213 259 320 382
#     4  10  23  44  70  92 133 168 228 271 333 386
#
# _framework density 21.106152000000002
#
# number of rings (size 3 to 8) (size 9 to 14) (size 15 to 20)
#    0.000    1.667    3.333    1.000    2.333    0.667 
#   12.000    0.000    0.000    0.000    0.000    0.000 
#    0.000    0.000    0.000    0.000    0.000    0.000 
#
# Total GULP energy -133711.303593 kJ/mol
# GULP energy per Si atom -5571.304316 kJ/mol
# Density = 2.105811 g / cm^3
# Si number density = 21.106152 Si / 1000 Ang^3
#
#
#
# Elastic Constant Matrix: (Units=GPa)
#
#
# Indices 1 2 3 4 5 6 
#
# 1 95.9292 26.9843 13.9406 0.0000 -13.7037 0.0000
# 2 26.9843 47.0185 9.8531 0.0000 1.8981 0.0000
# 3 13.9406 9.8531 39.9497 0.0000 1.8930 0.0000
# 4 0.0000 0.0000 0.0000 37.1883 0.0000 -10.2651
# 5 -13.7037 1.8981 1.8930 0.0000 27.0034 0.0000
# 6 0.0000 0.0000 0.0000 -10.2651 0.0000 26.7329
#
#
#
# Elastic Compliance Matrix: (Units=1/GPa)
#
#
# Indices 1 2 3 4 5 6 
#
# 1 0.014261 -0.007788 -0.003436 0.000000 0.008025 0.000000
# 2 -0.007788 0.026719 -0.003608 0.000000 -0.005578 0.000000
# 3 -0.003436 -0.003608 0.027281 0.000000 -0.003402 0.000000
# 4 0.000000 0.000000 0.000000 0.030078 0.000000 0.011550
# 5 0.008025 -0.005578 -0.003402 0.000000 0.041736 0.000000
# 6 0.000000 0.000000 0.000000 0.011550 0.000000 0.041842
#
#
# Mechanical properties :
#
#
# Convention : Reuss Voigt Hill
#
# Bulk Modulus (GPa) = 25.90842 31.60594 28.75718
# Shear Modulus (GPa) = 22.27688 26.99289 24.63489
#
# Velocity S-wave (km/s) = 3.25232 3.58007 3.42012
# Velocity P-wave (km/s) = 5.13862 5.66537 5.40841
#
# Compressibility (1/GPa) = 0.03859749
#
# Stress axis : x y z
#
# Youngs Moduli (GPa) = 70.12153 37.42605 36.65490
#
# Poissons Ratio (x) = 0.29149 0.12594
# Poissons Ratio (y) = 0.54614 0.13225
# Poissons Ratio (z) = 0.24092 0.13503
#
# Static dielectric constant tensor:
#      x y z
#    x 1.896060 0.000000 -0.035810 
#    y 0.000000 1.831070 0.000000 
#    z -0.035810 0.000000 1.797190 
# 
# From -- ./inp_files/33594.got.cif
#   From: 2010.05.17/outbox.cif.g08.bks.cpg/sg14_17_cif.got.tgz:33594.got - 2010.06.03 17:49:19.
