data_PCOD9245155
_publ_section_title
;
Structure prediction by ZEFSAII (Michael W. Deem and Ramdas Pophale) SiO2 
 PCOD9245155
Probable space group: P 21/C
;
_chemical_formula_sum "Si O2"
_cell_formula_units_Z 28
_cell_length_a 8.450936
_cell_length_b 15.714868
_cell_length_c 10.454894
_cell_angle_alpha 90.000000
_cell_angle_beta 100.293294
_cell_angle_gamma 90.000000
_cell_volume 1366.119765
_symmetry_space_group_name_H-M "P 21/C"
_symmetry_group_IT_number 14
_symmetry_cell_setting 'monoclinic'
loop_
_space_group_symop_operation_xyz
x,y,z
-x,1/2+y,1/2-z
-x,-y,-z
x,1/2-y,1/2+z
loop_
_atom_site_type_symbol
_atom_site_label
_atom_site_fract_x
_atom_site_fract_y
_atom_site_fract_z
Si Si1 0.919129 0.232476 0.390309
Si Si2 0.268462 0.700332 0.389903
Si Si3 0.358878 0.991643 0.878306
Si Si4 0.205724 0.163968 0.809636
Si Si5 0.545372 0.791341 0.561306
Si Si6 0.619046 0.462625 0.910415
Si Si7 0.843999 0.893827 0.482648
O O1 0.069005 0.290765 0.371343
O O2 0.998905 0.139141 0.421132
O O3 0.799055 0.233824 0.253549
O O4 0.840627 0.267155 0.508457
O O5 0.272732 0.598363 0.385431
O O6 0.446415 0.735522 0.445490
O O7 0.418151 0.993391 0.738965
O O8 0.249338 0.074066 0.878082
O O9 0.500000 0.000000 0.000000
O O10 0.363818 0.225103 0.831874
O O11 0.145302 0.142792 0.659080
O O12 0.417327 0.861653 0.594000
O O13 0.690329 0.845620 0.521931
O O14 0.790108 0.507275 0.969680
O O15 0.500000 0.500000 0.000000
#
# Coordination Sequence:
#
# PCOD9245155 Si02
#       7
#     4   4   4   4   4   4   4
#     4  11  24  43  63  93 132 174 220 258 337 388
#     4  12  25  41  64  96 130 168 218 277 319 388
#     4  11  23  41  64  98 131 165 219 273 326 378
#     4  10  21  42  65  90 130 172 210 267 326 394
#     4  10  21  36  68  95 122 165 220 264 322 381
#     4   9  20  39  64  97 123 162 214 267 321 383
#     4   9  20  41  64  90 128 168 215 259 324 388
#
# _framework density 20.496006999999999
#
# number of rings (size 3 to 8) (size 9 to 14) (size 15 to 20)
#    0.000    1.714    2.857    0.857    4.000    1.714 
#    5.143    2.143    0.000    0.000    0.000    0.000 
#    0.000    0.000    0.000    0.000    0.000    0.000 
#
# Total GULP energy -156249.290345 kJ/mol
# GULP energy per Si atom -5580.331798 kJ/mol
# Density = 2.044936 g / cm^3
# Si number density = 20.496007 Si / 1000 Ang^3
#
#
#
# Elastic Constant Matrix: (Units=GPa)
#
#
# Indices 1 2 3 4 5 6 
#
# 1 58.7309 29.1893 18.4781 0.0000 -17.7475 0.0000
# 2 29.1893 114.4291 1.1020 0.0000 -7.0015 0.0000
# 3 18.4781 1.1020 77.0486 0.0000 -6.2920 0.0000
# 4 0.0000 0.0000 0.0000 24.6717 0.0000 1.3355
# 5 -17.7475 -7.0015 -6.2920 0.0000 29.6038 0.0000
# 6 0.0000 0.0000 0.0000 1.3355 0.0000 40.3547
#
#
#
# Elastic Compliance Matrix: (Units=1/GPa)
#
#
# Indices 1 2 3 4 5 6 
#
# 1 0.025212 -0.005604 -0.004926 0.000000 0.012743 0.000000
# 2 -0.005604 0.010113 0.001140 0.000000 -0.000726 0.000000
# 3 -0.004926 0.001140 0.014171 0.000000 0.000328 0.000000
# 4 0.000000 0.000000 0.000000 0.040605 0.000000 -0.001344
# 5 0.012743 -0.000726 0.000328 0.000000 0.041317 0.000000
# 6 0.000000 0.000000 0.000000 -0.001344 0.000000 0.024825
#
#
# Mechanical properties :
#
#
# Convention : Reuss Voigt Hill
#
# Bulk Modulus (GPa) = 32.55579 38.63862 35.59721
# Shear Modulus (GPa) = 26.98886 32.35532 29.67209
#
# Velocity S-wave (km/s) = 3.63269 3.97749 3.80899
# Velocity P-wave (km/s) = 5.78910 6.32350 6.06219
#
# Compressibility (1/GPa) = 0.03071650
#
# Stress axis : x y z
#
# Youngs Moduli (GPa) = 39.66288 98.88032 70.56826
#
# Poissons Ratio (x) = 0.55415 0.34761
# Poissons Ratio (y) = 0.22228 -0.08046
# Poissons Ratio (z) = 0.19537 -0.11274
#
# Static dielectric constant tensor:
#      x y z
#    x 1.748990 0.000000 0.013300 
#    y 0.000000 1.766750 0.000000 
#    z 0.013300 0.000000 1.701410 
# 
# From -- ./inp_files/25319.got.cif
#   From: 2010.05.17/outbox.cif.g08.bks.cpg/sg14_13_cif.got.tgz:25319.got - 2010.06.03 17:49:19.
