data_PCOD9245124
_publ_section_title
;
Structure prediction by ZEFSAII (Michael W. Deem and Ramdas Pophale) SiO2 
 PCOD9245124
Probable space group: P 21/C
;
_chemical_formula_sum "Si O2"
_cell_formula_units_Z 24
_cell_length_a 11.716803
_cell_length_b 11.263228
_cell_length_c 12.216185
_cell_angle_alpha 90.000000
_cell_angle_beta 43.848916
_cell_angle_gamma 90.000000
_cell_volume 1116.837164
_symmetry_space_group_name_H-M "P 21/C"
_symmetry_group_IT_number 14
_symmetry_cell_setting 'monoclinic'
loop_
_space_group_symop_operation_xyz
x,y,z
-x,1/2+y,1/2-z
-x,-y,-z
x,1/2-y,1/2+z
loop_
_atom_site_type_symbol
_atom_site_label
_atom_site_fract_x
_atom_site_fract_y
_atom_site_fract_z
Si Si1 0.777362 0.901289 0.012639
Si Si2 0.216198 0.486690 0.740689
Si Si3 0.911797 0.839200 0.474456
Si Si4 0.681833 0.083238 0.255763
Si Si5 0.597550 0.153318 0.750336
Si Si6 0.303946 0.507349 0.015514
O O1 0.792303 0.944345 0.877585
O O2 0.224039 0.988040 0.903795
O O3 0.906319 0.800736 0.959544
O O4 0.595063 0.840945 0.146899
O O5 0.171630 0.378708 0.853178
O O6 0.379788 0.550003 0.674438
O O7 0.083357 0.591619 0.850938
O O8 0.805529 0.899694 0.451474
O O9 0.664787 0.221833 0.244396
O O10 0.747395 0.053103 0.330705
O O11 0.493276 0.034938 0.385878
O O12 0.699826 0.109365 0.574028
#
# Coordination Sequence:
#
# PCOD9245124 Si02
#       6
#     4   4   4   4   4   4
#     4  11  23  39  68  94 119 167 211 253 311 372
#     4  10  24  42  63  93 125 166 207 254 319 367
#     4  10  22  44  62  86 129 167 200 261 312 365
#     4  10  21  36  62  97 116 160 211 254 308 365
#     4  10  21  39  63  92 128 156 207 262 304 372
#     4   9  20  38  59  88 126 160 199 256 313 357
#
# _framework density 21.489256000000001
#
# number of rings (size 3 to 8) (size 9 to 14) (size 15 to 20)
#    0.000    2.000    1.667    0.500    4.667    2.667 
#    6.000    1.667    0.000    0.000    0.000    0.000 
#    0.000    0.000    0.000    0.000    0.000    0.000 
#
# Total GULP energy -134141.658029 kJ/mol
# GULP energy per Si atom -5589.235751 kJ/mol
# Density = 2.144035 g / cm^3
# Si number density = 21.489256 Si / 1000 Ang^3
#
#
#
# Elastic Constant Matrix: (Units=GPa)
#
#
# Indices 1 2 3 4 5 6 
#
# 1 83.4160 35.1387 35.3159 0.0000 43.1043 0.0000
# 2 35.1387 101.5696 38.7858 0.0000 34.4034 0.0000
# 3 35.3159 38.7858 38.6917 0.0000 24.2135 0.0000
# 4 0.0000 0.0000 0.0000 9.0131 0.0000 -5.3070
# 5 43.1043 34.4034 24.2135 0.0000 47.2348 0.0000
# 6 0.0000 0.0000 0.0000 -5.3070 0.0000 36.8908
#
#
#
# Elastic Compliance Matrix: (Units=1/GPa)
#
#
# Indices 1 2 3 4 5 6 
#
# 1 0.027299 0.003164 -0.016279 0.000000 -0.018871 0.000000
# 2 0.003164 0.017176 -0.015415 0.000000 -0.007496 0.000000
# 3 -0.016279 -0.015415 0.058648 0.000000 -0.003981 0.000000
# 4 0.000000 0.000000 0.000000 0.121217 0.000000 0.017438
# 5 -0.018871 -0.007496 -0.003981 0.000000 0.045892 0.000000
# 6 0.000000 0.000000 0.000000 0.017438 0.000000 0.029616
#
#
# Mechanical properties :
#
#
# Convention : Reuss Voigt Hill
#
# Bulk Modulus (GPa) = 21.70952 49.12867 35.41910
# Shear Modulus (GPa) = 13.43135 26.25687 19.84411
#
# Velocity S-wave (km/s) = 2.50276 3.49930 3.04212
# Velocity P-wave (km/s) = 4.29840 6.26406 5.37190
#
# Compressibility (1/GPa) = 0.04606273
#
# Stress axis : x y z
#
# Youngs Moduli (GPa) = 36.63150 58.21982 17.05076
#
# Poissons Ratio (x) = -0.18422 0.27757
# Poissons Ratio (y) = -0.11591 0.26285
# Poissons Ratio (z) = 0.59633 0.89749
#
# Static dielectric constant tensor:
#      x y z
#    x 1.788500 0.000000 -0.039400 
#    y 0.000000 1.743840 0.000000 
#    z -0.039400 0.000000 1.788050 
# 
# From -- ./inp_files/44262.got.cif
#   From: 2010.05.17/outbox.cif.g08.bks.cpg/sg14_23_cif.got.tgz:44262.got - 2010.06.03 17:49:19.
