data_PCOD9245338
_publ_section_title
;
Structure prediction by ZEFSAII (Michael W. Deem and Ramdas Pophale) SiO2 
 PCOD9245338
Probable space group: P 21/C
;
_chemical_formula_sum "Si O2"
_cell_formula_units_Z 28
_cell_length_a 9.060287
_cell_length_b 14.840086
_cell_length_c 13.078608
_cell_angle_alpha 90.000000
_cell_angle_beta 47.451647
_cell_angle_gamma 90.000000
_cell_volume 1295.491749
_symmetry_space_group_name_H-M "P 21/C"
_symmetry_group_IT_number 14
_symmetry_cell_setting 'monoclinic'
loop_
_space_group_symop_operation_xyz
x,y,z
-x,1/2+y,1/2-z
-x,-y,-z
x,1/2-y,1/2+z
loop_
_atom_site_type_symbol
_atom_site_label
_atom_site_fract_x
_atom_site_fract_y
_atom_site_fract_z
Si Si1 0.719494 0.508275 0.617886
Si Si2 0.582189 0.235073 0.769758
Si Si3 0.286020 0.369039 0.559402
Si Si4 0.361757 0.102612 0.253890
Si Si5 0.002370 0.143613 0.929060
Si Si6 0.939358 0.275420 0.242948
Si Si7 0.971172 0.160921 0.523922
O O1 0.777024 0.544527 0.477265
O O2 0.488112 0.482954 0.731818
O O3 0.801328 0.580962 0.659961
O O4 0.842477 0.415280 0.566261
O O5 0.463988 0.311035 0.762131
O O6 0.741766 0.266366 0.782657
O O7 0.730257 0.174555 0.627703
O O8 0.431067 0.177868 0.909188
O O9 0.387247 0.391353 0.619824
O O10 0.106565 0.301402 0.671309
O O11 0.124685 0.099282 0.390420
O O12 0.917962 0.175048 0.860116
O O13 0.044632 0.237232 0.965108
O O14 0.004726 0.350397 0.128988
#
# Coordination Sequence:
#
# PCOD9245338 Si02
#       7
#     4   4   4   4   4   4   4
#     4  11  23  38  63  97 128 167 210 265 322 381
#     4  10  21  38  63  92 120 166 215 258 308 381
#     4  12  23  39  65  94 126 163 223 258 315 375
#     4  12  22  38  64  95 128 164 213 270 314 370
#     4  11  20  41  66  92 129 169 209 264 319 370
#     4  10  21  37  64  91 121 163 218 257 301 383
#     4  10  21  39  64  90 123 165 216 256 307 384
#
# _framework density 21.613415
#
# number of rings (size 3 to 8) (size 9 to 14) (size 15 to 20)
#    0.857    0.286    5.714    1.286    2.000    0.000 
#    0.000    1.429    0.000    0.000    0.000    0.000 
#    0.000    0.000    0.000    0.000    0.000    0.000 
#
# Total GULP energy -155991.716505 kJ/mol
# GULP energy per Si atom -5571.132732 kJ/mol
# Density = 2.156422 g / cm^3
# Si number density = 21.613415 Si / 1000 Ang^3
#
#
#
# Elastic Constant Matrix: (Units=GPa)
#
#
# Indices 1 2 3 4 5 6 
#
# 1 95.9391 18.9178 24.7880 0.0000 11.0534 0.0000
# 2 18.9178 42.3448 10.0652 0.0000 -7.2302 0.0000
# 3 24.7880 10.0652 54.8757 0.0000 -4.2618 0.0000
# 4 0.0000 0.0000 0.0000 26.1711 0.0000 -6.5979
# 5 11.0534 -7.2302 -4.2618 0.0000 37.7334 0.0000
# 6 0.0000 0.0000 0.0000 -6.5979 0.0000 41.2985
#
#
#
# Elastic Compliance Matrix: (Units=1/GPa)
#
#
# Indices 1 2 3 4 5 6 
#
# 1 0.013655 -0.005758 -0.005557 0.000000 -0.005731 0.000000
# 2 -0.005758 0.027817 -0.001974 0.000000 0.006794 0.000000
# 3 -0.005557 -0.001974 0.021380 0.000000 0.003664 0.000000
# 4 0.000000 0.000000 0.000000 0.039814 0.000000 0.006361
# 5 -0.005731 0.006794 0.003664 0.000000 0.029896 0.000000
# 6 0.000000 0.000000 0.000000 0.006361 0.000000 0.025230
#
#
# Mechanical properties :
#
#
# Convention : Reuss Voigt Hill
#
# Bulk Modulus (GPa) = 27.56751 33.41130 30.48940
# Shear Modulus (GPa) = 25.45046 30.33319 27.89182
#
# Velocity S-wave (km/s) = 3.43524 3.75032 3.59623
# Velocity P-wave (km/s) = 5.34013 5.85195 5.60189
#
# Compressibility (1/GPa) = 0.03627459
#
# Stress axis : x y z
#
# Youngs Moduli (GPa) = 73.23494 35.94894 46.77324
#
# Poissons Ratio (x) = 0.20699 0.25992
# Poissons Ratio (y) = 0.42168 0.09231
# Poissons Ratio (z) = 0.40696 0.07095
#
# Static dielectric constant tensor:
#      x y z
#    x 1.847170 0.000000 -0.036560 
#    y 0.000000 1.809210 0.000000 
#    z -0.036560 0.000000 1.847600 
# 
# From -- ./inp_files/41161.got.cif
#   From: 2010.05.17/outbox.cif.g08.bks.cpg/sg14_21_cif.got.tgz:41161.got - 2010.06.03 17:49:19.
