data_PCOD9245584
_publ_section_title
;
Structure prediction by ZEFSAII (Michael W. Deem and Ramdas Pophale) SiO2 
 PCOD9245584
Probable space group: P 21/C
;
_chemical_formula_sum "Si O2"
_cell_formula_units_Z 28
_cell_length_a 10.028525
_cell_length_b 7.267933
_cell_length_c 18.422579
_cell_angle_alpha 90.000000
_cell_angle_beta 83.254798
_cell_angle_gamma 90.000000
_cell_volume 1333.465840
_symmetry_space_group_name_H-M "P 21/C"
_symmetry_group_IT_number 14
_symmetry_cell_setting 'monoclinic'
loop_
_space_group_symop_operation_xyz
x,y,z
-x,1/2+y,1/2-z
-x,-y,-z
x,1/2-y,1/2+z
loop_
_atom_site_type_symbol
_atom_site_label
_atom_site_fract_x
_atom_site_fract_y
_atom_site_fract_z
Si Si1 0.858366 0.087897 0.485754
Si Si2 0.053366 0.026958 0.665039
Si Si3 0.456097 0.358567 0.332208
Si Si4 0.891697 0.154989 0.105964
Si Si5 0.393014 0.735683 0.817207
Si Si6 0.585925 0.560145 0.062438
Si Si7 0.149304 0.307603 0.309646
O O1 0.851665 0.076467 0.399349
O O2 0.858736 0.285842 0.525592
O O3 0.740337 0.968751 0.529723
O O4 0.000000 0.000000 0.500000
O O5 0.927315 0.887372 0.683856
O O6 0.115184 0.083766 0.737762
O O7 0.010452 0.218525 0.629322
O O8 0.568087 0.297842 0.268055
O O9 0.462028 0.576473 0.338122
O O10 0.309860 0.298776 0.308770
O O11 0.457117 0.260696 0.409199
O O12 0.763432 0.225565 0.160344
O O13 0.903751 0.940098 0.122024
O O14 0.436682 0.569211 0.865920
O O15 0.500000 0.500000 0.000000
#
# Coordination Sequence:
#
# PCOD9245584 Si02
#       7
#     4   4   4   4   4   4   4
#     4   9  20  39  63  84 124 163 202 250 324 364
#     4  11  21  37  59  90 121 160 203 262 300 368
#     4  11  22  39  65  90 125 172 206 254 324 377
#     4   9  20  39  56  86 122 159 203 252 307 372
#     4  10  21  38  64  90 121 167 208 253 318 379
#     4  11  24  42  63  94 129 165 216 268 308 378
#     4  11  22  36  62  89 124 158 211 254 309 370
#
# _framework density 20.997914000000002
#
# number of rings (size 3 to 8) (size 9 to 14) (size 15 to 20)
#    0.000    1.714    2.857    2.571    2.000    1.143 
#    0.000    4.286    0.000    0.000    0.000    0.000 
#    0.000    0.000    0.000    0.000    0.000    0.000 
#
# Total GULP energy -156335.075654 kJ/mol
# GULP energy per Si atom -5583.395559 kJ/mol
# Density = 2.095012 g / cm^3
# Si number density = 20.997914 Si / 1000 Ang^3
#
#
#
# Elastic Constant Matrix: (Units=GPa)
#
#
# Indices 1 2 3 4 5 6 
#
# 1 38.5999 -3.9856 12.7241 0.0000 -9.2516 0.0000
# 2 -3.9856 59.4309 -0.8485 0.0000 0.9955 0.0000
# 3 12.7241 -0.8485 74.5753 0.0000 -12.3075 0.0000
# 4 0.0000 0.0000 0.0000 34.0047 0.0000 4.0607
# 5 -9.2516 0.9955 -12.3075 0.0000 24.3123 0.0000
# 6 0.0000 0.0000 0.0000 4.0607 0.0000 18.1377
#
#
#
# Elastic Compliance Matrix: (Units=1/GPa)
#
#
# Indices 1 2 3 4 5 6 
#
# 1 0.029482 0.001770 -0.003460 0.000000 0.009395 0.000000
# 2 0.001770 0.016945 -0.000123 0.000000 -0.000082 0.000000
# 3 -0.003460 -0.000123 0.015038 0.000000 0.006301 0.000000
# 4 0.000000 0.000000 0.000000 0.030216 0.000000 -0.006765
# 5 0.009395 -0.000082 0.006301 0.000000 0.047900 0.000000
# 6 0.000000 0.000000 0.000000 -0.006765 0.000000 0.056648
#
#
# Mechanical properties :
#
#
# Convention : Reuss Voigt Hill
#
# Bulk Modulus (GPa) = 17.28899 20.93178 19.11038
# Shear Modulus (GPa) = 22.81730 26.27202 24.54466
#
# Velocity S-wave (km/s) = 3.30001 3.54103 3.42264
# Velocity P-wave (km/s) = 4.77196 5.16804 4.97395
#
# Compressibility (1/GPa) = 0.05784029
#
# Stress axis : x y z
#
# Youngs Moduli (GPa) = 33.91928 59.01579 66.49792
#
# Poissons Ratio (x) = -0.10448 0.23005
# Poissons Ratio (y) = -0.06005 0.00817
# Poissons Ratio (z) = 0.11735 0.00725
#
# Static dielectric constant tensor:
#      x y z
#    x 1.748390 0.000000 -0.009610 
#    y 0.000000 1.856550 0.000000 
#    z -0.009610 0.000000 1.771300 
# 
# From -- ./inp_files/54792.got.cif
#   From: 2010.05.17/outbox.cif.g08.bks.cpg/sg14_28_cif.got.tgz:54792.got - 2010.06.03 17:49:19.
