data_PCOD9245725
_publ_section_title
;
Structure prediction by ZEFSAII (Michael W. Deem and Ramdas Pophale) SiO2 
 PCOD9245725
Probable space group: P 21/C
;
_chemical_formula_sum "Si O2"
_cell_formula_units_Z 26
_cell_length_a 20.462242
_cell_length_b 4.758043
_cell_length_c 10.283429
_cell_angle_alpha 90.000000
_cell_angle_beta 67.459159
_cell_angle_gamma 90.000000
_cell_volume 924.712060
_symmetry_space_group_name_H-M "P 21/C"
_symmetry_group_IT_number 14
_symmetry_cell_setting 'monoclinic'
loop_
_space_group_symop_operation_xyz
x,y,z
-x,1/2+y,1/2-z
-x,-y,-z
x,1/2-y,1/2+z
loop_
_atom_site_type_symbol
_atom_site_label
_atom_site_fract_x
_atom_site_fract_y
_atom_site_fract_z
Si Si1 0.984472 0.878417 0.670196
Si Si2 0.158593 0.269426 0.128321
Si Si3 0.743769 0.074861 0.782965
Si Si4 0.458018 0.970155 0.837203
Si Si5 0.871496 0.228739 0.020045
Si Si6 0.500000 0.000000 0.500000
Si Si7 0.651967 0.914901 0.278357
O O1 0.904555 0.768901 0.718463
O O2 0.012716 0.686185 0.770655
O O3 0.047322 0.820922 0.519456
O O4 0.158532 0.583431 0.077005
O O5 0.230262 0.125069 0.120381
O O6 0.132817 0.087632 0.024799
O O7 0.815839 0.206877 0.672801
O O8 0.692178 0.339249 0.823419
O O9 0.702929 0.850134 0.724040
O O10 0.501387 0.776361 0.691616
O O11 0.380499 0.999761 0.837089
O O12 0.461724 0.772530 0.956129
O O13 0.420630 0.149709 0.591676
#
# Coordination Sequence:
#
# PCOD9245725 Si02
#       7
#     4   4   4   4   4   2   4
#     4   8  16  33  58  85 116 159 210 252 293 351
#     4  10  21  39  62  90 123 165 210 247 300 369
#     4  12  25  40  61  94 128 162 204 247 311 378
#     4  10  22  42  67  95 121 152 201 252 301 365
#     4  10  21  39  60  86 126 165 202 262 307 343
#     4  10  24  46  70  88 120 162 202 254 310 354
#     4  11  25  42  63  93 124 158 206 253 303 374
#
# _framework density 28.116861
#
# number of rings (size 3 to 8) (size 9 to 14) (size 15 to 20)
#    0.000    1.846    0.000    3.692    0.000    9.846 
#    0.000    3.077    0.000   12.923    0.000    0.000 
#    0.000    0.000    0.000    0.000    0.000    0.000 
#
# Total GULP energy -145346.078252 kJ/mol
# GULP energy per Si atom -5590.233779 kJ/mol
# Density = 2.805287 g / cm^3
# Si number density = 28.116861 Si / 1000 Ang^3
#
#
#
# Elastic Constant Matrix: (Units=GPa)
#
#
# Indices 1 2 3 4 5 6 
#
# 1 128.6974 28.2904 24.7208 0.0000 -9.4714 0.0000
# 2 28.2904 144.3996 10.0561 0.0000 7.8705 0.0000
# 3 24.7208 10.0561 74.2367 0.0000 -14.5394 0.0000
# 4 0.0000 0.0000 0.0000 14.0283 0.0000 -10.2040
# 5 -9.4714 7.8705 -14.5394 0.0000 27.1342 0.0000
# 6 0.0000 0.0000 0.0000 -10.2040 0.0000 62.9343
#
#
#
# Elastic Compliance Matrix: (Units=1/GPa)
#
#
# Indices 1 2 3 4 5 6 
#
# 1 0.008740 -0.001686 -0.002222 0.000000 0.002349 0.000000
# 2 -0.001686 0.007517 -0.001116 0.000000 -0.003367 0.000000
# 3 -0.002222 -0.001116 0.015947 0.000000 0.008093 0.000000
# 4 0.000000 0.000000 0.000000 0.080815 0.000000 0.013103
# 5 0.002349 -0.003367 0.008093 0.000000 0.042987 0.000000
# 6 0.000000 0.000000 0.000000 0.013103 0.000000 0.018014
#
#
# Mechanical properties :
#
#
# Convention : Reuss Voigt Hill
#
# Bulk Modulus (GPa) = 45.13539 52.60760 48.87149
# Shear Modulus (GPa) = 26.11600 39.77046 32.94323
#
# Velocity S-wave (km/s) = 3.05099 3.76502 3.42666
# Velocity P-wave (km/s) = 5.33845 6.13608 5.75111
#
# Compressibility (1/GPa) = 0.02215556
#
# Stress axis : x y z
#
# Youngs Moduli (GPa) = 114.41078 133.03659 62.70927
#
# Poissons Ratio (x) = 0.22426 0.13935
# Poissons Ratio (y) = 0.19286 0.07000
# Poissons Ratio (z) = 0.25424 0.14851
#
# Static dielectric constant tensor:
#      x y z
#    x 2.186050 0.000000 0.134490 
#    y 0.000000 2.140260 0.000000 
#    z 0.134490 0.000000 2.275450 
# 
# From -- ./inp_files/34563.got.cif
#   From: 2010.05.17/outbox.cif.g08.bks.cpg/sg14_18_cif.got.tgz:34563.got - 2010.06.03 17:49:19.
