data_PCOD9245822
_publ_section_title
;
Structure prediction by ZEFSAII (Michael W. Deem and Ramdas Pophale) SiO2 
 PCOD9245822
Probable space group: P 21/C
;
_chemical_formula_sum "Si O2"
_cell_formula_units_Z 28
_cell_length_a 19.848290
_cell_length_b 8.766562
_cell_length_c 10.861571
_cell_angle_alpha 90.000000
_cell_angle_beta 140.584055
_cell_angle_gamma 90.000000
_cell_volume 1200.000768
_symmetry_space_group_name_H-M "P 21/C"
_symmetry_group_IT_number 14
_symmetry_cell_setting 'monoclinic'
loop_
_space_group_symop_operation_xyz
x,y,z
-x,1/2+y,1/2-z
-x,-y,-z
x,1/2-y,1/2+z
loop_
_atom_site_type_symbol
_atom_site_label
_atom_site_fract_x
_atom_site_fract_y
_atom_site_fract_z
Si Si1 0.452442 0.217323 0.538979
Si Si2 0.971140 0.894973 0.071584
Si Si3 0.490541 0.610352 0.142368
Si Si4 0.267256 0.021272 0.029220
Si Si5 0.886063 0.323853 0.575261
Si Si6 0.221115 0.289990 0.140651
Si Si7 0.891046 0.048364 0.413643
O O1 0.509337 0.206026 0.485332
O O2 0.516672 0.293988 0.742037
O O3 0.340021 0.301963 0.359778
O O4 0.421184 0.042507 0.531420
O O5 0.058483 0.775381 0.240543
O O6 0.946620 0.015762 0.145649
O O7 0.861032 0.806515 0.891372
O O8 0.000000 0.000000 0.000000
O O9 0.608512 0.536580 0.312042
O O10 0.232964 0.882416 0.070380
O O11 0.200573 0.980528 0.815538
O O12 0.232030 0.185316 0.034860
O O13 0.897395 0.219329 0.471930
O O14 0.158160 0.447765 0.042919
O O15 0.000000 0.000000 0.500000
#
# Coordination Sequence:
#
# PCOD9245822 Si02
#       7
#     4   4   4   4   4   4   4
#     4  10  22  45  70  98 134 171 220 274 337 393
#     4  11  22  39  57  85 127 166 210 256 314 375
#     4  10  22  46  70  99 134 173 217 279 334 400
#     4  10  22  42  60  90 133 165 214 268 324 392
#     4  11  23  38  58  90 125 169 212 262 313 385
#     4  10  21  39  63  88 125 170 214 264 323 383
#     4  12  22  37  63  91 126 172 216 263 319 390
#
# _framework density 23.333318999999999
#
# number of rings (size 3 to 8) (size 9 to 14) (size 15 to 20)
#    0.000    1.429    1.429    5.143    0.000    1.714 
#   12.857    0.000    0.000    0.000    0.000    0.000 
#    0.000    0.000    0.000    0.000    0.000    0.000 
#
# Total GULP energy -156347.381951 kJ/mol
# GULP energy per Si atom -5583.835070 kJ/mol
# Density = 2.328021 g / cm^3
# Si number density = 23.333319 Si / 1000 Ang^3
#
#
#
# Elastic Constant Matrix: (Units=GPa)
#
#
# Indices 1 2 3 4 5 6 
#
# 1 38.4366 13.1372 14.3476 0.0000 -1.1027 0.0000
# 2 13.1372 94.6774 7.0469 0.0000 -1.7324 0.0000
# 3 14.3476 7.0469 71.6724 0.0000 -18.9328 0.0000
# 4 0.0000 0.0000 0.0000 49.1927 0.0000 -5.1351
# 5 -1.1027 -1.7324 -18.9328 0.0000 37.4992 0.0000
# 6 0.0000 0.0000 0.0000 -5.1351 0.0000 47.4430
#
#
#
# Elastic Compliance Matrix: (Units=1/GPa)
#
#
# Indices 1 2 3 4 5 6 
#
# 1 0.029514 -0.003679 -0.006187 0.000000 -0.002426 0.000000
# 2 -0.003679 0.011099 -0.000286 0.000000 0.000260 0.000000
# 3 -0.006187 -0.000286 0.017502 0.000000 0.008641 0.000000
# 4 0.000000 0.000000 0.000000 0.020560 0.000000 0.002225
# 5 -0.002426 0.000260 0.008641 0.000000 0.030971 0.000000
# 6 0.000000 0.000000 0.000000 0.002225 0.000000 0.021319
#
#
# Mechanical properties :
#
#
# Convention : Reuss Voigt Hill
#
# Bulk Modulus (GPa) = 26.44824 30.42776 28.43800
# Shear Modulus (GPa) = 30.51136 38.17729 34.34432
#
# Velocity S-wave (km/s) = 3.62004 4.04935 3.84070
# Velocity P-wave (km/s) = 5.36959 5.91031 5.64643
#
# Compressibility (1/GPa) = 0.03780970
#
# Stress axis : x y z
#
# Youngs Moduli (GPa) = 33.88176 90.10027 57.13715
#
# Poissons Ratio (x) = 0.33150 0.35353
# Poissons Ratio (y) = 0.12466 0.01634
# Poissons Ratio (z) = 0.20964 0.02577
#
# Static dielectric constant tensor:
#      x y z
#    x 1.936500 0.000000 -0.070850 
#    y 0.000000 1.904240 0.000000 
#    z -0.070850 0.000000 1.918150 
# 
# From -- ./inp_files/35656.got.cif
#   From: 2010.05.17/outbox.cif.g08.bks.cpg/sg14_18_cif.got.tgz:35656.got - 2010.06.03 17:49:19.
