data_PCOD9245797
_publ_section_title
;
Structure prediction by ZEFSAII (Michael W. Deem and Ramdas Pophale) SiO2 
 PCOD9245797
Probable space group: P 21/C
;
_chemical_formula_sum "Si O2"
_cell_formula_units_Z 26
_cell_length_a 20.342767
_cell_length_b 8.057910
_cell_length_c 15.056697
_cell_angle_alpha 90.000000
_cell_angle_beta 154.970013
_cell_angle_gamma 90.000000
_cell_volume 1044.233245
_symmetry_space_group_name_H-M "P 21/C"
_symmetry_group_IT_number 14
_symmetry_cell_setting 'monoclinic'
loop_
_space_group_symop_operation_xyz
x,y,z
-x,1/2+y,1/2-z
-x,-y,-z
x,1/2-y,1/2+z
loop_
_atom_site_type_symbol
_atom_site_label
_atom_site_fract_x
_atom_site_fract_y
_atom_site_fract_z
Si Si1 0.845267 0.596043 0.513321
Si Si2 0.264507 0.311341 0.433100
Si Si3 0.543165 0.353954 0.318884
Si Si4 0.263549 0.596785 0.201231
Si Si5 0.150260 0.734999 0.895456
Si Si6 0.000000 0.500000 0.000000
Si Si7 0.441928 0.239877 0.894073
O O1 0.816269 0.698991 0.569191
O O2 0.871177 0.409776 0.579340
O O3 0.686475 0.617310 0.263999
O O4 0.995147 0.683834 0.652563
O O5 0.389003 0.461693 0.593649
O O6 0.385243 0.160841 0.567163
O O7 0.131504 0.370222 0.204138
O O8 0.691762 0.252109 0.465598
O O9 0.495877 0.297052 0.359340
O O10 0.395435 0.737679 0.355677
O O11 0.350090 0.421963 0.315400
O O12 0.171715 0.597282 0.996857
O O13 0.141699 0.610222 0.130457
#
# Coordination Sequence:
#
# PCOD9245797 Si02
#       7
#     4   4   4   4   4   2   4
#     4  10  22  38  60  89 128 160 217 260 317 388
#     4  10  21  39  63  90 125 164 212 262 323 380
#     4  10  21  39  62  91 124 166 214 266 317 389
#     4  11  23  39  67  92 128 168 217 262 336 379
#     4  11  22  38  62  94 123 171 209 271 321 388
#     4  12  22  40  64  98 130 168 210 278 314 400
#     4  10  22  39  62  91 121 170 210 267 318 396
#
# _framework density 24.898651000000001
#
# number of rings (size 3 to 8) (size 9 to 14) (size 15 to 20)
#    0.000    1.538    3.077    1.846    4.308    1.846 
#    0.000    0.000    0.000    2.769    0.000    0.000 
#    0.000    0.000    0.000    0.000    0.000    0.000 
#
# Total GULP energy -144771.054133 kJ/mol
# GULP energy per Si atom -5568.117467 kJ/mol
# Density = 2.484198 g / cm^3
# Si number density = 24.898651 Si / 1000 Ang^3
#
#
#
# Elastic Constant Matrix: (Units=GPa)
#
#
# Indices 1 2 3 4 5 6 
#
# 1 53.1216 3.2103 29.4086 0.0000 20.5690 0.0000
# 2 3.2103 63.3023 68.9669 0.0000 25.3382 0.0000
# 3 29.4086 68.9669 177.0338 0.0000 27.7346 0.0000
# 4 0.0000 0.0000 0.0000 41.0243 0.0000 -3.1158
# 5 20.5690 25.3382 27.7346 0.0000 37.4485 0.0000
# 6 0.0000 0.0000 0.0000 -3.1158 0.0000 15.7972
#
#
#
# Elastic Compliance Matrix: (Units=1/GPa)
#
#
# Indices 1 2 3 4 5 6 
#
# 1 0.030490 0.015475 -0.007726 0.000000 -0.021496 0.000000
# 2 0.015475 0.041128 -0.014595 0.000000 -0.025519 0.000000
# 3 -0.007726 -0.014595 0.011772 0.000000 0.005401 0.000000
# 4 0.000000 0.000000 0.000000 0.024747 0.000000 0.004881
# 5 -0.021496 -0.025519 0.005401 0.000000 0.051777 0.000000
# 6 0.000000 0.000000 0.000000 0.004881 0.000000 0.064265
#
#
# Mechanical properties :
#
#
# Convention : Reuss Voigt Hill
#
# Bulk Modulus (GPa) = 14.34753 55.18103 34.76428
# Shear Modulus (GPa) = 19.14956 31.64547 25.39751
#
# Velocity S-wave (km/s) = 2.77627 3.56894 3.19726
# Velocity P-wave (km/s) = 4.00647 6.26047 5.25572
#
# Compressibility (1/GPa) = 0.06969840
#
# Stress axis : x y z
#
# Youngs Moduli (GPa) = 32.79749 24.31436 84.94867
#
# Poissons Ratio (x) = -0.37628 0.65632
# Poissons Ratio (y) = -0.50756 1.23984
# Poissons Ratio (z) = 0.25340 0.35487
#
# Static dielectric constant tensor:
#      x y z
#    x 1.975870 0.000000 -0.034830 
#    y 0.000000 2.033190 0.000000 
#    z -0.034830 0.000000 2.039630 
# 
# From -- ./inp_files/61820.got.cif
#   From: 2010.05.17/outbox.cif.g08.bks.cpg/sg14_31_cif.got.tgz:61820.got - 2010.06.03 17:49:19.
