data_PCOD9245228
_publ_section_title
;
Structure prediction by ZEFSAII (Michael W. Deem and Ramdas Pophale) SiO2 
 PCOD9245228
Probable space group: P 21/C
;
_chemical_formula_sum "Si O2"
_cell_formula_units_Z 32
_cell_length_a 16.796856
_cell_length_b 20.619618
_cell_length_c 16.608741
_cell_angle_alpha 90.000000
_cell_angle_beta 162.731399
_cell_angle_gamma 90.000000
_cell_volume 1707.594427
_symmetry_space_group_name_H-M "P 21/C"
_symmetry_group_IT_number 14
_symmetry_cell_setting 'monoclinic'
loop_
_space_group_symop_operation_xyz
x,y,z
-x,1/2+y,1/2-z
-x,-y,-z
x,1/2-y,1/2+z
loop_
_atom_site_type_symbol
_atom_site_label
_atom_site_fract_x
_atom_site_fract_y
_atom_site_fract_z
Si Si1 0.460612 0.349014 0.774090
Si Si2 0.256665 0.285713 0.150131
Si Si3 0.606044 0.551521 0.987151
Si Si4 0.116763 0.458702 0.482955
Si Si5 0.731085 0.116098 0.701631
Si Si6 0.302135 0.318700 0.020965
Si Si7 0.805360 0.269876 0.984910
Si Si8 0.722394 0.232538 0.222886
O O1 0.318111 0.284415 0.669996
O O2 0.231640 0.402250 0.534787
O O3 0.622486 0.376377 0.006441
O O4 0.675781 0.325702 0.915916
O O5 0.287373 0.331867 0.102509
O O6 0.449335 0.288847 0.414426
O O7 0.955251 0.288796 0.888042
O O8 0.353961 0.510989 0.710705
O O9 0.476473 0.575061 0.946402
O O10 0.704812 0.615944 0.036804
O O11 0.853360 0.502551 0.220262
O O12 0.021254 0.417799 0.470884
O O13 0.740619 0.188904 0.744997
O O14 0.591306 0.287884 0.285360
O O15 0.083760 0.263946 0.781809
O O16 0.789702 0.291844 0.877124
#
# Coordination Sequence:
#
# PCOD9245228 Si02
#       8
#     4   4   4   4   4   4   4   4
#     4  10  23  37  58  82 116 158 192 243 293 342
#     4  10  21  37  59  81 114 152 193 245 303 347
#     4  12  26  35  58  84 122 165 200 234 277 352
#     4  12  24  38  54  84 121 165 201 229 279 355
#     4  11  22  38  55  84 123 160 197 230 286 351
#     4  11  22  40  56  86 118 155 198 244 298 344
#     4  11  23  38  61  86 118 149 200 251 300 349
#     4  11  21  36  60  87 113 153 193 242 302 354
#
# _framework density 18.739812000000001
#
# number of rings (size 3 to 8) (size 9 to 14) (size 15 to 20)
#    0.000    1.000    3.750    4.500    5.250    0.000 
#    0.000    0.000    0.000    0.000    0.000    5.250 
#    0.000    0.000    0.000    0.000    0.000    0.000 
#
# Total GULP energy -178360.517255 kJ/mol
# GULP energy per Si atom -5573.766164 kJ/mol
# Density = 1.869716 g / cm^3
# Si number density = 18.739812 Si / 1000 Ang^3
#
#
#
# Elastic Constant Matrix: (Units=GPa)
#
#
# Indices 1 2 3 4 5 6 
#
# 1 73.8455 33.2975 -6.5121 0.0000 -3.8407 0.0000
# 2 33.2975 61.6931 9.4188 0.0000 3.1904 0.0000
# 3 -6.5121 9.4188 69.9728 0.0000 7.9078 0.0000
# 4 0.0000 0.0000 0.0000 22.6971 0.0000 9.4668
# 5 -3.8407 3.1904 7.9078 0.0000 26.1246 0.0000
# 6 0.0000 0.0000 0.0000 9.4668 0.0000 18.3174
#
#
#
# Elastic Compliance Matrix: (Units=1/GPa)
#
#
# Indices 1 2 3 4 5 6 
#
# 1 0.018806 -0.010749 0.002833 0.000000 0.003220 0.000000
# 2 -0.010749 0.022743 -0.003696 0.000000 -0.003239 0.000000
# 3 0.002833 -0.003696 0.015484 0.000000 -0.003819 0.000000
# 4 0.000000 0.000000 0.000000 0.056166 0.000000 -0.029028
# 5 0.003220 -0.003239 -0.003819 0.000000 0.040303 0.000000
# 6 0.000000 0.000000 0.000000 -0.029028 0.000000 0.069595
#
#
# Mechanical properties :
#
#
# Convention : Reuss Voigt Hill
#
# Bulk Modulus (GPa) = 29.57755 30.87998 30.22876
# Shear Modulus (GPa) = 19.41072 24.71498 22.06285
#
# Velocity S-wave (km/s) = 3.22188 3.63554 3.43494
# Velocity P-wave (km/s) = 5.44593 5.84268 5.64779
#
# Compressibility (1/GPa) = 0.03380943
#
# Stress axis : x y z
#
# Youngs Moduli (GPa) = 53.17450 43.97028 64.58279
#
# Poissons Ratio (x) = 0.47265 -0.18298
# Poissons Ratio (y) = 0.57158 0.23868
# Poissons Ratio (z) = -0.15066 0.16250
#
# Static dielectric constant tensor:
#      x y z
#    x 1.754800 0.000000 -0.043780 
#    y 0.000000 1.674620 0.000000 
#    z -0.043780 0.000000 1.718430 
# 
# From -- ./inp_files/47680.got.cif
#   From: 2010.05.17/outbox.cif.g08.bks.cpg/sg14_24_cif.got.tgz:47680.got - 2010.06.03 17:49:19.
