data_PCOD9245303
_publ_section_title
;
Structure prediction by ZEFSAII (Michael W. Deem and Ramdas Pophale) SiO2 
 PCOD9245303
Probable space group: P 21/C
;
_chemical_formula_sum "Si O2"
_cell_formula_units_Z 32
_cell_length_a 18.584633
_cell_length_b 11.593728
_cell_length_c 27.347332
_cell_angle_alpha 90.000000
_cell_angle_beta 17.848310
_cell_angle_gamma 90.000000
_cell_volume 1806.008155
_symmetry_space_group_name_H-M "P 21/C"
_symmetry_group_IT_number 14
_symmetry_cell_setting 'monoclinic'
loop_
_space_group_symop_operation_xyz
x,y,z
-x,1/2+y,1/2-z
-x,-y,-z
x,1/2-y,1/2+z
loop_
_atom_site_type_symbol
_atom_site_label
_atom_site_fract_x
_atom_site_fract_y
_atom_site_fract_z
Si Si1 0.267402 0.511005 0.344478
Si Si2 0.459190 0.759465 0.672984
Si Si3 0.440504 0.369386 0.055341
Si Si4 0.917997 0.899926 0.351358
Si Si5 0.623062 0.128146 0.547300
Si Si6 0.182053 0.744577 0.755388
Si Si7 0.241179 0.428513 0.471289
Si Si8 0.094259 0.642020 0.630514
O O1 0.353790 0.638632 0.274206
O O2 0.431798 0.421524 0.208640
O O3 0.282632 0.484356 0.391805
O O4 0.000000 0.500000 0.500000
O O5 0.688706 0.817204 0.499126
O O6 0.281744 0.724615 0.744856
O O7 0.548475 0.653265 0.647162
O O8 0.503269 0.359700 0.071700
O O9 0.168880 0.343914 0.220451
O O10 0.500000 0.500000 0.000000
O O11 0.607958 0.287713 0.915171
O O12 0.065046 0.875636 0.207558
O O13 0.059663 0.863259 0.308003
O O14 0.822929 0.029640 0.413367
O O15 0.743938 0.247528 0.483798
O O16 0.989672 0.847066 0.882036
O O17 0.197460 0.528086 0.538915
#
# Coordination Sequence:
#
# PCOD9245303 Si02
#       8
#     4   4   4   4   4   4   4   4
#     4  11  22  43  69  88 116 167 217 257 298 366
#     4  10  22  40  63  92 125 160 204 256 313 369
#     4  12  19  35  64  90 123 159 206 249 300 377
#     4  10  21  37  62  90 127 161 196 257 319 372
#     4  11  24  41  59  95 127 159 210 260 308 372
#     4  11  19  38  63  93 123 163 202 249 312 380
#     4  11  24  38  64  90 123 166 212 252 306 363
#     4  12  23  37  63  93 125 161 204 263 313 368
#
# _framework density 17.718636
#
# number of rings (size 3 to 8) (size 9 to 14) (size 15 to 20)
#    0.000    1.000    6.250    1.500    3.500    0.000 
#    2.250    1.250    0.000    7.500    0.000    0.000 
#    0.000    0.000    0.000    0.000    0.000    0.000 
#
# Total GULP energy -178802.022383 kJ/mol
# GULP energy per Si atom -5587.563199 kJ/mol
# Density = 1.767831 g / cm^3
# Si number density = 17.718636 Si / 1000 Ang^3
#
#
#
# Elastic Constant Matrix: (Units=GPa)
#
#
# Indices 1 2 3 4 5 6 
#
# 1 143.1282 71.1114 45.1251 0.0000 -7.3603 0.0000
# 2 71.1114 78.4235 56.1781 0.0000 -11.2654 0.0000
# 3 45.1251 56.1781 87.5211 0.0000 -3.3182 0.0000
# 4 0.0000 0.0000 0.0000 18.4722 0.0000 -6.2818
# 5 -7.3603 -11.2654 -3.3182 0.0000 34.0164 0.0000
# 6 0.0000 0.0000 0.0000 -6.2818 0.0000 23.9202
#
#
#
# Elastic Compliance Matrix: (Units=1/GPa)
#
#
# Indices 1 2 3 4 5 6 
#
# 1 0.012893 -0.013126 0.001725 0.000000 -0.001389 0.000000
# 2 -0.013126 0.038426 -0.017587 0.000000 0.008170 0.000000
# 3 0.001725 -0.017587 0.021699 0.000000 -0.003334 0.000000
# 4 0.000000 0.000000 0.000000 0.059444 0.000000 0.015611
# 5 -0.001389 0.008170 -0.003334 0.000000 0.031477 0.000000
# 6 0.000000 0.000000 0.000000 0.015611 0.000000 0.045905
#
#
# Mechanical properties :
#
#
# Convention : Reuss Voigt Hill
#
# Bulk Modulus (GPa) = 66.48439 72.65579 69.57009
# Shear Modulus (GPa) = 18.32610 24.39230 21.35920
#
# Velocity S-wave (km/s) = 3.21952 3.71434 3.47575
# Velocity P-wave (km/s) = 7.17106 7.71294 7.44693
#
# Compressibility (1/GPa) = 0.01504112
#
# Stress axis : x y z
#
# Youngs Moduli (GPa) = 77.56127 26.02407 46.08569
#
# Poissons Ratio (x) = 0.34160 -0.07952
# Poissons Ratio (y) = 1.01810 0.81052
# Poissons Ratio (z) = -0.13383 0.45769
#
# Static dielectric constant tensor:
#      x y z
#    x 1.592940 0.000000 -0.006730 
#    y 0.000000 1.584340 0.000000 
#    z -0.006730 0.000000 1.598720 
# 
# From -- ./inp_files/77229.got.cif
#   From: 2010.05.17/outbox.cif.g08.bks.cpg/sg14_39_cif.got.tgz:77229.got - 2010.06.03 17:49:19.
