data_PCOD9245235
_publ_section_title
;
Structure prediction by ZEFSAII (Michael W. Deem and Ramdas Pophale) SiO2 
 PCOD9245235
Probable space group: P 21/C
;
_chemical_formula_sum "Si O2"
_cell_formula_units_Z 32
_cell_length_a 13.553966
_cell_length_b 4.962618
_cell_length_c 22.330044
_cell_angle_alpha 90.000000
_cell_angle_beta 121.754397
_cell_angle_gamma 90.000000
_cell_volume 1277.159221
_symmetry_space_group_name_H-M "P 21/C"
_symmetry_group_IT_number 14
_symmetry_cell_setting 'monoclinic'
loop_
_space_group_symop_operation_xyz
x,y,z
-x,1/2+y,1/2-z
-x,-y,-z
x,1/2-y,1/2+z
loop_
_atom_site_type_symbol
_atom_site_label
_atom_site_fract_x
_atom_site_fract_y
_atom_site_fract_z
Si Si1 0.007223 0.568872 0.900539
Si Si2 0.692726 0.569025 0.360539
Si Si3 0.830864 0.092440 0.435679
Si Si4 0.584676 0.748734 0.016337
Si Si5 0.932446 0.943992 0.709776
Si Si6 0.807695 0.897630 0.779753
Si Si7 0.521271 0.877559 0.374869
Si Si8 0.635526 0.889043 0.154679
O O1 0.916393 0.368522 0.905465
O O2 0.927108 0.809316 0.849276
O O3 0.075256 0.463612 0.864016
O O4 0.095349 0.641807 0.981337
O O5 0.789257 0.785971 0.413095
O O6 0.719826 0.490805 0.300814
O O7 0.575442 0.736277 0.333651
O O8 0.719990 0.288738 0.401955
O O9 0.672491 0.793024 0.099318
O O10 0.500000 0.500000 0.000000
O O11 0.617149 0.695584 0.957850
O O12 0.500000 0.000000 0.000000
O O13 0.835797 0.043894 0.726364
O O14 0.961351 0.639094 0.737287
O O15 0.737231 0.637175 0.734436
O O16 0.415645 0.684985 0.360412
O O17 0.467990 0.176419 0.359845
#
# Coordination Sequence:
#
# PCOD9245235 Si02
#       8
#     4   4   4   4   4   4   4   4
#     4   9  21  41  63  89 122 156 198 249 301 359
#     4  11  23  39  60  89 120 157 203 248 296 354
#     4  10  22  39  63  89 118 157 200 250 303 349
#     4   8  16  33  53  74 104 142 188 237 279 326
#     4  10  21  38  59  83 116 156 192 238 296 353
#     4  10  23  39  60  89 124 158 196 243 298 363
#     4  10  21  38  59  84 117 155 199 244 287 344
#     4  10  21  37  59  86 117 157 194 238 297 349
#
# _framework density 25.055610000000001
#
# number of rings (size 3 to 8) (size 9 to 14) (size 15 to 20)
#    0.000    2.250    0.000    1.500    0.000   12.500 
#    0.000    6.250    0.000    0.000    0.000    0.000 
#    0.000    0.000    0.000    0.000    0.000    0.000 
#
# Total GULP energy -178431.929085 kJ/mol
# GULP energy per Si atom -5575.997784 kJ/mol
# Density = 2.499858 g / cm^3
# Si number density = 25.055610 Si / 1000 Ang^3
#
#
#
# Elastic Constant Matrix: (Units=GPa)
#
#
# Indices 1 2 3 4 5 6 
#
# 1 114.1958 1.2021 22.3850 0.0000 -37.5284 0.0000
# 2 1.2021 95.2688 8.1398 0.0000 -0.5421 0.0000
# 3 22.3850 8.1398 80.1457 0.0000 -23.4039 0.0000
# 4 0.0000 0.0000 0.0000 21.2181 0.0000 3.9255
# 5 -37.5284 -0.5421 -23.4039 0.0000 39.7114 0.0000
# 6 0.0000 0.0000 0.0000 3.9255 0.0000 28.3300
#
#
#
# Elastic Compliance Matrix: (Units=1/GPa)
#
#
# Indices 1 2 3 4 5 6 
#
# 1 0.012702 -0.000089 -0.000041 0.000000 0.011979 0.000000
# 2 -0.000089 0.010601 -0.001249 0.000000 -0.000675 0.000000
# 3 -0.000041 -0.001249 0.015218 0.000000 0.008913 0.000000
# 4 0.000000 0.000000 0.000000 0.048369 0.000000 -0.006702
# 5 0.011979 -0.000675 0.008913 0.000000 0.041746 0.000000
# 6 0.000000 0.000000 0.000000 -0.006702 0.000000 0.036227
#
#
# Mechanical properties :
#
#
# Convention : Reuss Voigt Hill
#
# Bulk Modulus (GPa) = 27.96064 39.22937 33.59500
# Shear Modulus (GPa) = 27.84856 35.04411 31.44634
#
# Velocity S-wave (km/s) = 3.33749 3.74391 3.54653
# Velocity P-wave (km/s) = 5.10249 5.86346 5.49616
#
# Compressibility (1/GPa) = 0.03576456
#
# Stress axis : x y z
#
# Youngs Moduli (GPa) = 78.72467 94.33417 65.70997
#
# Poissons Ratio (x) = 0.00836 0.00268
# Poissons Ratio (y) = 0.00698 0.08207
# Poissons Ratio (z) = 0.00321 0.11783
#
# Static dielectric constant tensor:
#      x y z
#    x 2.093150 0.000000 -0.048950 
#    y 0.000000 1.957630 0.000000 
#    z -0.048950 0.000000 2.099110 
# 
# From -- ./inp_files/73502.got.cif
#   From: 2010.05.17/outbox.cif.g08.bks.cpg/sg14_37_cif.got.tgz:73502.got - 2010.06.03 17:49:19.
