data_PCOD9245946
_publ_section_title
;
Structure prediction by ZEFSAII (Michael W. Deem and Ramdas Pophale) SiO2 
 PCOD9245946
Probable space group: P 21/C
;
_chemical_formula_sum "Si O2"
_cell_formula_units_Z 20
_cell_length_a 8.026429
_cell_length_b 17.558934
_cell_length_c 5.947869
_cell_angle_alpha 90.000000
_cell_angle_beta 60.970863
_cell_angle_gamma 90.000000
_cell_volume 732.957298
_symmetry_space_group_name_H-M "P 21/C"
_symmetry_group_IT_number 14
_symmetry_cell_setting 'monoclinic'
loop_
_space_group_symop_operation_xyz
x,y,z
-x,1/2+y,1/2-z
-x,-y,-z
x,1/2-y,1/2+z
loop_
_atom_site_type_symbol
_atom_site_label
_atom_site_fract_x
_atom_site_fract_y
_atom_site_fract_z
Si Si1 0.592239 0.450647 0.740440
Si Si2 0.027670 0.588159 0.929598
Si Si3 0.367203 0.833864 0.423429
Si Si4 0.702633 0.596616 0.455591
Si Si5 0.035405 0.777788 0.146344
O O1 0.658958 0.375470 0.821756
O O2 0.734892 0.513829 0.549453
O O3 0.435533 0.425809 0.662884
O O4 0.500000 0.500000 0.000000
O O5 0.241878 0.613127 0.841037
O O6 0.892968 0.623799 0.211553
O O7 0.000000 0.500000 0.000000
O O8 0.989654 0.632235 0.721158
O O9 0.256054 0.754324 0.504763
O O10 0.581803 0.845166 0.191541
O O11 0.968914 0.745515 0.438497
#
# Coordination Sequence:
#
# PCOD9245946 Si02
#       5
#     4   4   4   4   4
#     4   9  18  36  64 102 139 177 230 294 363 434
#     4  11  23  43  73 109 145 191 250 312 371 447
#     4  10  23  43  69  95 145 194 238 305 371 448
#     4  10  21  39  66 105 140 182 242 296 366 438
#     4  10  25  48  70 100 147 197 244 304 381 448
#
# _framework density 27.286718
#
# number of rings (size 3 to 8) (size 9 to 14) (size 15 to 20)
#    0.000    2.000    0.000    3.600    8.400    0.800 
#   18.000    8.000    0.000    0.000    0.000    0.000 
#    0.000    0.000    0.000    0.000    0.000    0.000 
#
# Total GULP energy -111620.141970 kJ/mol
# GULP energy per Si atom -5581.007099 kJ/mol
# Density = 2.722461 g / cm^3
# Si number density = 27.286718 Si / 1000 Ang^3
#
#
#
# Elastic Constant Matrix: (Units=GPa)
#
#
# Indices 1 2 3 4 5 6 
#
# 1 47.7497 19.1628 22.7793 0.0000 -6.9119 0.0000
# 2 19.1628 172.9933 67.0933 0.0000 7.8154 0.0000
# 3 22.7793 67.0933 181.5449 0.0000 -7.8649 0.0000
# 4 0.0000 0.0000 0.0000 65.7549 0.0000 7.9800
# 5 -6.9119 7.8154 -7.8649 0.0000 49.2805 0.0000
# 6 0.0000 0.0000 0.0000 7.9800 0.0000 39.6068
#
#
#
# Elastic Compliance Matrix: (Units=1/GPa)
#
#
# Indices 1 2 3 4 5 6 
#
# 1 0.023159 -0.001912 -0.002060 0.000000 0.003223 0.000000
# 2 -0.001912 0.007014 -0.002429 0.000000 -0.001768 0.000000
# 3 -0.002060 -0.002429 0.006715 0.000000 0.001168 0.000000
# 4 0.000000 0.000000 0.000000 0.015589 0.000000 -0.003141
# 5 0.003223 -0.001768 0.001168 0.000000 0.021211 0.000000
# 6 0.000000 0.000000 0.000000 -0.003141 0.000000 0.025881
#
#
# Mechanical properties :
#
#
# Convention : Reuss Voigt Hill
#
# Bulk Modulus (GPa) = 41.51642 68.92875 55.22258
# Shear Modulus (GPa) = 41.52838 50.47861 46.00350
#
# Velocity S-wave (km/s) = 3.90542 4.30575 4.11046
# Velocity P-wave (km/s) = 5.96526 7.07355 6.54291
#
# Compressibility (1/GPa) = 0.02408686
#
# Stress axis : x y z
#
# Youngs Moduli (GPa) = 43.17983 142.56577 148.92109
#
# Poissons Ratio (x) = 0.27261 0.30671
# Poissons Ratio (y) = 0.08257 0.36172
# Poissons Ratio (z) = 0.08893 0.34628
#
# Static dielectric constant tensor:
#      x y z
#    x 2.113590 0.000000 0.044490 
#    y 0.000000 2.262580 0.000000 
#    z 0.044490 0.000000 2.201790 
# 
# From -- ./inp_files/1376.got.cif
#   From: 2010.05.17/outbox.cif.g08.bks.cpg/sg14_1_cif.got.tgz:1376.got - 2010.06.03 17:49:19.
