data_PCOD9245736
_publ_section_title
;
Structure prediction by ZEFSAII (Michael W. Deem and Ramdas Pophale) SiO2 
 PCOD9245736
Probable space group: P 21/C
;
_chemical_formula_sum "Si O2"
_cell_formula_units_Z 32
_cell_length_a 12.491156
_cell_length_b 5.253160
_cell_length_c 29.579351
_cell_angle_alpha 90.000000
_cell_angle_beta 131.004912
_cell_angle_gamma 90.000000
_cell_volume 1464.736137
_symmetry_space_group_name_H-M "P 21/C"
_symmetry_group_IT_number 14
_symmetry_cell_setting 'monoclinic'
loop_
_space_group_symop_operation_xyz
x,y,z
-x,1/2+y,1/2-z
-x,-y,-z
x,1/2-y,1/2+z
loop_
_atom_site_type_symbol
_atom_site_label
_atom_site_fract_x
_atom_site_fract_y
_atom_site_fract_z
Si Si1 0.845979 0.046171 0.570420
Si Si2 0.653978 0.046148 0.429550
Si Si3 0.178863 0.449669 0.376469
Si Si4 0.863518 0.457899 0.264819
Si Si5 0.363514 0.542206 0.264799
Si Si6 0.156172 0.292789 0.151100
Si Si7 0.678850 0.550294 0.376448
Si Si8 0.656207 0.792691 0.651121
O O1 0.749978 0.082577 0.499985
O O2 0.820256 0.279418 0.598191
O O3 0.012041 0.057006 0.602558
O O4 0.814003 0.777562 0.585088
O O5 0.679726 0.279369 0.401782
O O6 0.487917 0.057053 0.397409
O O7 0.685936 0.777513 0.414883
O O8 0.306600 0.410207 0.376799
O O9 0.029831 0.401430 0.308779
O O10 0.749975 0.250110 0.250007
O O11 0.863489 0.662254 0.305565
O O12 0.796441 0.539993 0.198628
O O13 0.296406 0.460105 0.198604
O O14 0.529843 0.598519 0.308751
O O15 0.363450 0.337938 0.305551
O O16 0.193380 0.089817 0.123199
#
# Coordination Sequence:
#
# PCOD9245736 Si02
#       8
#     4   4   4   4   4   4   4   4
#     4  11  25  45  63  92 128 166 218 265 302 367
#     4  11  25  45  63  92 128 166 218 265 302 367
#     4  11  25  40  68  93 124 171 209 255 323 372
#     4  10  21  39  60  92 130 158 201 263 307 379
#     4  10  21  39  60  92 130 158 201 263 307 379
#     4  10  24  39  63  95 128 165 207 257 317 375
#     4  11  25  40  68  93 124 171 209 255 323 372
#     4  10  24  39  63  95 128 165 207 257 317 375
#
# _framework density 21.846935999999999
#
# number of rings (size 3 to 8) (size 9 to 14) (size 15 to 20)
#    0.000    1.500    2.500    0.750    7.000    2.000 
#    0.000    0.000    0.000    0.000    0.000    0.000 
#    0.000    0.000    0.000    0.000    0.000    0.000 
#
# Total GULP energy -178682.321132 kJ/mol
# GULP energy per Si atom -5583.822535 kJ/mol
# Density = 2.179721 g / cm^3
# Si number density = 21.846936 Si / 1000 Ang^3
#
#
#
# Elastic Constant Matrix: (Units=GPa)
#
#
# Indices 1 2 3 4 5 6 
#
# 1 64.4707 -9.3017 15.6039 0.0000 -1.5206 0.0000
# 2 -9.3017 56.4118 3.5543 0.0000 -1.7721 0.0000
# 3 15.6039 3.5543 124.7304 0.0000 8.9685 0.0000
# 4 0.0000 0.0000 0.0000 27.6851 0.0000 -0.5005
# 5 -1.5206 -1.7721 8.9685 0.0000 8.5204 0.0000
# 6 0.0000 0.0000 0.0000 -0.5005 0.0000 28.2168
#
#
#
# Elastic Compliance Matrix: (Units=1/GPa)
#
#
# Indices 1 2 3 4 5 6 
#
# 1 0.016755 0.003131 -0.002648 0.000000 0.006428 0.000000
# 2 0.003131 0.018510 -0.001337 0.000000 0.005816 0.000000
# 3 -0.002648 -0.001337 0.009132 0.000000 -0.010363 0.000000
# 4 0.000000 0.000000 0.000000 0.036132 0.000000 0.000641
# 5 0.006428 0.005816 -0.010363 0.000000 0.130630 0.000000
# 6 0.000000 0.000000 0.000000 0.000641 0.000000 0.035451
#
#
# Mechanical properties :
#
#
# Convention : Reuss Voigt Hill
#
# Bulk Modulus (GPa) = 23.42468 29.48064 26.45266
# Shear Modulus (GPa) = 19.04420 28.60156 23.82288
#
# Velocity S-wave (km/s) = 2.95568 3.62218 3.30577
# Velocity P-wave (km/s) = 4.73218 5.56930 5.16772
#
# Compressibility (1/GPa) = 0.04269002
#
# Stress axis : x y z
#
# Youngs Moduli (GPa) = 59.68325 54.02456 109.50850
#
# Poissons Ratio (x) = -0.16918 0.28993
# Poissons Ratio (y) = -0.18690 0.14646
# Poissons Ratio (z) = 0.15801 0.07225
#
# Static dielectric constant tensor:
#      x y z
#    x 1.847230 0.000000 0.044940 
#    y 0.000000 1.731720 0.000000 
#    z 0.044940 0.000000 1.789510 
# 
# From -- ./inp_files/79834.got.cif
#   From: 2010.05.17/outbox.cif.g08.bks.cpg/sg14_40_cif.got.tgz:79834.got - 2010.06.03 17:49:19.
