data_PCOD9245883
_publ_section_title
;
Structure prediction by ZEFSAII (Michael W. Deem and Ramdas Pophale) SiO2 
 PCOD9245883
Probable space group: P 21/C
;
_chemical_formula_sum "Si O2"
_cell_formula_units_Z 28
_cell_length_a 5.345713
_cell_length_b 9.105718
_cell_length_c 26.029414
_cell_angle_alpha 90.000000
_cell_angle_beta 112.176590
_cell_angle_gamma 90.000000
_cell_volume 1173.294093
_symmetry_space_group_name_H-M "P 21/C"
_symmetry_group_IT_number 14
_symmetry_cell_setting 'monoclinic'
loop_
_space_group_symop_operation_xyz
x,y,z
-x,1/2+y,1/2-z
-x,-y,-z
x,1/2-y,1/2+z
loop_
_atom_site_type_symbol
_atom_site_label
_atom_site_fract_x
_atom_site_fract_y
_atom_site_fract_z
Si Si1 0.478539 0.514053 0.335854
Si Si2 0.897182 0.762519 0.217588
Si Si3 0.847712 0.746149 0.825816
Si Si4 0.374846 0.764203 0.409791
Si Si5 0.888820 0.232767 0.878347
Si Si6 0.240026 0.400260 0.490715
Si Si7 0.465228 0.512905 0.153459
O O1 0.232995 0.425022 0.293324
O O2 0.662579 0.610001 0.312503
O O3 0.409107 0.624142 0.375414
O O4 0.657889 0.383937 0.372351
O O5 0.005436 0.752434 0.283831
O O6 0.679707 0.630858 0.192060
O O7 0.078503 0.758429 0.180842
O O8 0.653668 0.605191 0.815605
O O9 0.048113 0.744399 0.890835
O O10 0.618049 0.734898 0.467744
O O11 0.413390 0.916375 0.382863
O O12 0.785172 0.391326 0.886486
O O13 0.136095 0.168646 0.929177
O O14 0.500000 0.500000 0.500000
O O15 0.000000 0.500000 0.500000
#
# Coordination Sequence:
#
# PCOD9245883 Si02
#       7
#     4   4   4   4   4   4   4
#     4  10  21  39  64  92 128 175 229 284 344 420
#     4  11  23  41  65  98 137 183 231 288 353 433
#     4  11  23  41  65  98 137 183 231 288 353 433
#     4  11  24  43  68  99 137 177 235 290 358 421
#     4  11  24  43  68  99 137 177 235 290 358 421
#     4  12  26  47  79 109 141 187 246 309 359 427
#     4  10  25  43  64  98 146 181 231 290 362 428
#
# _framework density 23.864433999999999
#
# number of rings (size 3 to 8) (size 9 to 14) (size 15 to 20)
#    0.000    1.143    1.429    4.286    4.000    9.714 
#    0.000    2.857    0.000    0.000    0.000    0.000 
#    0.000    0.000    0.000    0.000    0.000    0.000 
#
# Total GULP energy -156366.511863 kJ/mol
# GULP energy per Si atom -5584.518281 kJ/mol
# Density = 2.381012 g / cm^3
# Si number density = 23.864434 Si / 1000 Ang^3
#
#
#
# Elastic Constant Matrix: (Units=GPa)
#
#
# Indices 1 2 3 4 5 6 
#
# 1 73.2496 23.8456 -6.4869 0.0000 3.1216 0.0000
# 2 23.8456 122.9567 2.9852 0.0000 2.0327 0.0000
# 3 -6.4869 2.9852 37.9586 0.0000 6.8294 0.0000
# 4 0.0000 0.0000 0.0000 14.9209 0.0000 14.0439
# 5 3.1216 2.0327 6.8294 0.0000 21.3190 0.0000
# 6 0.0000 0.0000 0.0000 14.0439 0.0000 36.4651
#
#
#
# Elastic Compliance Matrix: (Units=1/GPa)
#
#
# Indices 1 2 3 4 5 6 
#
# 1 0.015035 -0.002947 0.003339 0.000000 -0.002990 0.000000
# 2 -0.002947 0.008734 -0.001187 0.000000 -0.000021 0.000000
# 3 0.003339 -0.001187 0.028732 0.000000 -0.009580 0.000000
# 4 0.000000 0.000000 0.000000 0.105129 0.000000 -0.040489
# 5 -0.002990 -0.000021 -0.009580 0.000000 0.050415 0.000000
# 6 0.000000 0.000000 0.000000 -0.040489 0.000000 0.043017
#
#
# Mechanical properties :
#
#
# Convention : Reuss Voigt Hill
#
# Bulk Modulus (GPa) = 19.64242 30.53919 25.09081
# Shear Modulus (GPa) = 18.54448 28.79572 23.67010
#
# Velocity S-wave (km/s) = 2.79063 3.47744 3.15279
# Velocity P-wave (km/s) = 4.31650 5.38035 4.87752
#
# Compressibility (1/GPa) = 0.05091022
#
# Stress axis : x y z
#
# Youngs Moduli (GPa) = 66.51340 114.49901 34.80434
#
# Poissons Ratio (x) = 0.33747 -0.11621
# Poissons Ratio (y) = 0.19604 0.04130
# Poissons Ratio (z) = -0.22209 0.13588
#
# Static dielectric constant tensor:
#      x y z
#    x 1.987370 0.000000 0.019060 
#    y 0.000000 1.881310 0.000000 
#    z 0.019060 0.000000 1.986740 
# 
# From -- ./inp_files/78721.got.cif
#   From: 2010.05.17/outbox.cif.g08.bks.cpg/sg14_40_cif.got.tgz:78721.got - 2010.06.03 17:49:19.
