data_PCOD9245428
_publ_section_title
;
Structure prediction by ZEFSAII (Michael W. Deem and Ramdas Pophale) SiO2 
 PCOD9245428
Probable space group: P 21/C
;
_chemical_formula_sum "Si O2"
_cell_formula_units_Z 16
_cell_length_a 8.427240
_cell_length_b 7.890761
_cell_length_c 12.235415
_cell_angle_alpha 90.000000
_cell_angle_beta 57.420402
_cell_angle_gamma 90.000000
_cell_volume 685.594282
_symmetry_space_group_name_H-M "P 21/C"
_symmetry_group_IT_number 14
_symmetry_cell_setting 'monoclinic'
loop_
_space_group_symop_operation_xyz
x,y,z
-x,1/2+y,1/2-z
-x,-y,-z
x,1/2-y,1/2+z
loop_
_atom_site_type_symbol
_atom_site_label
_atom_site_fract_x
_atom_site_fract_y
_atom_site_fract_z
Si Si1 0.405251 0.171232 0.991501
Si Si2 0.100338 0.395356 0.201215
Si Si3 0.231440 0.708163 0.055919
Si Si4 0.784212 0.476089 0.615182
O O1 0.217562 0.230717 0.122517
O O2 0.566312 0.304889 0.960765
O O3 0.500000 0.000000 0.000000
O O4 0.343167 0.122310 0.892625
O O5 0.119269 0.530920 0.096232
O O6 0.205425 0.492741 0.260873
O O7 0.900178 0.333516 0.321551
O O8 0.263742 0.797378 0.925757
O O9 0.000000 0.500000 0.500000
#
# Coordination Sequence:
#
# PCOD9245428 Si02
#       4
#     4   4   4   4
#     4  10  21  38  59  89 121 156 206 251 298 369
#     4  11  21  40  62  85 126 164 194 259 311 347
#     4  10  21  38  60  89 120 157 205 248 300 370
#     4   9  20  38  58  85 117 155 200 242 300 366
#
# _framework density 23.337416999999999
#
# number of rings (size 3 to 8) (size 9 to 14) (size 15 to 20)
#    0.000    2.000    0.000    5.250    0.000    4.000 
#    0.000   16.250    0.000    0.000    0.000    0.000 
#    0.000    0.000    0.000    0.000    0.000    0.000 
#
# Total GULP energy -89216.390377 kJ/mol
# GULP energy per Si atom -5576.024399 kJ/mol
# Density = 2.328430 g / cm^3
# Si number density = 23.337417 Si / 1000 Ang^3
#
#
#
# Elastic Constant Matrix: (Units=GPa)
#
#
# Indices 1 2 3 4 5 6 
#
# 1 81.0652 -1.7444 4.5892 0.0000 0.2424 0.0000
# 2 -1.7444 92.7598 19.3456 0.0000 -1.6769 0.0000
# 3 4.5892 19.3456 57.9663 0.0000 0.4745 0.0000
# 4 0.0000 0.0000 0.0000 46.3580 0.0000 -13.8469
# 5 0.2424 -1.6769 0.4745 0.0000 31.4798 0.0000
# 6 0.0000 0.0000 0.0000 -13.8469 0.0000 15.3656
#
#
#
# Elastic Compliance Matrix: (Units=1/GPa)
#
#
# Indices 1 2 3 4 5 6 
#
# 1 0.012410 0.000470 -0.001139 0.000000 -0.000053 0.000000
# 2 0.000470 0.011619 -0.003921 0.000000 0.000674 0.000000
# 3 -0.001139 -0.003921 0.018654 0.000000 -0.000481 0.000000
# 4 0.000000 0.000000 0.000000 0.029516 0.000000 0.026599
# 5 -0.000053 0.000674 -0.000481 0.000000 0.031810 0.000000
# 6 0.000000 0.000000 0.000000 0.026599 0.000000 0.089050
#
#
# Mechanical properties :
#
#
# Convention : Reuss Voigt Hill
#
# Bulk Modulus (GPa) = 29.84662 30.68580 30.26621
# Shear Modulus (GPa) = 23.42941 32.61407 28.02174
#
# Velocity S-wave (km/s) = 3.17194 3.74237 3.46890
# Velocity P-wave (km/s) = 5.12171 5.64368 5.38902
#
# Compressibility (1/GPa) = 0.03350463
#
# Stress axis : x y z
#
# Youngs Moduli (GPa) = 80.57695 86.06434 53.60799
#
# Poissons Ratio (x) = -0.04045 0.06106
# Poissons Ratio (y) = -0.03787 0.21017
# Poissons Ratio (z) = 0.09177 0.33742
#
# Static dielectric constant tensor:
#      x y z
#    x 1.893430 0.000000 0.033680 
#    y 0.000000 2.029980 0.000000 
#    z 0.033680 0.000000 1.893560 
# 
# From -- ./inp_files/22591.got.cif
#   From: 2010.05.17/outbox.cif.g08.bks.cpg/sg14_12_cif.got.tgz:22591.got - 2010.06.03 17:49:19.
