data_PCOD9245268
_publ_section_title
;
Structure prediction by ZEFSAII (Michael W. Deem and Ramdas Pophale) SiO2 
 PCOD9245268
Probable space group: P 21/C
;
_chemical_formula_sum "Si O2"
_cell_formula_units_Z 24
_cell_length_a 16.942207
_cell_length_b 5.196297
_cell_length_c 10.960757
_cell_angle_alpha 90.000000
_cell_angle_beta 80.632194
_cell_angle_gamma 90.000000
_cell_volume 952.080529
_symmetry_space_group_name_H-M "P 21/C"
_symmetry_group_IT_number 14
_symmetry_cell_setting 'monoclinic'
loop_
_space_group_symop_operation_xyz
x,y,z
-x,1/2+y,1/2-z
-x,-y,-z
x,1/2-y,1/2+z
loop_
_atom_site_type_symbol
_atom_site_label
_atom_site_fract_x
_atom_site_fract_y
_atom_site_fract_z
Si Si1 0.229970 0.135256 0.080256
Si Si2 0.051090 0.589230 0.222243
Si Si3 0.431374 0.619983 0.933553
Si Si4 0.621105 0.882408 0.140360
Si Si5 0.087320 0.870708 0.976583
Si Si6 0.286592 0.867824 0.659164
O O1 0.222480 0.412353 0.142660
O O2 0.156665 0.047094 0.015582
O O3 0.248551 0.913820 0.174897
O O4 0.308993 0.147967 0.976887
O O5 0.101717 0.674987 0.329480
O O6 0.023234 0.294505 0.246051
O O7 0.919453 0.140735 0.423248
O O8 0.444959 0.909842 0.885461
O O9 0.413640 0.403354 0.835623
O O10 0.500000 0.500000 0.000000
O O11 0.351156 0.645628 0.033945
O O12 0.663940 0.020747 0.241388
O O13 0.000000 0.000000 0.000000
#
# Coordination Sequence:
#
# PCOD9245268 Si02
#       6
#     4   4   4   4   4   4
#     4  10  23  39  59  87 116 160 202 252 301 366
#     4  10  22  40  62  88 123 155 200 258 321 374
#     4  10  21  37  60  92 120 152 198 244 293 359
#     4  10  21  39  59  85 122 159 196 244 298 363
#     4  10  23  43  63  93 123 163 210 266 316 367
#     4  10  22  40  60  85 122 157 201 241 302 363
#
# _framework density 25.207951999999999
#
# number of rings (size 3 to 8) (size 9 to 14) (size 15 to 20)
#    0.000    2.000    0.000    2.000    2.333    6.667 
#    6.000    0.000    0.000    0.000    0.000    0.000 
#    0.000    0.000    0.000    0.000    0.000    0.000 
#
# Total GULP energy -134164.863731 kJ/mol
# GULP energy per Si atom -5590.202655 kJ/mol
# Density = 2.515058 g / cm^3
# Si number density = 25.207952 Si / 1000 Ang^3
#
#
#
# Elastic Constant Matrix: (Units=GPa)
#
#
# Indices 1 2 3 4 5 6 
#
# 1 77.9728 11.8426 -2.8498 0.0000 8.7718 0.0000
# 2 11.8426 88.6714 1.3607 0.0000 -11.7023 0.0000
# 3 -2.8498 1.3607 96.6011 0.0000 3.3258 0.0000
# 4 0.0000 0.0000 0.0000 15.1597 0.0000 13.9975
# 5 8.7718 -11.7023 3.3258 0.0000 49.0545 0.0000
# 6 0.0000 0.0000 0.0000 13.9975 0.0000 35.9363
#
#
#
# Elastic Compliance Matrix: (Units=1/GPa)
#
#
# Indices 1 2 3 4 5 6 
#
# 1 0.013515 -0.002206 0.000532 0.000000 -0.002979 0.000000
# 2 -0.002206 0.012011 -0.000347 0.000000 0.003283 0.000000
# 3 0.000532 -0.000347 0.010403 0.000000 -0.000883 0.000000
# 4 0.000000 0.000000 0.000000 0.103013 0.000000 -0.040125
# 5 -0.002979 0.003283 -0.000883 0.000000 0.021761 0.000000
# 6 0.000000 0.000000 0.000000 -0.040125 0.000000 0.043456
#
#
# Mechanical properties :
#
#
# Convention : Reuss Voigt Hill
#
# Bulk Modulus (GPa) = 31.36182 31.55025 31.45604
# Shear Modulus (GPa) = 22.84879 36.88955 29.86917
#
# Velocity S-wave (km/s) = 3.01393 3.82960 3.44599
# Velocity P-wave (km/s) = 4.95782 5.66548 5.32342
#
# Compressibility (1/GPa) = 0.03188590
#
# Stress axis : x y z
#
# Youngs Moduli (GPa) = 73.99362 83.25769 96.12743
#
# Poissons Ratio (x) = 0.18369 -0.05117
# Poissons Ratio (y) = 0.16325 0.03339
# Poissons Ratio (z) = -0.03939 0.02892
#
# Static dielectric constant tensor:
#      x y z
#    x 1.989710 0.000000 -0.015720 
#    y 0.000000 2.479410 0.000000 
#    z -0.015720 0.000000 2.024810 
# 
# From -- ./inp_files/33366.got.cif
#   From: 2010.05.17/outbox.cif.g08.bks.cpg/sg14_17_cif.got.tgz:33366.got - 2010.06.03 17:49:19.
