data_PCOD9245585
_publ_section_title
;
Structure prediction by ZEFSAII (Michael W. Deem and Ramdas Pophale) SiO2 
 PCOD9245585
Probable space group: P 21/C
;
_chemical_formula_sum "Si O2"
_cell_formula_units_Z 24
_cell_length_a 21.007822
_cell_length_b 8.313224
_cell_length_c 9.814641
_cell_angle_alpha 90.000000
_cell_angle_beta 46.230359
_cell_angle_gamma 90.000000
_cell_volume 1237.765675
_symmetry_space_group_name_H-M "P 21/C"
_symmetry_group_IT_number 14
_symmetry_cell_setting 'monoclinic'
loop_
_space_group_symop_operation_xyz
x,y,z
-x,1/2+y,1/2-z
-x,-y,-z
x,1/2-y,1/2+z
loop_
_atom_site_type_symbol
_atom_site_label
_atom_site_fract_x
_atom_site_fract_y
_atom_site_fract_z
Si Si1 0.964490 0.626247 0.942700
Si Si2 0.801359 0.835311 0.304020
Si Si3 0.572762 0.047461 0.003713
Si Si4 0.307412 0.289987 0.772604
Si Si5 0.070299 0.562997 0.285646
Si Si6 0.480918 0.367916 0.141136
O O1 0.938985 0.536658 0.840764
O O2 0.042532 0.754561 0.799377
O O3 0.880846 0.723120 0.129418
O O4 0.000000 0.500000 0.000000
O O5 0.766875 0.781213 0.502287
O O6 0.723714 0.814543 0.309995
O O7 0.838184 0.014346 0.277851
O O8 0.559801 0.238470 0.041511
O O9 0.543638 0.955781 0.183151
O O10 0.500000 0.000000 0.000000
O O11 0.665526 0.969421 0.818909
O O12 0.394835 0.223540 0.713916
O O13 0.000000 0.500000 0.500000
O O14 0.500000 0.500000 0.000000
#
# Coordination Sequence:
#
# PCOD9245585 Si02
#       6
#     4   4   4   4   4   4
#     4  11  23  41  65  94 124 168 221 259 315 388
#     4  11  22  41  64  92 132 170 205 265 324 374
#     4  10  21  38  64  90 125 165 215 254 313 381
#     4  11  22  41  64  92 132 169 207 263 326 373
#     4  10  21  38  64  90 124 167 211 255 313 378
#     4  11  23  41  65  94 123 171 217 262 316 385
#
# _framework density 19.389778
#
# number of rings (size 3 to 8) (size 9 to 14) (size 15 to 20)
#    0.000    1.333    3.333    4.000    4.667    0.000 
#    0.000    3.333    0.000    0.000    0.000    0.000 
#    0.000    0.000    0.000    0.000    0.000    0.000 
#
# Total GULP energy -133833.762226 kJ/mol
# GULP energy per Si atom -5576.406759 kJ/mol
# Density = 1.934565 g / cm^3
# Si number density = 19.389778 Si / 1000 Ang^3
#
#
#
# Elastic Constant Matrix: (Units=GPa)
#
#
# Indices 1 2 3 4 5 6 
#
# 1 96.5843 40.7132 29.7299 0.0000 19.2307 0.0000
# 2 40.7132 120.0162 44.7524 0.0000 6.2747 0.0000
# 3 29.7299 44.7524 111.8376 0.0000 25.0194 0.0000
# 4 0.0000 0.0000 0.0000 32.8900 0.0000 2.7283
# 5 19.2307 6.2747 25.0194 0.0000 32.4906 0.0000
# 6 0.0000 0.0000 0.0000 2.7283 0.0000 30.3036
#
#
#
# Elastic Compliance Matrix: (Units=1/GPa)
#
#
# Indices 1 2 3 4 5 6 
#
# 1 0.013587 -0.004088 -0.000427 0.000000 -0.006923 0.000000
# 2 -0.004088 0.011073 -0.004116 0.000000 0.003451 0.000000
# 3 -0.000427 -0.004116 0.012647 0.000000 -0.008691 0.000000
# 4 0.000000 0.000000 0.000000 0.030633 0.000000 -0.002758
# 5 -0.006923 0.003451 -0.008691 0.000000 0.040902 0.000000
# 6 0.000000 0.000000 0.000000 -0.002758 0.000000 0.033248
#
#
# Mechanical properties :
#
#
# Convention : Reuss Voigt Hill
#
# Bulk Modulus (GPa) = 49.89046 62.09214 55.99130
# Shear Modulus (GPa) = 30.11440 33.35301 31.73371
#
# Velocity S-wave (km/s) = 3.94522 4.15195 4.04991
# Velocity P-wave (km/s) = 6.82196 7.42143 7.12800
#
# Compressibility (1/GPa) = 0.02004391
#
# Stress axis : x y z
#
# Youngs Moduli (GPa) = 73.60101 90.30597 79.07324
#
# Poissons Ratio (x) = 0.36915 0.03378
# Poissons Ratio (y) = 0.30087 0.32550
# Poissons Ratio (z) = 0.03144 0.37174
#
# Static dielectric constant tensor:
#      x y z
#    x 1.672880 0.000000 -0.039460 
#    y 0.000000 1.716060 0.000000 
#    z -0.039460 0.000000 1.681430 
# 
# From -- ./inp_files/18571.got.cif
#   From: 2010.05.17/outbox.cif.g08.bks.cpg/sg14_10_cif.got.tgz:18571.got - 2010.06.03 17:49:19.
