data_PCOD9245539
_publ_section_title
;
Structure prediction by ZEFSAII (Michael W. Deem and Ramdas Pophale) SiO2 
 PCOD9245539
Probable space group: P 21/C
;
_chemical_formula_sum "Si O2"
_cell_formula_units_Z 20
_cell_length_a 9.450295
_cell_length_b 7.556354
_cell_length_c 16.124345
_cell_angle_alpha 90.000000
_cell_angle_beta 47.526238
_cell_angle_gamma 90.000000
_cell_volume 849.283691
_symmetry_space_group_name_H-M "P 21/C"
_symmetry_group_IT_number 14
_symmetry_cell_setting 'monoclinic'
loop_
_space_group_symop_operation_xyz
x,y,z
-x,1/2+y,1/2-z
-x,-y,-z
x,1/2-y,1/2+z
loop_
_atom_site_type_symbol
_atom_site_label
_atom_site_fract_x
_atom_site_fract_y
_atom_site_fract_z
Si Si1 0.597499 0.311569 0.441117
Si Si2 0.440374 0.641777 0.227435
Si Si3 0.699053 0.636304 0.830208
Si Si4 0.065609 0.499477 0.746772
Si Si5 0.813347 0.436424 0.122521
O O1 0.500000 0.500000 0.500000
O O2 0.545062 0.247889 0.367188
O O3 0.499048 0.176582 0.544129
O O4 0.818189 0.374193 0.362377
O O5 0.341786 0.456077 0.240849
O O6 0.647400 0.585495 0.180364
O O7 0.305211 0.753447 0.342798
O O8 0.822449 0.814944 0.788925
O O9 0.841701 0.495445 0.817030
O O10 0.100119 0.589690 0.820822
O O11 0.000000 0.500000 0.000000
#
# Coordination Sequence:
#
# PCOD9245539 Si02
#       5
#     4   4   4   4   4
#     4   9  20  37  62  92 121 155 203 263 323 378
#     4  11  23  41  65  94 129 170 218 267 323 396
#     4  11  21  39  63  92 124 161 209 268 323 380
#     4  10  21  38  62  93 126 163 211 259 317 393
#     4  11  24  43  63  91 131 175 216 267 329 393
#
# _framework density 23.549257999999998
#
# number of rings (size 3 to 8) (size 9 to 14) (size 15 to 20)
#    0.000    1.600    0.000    5.400    0.000    3.200 
#    0.000    8.000    0.000    0.000    0.000    0.000 
#    0.000    0.000    0.000    0.000    0.000    0.000 
#
# Total GULP energy -111488.418874 kJ/mol
# GULP energy per Si atom -5574.420944 kJ/mol
# Density = 2.349566 g / cm^3
# Si number density = 23.549258 Si / 1000 Ang^3
#
#
#
# Elastic Constant Matrix: (Units=GPa)
#
#
# Indices 1 2 3 4 5 6 
#
# 1 102.7403 4.6143 30.3593 0.0000 -31.5112 0.0000
# 2 4.6143 139.9742 50.3789 0.0000 -19.9229 0.0000
# 3 30.3593 50.3789 137.3166 0.0000 -43.8966 0.0000
# 4 0.0000 0.0000 0.0000 50.3125 0.0000 -2.4357
# 5 -31.5112 -19.9229 -43.8966 0.0000 33.7478 0.0000
# 6 0.0000 0.0000 0.0000 -2.4357 0.0000 40.6214
#
#
#
# Elastic Compliance Matrix: (Units=1/GPa)
#
#
# Indices 1 2 3 4 5 6 
#
# 1 0.014094 0.001254 0.001485 0.000000 0.015832 0.000000
# 2 0.001254 0.008393 -0.002393 0.000000 0.003013 0.000000
# 3 0.001485 -0.002393 0.013392 0.000000 0.017393 0.000000
# 4 0.000000 0.000000 0.000000 0.019934 0.000000 0.001195
# 5 0.015832 0.003013 0.017393 0.000000 0.068816 0.000000
# 6 0.000000 0.000000 0.000000 0.001195 0.000000 0.024689
#
#
# Mechanical properties :
#
#
# Convention : Reuss Voigt Hill
#
# Bulk Modulus (GPa) = 27.34432 61.19289 44.26861
# Shear Modulus (GPa) = 31.09114 44.58160 37.83637
#
# Velocity S-wave (km/s) = 3.63748 4.35572 4.01270
# Velocity P-wave (km/s) = 5.41095 7.16505 6.34887
#
# Compressibility (1/GPa) = 0.03657067
#
# Stress axis : x y z
#
# Youngs Moduli (GPa) = 70.95282 119.14558 74.66881
#
# Poissons Ratio (x) = -0.14945 -0.11086
# Poissons Ratio (y) = -0.08900 0.17872
# Poissons Ratio (z) = -0.10534 0.28517
#
# Static dielectric constant tensor:
#      x y z
#    x 2.049790 0.000000 0.251290 
#    y 0.000000 2.042740 0.000000 
#    z 0.251290 0.000000 2.421670 
# 
# From -- ./inp_files/54744.got.cif
#   From: 2010.05.17/outbox.cif.g08.bks.cpg/sg14_28_cif.got.tgz:54744.got - 2010.06.03 17:49:19.
