data_PCOD9245737
_publ_section_title
;
Structure prediction by ZEFSAII (Michael W. Deem and Ramdas Pophale) SiO2 
 PCOD9245737
Probable space group: P 21/C
;
_chemical_formula_sum "Si O2"
_cell_formula_units_Z 32
_cell_length_a 25.288214
_cell_length_b 8.136292
_cell_length_c 14.416196
_cell_angle_alpha 90.000000
_cell_angle_beta 156.094987
_cell_angle_gamma 90.000000
_cell_volume 1201.954214
_symmetry_space_group_name_H-M "P 21/C"
_symmetry_group_IT_number 14
_symmetry_cell_setting 'monoclinic'
loop_
_space_group_symop_operation_xyz
x,y,z
-x,1/2+y,1/2-z
-x,-y,-z
x,1/2-y,1/2+z
loop_
_atom_site_type_symbol
_atom_site_label
_atom_site_fract_x
_atom_site_fract_y
_atom_site_fract_z
Si Si1 0.258421 0.338427 0.492832
Si Si2 0.645236 0.178333 0.255076
Si Si3 0.346862 0.838284 0.056727
Si Si4 0.923223 0.971983 0.972507
Si Si5 0.638857 0.806110 0.179346
Si Si6 0.638136 0.853333 0.486955
Si Si7 0.153200 0.702892 0.072650
Si Si8 0.939442 0.615189 0.984985
O O1 0.283016 0.529726 0.523635
O O2 0.248721 0.284927 0.582530
O O3 0.371115 0.223658 0.630174
O O4 0.162249 0.305376 0.252920
O O5 0.658609 0.176603 0.388143
O O6 0.764245 0.245630 0.386214
O O7 0.638464 0.994829 0.205220
O O8 0.503565 0.264389 0.019831
O O9 0.490013 0.911072 0.266826
O O10 0.260657 0.818366 0.828067
O O11 0.940896 0.143762 0.055758
O O12 0.764024 0.965219 0.709093
O O13 0.977501 0.791756 0.092000
O O14 0.000000 0.000000 0.000000
O O15 0.653074 0.783601 0.092798
O O16 0.087554 0.521293 0.978920
O O17 0.000000 0.500000 0.000000
#
# Coordination Sequence:
#
# PCOD9245737 Si02
#       8
#     4   4   4   4   4   4   4   4
#     4  10  22  37  62  92 126 169 216 266 335 396
#     4  10  22  37  60  95 132 176 208 266 340 405
#     4  10  23  37  61  99 129 164 213 275 333 402
#     4  11  23  39  70  96 120 181 233 267 326 401
#     4  10  21  39  60  92 140 170 211 267 337 410
#     4  10  23  37  64  93 130 171 212 268 336 390
#     4  11  23  42  69  92 135 174 220 276 339 400
#     4  10  21  43  65  91 128 168 222 282 334 385
#
# _framework density 26.623308999999999
#
# number of rings (size 3 to 8) (size 9 to 14) (size 15 to 20)
#    0.000    1.750    1.250    3.000    8.750    2.000 
#    0.000    0.000    2.750    0.000    0.000    0.000 
#    0.000    0.000    0.000    0.000    0.000    0.000 
#
# Total GULP energy -178307.646257 kJ/mol
# GULP energy per Si atom -5572.113946 kJ/mol
# Density = 2.656271 g / cm^3
# Si number density = 26.623309 Si / 1000 Ang^3
#
#
#
# Elastic Constant Matrix: (Units=GPa)
#
#
# Indices 1 2 3 4 5 6 
#
# 1 107.9707 15.6004 30.8970 0.0000 12.4163 0.0000
# 2 15.6004 143.7453 13.9625 0.0000 13.0535 0.0000
# 3 30.8970 13.9625 56.0011 0.0000 -12.4400 0.0000
# 4 0.0000 0.0000 0.0000 25.6267 0.0000 1.8443
# 5 12.4163 13.0535 -12.4400 0.0000 37.2584 0.0000
# 6 0.0000 0.0000 0.0000 1.8443 0.0000 41.2998
#
#
#
# Elastic Compliance Matrix: (Units=1/GPa)
#
#
# Indices 1 2 3 4 5 6 
#
# 1 0.012478 0.000106 -0.008471 0.000000 -0.007024 0.000000
# 2 0.000106 0.007537 -0.002735 0.000000 -0.003589 0.000000
# 3 -0.008471 -0.002735 0.025979 0.000000 0.012456 0.000000
# 4 0.000000 0.000000 0.000000 0.039148 0.000000 -0.001748
# 5 -0.007024 -0.003589 0.012456 0.000000 0.034597 0.000000
# 6 0.000000 0.000000 0.000000 -0.001748 0.000000 0.024291
#
#
# Mechanical properties :
#
#
# Convention : Reuss Voigt Hill
#
# Bulk Modulus (GPa) = 42.02683 47.62632 44.82658
# Shear Modulus (GPa) = 28.70892 37.32079 33.01485
#
# Velocity S-wave (km/s) = 3.28737 3.74814 3.52529
# Velocity P-wave (km/s) = 5.49809 6.05468 5.78309
#
# Compressibility (1/GPa) = 0.02379432
#
# Stress axis : x y z
#
# Youngs Moduli (GPa) = 80.13877 132.68214 38.49191
#
# Poissons Ratio (x) = -0.01413 0.32608
# Poissons Ratio (y) = -0.00853 0.10528
# Poissons Ratio (z) = 0.67889 0.36291
#
# Static dielectric constant tensor:
#      x y z
#    x 2.083250 0.000000 0.102280 
#    y 0.000000 2.393460 0.000000 
#    z 0.102280 0.000000 2.348610 
# 
# From -- ./inp_files/51379.got.cif
#   From: 2010.05.17/outbox.cif.g08.bks.cpg/sg14_26_cif.got.tgz:51379.got - 2010.06.03 17:49:19.
