data_PCOD9245176
_publ_section_title
;
Structure prediction by ZEFSAII (Michael W. Deem and Ramdas Pophale) SiO2 
 PCOD9245176
Probable space group: P 21/C
;
_chemical_formula_sum "Si O2"
_cell_formula_units_Z 32
_cell_length_a 12.989884
_cell_length_b 12.464771
_cell_length_c 9.875745
_cell_angle_alpha 90.000000
_cell_angle_beta 108.325910
_cell_angle_gamma 90.000000
_cell_volume 1517.942518
_symmetry_space_group_name_H-M "P 21/C"
_symmetry_group_IT_number 14
_symmetry_cell_setting 'monoclinic'
loop_
_space_group_symop_operation_xyz
x,y,z
-x,1/2+y,1/2-z
-x,-y,-z
x,1/2-y,1/2+z
loop_
_atom_site_type_symbol
_atom_site_label
_atom_site_fract_x
_atom_site_fract_y
_atom_site_fract_z
Si Si1 0.566469 0.839444 0.691754
Si Si2 0.077834 0.642727 0.591482
Si Si3 0.667731 0.065059 0.459813
Si Si4 0.042445 0.082208 0.702925
Si Si5 0.127227 0.623772 0.113409
Si Si6 0.137148 0.210899 0.146245
Si Si7 0.665806 0.690024 0.940647
Si Si8 0.740745 0.497794 0.278637
O O1 0.448414 0.880246 0.602465
O O2 0.577861 0.747418 0.807886
O O3 0.627521 0.797942 0.580567
O O4 0.630091 0.944183 0.777810
O O5 0.107508 0.759077 0.664255
O O6 0.185256 0.576767 0.595263
O O7 0.024033 0.574827 0.688151
O O8 0.980856 0.670841 0.450484
O O9 0.754671 0.121282 0.401252
O O10 0.667241 0.938442 0.421676
O O11 0.710804 0.067204 0.631670
O O12 0.117818 0.187438 0.734280
O O13 0.958877 0.101452 0.544046
O O14 0.108476 0.974529 0.705431
O O15 0.219709 0.256691 0.063297
O O16 0.189774 0.104325 0.228980
#
# Coordination Sequence:
#
# PCOD9245176 Si02
#       8
#     4   4   4   4   4   4   4   4
#     4  10  24  40  70  91 126 165 218 266 322 375
#     4  11  23  35  61  90 130 162 203 264 317 370
#     4  11  21  41  65  90 118 172 214 260 316 380
#     4  10  21  37  56  85 122 165 203 248 307 378
#     4  10  22  37  58  87 119 162 210 250 309 380
#     4  10  22  34  61  89 126 164 210 254 311 375
#     4  10  21  41  64  95 121 166 215 266 314 386
#     4  10  21  39  58  90 122 164 208 254 310 379
#
# _framework density 21.081167000000001
#
# number of rings (size 3 to 8) (size 9 to 14) (size 15 to 20)
#    0.000    1.750    2.500    1.875    7.000    2.000 
#    0.000    0.625    0.000    1.500    0.000    0.000 
#    0.000    0.000    0.000    0.000    0.000    0.000 
#
# Total GULP energy -178536.047225 kJ/mol
# GULP energy per Si atom -5579.251476 kJ/mol
# Density = 2.103319 g / cm^3
# Si number density = 21.081167 Si / 1000 Ang^3
#
#
#
# Elastic Constant Matrix: (Units=GPa)
#
#
# Indices 1 2 3 4 5 6 
#
# 1 75.1529 25.2490 16.8396 0.0000 23.4816 0.0000
# 2 25.2490 61.0431 19.7657 0.0000 16.8191 0.0000
# 3 16.8396 19.7657 49.2177 0.0000 18.7847 0.0000
# 4 0.0000 0.0000 0.0000 19.6404 0.0000 7.2377
# 5 23.4816 16.8191 18.7847 0.0000 33.3413 0.0000
# 6 0.0000 0.0000 0.0000 7.2377 0.0000 24.7679
#
#
#
# Elastic Compliance Matrix: (Units=1/GPa)
#
#
# Indices 1 2 3 4 5 6 
#
# 1 0.018126 -0.004527 -0.000488 0.000000 -0.010207 0.000000
# 2 -0.004527 0.021204 -0.005224 0.000000 -0.004565 0.000000
# 3 -0.000488 -0.005224 0.027321 0.000000 -0.012414 0.000000
# 4 0.000000 0.000000 0.000000 0.057060 0.000000 -0.016674
# 5 -0.010207 -0.004565 -0.012414 0.000000 0.046478 0.000000
# 6 0.000000 0.000000 0.000000 -0.016674 0.000000 0.045247
#
#
# Mechanical properties :
#
#
# Convention : Reuss Voigt Hill
#
# Bulk Modulus (GPa) = 21.65824 34.34691 28.00258
# Shear Modulus (GPa) = 19.89619 23.78721 21.84170
#
# Velocity S-wave (km/s) = 3.07545 3.36276 3.22231
# Velocity P-wave (km/s) = 4.78615 5.60407 5.21118
#
# Compressibility (1/GPa) = 0.04617180
#
# Stress axis : x y z
#
# Youngs Moduli (GPa) = 55.17045 47.16181 36.60214
#
# Poissons Ratio (x) = 0.21350 0.01786
# Poissons Ratio (y) = 0.24975 0.19122
# Poissons Ratio (z) = 0.02692 0.24639
#
# Static dielectric constant tensor:
#      x y z
#    x 1.789840 0.000000 0.032380 
#    y 0.000000 1.744010 0.000000 
#    z 0.032380 0.000000 1.778180 
# 
# From -- ./inp_files/29035.got.cif
#   From: 2010.05.17/outbox.cif.g08.bks.cpg/sg14_15_cif.got.tgz:29035.got - 2010.06.03 17:49:19.
