data_PCOD9245459
_publ_section_title
;
Structure prediction by ZEFSAII (Michael W. Deem and Ramdas Pophale) SiO2 
 PCOD9245459
Probable space group: P 21/C
;
_chemical_formula_sum "Si O2"
_cell_formula_units_Z 24
_cell_length_a 14.300940
_cell_length_b 7.615913
_cell_length_c 14.909815
_cell_angle_alpha 90.000000
_cell_angle_beta 45.604753
_cell_angle_gamma 90.000000
_cell_volume 1160.325182
_symmetry_space_group_name_H-M "P 21/C"
_symmetry_group_IT_number 14
_symmetry_cell_setting 'monoclinic'
loop_
_space_group_symop_operation_xyz
x,y,z
-x,1/2+y,1/2-z
-x,-y,-z
x,1/2-y,1/2+z
loop_
_atom_site_type_symbol
_atom_site_label
_atom_site_fract_x
_atom_site_fract_y
_atom_site_fract_z
Si Si1 0.321720 0.514081 0.032798
Si Si2 0.614650 0.447942 0.809765
Si Si3 0.965467 0.889438 0.662547
Si Si4 0.746034 0.172352 0.591583
Si Si5 0.909711 0.769307 0.386795
Si Si6 0.245045 0.282168 0.839486
O O1 0.459949 0.417729 0.923546
O O2 0.313039 0.673354 0.968657
O O3 0.320624 0.570935 0.135960
O O4 0.200506 0.390938 0.087439
O O5 0.682886 0.316808 0.695931
O O6 0.640827 0.648259 0.761460
O O7 0.960116 0.848697 0.772189
O O8 0.845094 0.815199 0.687030
O O9 0.097820 0.816155 0.527970
O O10 0.979681 0.100093 0.648911
O O11 0.717616 0.976643 0.650556
O O12 0.838742 0.695131 0.522666
#
# Coordination Sequence:
#
# PCOD9245459 Si02
#       6
#     4   4   4   4   4   4
#     4   9  22  42  60  92 126 154 212 257 288 370
#     4  11  22  42  66  86 124 166 202 253 309 355
#     4  10  21  39  59  89 125 155 201 256 306 363
#     4  10  24  39  62  94 120 162 205 251 301 372
#     4  10  21  38  60  89 125 159 203 258 300 366
#     4  10  22  40  61  91 120 162 200 253 309 358
#
# _framework density 20.683855999999999
#
# number of rings (size 3 to 8) (size 9 to 14) (size 15 to 20)
#    0.000    2.333    1.667    2.000    7.000    6.000 
#    0.000    3.333    0.000    0.000    0.000    0.000 
#    0.000    0.000    0.000    0.000    0.000    0.000 
#
# Total GULP energy -133927.630511 kJ/mol
# GULP energy per Si atom -5580.317938 kJ/mol
# Density = 2.063678 g / cm^3
# Si number density = 20.683856 Si / 1000 Ang^3
#
#
#
# Elastic Constant Matrix: (Units=GPa)
#
#
# Indices 1 2 3 4 5 6 
#
# 1 42.9492 4.6079 4.1921 0.0000 11.4859 0.0000
# 2 4.6079 32.5484 12.0678 0.0000 -11.9856 0.0000
# 3 4.1921 12.0678 51.5350 0.0000 12.2158 0.0000
# 4 0.0000 0.0000 0.0000 35.4937 0.0000 11.2322
# 5 11.4859 -11.9856 12.2158 0.0000 23.5167 0.0000
# 6 0.0000 0.0000 0.0000 11.2322 0.0000 15.0513
#
#
#
# Elastic Compliance Matrix: (Units=1/GPa)
#
#
# Indices 1 2 3 4 5 6 
#
# 1 0.032570 -0.019131 0.009024 0.000000 -0.030346 0.000000
# 2 -0.019131 0.063775 -0.026569 0.000000 0.055649 0.000000
# 3 0.009024 -0.026569 0.033239 0.000000 -0.035215 0.000000
# 4 0.000000 0.000000 0.000000 0.036885 0.000000 -0.027525
# 5 -0.030346 0.055649 -0.035215 0.000000 0.103999 0.000000
# 6 0.000000 0.000000 0.000000 -0.027525 0.000000 0.086980
#
#
# Mechanical properties :
#
#
# Convention : Reuss Voigt Hill
#
# Bulk Modulus (GPa) = 17.78358 18.75203 18.26780
# Shear Modulus (GPa) = 11.12236 21.88998 16.50617
#
# Velocity S-wave (km/s) = 2.32142 3.25670 2.82799
# Velocity P-wave (km/s) = 3.97515 4.81946 4.41752
#
# Compressibility (1/GPa) = 0.05623164
#
# Stress axis : x y z
#
# Youngs Moduli (GPa) = 30.70263 15.68014 30.08513
#
# Poissons Ratio (x) = 0.29998 -0.27148
# Poissons Ratio (y) = 0.58738 0.79932
# Poissons Ratio (z) = -0.27705 0.41660
#
# Static dielectric constant tensor:
#      x y z
#    x 1.754470 0.000000 0.016510 
#    y 0.000000 1.750480 0.000000 
#    z 0.016510 0.000000 1.749210 
# 
# From -- ./inp_files/46365.got.cif
#   From: 2010.05.17/outbox.cif.g08.bks.cpg/sg14_24_cif.got.tgz:46365.got - 2010.06.03 17:49:19.
