data_PCOD9245269
_publ_section_title
;
Structure prediction by ZEFSAII (Michael W. Deem and Ramdas Pophale) SiO2 
 PCOD9245269
Probable space group: P 21/C
;
_chemical_formula_sum "Si O2"
_cell_formula_units_Z 28
_cell_length_a 25.906368
_cell_length_b 5.525665
_cell_length_c 10.818486
_cell_angle_alpha 90.000000
_cell_angle_beta 130.072288
_cell_angle_gamma 90.000000
_cell_volume 1185.089570
_symmetry_space_group_name_H-M "P 21/C"
_symmetry_group_IT_number 14
_symmetry_cell_setting 'monoclinic'
loop_
_space_group_symop_operation_xyz
x,y,z
-x,1/2+y,1/2-z
-x,-y,-z
x,1/2-y,1/2+z
loop_
_atom_site_type_symbol
_atom_site_label
_atom_site_fract_x
_atom_site_fract_y
_atom_site_fract_z
Si Si1 0.561076 0.941740 0.002104
Si Si2 0.311908 0.445929 0.119929
Si Si3 0.853697 0.613301 0.439032
Si Si4 0.953375 0.207968 0.985662
Si Si5 0.599495 0.059363 0.481481
Si Si6 0.722901 0.445938 0.349661
Si Si7 0.905618 0.610537 0.773409
O O1 0.632599 0.928312 0.184696
O O2 0.566856 0.175745 0.923029
O O3 0.553329 0.676184 0.931240
O O4 0.500000 0.000000 0.000000
O O5 0.279107 0.178425 0.062349
O O6 0.264731 0.679241 0.075077
O O7 0.354511 0.506361 0.065007
O O8 0.904986 0.388309 0.515751
O O9 0.777580 0.519779 0.330156
O O10 0.869471 0.719940 0.598632
O O11 0.876118 0.763116 0.353009
O O12 0.903674 0.329169 0.809186
O O13 0.013495 0.374466 0.127413
O O14 0.000000 0.000000 0.000000
O O15 0.649443 0.072893 0.675793
#
# Coordination Sequence:
#
# PCOD9245269 Si02
#       7
#     4   4   4   4   4   4   4
#     4  10  21  37  60  95 123 159 213 259 314 384
#     4  10  22  41  61  87 127 168 209 259 322 373
#     4  11  25  40  67  95 125 172 219 274 335 402
#     4   9  22  41  62  91 128 165 206 268 338 397
#     4  10  21  39  62  85 129 167 203 264 317 377
#     4  10  24  40  61  92 122 167 214 264 314 387
#     4  10  24  42  66  94 129 165 218 274 339 404
#
# _framework density 23.626906000000002
#
# number of rings (size 3 to 8) (size 9 to 14) (size 15 to 20)
#    0.000    2.000    0.000    1.286   10.000    3.429 
#    0.000    0.000    0.000    0.000    0.000    0.000 
#    0.000    0.000    0.000    0.000    0.000    0.000 
#
# Total GULP energy -156042.489218 kJ/mol
# GULP energy per Si atom -5572.946043 kJ/mol
# Density = 2.357313 g / cm^3
# Si number density = 23.626906 Si / 1000 Ang^3
#
#
#
# Elastic Constant Matrix: (Units=GPa)
#
#
# Indices 1 2 3 4 5 6 
#
# 1 62.4482 -12.7391 -1.7309 0.0000 -0.6991 0.0000
# 2 -12.7391 70.5498 13.5563 0.0000 -2.0399 0.0000
# 3 -1.7309 13.5563 56.1032 0.0000 -7.7297 0.0000
# 4 0.0000 0.0000 0.0000 47.4856 0.0000 -19.5967
# 5 -0.6991 -2.0399 -7.7297 0.0000 34.8824 0.0000
# 6 0.0000 0.0000 0.0000 -19.5967 0.0000 36.4942
#
#
#
# Elastic Compliance Matrix: (Units=1/GPa)
#
#
# Indices 1 2 3 4 5 6 
#
# 1 0.016636 0.003048 -0.000158 0.000000 0.000477 0.000000
# 2 0.003048 0.015423 -0.003610 0.000000 0.000163 0.000000
# 3 -0.000158 -0.003610 0.019250 0.000000 0.004051 0.000000
# 4 0.000000 0.000000 0.000000 0.027054 0.000000 0.014528
# 5 0.000477 0.000163 0.004051 0.000000 0.029585 0.000000
# 6 0.000000 0.000000 0.000000 0.014528 0.000000 0.035203
#
#
# Mechanical properties :
#
#
# Convention : Reuss Voigt Hill
#
# Bulk Modulus (GPa) = 20.05228 20.80819 20.43024
# Shear Modulus (GPa) = 31.01476 36.44011 33.72743
#
# Velocity S-wave (km/s) = 3.62703 3.93149 3.78233
# Velocity P-wave (km/s) = 5.10353 5.42540 5.26692
#
# Compressibility (1/GPa) = 0.04986963
#
# Stress axis : x y z
#
# Youngs Moduli (GPa) = 60.11059 64.83744 51.94814
#
# Poissons Ratio (x) = -0.19762 0.00818
# Poissons Ratio (y) = -0.18322 0.18754
# Poissons Ratio (z) = 0.00947 0.23408
#
# Static dielectric constant tensor:
#      x y z
#    x 1.830970 0.000000 0.011770 
#    y 0.000000 1.790350 0.000000 
#    z 0.011770 0.000000 1.958090 
# 
# From -- ./inp_files/34742.got.cif
#   From: 2010.05.17/outbox.cif.g08.bks.cpg/sg14_18_cif.got.tgz:34742.got - 2010.06.03 17:49:19.
