data_PCOD9245552
_publ_section_title
;
Structure prediction by ZEFSAII (Michael W. Deem and Ramdas Pophale) SiO2 
 PCOD9245552
Probable space group: P 21/C
;
_chemical_formula_sum "Si O2"
_cell_formula_units_Z 28
_cell_length_a 8.496405
_cell_length_b 12.266227
_cell_length_c 13.128722
_cell_angle_alpha 90.000000
_cell_angle_beta 48.699468
_cell_angle_gamma 90.000000
_cell_volume 1027.916337
_symmetry_space_group_name_H-M "P 21/C"
_symmetry_group_IT_number 14
_symmetry_cell_setting 'monoclinic'
loop_
_space_group_symop_operation_xyz
x,y,z
-x,1/2+y,1/2-z
-x,-y,-z
x,1/2-y,1/2+z
loop_
_atom_site_type_symbol
_atom_site_label
_atom_site_fract_x
_atom_site_fract_y
_atom_site_fract_z
Si Si1 0.046270 0.307644 0.498895
Si Si2 0.773448 0.397121 0.037327
Si Si3 0.495534 0.214644 0.341201
Si Si4 0.308698 0.594090 0.432988
Si Si5 0.579598 0.718132 0.904305
Si Si6 0.330328 0.943682 0.211456
Si Si7 0.059446 0.116095 0.225572
O O1 0.283137 0.267444 0.388167
O O2 0.018439 0.352300 0.626403
O O3 0.909835 0.202350 0.524784
O O4 0.940258 0.396810 0.469271
O O5 0.528413 0.367485 0.124751
O O6 0.768431 0.478719 0.135950
O O7 0.867569 0.408283 0.883957
O O8 0.600338 0.135644 0.215549
O O9 0.427212 0.168580 0.479634
O O10 0.653499 0.314365 0.297011
O O11 0.412548 0.681798 0.464684
O O12 0.430764 0.483312 0.397836
O O13 0.799752 0.780218 0.796274
O O14 0.198725 0.007294 0.183394
#
# Coordination Sequence:
#
# PCOD9245552 Si02
#       7
#     4   4   4   4   4   4   4
#     4  10  21  38  63  89 122 161 200 251 301 354
#     4  11  21  39  65  88 121 163 202 245 310 355
#     4  11  21  40  64  86 124 164 201 247 310 354
#     4  10  21  41  60  94 124 154 210 250 293 368
#     4   9  20  37  63  87 118 162 196 246 304 353
#     4  11  23  39  64  88 126 162 199 247 314 352
#     4  10  22  38  61  93 123 153 209 252 292 371
#
# _framework density 27.239570000000001
#
# number of rings (size 3 to 8) (size 9 to 14) (size 15 to 20)
#    0.000    1.714    2.857    3.000    0.000    5.714 
#    0.000    7.143    0.000    0.000    0.000    0.000 
#    0.000    0.000    0.000    0.000    0.000    0.000 
#
# Total GULP energy -156501.310044 kJ/mol
# GULP energy per Si atom -5589.332502 kJ/mol
# Density = 2.717757 g / cm^3
# Si number density = 27.239570 Si / 1000 Ang^3
#
#
#
# Elastic Constant Matrix: (Units=GPa)
#
#
# Indices 1 2 3 4 5 6 
#
# 1 118.2206 -2.8998 26.6553 0.0000 -6.1192 0.0000
# 2 -2.8998 52.5091 -12.9728 0.0000 -3.1094 0.0000
# 3 26.6553 -12.9728 126.9818 0.0000 14.0815 0.0000
# 4 0.0000 0.0000 0.0000 31.8419 0.0000 -1.6422
# 5 -6.1192 -3.1094 14.0815 0.0000 48.6104 0.0000
# 6 0.0000 0.0000 0.0000 -1.6422 0.0000 19.6416
#
#
#
# Elastic Compliance Matrix: (Units=1/GPa)
#
#
# Indices 1 2 3 4 5 6 
#
# 1 0.009020 0.000088 -0.002078 0.000000 0.001743 0.000000
# 2 0.000088 0.019561 0.001901 0.000000 0.000712 0.000000
# 3 -0.002078 0.001901 0.008804 0.000000 -0.002690 0.000000
# 4 0.000000 0.000000 0.000000 0.031541 0.000000 0.002637
# 5 0.001743 0.000712 -0.002690 0.000000 0.021616 0.000000
# 6 0.000000 0.000000 0.000000 0.002637 0.000000 0.051133
#
#
# Mechanical properties :
#
#
# Convention : Reuss Voigt Hill
#
# Bulk Modulus (GPa) = 26.87651 35.47519 31.17585
# Shear Modulus (GPa) = 32.41408 39.14737 35.78073
#
# Velocity S-wave (km/s) = 3.45333 3.79509 3.62823
# Velocity P-wave (km/s) = 5.07826 5.67937 5.38721
#
# Compressibility (1/GPa) = 0.03720721
#
# Stress axis : x y z
#
# Youngs Moduli (GPa) = 110.86994 51.12218 113.58716
#
# Poissons Ratio (x) = -0.00450 0.23599
# Poissons Ratio (y) = -0.00976 -0.21593
# Poissons Ratio (z) = 0.23035 -0.09718
#
# Static dielectric constant tensor:
#      x y z
#    x 2.109920 0.000000 0.029770 
#    y 0.000000 2.146910 0.000000 
#    z 0.029770 0.000000 2.245950 
# 
# From -- ./inp_files/41149.got.cif
#   From: 2010.05.17/outbox.cif.g08.bks.cpg/sg14_21_cif.got.tgz:41149.got - 2010.06.03 17:49:19.
