data_PCOD9245613
_publ_section_title
;
Structure prediction by ZEFSAII (Michael W. Deem and Ramdas Pophale) SiO2 
 PCOD9245613
Probable space group: P 21/C
;
_chemical_formula_sum "Si O2"
_cell_formula_units_Z 32
_cell_length_a 11.785584
_cell_length_b 14.306825
_cell_length_c 17.451551
_cell_angle_alpha 90.000000
_cell_angle_beta 149.665864
_cell_angle_gamma 90.000000
_cell_volume 1486.126717
_symmetry_space_group_name_H-M "P 21/C"
_symmetry_group_IT_number 14
_symmetry_cell_setting 'monoclinic'
loop_
_space_group_symop_operation_xyz
x,y,z
-x,1/2+y,1/2-z
-x,-y,-z
x,1/2-y,1/2+z
loop_
_atom_site_type_symbol
_atom_site_label
_atom_site_fract_x
_atom_site_fract_y
_atom_site_fract_z
Si Si1 0.362224 0.850636 0.120181
Si Si2 0.174095 0.847698 0.688553
Si Si3 0.803452 0.090745 0.677553
Si Si4 0.697319 0.603271 0.057904
Si Si5 0.737363 0.546509 0.915596
Si Si6 0.492085 0.859006 0.742603
Si Si7 0.113953 0.707344 0.326332
Si Si8 0.015862 0.641108 0.552411
O O1 0.583758 0.913990 0.257545
O O2 0.433946 0.743910 0.179314
O O3 0.180757 0.884107 0.078395
O O4 0.244590 0.844021 0.969811
O O5 0.409818 0.859211 0.783152
O O6 0.192414 0.832840 0.789716
O O7 0.001259 0.930464 0.565911
O O8 0.057375 0.752238 0.589865
O O9 0.538553 0.100706 0.538707
O O10 0.864529 0.181245 0.664172
O O11 0.917799 0.094498 0.827959
O O12 0.833632 0.991904 0.654546
O O13 0.850291 0.685770 0.176959
O O14 0.662080 0.606765 0.946416
O O15 0.659566 0.440327 0.883258
O O16 0.754824 0.877225 0.884228
#
# Coordination Sequence:
#
# PCOD9245613 Si02
#       8
#     4   4   4   4   4   4   4   4
#     4  11  23  40  59 100 123 156 212 262 311 370
#     4   9  21  42  62  87 124 170 208 247 317 384
#     4  10  21  40  65  91 127 169 212 257 320 373
#     4  10  22  41  64  93 125 167 212 259 315 382
#     4  11  21  40  66  89 127 165 204 261 314 374
#     4  11  23  39  67  90 126 167 210 256 319 369
#     4  10  23  38  64  90 129 162 208 260 315 371
#     4  10  21  38  65  91 124 161 207 267 307 366
#
# _framework density 21.532482999999999
#
# number of rings (size 3 to 8) (size 9 to 14) (size 15 to 20)
#    0.000    1.750    2.500    1.125    1.750    3.500 
#    0.000    0.625    2.750    0.000    0.000    0.000 
#    0.000    0.000    0.000    0.000    0.000    0.000 
#
# Total GULP energy -178843.851813 kJ/mol
# GULP energy per Si atom -5588.870369 kJ/mol
# Density = 2.148347 g / cm^3
# Si number density = 21.532483 Si / 1000 Ang^3
#
#
#
# Elastic Constant Matrix: (Units=GPa)
#
#
# Indices 1 2 3 4 5 6 
#
# 1 41.5382 -4.5806 25.8454 0.0000 -2.8295 0.0000
# 2 -4.5806 52.1389 10.6515 0.0000 2.3400 0.0000
# 3 25.8454 10.6515 68.0479 0.0000 -0.1508 0.0000
# 4 0.0000 0.0000 0.0000 29.9761 0.0000 3.9468
# 5 -2.8295 2.3400 -0.1508 0.0000 31.3549 0.0000
# 6 0.0000 0.0000 0.0000 3.9468 0.0000 22.2504
#
#
#
# Elastic Compliance Matrix: (Units=1/GPa)
#
#
# Indices 1 2 3 4 5 6 
#
# 1 0.033258 0.005566 -0.013497 0.000000 0.002521 0.000000
# 2 0.005566 0.020815 -0.005375 0.000000 -0.001077 0.000000
# 3 -0.013497 -0.005375 0.020662 0.000000 -0.000718 0.000000
# 4 0.000000 0.000000 0.000000 0.034158 0.000000 -0.006059
# 5 0.002521 -0.001077 -0.000718 0.000000 0.032197 0.000000
# 6 0.000000 0.000000 0.000000 -0.006059 0.000000 0.046018
#
#
# Mechanical properties :
#
#
# Convention : Reuss Voigt Hill
#
# Bulk Modulus (GPa) = 20.78021 25.06196 22.92109
# Shear Modulus (GPa) = 21.76182 25.37019 23.56600
#
# Velocity S-wave (km/s) = 3.18252 3.43626 3.31182
# Velocity P-wave (km/s) = 4.81416 5.23529 5.02914
#
# Compressibility (1/GPa) = 0.04812271
#
# Stress axis : x y z
#
# Youngs Moduli (GPa) = 30.06791 48.04261 48.39865
#
# Poissons Ratio (x) = -0.26741 0.65326
# Poissons Ratio (y) = -0.16736 0.26012
# Poissons Ratio (z) = 0.40584 0.25821
#
# Static dielectric constant tensor:
#      x y z
#    x 1.795980 0.000000 -0.009360 
#    y 0.000000 1.802640 0.000000 
#    z -0.009360 0.000000 1.758720 
# 
# From -- ./inp_files/58017.got.cif
#   From: 2010.05.17/outbox.cif.g08.bks.cpg/sg14_30_cif.got.tgz:58017.got - 2010.06.03 17:49:19.
