data_PCOD9245694
_publ_section_title
;
Structure prediction by ZEFSAII (Michael W. Deem and Ramdas Pophale) SiO2 
 PCOD9245694
Probable space group: P 21/C
;
_chemical_formula_sum "Si O2"
_cell_formula_units_Z 32
_cell_length_a 8.562572
_cell_length_b 13.496534
_cell_length_c 28.710761
_cell_angle_alpha 90.000000
_cell_angle_beta 32.471734
_cell_angle_gamma 90.000000
_cell_volume 1781.358068
_symmetry_space_group_name_H-M "P 21/C"
_symmetry_group_IT_number 14
_symmetry_cell_setting 'monoclinic'
loop_
_space_group_symop_operation_xyz
x,y,z
-x,1/2+y,1/2-z
-x,-y,-z
x,1/2-y,1/2+z
loop_
_atom_site_type_symbol
_atom_site_label
_atom_site_fract_x
_atom_site_fract_y
_atom_site_fract_z
Si Si1 0.751709 0.125511 0.688488
Si Si2 0.234463 0.576040 0.572748
Si Si3 0.481692 0.273657 0.826811
Si Si4 0.503093 0.270146 0.426871
Si Si5 0.201863 0.753401 0.003099
Si Si6 0.346837 0.946702 0.783157
Si Si7 0.188779 0.705370 0.400334
Si Si8 0.567229 0.614402 0.974694
O O1 0.566669 0.177490 0.775521
O O2 0.728960 0.194947 0.648540
O O3 0.087729 0.125706 0.618033
O O4 0.626372 0.017072 0.711657
O O5 0.500000 0.500000 0.500000
O O6 0.300146 0.643076 0.601440
O O7 0.226525 0.652708 0.531490
O O8 0.936442 0.515337 0.650648
O O9 0.576531 0.260305 0.856081
O O10 0.629778 0.365699 0.763508
O O11 0.132583 0.282808 0.913408
O O12 0.521724 0.177701 0.457330
O O13 0.163419 0.303796 0.512867
O O14 0.279080 0.785409 0.931189
O O15 0.400125 0.666109 0.974056
O O16 0.320956 0.885400 0.837848
O O17 0.500000 0.500000 0.000000
#
# Coordination Sequence:
#
# PCOD9245694 Si02
#       8
#     4   4   4   4   4   4   4   4
#     4  10  21  39  56  86 119 149 188 249 293 341
#     4  11  21  37  60  88 118 152 200 243 295 352
#     4  10  21  39  59  85 117 153 192 246 301 339
#     4   9  20  39  59  83 116 153 196 244 286 349
#     4  10  21  39  64  86 111 157 203 240 288 360
#     4  11  21  37  62  86 120 158 194 246 303 349
#     4   9  20  38  63  83 113 155 199 235 289 355
#     4  10  21  39  60  81 115 156 195 235 289 359
#
# _framework density 17.963822
#
# number of rings (size 3 to 8) (size 9 to 14) (size 15 to 20)
#    0.000    2.000    2.500    0.750    1.750    2.500 
#    4.500    3.750    0.000    0.000    0.000    0.000 
#    0.000    0.000    0.000    0.000    0.000    0.000 
#
# Total GULP energy -178634.135500 kJ/mol
# GULP energy per Si atom -5582.316734 kJ/mol
# Density = 1.792294 g / cm^3
# Si number density = 17.963822 Si / 1000 Ang^3
#
#
#
# Elastic Constant Matrix: (Units=GPa)
#
#
# Indices 1 2 3 4 5 6 
#
# 1 142.3453 60.4194 46.6604 0.0000 19.3933 0.0000
# 2 60.4194 111.3561 30.6301 0.0000 4.1471 0.0000
# 3 46.6604 30.6301 63.9460 0.0000 14.5633 0.0000
# 4 0.0000 0.0000 0.0000 26.0686 0.0000 -13.2520
# 5 19.3933 4.1471 14.5633 0.0000 26.6788 0.0000
# 6 0.0000 0.0000 0.0000 -13.2520 0.0000 18.6503
#
#
#
# Elastic Compliance Matrix: (Units=1/GPa)
#
#
# Indices 1 2 3 4 5 6 
#
# 1 0.011221 -0.004558 -0.004920 0.000000 -0.004763 0.000000
# 2 -0.004558 0.012231 -0.003260 0.000000 0.003191 0.000000
# 3 -0.004920 -0.003260 0.022679 0.000000 -0.008297 0.000000
# 4 0.000000 0.000000 0.000000 0.060051 0.000000 0.042669
# 5 -0.004763 0.003191 -0.008297 0.000000 0.044978 0.000000
# 6 0.000000 0.000000 0.000000 0.042669 0.000000 0.083937
#
#
# Mechanical properties :
#
#
# Convention : Reuss Voigt Hill
#
# Bulk Modulus (GPa) = 48.41132 65.89637 57.15384
# Shear Modulus (GPa) = 18.69444 26.27537 22.48491
#
# Velocity S-wave (km/s) = 3.22944 3.82865 3.54174
# Velocity P-wave (km/s) = 6.39637 7.50381 6.97212
#
# Compressibility (1/GPa) = 0.02065633
#
# Stress axis : x y z
#
# Youngs Moduli (GPa) = 89.11476 81.76008 44.09295
#
# Poissons Ratio (x) = 0.37264 0.21695
# Poissons Ratio (y) = 0.40616 0.14373
# Poissons Ratio (z) = 0.43847 0.26651
#
# Static dielectric constant tensor:
#      x y z
#    x 1.601180 0.000000 -0.012370 
#    y 0.000000 1.593500 0.000000 
#    z -0.012370 0.000000 1.607830 
# 
# From -- ./inp_files/79599.got.cif
#   From: 2010.05.17/outbox.cif.g08.bks.cpg/sg14_40_cif.got.tgz:79599.got - 2010.06.03 17:49:19.
