data_PCOD9245392
_publ_section_title
;
Structure prediction by ZEFSAII (Michael W. Deem and Ramdas Pophale) SiO2 
 PCOD9245392
Probable space group: P 21/C
;
_chemical_formula_sum "Si O2"
_cell_formula_units_Z 28
_cell_length_a 18.269520
_cell_length_b 12.908746
_cell_length_c 10.744390
_cell_angle_alpha 90.000000
_cell_angle_beta 147.212011
_cell_angle_gamma 90.000000
_cell_volume 1372.198919
_symmetry_space_group_name_H-M "P 21/C"
_symmetry_group_IT_number 14
_symmetry_cell_setting 'monoclinic'
loop_
_space_group_symop_operation_xyz
x,y,z
-x,1/2+y,1/2-z
-x,-y,-z
x,1/2-y,1/2+z
loop_
_atom_site_type_symbol
_atom_site_label
_atom_site_fract_x
_atom_site_fract_y
_atom_site_fract_z
Si Si1 0.791687 0.210593 0.870180
Si Si2 0.331707 0.045167 0.029285
Si Si3 0.157719 0.658575 0.297221
Si Si4 0.148594 0.130017 0.556933
Si Si5 0.597021 0.471786 0.023685
Si Si6 0.005248 0.027107 0.151914
Si Si7 0.793989 0.868667 0.911727
O O1 0.815093 0.297329 0.800721
O O2 0.664654 0.138994 0.649328
O O3 0.799869 0.236760 0.029093
O O4 0.914336 0.129637 0.033006
O O5 0.264101 0.082992 0.807329
O O6 0.256080 0.938822 0.957678
O O7 0.286933 0.123485 0.074922
O O8 0.493012 0.032470 0.260982
O O9 0.000345 0.626660 0.089598
O O10 0.178897 0.250816 0.581139
O O11 0.137438 0.063381 0.414131
O O12 0.500000 0.500000 0.000000
O O13 0.709233 0.562688 0.189824
O O14 0.934339 0.931705 0.121473
O O15 0.000000 0.000000 0.000000
#
# Coordination Sequence:
#
# PCOD9245392 Si02
#       7
#     4   4   4   4   4   4   4
#     4  10  21  38  63  90 115 169 207 256 311 382
#     4  11  22  40  62  83 125 166 203 262 306 376
#     4  11  22  38  62  91 126 158 207 257 324 374
#     4  11  24  35  63  97 116 164 214 255 314 379
#     4   9  18  42  63  83 117 167 209 244 318 364
#     4  10  21  38  57  87 128 156 190 259 319 362
#     4  10  21  38  61  85 121 161 207 249 309 369
#
# _framework density 20.405204999999999
#
# number of rings (size 3 to 8) (size 9 to 14) (size 15 to 20)
#    0.000    1.714    5.714    1.286    6.000    2.286 
#    0.000    0.000    0.000    4.286    0.000    0.000 
#    0.000    0.000    0.000    0.000    0.000    0.000 
#
# Total GULP energy -156138.365469 kJ/mol
# GULP energy per Si atom -5576.370195 kJ/mol
# Density = 2.035876 g / cm^3
# Si number density = 20.405205 Si / 1000 Ang^3
#
#
#
# Elastic Constant Matrix: (Units=GPa)
#
#
# Indices 1 2 3 4 5 6 
#
# 1 22.1291 8.7599 9.8325 0.0000 -14.2942 0.0000
# 2 8.7599 46.6825 31.7836 0.0000 -8.3437 0.0000
# 3 9.8325 31.7836 147.5434 0.0000 -18.3963 0.0000
# 4 0.0000 0.0000 0.0000 12.4113 0.0000 -0.2315
# 5 -14.2942 -8.3437 -18.3963 0.0000 22.6095 0.0000
# 6 0.0000 0.0000 0.0000 -0.2315 0.0000 26.6285
#
#
#
# Elastic Compliance Matrix: (Units=1/GPa)
#
#
# Indices 1 2 3 4 5 6 
#
# 1 0.078791 -0.007747 0.002529 0.000000 0.049012 0.000000
# 2 -0.007747 0.026475 -0.005096 0.000000 0.000726 0.000000
# 3 0.002529 -0.005096 0.008538 0.000000 0.006665 0.000000
# 4 0.000000 0.000000 0.000000 0.080585 0.000000 0.000701
# 5 0.049012 0.000726 0.006665 0.000000 0.080907 0.000000
# 6 0.000000 0.000000 0.000000 0.000701 0.000000 0.037560
#
#
# Mechanical properties :
#
#
# Convention : Reuss Voigt Hill
#
# Bulk Modulus (GPa) = 10.73242 35.23410 22.98326
# Shear Modulus (GPa) = 13.71584 23.39514 18.55549
#
# Velocity S-wave (km/s) = 2.59544 3.38972 3.01882
# Velocity P-wave (km/s) = 3.77529 5.71182 4.84137
#
# Compressibility (1/GPa) = 0.09317559
#
# Stress axis : x y z
#
# Youngs Moduli (GPa) = 12.69175 37.77212 117.12305
#
# Poissons Ratio (x) = 0.29262 -0.29622
# Poissons Ratio (y) = 0.09832 0.59690
# Poissons Ratio (z) = -0.03210 0.19250
#
# Static dielectric constant tensor:
#      x y z
#    x 1.784980 0.000000 -0.036010 
#    y 0.000000 1.710660 0.000000 
#    z -0.036010 0.000000 1.829000 
# 
# From -- ./inp_files/35202.got.cif
#   From: 2010.05.17/outbox.cif.g08.bks.cpg/sg14_18_cif.got.tgz:35202.got - 2010.06.03 17:49:19.
