data_PCOD9245983
_publ_section_title
;
Structure prediction by ZEFSAII (Michael W. Deem and Ramdas Pophale) SiO2 
 PCOD9245983
Probable space group: P 21/C
;
_chemical_formula_sum "Si O2"
_cell_formula_units_Z 20
_cell_length_a 6.260374
_cell_length_b 7.849380
_cell_length_c 22.127329
_cell_angle_alpha 90.000000
_cell_angle_beta 52.501786
_cell_angle_gamma 90.000000
_cell_volume 862.663988
_symmetry_space_group_name_H-M "P 21/C"
_symmetry_group_IT_number 14
_symmetry_cell_setting 'monoclinic'
loop_
_space_group_symop_operation_xyz
x,y,z
-x,1/2+y,1/2-z
-x,-y,-z
x,1/2-y,1/2+z
loop_
_atom_site_type_symbol
_atom_site_label
_atom_site_fract_x
_atom_site_fract_y
_atom_site_fract_z
Si Si1 0.242703 0.933234 0.797723
Si Si2 0.673368 0.665005 0.381202
Si Si3 0.723370 0.869581 0.487033
Si Si4 0.765148 0.897499 0.076896
Si Si5 0.337700 0.596766 0.858715
O O1 0.315619 0.767677 0.822799
O O2 0.973371 0.880569 0.808376
O O3 0.189954 0.079055 0.858518
O O4 0.486871 0.972260 0.711644
O O5 0.498208 0.504540 0.393766
O O6 0.524206 0.832451 0.380795
O O7 0.695965 0.704183 0.448316
O O8 0.281228 0.211390 0.444802
O O9 0.500000 0.000000 0.500000
O O10 0.025319 0.941874 0.426035
O O11 0.000000 0.000000 0.000000
#
# Coordination Sequence:
#
# PCOD9245983 Si02
#       5
#     4   4   4   4   4
#     4  10  23  40  67  92 131 173 223 277 341 409
#     4  10  21  39  67  89 126 175 223 267 341 416
#     4  11  24  40  66  99 132 171 223 285 339 400
#     4  11  20  42  68  92 125 183 226 267 338 424
#     4  10  23  43  61  94 133 167 221 278 335 412
#
# _framework density 23.183997000000002
#
# number of rings (size 3 to 8) (size 9 to 14) (size 15 to 20)
#    0.000    1.600    6.000    0.600    0.000   10.400 
#    0.000    2.000    0.000    0.000    0.000    0.000 
#    0.000    0.000    0.000    0.000    0.000    0.000 
#
# Total GULP energy -111622.282756 kJ/mol
# GULP energy per Si atom -5581.114138 kJ/mol
# Density = 2.313123 g / cm^3
# Si number density = 23.183997 Si / 1000 Ang^3
#
#
#
# Elastic Constant Matrix: (Units=GPa)
#
#
# Indices 1 2 3 4 5 6 
#
# 1 133.9881 41.0697 59.6532 0.0000 -23.1550 0.0000
# 2 41.0697 70.8035 25.4027 0.0000 -11.5493 0.0000
# 3 59.6532 25.4027 119.8561 0.0000 -18.6568 0.0000
# 4 0.0000 0.0000 0.0000 43.2481 0.0000 5.2728
# 5 -23.1550 -11.5493 -18.6568 0.0000 28.9101 0.0000
# 6 0.0000 0.0000 0.0000 5.2728 0.0000 48.4767
#
#
#
# Elastic Compliance Matrix: (Units=1/GPa)
#
#
# Indices 1 2 3 4 5 6 
#
# 1 0.011429 -0.004408 -0.004005 0.000000 0.004808 0.000000
# 2 -0.004408 0.017522 -0.001089 0.000000 0.002767 0.000000
# 3 -0.004005 -0.001089 0.011117 0.000000 0.003531 0.000000
# 4 0.000000 0.000000 0.000000 0.023433 0.000000 -0.002549
# 5 0.004808 0.002767 0.003531 0.000000 0.041825 0.000000
# 6 0.000000 0.000000 0.000000 -0.002549 0.000000 0.020906
#
#
# Mechanical properties :
#
#
# Convention : Reuss Voigt Hill
#
# Bulk Modulus (GPa) = 47.47612 64.09984 55.78798
# Shear Modulus (GPa) = 32.83891 37.36180 35.10036
#
# Velocity S-wave (km/s) = 3.76766 4.01875 3.89522
# Velocity P-wave (km/s) = 6.28088 7.01727 6.65926
#
# Compressibility (1/GPa) = 0.02106322
#
# Stress axis : x y z
#
# Youngs Moduli (GPa) = 87.50007 57.06949 89.94880
#
# Poissons Ratio (x) = 0.25155 0.36029
# Poissons Ratio (y) = 0.38569 0.09798
# Poissons Ratio (z) = 0.35048 0.06217
#
# Static dielectric constant tensor:
#      x y z
#    x 1.939530 0.000000 0.049000 
#    y 0.000000 1.930810 0.000000 
#    z 0.049000 0.000000 1.943770 
# 
# From -- ./inp_files/75558.got.cif
#   From: 2010.05.17/outbox.cif.g08.bks.cpg/sg14_38_cif.got.tgz:75558.got - 2010.06.03 17:49:19.
