data_PCOD9245833
_publ_section_title
;
Structure prediction by ZEFSAII (Michael W. Deem and Ramdas Pophale) SiO2 
 PCOD9245833
Probable space group: P 21/C
;
_chemical_formula_sum "Si O2"
_cell_formula_units_Z 32
_cell_length_a 7.969363
_cell_length_b 25.271117
_cell_length_c 10.970646
_cell_angle_alpha 90.000000
_cell_angle_beta 134.868761
_cell_angle_gamma 90.000000
_cell_volume 1565.877380
_symmetry_space_group_name_H-M "P 21/C"
_symmetry_group_IT_number 14
_symmetry_cell_setting 'monoclinic'
loop_
_space_group_symop_operation_xyz
x,y,z
-x,1/2+y,1/2-z
-x,-y,-z
x,1/2-y,1/2+z
loop_
_atom_site_type_symbol
_atom_site_label
_atom_site_fract_x
_atom_site_fract_y
_atom_site_fract_z
Si Si1 0.771790 0.133676 0.313583
Si Si2 0.545615 0.938925 0.994483
Si Si3 0.935672 0.560438 0.487652
Si Si4 0.339313 0.863996 0.292369
Si Si5 0.661289 0.247695 0.205267
Si Si6 0.362193 0.135404 0.309784
Si Si7 0.355126 0.252341 0.299955
Si Si8 0.758259 0.633951 0.811584
O O1 0.685217 0.094678 0.163029
O O2 0.811750 0.194124 0.290039
O O3 0.557334 0.136117 0.301470
O O4 0.007457 0.114996 0.500587
O O5 0.720927 0.938820 0.971130
O O6 0.677304 0.906356 0.166919
O O7 0.500000 0.000000 0.000000
O O8 0.835537 0.591755 0.319074
O O9 0.000000 0.500000 0.500000
O O10 0.150022 0.592594 0.657832
O O11 0.220289 0.805588 0.239878
O O12 0.482907 0.873925 0.490273
O O13 0.540114 0.862659 0.292406
O O14 0.504234 0.249891 0.249326
O O15 0.511112 0.242959 0.003233
O O16 0.243743 0.193847 0.253200
O O17 0.201659 0.305808 0.215651
#
# Coordination Sequence:
#
# PCOD9245833 Si02
#       8
#     4   4   4   4   4   4   4   4
#     4  10  21  39  63  90 123 164 206 255 314 368
#     4  11  24  43  65  89 125 164 215 263 307 375
#     4  11  24  42  66  87 119 169 210 256 312 367
#     4  10  22  39  59  93 127 158 204 253 312 374
#     4   9  18  37  58  90 129 166 204 256 311 382
#     4   9  21  41  59  88 123 162 204 250 308 373
#     4   9  18  36  59  90 129 163 206 254 316 377
#     4  11  22  37  63  95 125 161 204 260 312 374
#
# _framework density 20.435827
#
# number of rings (size 3 to 8) (size 9 to 14) (size 15 to 20)
#    0.000    2.000    1.250    1.500    1.750    3.000 
#    0.000    3.750    0.000    0.000    0.000    0.000 
#    0.000    0.000    0.000    0.000    0.000    0.000 
#
# Total GULP energy -178590.652260 kJ/mol
# GULP energy per Si atom -5580.957883 kJ/mol
# Density = 2.038931 g / cm^3
# Si number density = 20.435827 Si / 1000 Ang^3
#
#
#
# Elastic Constant Matrix: (Units=GPa)
#
#
# Indices 1 2 3 4 5 6 
#
# 1 37.5742 17.9363 9.9575 0.0000 -8.1605 0.0000
# 2 17.9363 198.4585 112.2021 0.0000 4.8077 0.0000
# 3 9.9575 112.2021 148.8394 0.0000 -13.8499 0.0000
# 4 0.0000 0.0000 0.0000 65.0969 0.0000 48.8128
# 5 -8.1605 4.8077 -13.8499 0.0000 27.1494 0.0000
# 6 0.0000 0.0000 0.0000 48.8128 0.0000 95.5447
#
#
#
# Elastic Compliance Matrix: (Units=1/GPa)
#
#
# Indices 1 2 3 4 5 6 
#
# 1 0.030464 -0.004268 0.002207 0.000000 0.011038 0.000000
# 2 -0.004268 0.010132 -0.008020 0.000000 -0.007168 0.000000
# 3 0.002207 -0.008020 0.013449 0.000000 0.008944 0.000000
# 4 0.000000 0.000000 0.000000 0.024901 0.000000 -0.012722
# 5 0.011038 -0.007168 0.008944 0.000000 0.045983 0.000000
# 6 0.000000 0.000000 0.000000 -0.012722 0.000000 0.016966
#
#
# Mechanical properties :
#
#
# Convention : Reuss Voigt Hill
#
# Bulk Modulus (GPa) = 29.51357 73.89599 51.70478
# Shear Modulus (GPa) = 28.84301 53.87660 41.35981
#
# Velocity S-wave (km/s) = 3.76093 5.14014 4.50364
# Velocity P-wave (km/s) = 5.77346 8.45379 7.23876
#
# Compressibility (1/GPa) = 0.03388272
#
# Stress axis : x y z
#
# Youngs Moduli (GPa) = 32.82561 98.69381 74.35527
#
# Poissons Ratio (x) = 0.42125 -0.16408
# Poissons Ratio (y) = 0.14011 0.59631
# Poissons Ratio (z) = -0.07244 0.79150
#
# Static dielectric constant tensor:
#      x y z
#    x 1.766470 0.000000 -0.014670 
#    y 0.000000 1.284760 0.000000 
#    z -0.014670 0.000000 1.712130 
# 
# From -- ./inp_files/27032.got.cif
#   From: 2010.05.17/outbox.cif.g08.bks.cpg/sg14_14_cif.got.tgz:27032.got - 2010.06.03 17:49:19.
