data_PCOD9245353
_publ_section_title
;
Structure prediction by ZEFSAII (Michael W. Deem and Ramdas Pophale) SiO2 
 PCOD9245353
Probable space group: P 21/C
;
_chemical_formula_sum "Si O2"
_cell_formula_units_Z 32
_cell_length_a 13.709080
_cell_length_b 8.672633
_cell_length_c 15.398014
_cell_angle_alpha 90.000000
_cell_angle_beta 54.790450
_cell_angle_gamma 90.000000
_cell_volume 1495.794701
_symmetry_space_group_name_H-M "P 21/C"
_symmetry_group_IT_number 14
_symmetry_cell_setting 'monoclinic'
loop_
_space_group_symop_operation_xyz
x,y,z
-x,1/2+y,1/2-z
-x,-y,-z
x,1/2-y,1/2+z
loop_
_atom_site_type_symbol
_atom_site_label
_atom_site_fract_x
_atom_site_fract_y
_atom_site_fract_z
Si Si1 0.891782 0.449795 0.990812
Si Si2 0.009853 0.747540 0.716101
Si Si3 0.173820 0.490774 0.650503
Si Si4 0.376596 0.486097 0.681430
Si Si5 0.898520 0.951663 0.121847
Si Si6 0.274221 0.719430 0.312891
Si Si7 0.726661 0.713407 0.111516
Si Si8 0.635330 0.013820 0.084691
O O1 0.811612 0.328028 0.085045
O O2 0.808224 0.596681 0.015076
O O3 0.000000 0.500000 0.000000
O O4 0.934602 0.370128 0.880497
O O5 0.914257 0.847150 0.817847
O O6 0.950635 0.622706 0.681735
O O7 0.102402 0.641108 0.721034
O O8 0.278543 0.438830 0.661279
O O9 0.242326 0.544259 0.529478
O O10 0.349321 0.665881 0.714385
O O11 0.345976 0.390853 0.783889
O O12 0.515458 0.457004 0.592565
O O13 0.818098 0.821333 0.117693
O O14 0.813124 0.095416 0.186149
O O15 0.000000 0.000000 0.000000
O O16 0.358484 0.619837 0.333437
O O17 0.643402 0.833346 0.104333
#
# Coordination Sequence:
#
# PCOD9245353 Si02
#       8
#     4   4   4   4   4   4   4   4
#     4  11  18  36  61  95 127 160 201 266 317 382
#     4  12  24  40  60  94 134 168 206 256 332 392
#     4  12  27  42  62  96 131 176 202 266 330 392
#     4  11  23  44  66  92 127 171 220 265 312 378
#     4  11  18  36  61  95 127 160 201 266 317 382
#     4  10  21  37  65  96 120 160 222 259 318 368
#     4  10  21  37  65  96 120 160 222 259 318 368
#     4  11  23  44  66  92 127 171 220 265 312 378
#
# _framework density 21.393312000000002
#
# number of rings (size 3 to 8) (size 9 to 14) (size 15 to 20)
#    0.000    1.000    5.000    2.625    3.500    0.000 
#    0.000    0.000    0.000    1.500    0.000    0.000 
#    0.000    0.000    0.000    0.000    0.000    0.000 
#
# Total GULP energy -178880.071597 kJ/mol
# GULP energy per Si atom -5590.002237 kJ/mol
# Density = 2.134462 g / cm^3
# Si number density = 21.393312 Si / 1000 Ang^3
#
#
#
# Elastic Constant Matrix: (Units=GPa)
#
#
# Indices 1 2 3 4 5 6 
#
# 1 71.2463 14.7585 -1.4693 0.0000 -19.4378 0.0000
# 2 14.7585 106.2655 8.5590 0.0000 -13.0312 0.0000
# 3 -1.4693 8.5590 33.0697 0.0000 -14.3173 0.0000
# 4 0.0000 0.0000 0.0000 29.3166 0.0000 11.9032
# 5 -19.4378 -13.0312 -14.3173 0.0000 22.2233 0.0000
# 6 0.0000 0.0000 0.0000 11.9032 0.0000 24.5242
#
#
#
# Elastic Compliance Matrix: (Units=1/GPa)
#
#
# Indices 1 2 3 4 5 6 
#
# 1 0.021780 -0.000763 0.012785 0.000000 0.026839 0.000000
# 2 -0.000763 0.010166 -0.000518 0.000000 0.004960 0.000000
# 3 0.012785 -0.000518 0.049442 0.000000 0.042732 0.000000
# 4 0.000000 0.000000 0.000000 0.042482 0.000000 -0.020619
# 5 0.026839 0.004960 0.042732 0.000000 0.098911 0.000000
# 6 0.000000 0.000000 0.000000 -0.020619 0.000000 0.050784
#
#
# Mechanical properties :
#
#
# Convention : Reuss Voigt Hill
#
# Bulk Modulus (GPa) = 9.57889 28.25309 18.91599
# Shear Modulus (GPa) = 17.52198 27.79504 22.65851
#
# Velocity S-wave (km/s) = 2.86499 3.60841 3.25797
# Velocity P-wave (km/s) = 3.92829 5.53136 4.79726
#
# Compressibility (1/GPa) = 0.10439620
#
# Stress axis : x y z
#
# Youngs Moduli (GPa) = 45.91362 98.36360 20.22587
#
# Poissons Ratio (x) = 0.07509 -0.25859
# Poissons Ratio (y) = 0.03505 0.01047
# Poissons Ratio (z) = -0.58701 0.05092
#
# Static dielectric constant tensor:
#      x y z
#    x 1.812620 0.000000 -0.004530 
#    y 0.000000 1.765720 0.000000 
#    z -0.004530 0.000000 1.800620 
# 
# From -- ./inp_files/58893.got.cif
#   From: 2010.05.17/outbox.cif.g08.bks.cpg/sg14_30_cif.got.tgz:58893.got - 2010.06.03 17:49:19.
