data_PCOD9245560
_publ_section_title
;
Structure prediction by ZEFSAII (Michael W. Deem and Ramdas Pophale) SiO2 
 PCOD9245560
Probable space group: P 21/C
;
_chemical_formula_sum "Si O2"
_cell_formula_units_Z 28
_cell_length_a 26.670425
_cell_length_b 7.405084
_cell_length_c 15.880818
_cell_angle_alpha 90.000000
_cell_angle_beta 19.470509
_cell_angle_gamma 90.000000
_cell_volume 1045.433187
_symmetry_space_group_name_H-M "P 21/C"
_symmetry_group_IT_number 14
_symmetry_cell_setting 'monoclinic'
loop_
_space_group_symop_operation_xyz
x,y,z
-x,1/2+y,1/2-z
-x,-y,-z
x,1/2-y,1/2+z
loop_
_atom_site_type_symbol
_atom_site_label
_atom_site_fract_x
_atom_site_fract_y
_atom_site_fract_z
Si Si1 0.994951 0.922506 0.780954
Si Si2 0.593358 0.042865 0.767350
Si Si3 0.913468 0.621777 0.708300
Si Si4 0.601883 0.486735 0.009929
Si Si5 0.837705 0.698223 0.173446
Si Si6 0.252587 0.843256 0.886378
Si Si7 0.642643 0.399543 0.496854
O O1 0.157896 0.836040 0.506279
O O2 0.931520 0.770484 0.946144
O O3 0.005428 0.092366 0.830914
O O4 0.869932 0.991708 0.912524
O O5 0.650528 0.248925 0.693410
O O6 0.476699 0.972729 0.882454
O O7 0.746074 0.939586 0.499817
O O8 0.500000 0.000000 0.000000
O O9 0.898903 0.792198 0.671431
O O10 0.000000 0.500000 0.500000
O O11 0.429141 0.514400 0.306117
O O12 0.656673 0.313709 0.976708
O O13 0.692880 0.665943 0.893362
O O14 0.638655 0.424724 0.857395
O O15 0.795121 0.493180 0.230992
#
# Coordination Sequence:
#
# PCOD9245560 Si02
#       7
#     4   4   4   4   4   4   4
#     4   9  21  38  64  83 123 163 209 257 311 370
#     4  11  21  37  62  92 124 167 203 259 323 374
#     4   9  18  38  61  84 118 166 204 245 315 377
#     4  11  21  37  60  90 122 160 208 251 305 379
#     4  10  21  38  63  92 118 163 209 257 310 377
#     4  10  22  39  61  90 122 162 209 259 310 375
#     4  12  22  38  65  88 129 163 204 255 324 369
#
# _framework density 26.783156999999999
#
# number of rings (size 3 to 8) (size 9 to 14) (size 15 to 20)
#    0.000    1.714    4.286    0.000    2.000    0.000 
#    0.000    4.286    3.143    4.286    0.000    0.000 
#    0.000    0.000    0.000    0.000    0.000    0.000 
#
# Total GULP energy -156185.005275 kJ/mol
# GULP energy per Si atom -5578.035903 kJ/mol
# Density = 2.672220 g / cm^3
# Si number density = 26.783157 Si / 1000 Ang^3
#
#
#
# Elastic Constant Matrix: (Units=GPa)
#
#
# Indices 1 2 3 4 5 6 
#
# 1 66.0806 19.8101 29.3764 0.0000 1.3647 0.0000
# 2 19.8101 98.5884 17.3215 0.0000 9.4810 0.0000
# 3 29.3764 17.3215 98.1822 0.0000 18.3589 0.0000
# 4 0.0000 0.0000 0.0000 49.7562 0.0000 -7.1651
# 5 1.3647 9.4810 18.3589 0.0000 26.5939 0.0000
# 6 0.0000 0.0000 0.0000 -7.1651 0.0000 47.9694
#
#
#
# Elastic Compliance Matrix: (Units=1/GPa)
#
#
# Indices 1 2 3 4 5 6 
#
# 1 0.018548 -0.003111 -0.005776 0.000000 0.004144 0.000000
# 2 -0.003111 0.011177 -0.000374 0.000000 -0.003567 0.000000
# 3 -0.005776 -0.000374 0.013663 0.000000 -0.009002 0.000000
# 4 0.000000 0.000000 0.000000 0.020540 0.000000 0.003068
# 5 0.004144 -0.003567 -0.009002 0.000000 0.044876 0.000000
# 6 0.000000 0.000000 0.000000 0.003068 0.000000 0.021305
#
#
# Mechanical properties :
#
#
# Convention : Reuss Voigt Hill
#
# Bulk Modulus (GPa) = 40.21552 43.98523 42.10037
# Shear Modulus (GPa) = 31.86386 37.95343 34.90865
#
# Velocity S-wave (km/s) = 3.45294 3.76847 3.61415
# Velocity P-wave (km/s) = 5.56281 5.94925 5.75927
#
# Compressibility (1/GPa) = 0.02486602
#
# Stress axis : x y z
#
# Youngs Moduli (GPa) = 53.91540 89.46953 73.19297
#
# Poissons Ratio (x) = 0.27831 0.42274
# Poissons Ratio (y) = 0.16771 0.02739
# Poissons Ratio (z) = 0.31140 0.03348
#
# Static dielectric constant tensor:
#      x y z
#    x 2.252920 0.000000 -0.043090 
#    y 0.000000 2.133940 0.000000 
#    z -0.043090 0.000000 2.144490 
# 
# From -- ./inp_files/62588.got.cif
#   From: 2010.05.17/outbox.cif.g08.bks.cpg/sg14_32_cif.got.tgz:62588.got - 2010.06.03 17:49:19.
