data_PCOD9245545
_publ_section_title
;
Structure prediction by ZEFSAII (Michael W. Deem and Ramdas Pophale) SiO2 
 PCOD9245545
Probable space group: P 21/C
;
_chemical_formula_sum "Si O2"
_cell_formula_units_Z 20
_cell_length_a 5.075285
_cell_length_b 8.131236
_cell_length_c 20.267767
_cell_angle_alpha 90.000000
_cell_angle_beta 110.280067
_cell_angle_gamma 90.000000
_cell_volume 784.567251
_symmetry_space_group_name_H-M "P 21/C"
_symmetry_group_IT_number 14
_symmetry_cell_setting 'monoclinic'
loop_
_space_group_symop_operation_xyz
x,y,z
-x,1/2+y,1/2-z
-x,-y,-z
x,1/2-y,1/2+z
loop_
_atom_site_type_symbol
_atom_site_label
_atom_site_fract_x
_atom_site_fract_y
_atom_site_fract_z
Si Si1 0.396582 0.696133 0.230748
Si Si2 0.443509 0.898249 0.879003
Si Si3 0.032316 0.599094 0.606764
Si Si4 0.807203 0.555763 0.043345
Si Si5 0.256780 0.110641 0.651678
O O1 0.322224 0.607927 0.293344
O O2 0.171129 0.828804 0.186206
O O3 0.683240 0.784004 0.277503
O O4 0.421779 0.560776 0.176108
O O5 0.691776 0.033656 0.907089
O O6 0.185236 0.950359 0.901706
O O7 0.611485 0.725676 0.893592
O O8 0.865251 0.752998 0.562432
O O9 0.942160 0.448097 0.114396
O O10 0.500000 0.500000 0.000000
O O11 0.000000 0.500000 0.000000
#
# Coordination Sequence:
#
# PCOD9245545 Si02
#       5
#     4   4   4   4   4
#     4   9  18  39  65  98 137 168 218 275 357 401
#     4  10  21  38  62  99 133 162 219 270 354 396
#     4  11  22  41  65  98 131 179 216 283 331 412
#     4  11  25  47  67  92 132 186 236 275 333 405
#     4   9  20  41  68  98 135 174 222 285 340 416
#
# _framework density 25.491761
#
# number of rings (size 3 to 8) (size 9 to 14) (size 15 to 20)
#    1.200    0.800    2.000    1.200    0.000    4.800 
#    7.200    6.000    0.000    0.000    0.000    0.000 
#    0.000    0.000    0.000    0.000    0.000    0.000 
#
# Total GULP energy -111706.086315 kJ/mol
# GULP energy per Si atom -5585.304316 kJ/mol
# Density = 2.543374 g / cm^3
# Si number density = 25.491761 Si / 1000 Ang^3
#
#
#
# Elastic Constant Matrix: (Units=GPa)
#
#
# Indices 1 2 3 4 5 6 
#
# 1 137.3625 36.0069 36.5193 0.0000 26.3994 0.0000
# 2 36.0069 122.5001 26.6054 0.0000 25.6626 0.0000
# 3 36.5193 26.6054 68.2825 0.0000 36.5651 0.0000
# 4 0.0000 0.0000 0.0000 40.3471 0.0000 3.8843
# 5 26.3994 25.6626 36.5651 0.0000 34.3019 0.0000
# 6 0.0000 0.0000 0.0000 3.8843 0.0000 37.5568
#
#
#
# Elastic Compliance Matrix: (Units=1/GPa)
#
#
# Indices 1 2 3 4 5 6 
#
# 1 0.008927 -0.001424 -0.002589 0.000000 -0.003046 0.000000
# 2 -0.001424 0.009909 0.000661 0.000000 -0.007022 0.000000
# 3 -0.002589 0.000661 0.034881 0.000000 -0.035685 0.000000
# 4 0.000000 0.000000 0.000000 0.025034 0.000000 -0.002589
# 5 -0.003046 -0.007022 -0.035685 0.000000 0.074789 0.000000
# 6 0.000000 0.000000 0.000000 -0.002589 0.000000 0.026894
#
#
# Mechanical properties :
#
#
# Convention : Reuss Voigt Hill
#
# Bulk Modulus (GPa) = 21.27019 58.48982 39.88000
# Shear Modulus (GPa) = 24.65373 37.70875 31.18124
#
# Velocity S-wave (km/s) = 3.11324 3.85028 3.50121
# Velocity P-wave (km/s) = 4.61357 6.53916 5.65887
#
# Compressibility (1/GPa) = 0.04701414
#
# Stress axis : x y z
#
# Youngs Moduli (GPa) = 112.02307 100.91544 28.66887
#
# Poissons Ratio (x) = 0.14366 0.07421
# Poissons Ratio (y) = 0.15948 -0.01894
# Poissons Ratio (z) = 0.28998 -0.06668
#
# Static dielectric constant tensor:
#      x y z
#    x 1.922040 0.000000 -0.027390 
#    y 0.000000 2.051240 0.000000 
#    z -0.027390 0.000000 2.120460 
# 
# From -- ./inp_files/62953.got.cif
#   From: 2010.05.17/outbox.cif.g08.bks.cpg/sg14_32_cif.got.tgz:62953.got - 2010.06.03 17:49:19.
