data_PCOD9245629
_publ_section_title
;
Structure prediction by ZEFSAII (Michael W. Deem and Ramdas Pophale) SiO2 
 PCOD9245629
Probable space group: P 21/C
;
_chemical_formula_sum "Si O2"
_cell_formula_units_Z 24
_cell_length_a 20.102340
_cell_length_b 10.247838
_cell_length_c 12.789190
_cell_angle_alpha 90.000000
_cell_angle_beta 20.151743
_cell_angle_gamma 90.000000
_cell_volume 907.654904
_symmetry_space_group_name_H-M "P 21/C"
_symmetry_group_IT_number 14
_symmetry_cell_setting 'monoclinic'
loop_
_space_group_symop_operation_xyz
x,y,z
-x,1/2+y,1/2-z
-x,-y,-z
x,1/2-y,1/2+z
loop_
_atom_site_type_symbol
_atom_site_label
_atom_site_fract_x
_atom_site_fract_y
_atom_site_fract_z
Si Si1 0.203270 0.484213 0.416275
Si Si2 0.292228 0.434965 0.720489
Si Si3 0.131735 0.429726 0.190161
Si Si4 0.180205 0.157987 0.162850
Si Si5 0.431071 0.694838 0.177762
Si Si6 0.479842 0.847573 0.834109
O O1 0.057532 0.210150 0.838205
O O2 0.136429 0.430879 0.628341
O O3 0.382720 0.396285 0.118265
O O4 0.042210 0.471245 0.563894
O O5 0.188467 0.414717 0.983402
O O6 0.181494 0.395747 0.777677
O O7 0.478756 0.339071 0.453143
O O8 0.351267 0.583765 0.610201
O O9 0.335066 0.447659 0.948212
O O10 0.400888 0.215631 0.818381
O O11 0.271489 0.866736 0.836910
O O12 0.371565 0.665820 0.385218
#
# Coordination Sequence:
#
# PCOD9245629 Si02
#       6
#     4   4   4   4   4   4
#     4  11  21  40  61  88 120 163 198 247 306 350
#     4  11  19  41  64  86 126 155 197 251 301 356
#     4  10  23  36  61  91 121 154 201 247 296 350
#     4   9  21  38  57  91 125 147 204 246 288 360
#     4  10  21  38  66  83 123 160 199 244 300 360
#     4   9  20  38  62  92 113 162 194 246 295 357
#
# _framework density 26.441770000000002
#
# number of rings (size 3 to 8) (size 9 to 14) (size 15 to 20)
#    1.000    1.000    3.333    0.500    0.000    2.667 
#    0.000    1.667    0.000    0.000    0.000    0.000 
#    0.000    0.000    0.000    0.000    0.000    0.000 
#
# Total GULP energy -134013.776959 kJ/mol
# GULP energy per Si atom -5583.907373 kJ/mol
# Density = 2.638159 g / cm^3
# Si number density = 26.441770 Si / 1000 Ang^3
#
#
#
# Elastic Constant Matrix: (Units=GPa)
#
#
# Indices 1 2 3 4 5 6 
#
# 1 90.8197 8.2942 6.6922 0.0000 5.1437 0.0000
# 2 8.2942 55.6725 11.0705 0.0000 12.1595 0.0000
# 3 6.6922 11.0705 38.4920 0.0000 9.3479 0.0000
# 4 0.0000 0.0000 0.0000 26.1887 0.0000 0.6271
# 5 5.1437 12.1595 9.3479 0.0000 35.3375 0.0000
# 6 0.0000 0.0000 0.0000 0.6271 0.0000 43.8110
#
#
#
# Elastic Compliance Matrix: (Units=1/GPa)
#
#
# Indices 1 2 3 4 5 6 
#
# 1 0.011273 -0.001214 -0.001404 0.000000 -0.000852 0.000000
# 2 -0.001214 0.020221 -0.004229 0.000000 -0.005662 0.000000
# 3 -0.001404 -0.004229 0.028893 0.000000 -0.005984 0.000000
# 4 0.000000 0.000000 0.000000 0.038198 0.000000 -0.000547
# 5 -0.000852 -0.005662 -0.005984 0.000000 0.031954 0.000000
# 6 0.000000 0.000000 0.000000 -0.000547 0.000000 0.022833
#
#
# Mechanical properties :
#
#
# Convention : Reuss Voigt Hill
#
# Bulk Modulus (GPa) = 21.41692 26.34421 23.88056
# Shear Modulus (GPa) = 27.37762 31.66258 29.52010
#
# Velocity S-wave (km/s) = 3.22124 3.46417 3.34491
# Velocity P-wave (km/s) = 4.68534 5.09758 4.89580
#
# Compressibility (1/GPa) = 0.04669206
#
# Stress axis : x y z
#
# Youngs Moduli (GPa) = 88.70424 49.45396 34.61042
#
# Poissons Ratio (x) = 0.06005 0.04859
# Poissons Ratio (y) = 0.10772 0.14638
# Poissons Ratio (z) = 0.12453 0.20916
#
# Static dielectric constant tensor:
#      x y z
#    x 2.028950 0.000000 -0.024230 
#    y 0.000000 2.115670 0.000000 
#    z -0.024230 0.000000 2.120400 
# 
# From -- ./inp_files/51452.got.cif
#   From: 2010.05.17/outbox.cif.g08.bks.cpg/sg14_26_cif.got.tgz:51452.got - 2010.06.03 17:49:19.
