data_PCOD9245754
_publ_section_title
;
Structure prediction by ZEFSAII (Michael W. Deem and Ramdas Pophale) SiO2 
 PCOD9245754
Probable space group: P 21/C
;
_chemical_formula_sum "Si O2"
_cell_formula_units_Z 28
_cell_length_a 19.608087
_cell_length_b 13.376392
_cell_length_c 5.218944
_cell_angle_alpha 90.000000
_cell_angle_beta 113.903399
_cell_angle_gamma 90.000000
_cell_volume 1251.446475
_symmetry_space_group_name_H-M "P 21/C"
_symmetry_group_IT_number 14
_symmetry_cell_setting 'monoclinic'
loop_
_space_group_symop_operation_xyz
x,y,z
-x,1/2+y,1/2-z
-x,-y,-z
x,1/2-y,1/2+z
loop_
_atom_site_type_symbol
_atom_site_label
_atom_site_fract_x
_atom_site_fract_y
_atom_site_fract_z
Si Si1 0.009406 0.814409 0.498582
Si Si2 0.377468 0.780343 0.671699
Si Si3 0.272933 0.487541 0.418242
Si Si4 0.628031 0.994870 0.421039
Si Si5 0.458857 0.195621 0.587789
Si Si6 0.847749 0.818439 0.155806
Si Si7 0.173520 0.818899 0.659112
O O1 0.008272 0.778291 0.792123
O O2 0.088873 0.862863 0.560247
O O3 0.930545 0.865543 0.316391
O O4 0.333918 0.750563 0.354692
O O5 0.399728 0.895060 0.696985
O O6 0.451926 0.712153 0.782968
O O7 0.322023 0.460563 0.243075
O O8 0.215649 0.399882 0.398238
O O9 0.228838 0.588588 0.282167
O O10 0.324486 0.503884 0.746226
O O11 0.563498 0.915718 0.377558
O O12 0.430094 0.231809 0.269313
O O13 0.841594 0.734444 0.369837
O O14 0.178777 0.764481 0.391942
#
# Coordination Sequence:
#
# PCOD9245754 Si02
#       7
#     4   4   4   4   4   4   4
#     4   8  16  33  58  85 114 158 206 255 296 333
#     4  10  23  42  67  92 117 154 194 243 305 356
#     4  12  26  39  61  92 124 168 199 240 309 366
#     4  12  26  42  61  93 126 152 203 250 295 373
#     4  10  23  42  67  92 117 154 194 243 305 356
#     4  10  21  39  61  87 124 162 207 254 296 352
#     4  10  21  39  61  87 124 162 207 254 296 352
#
# _framework density 22.374109000000001
#
# number of rings (size 3 to 8) (size 9 to 14) (size 15 to 20)
#    0.000    1.714    0.000    3.429    0.000   12.000 
#    0.000    0.000    0.000   12.000    0.000    0.000 
#    0.000    0.000    0.000    0.000    0.000    0.000 
#
# Total GULP energy -156549.674239 kJ/mol
# GULP energy per Si atom -5591.059794 kJ/mol
# Density = 2.232318 g / cm^3
# Si number density = 22.374109 Si / 1000 Ang^3
#
#
#
# Elastic Constant Matrix: (Units=GPa)
#
#
# Indices 1 2 3 4 5 6 
#
# 1 97.7404 30.6013 24.4050 0.0000 -1.8706 0.0000
# 2 30.6013 48.8496 0.5540 0.0000 11.1440 0.0000
# 3 24.4050 0.5540 91.6367 0.0000 -24.9902 0.0000
# 4 0.0000 0.0000 0.0000 21.0222 0.0000 -7.3341
# 5 -1.8706 11.1440 -24.9902 0.0000 50.5776 0.0000
# 6 0.0000 0.0000 0.0000 -7.3341 0.0000 16.4338
#
#
#
# Elastic Compliance Matrix: (Units=1/GPa)
#
#
# Indices 1 2 3 4 5 6 
#
# 1 0.013864 -0.008819 -0.003432 0.000000 0.000760 0.000000
# 2 -0.008819 0.027382 0.000519 0.000000 -0.006103 0.000000
# 3 -0.003432 0.000519 0.013589 0.000000 0.006473 0.000000
# 4 0.000000 0.000000 0.000000 0.056341 0.000000 0.025144
# 5 0.000760 -0.006103 0.006473 0.000000 0.024343 0.000000
# 6 0.000000 0.000000 0.000000 0.025144 0.000000 0.072071
#
#
# Mechanical properties :
#
#
# Convention : Reuss Voigt Hill
#
# Bulk Modulus (GPa) = 31.87703 38.81638 35.34671
# Shear Modulus (GPa) = 20.70304 29.78448 25.24376
#
# Velocity S-wave (km/s) = 3.04519 3.65252 3.36260
# Velocity P-wave (km/s) = 5.16164 5.93080 5.55953
#
# Compressibility (1/GPa) = 0.03137055
#
# Stress axis : x y z
#
# Youngs Moduli (GPa) = 72.13023 36.52003 73.59095
#
# Poissons Ratio (x) = 0.32208 0.25253
# Poissons Ratio (y) = 0.63615 -0.03819
# Poissons Ratio (z) = 0.24752 -0.01895
#
# Static dielectric constant tensor:
#      x y z
#    x 1.877420 0.000000 -0.023390 
#    y 0.000000 1.770140 0.000000 
#    z -0.023390 0.000000 1.901240 
# 
# From -- ./inp_files/4384.got.cif
#   From: 2010.05.17/outbox.cif.g08.bks.cpg/sg14_3_cif.got.tgz:4384.got - 2010.06.03 17:49:19.
