data_PCOD9245490
_publ_section_title
;
Structure prediction by ZEFSAII (Michael W. Deem and Ramdas Pophale) SiO2 
 PCOD9245490
Probable space group: P 21/C
;
_chemical_formula_sum "Si O2"
_cell_formula_units_Z 20
_cell_length_a 5.082536
_cell_length_b 11.748516
_cell_length_c 19.494183
_cell_angle_alpha 90.000000
_cell_angle_beta 133.315678
_cell_angle_gamma 90.000000
_cell_volume 846.939313
_symmetry_space_group_name_H-M "P 21/C"
_symmetry_group_IT_number 14
_symmetry_cell_setting 'monoclinic'
loop_
_space_group_symop_operation_xyz
x,y,z
-x,1/2+y,1/2-z
-x,-y,-z
x,1/2-y,1/2+z
loop_
_atom_site_type_symbol
_atom_site_label
_atom_site_fract_x
_atom_site_fract_y
_atom_site_fract_z
Si Si1 0.823605 0.811703 0.871956
Si Si2 0.171737 0.125867 0.527922
Si Si3 0.396300 0.960569 0.904804
Si Si4 0.848327 0.475197 0.206002
Si Si5 0.256265 0.865442 0.673661
O O1 0.979647 0.705790 0.940207
O O2 0.693834 0.906268 0.905992
O O3 0.472281 0.781841 0.762806
O O4 0.118929 0.860455 0.873780
O O5 0.593969 0.115379 0.622333
O O6 0.040117 0.178790 0.432704
O O7 0.000000 0.000000 0.500000
O O8 0.152816 0.051500 0.818023
O O9 0.500000 0.000000 0.000000
O O10 0.562909 0.563434 0.188384
O O11 0.060344 0.543268 0.186101
#
# Coordination Sequence:
#
# PCOD9245490 Si02
#       5
#     4   4   4   4   4
#     4  10  22  37  58  88 117 151 195 242 292 350
#     4  10  21  38  61  88 120 156 196 243 294 351
#     4  10  21  40  60  84 119 156 195 240 295 353
#     4   9  19  35  56  80 110 150 191 235 284 339
#     4   9  19  36  54  78 114 147 188 238 283 335
#
# _framework density 23.614439999999998
#
# number of rings (size 3 to 8) (size 9 to 14) (size 15 to 20)
#    0.000    2.400    0.000    1.200    0.000    8.000 
#    0.000   10.000    0.000    0.000    0.000    0.000 
#    0.000    0.000    0.000    0.000    0.000    0.000 
#
# Total GULP energy -111534.959384 kJ/mol
# GULP energy per Si atom -5576.747969 kJ/mol
# Density = 2.356069 g / cm^3
# Si number density = 23.614440 Si / 1000 Ang^3
#
#
#
# Elastic Constant Matrix: (Units=GPa)
#
#
# Indices 1 2 3 4 5 6 
#
# 1 125.9914 -10.8528 -18.0035 0.0000 -3.6701 0.0000
# 2 -10.8528 32.8517 33.6832 0.0000 -0.5072 0.0000
# 3 -18.0035 33.6832 186.4238 0.0000 -31.1266 0.0000
# 4 0.0000 0.0000 0.0000 31.2869 0.0000 -9.1175
# 5 -3.6701 -0.5072 -31.1266 0.0000 28.8008 0.0000
# 6 0.0000 0.0000 0.0000 -9.1175 0.0000 24.0258
#
#
#
# Elastic Compliance Matrix: (Units=1/GPa)
#
#
# Indices 1 2 3 4 5 6 
#
# 1 0.008272 0.001984 0.000759 0.000000 0.001910 0.000000
# 2 0.001984 0.039452 -0.008271 0.000000 -0.007991 0.000000
# 3 0.000759 -0.008271 0.008448 0.000000 0.009081 0.000000
# 4 0.000000 0.000000 0.000000 0.035936 0.000000 0.013637
# 5 0.001910 -0.007991 0.009081 0.000000 0.044639 0.000000
# 6 0.000000 0.000000 0.000000 0.013637 0.000000 0.046797
#
#
# Mechanical properties :
#
#
# Convention : Reuss Voigt Hill
#
# Bulk Modulus (GPa) = 22.16488 39.43563 30.80026
# Shear Modulus (GPa) = 23.85051 39.51871 31.68461
#
# Velocity S-wave (km/s) = 3.18149 4.09528 3.66696
# Velocity P-wave (km/s) = 4.78564 6.25282 5.56777
#
# Compressibility (1/GPa) = 0.04511642
#
# Stress axis : x y z
#
# Youngs Moduli (GPa) = 120.88904 25.34719 118.36906
#
# Poissons Ratio (x) = -0.05028 -0.08988
# Poissons Ratio (y) = -0.23981 0.97902
# Poissons Ratio (z) = -0.09179 0.20965
#
# Static dielectric constant tensor:
#      x y z
#    x 1.706730 0.000000 0.054370 
#    y 0.000000 1.986600 0.000000 
#    z 0.054370 0.000000 2.042510 
# 
# From -- ./inp_files/36841.got.cif
#   From: 2010.05.17/outbox.cif.g08.bks.cpg/sg14_19_cif.got.tgz:36841.got - 2010.06.03 17:49:19.
