data_PCOD9245322
_publ_section_title
;
Structure prediction by ZEFSAII (Michael W. Deem and Ramdas Pophale) SiO2 
 PCOD9245322
Probable space group: P 21/C
;
_chemical_formula_sum "Si O2"
_cell_formula_units_Z 28
_cell_length_a 5.745503
_cell_length_b 17.228443
_cell_length_c 13.600225
_cell_angle_alpha 90.000000
_cell_angle_beta 113.572115
_cell_angle_gamma 90.000000
_cell_volume 1233.899756
_symmetry_space_group_name_H-M "P 21/C"
_symmetry_group_IT_number 14
_symmetry_cell_setting 'monoclinic'
loop_
_space_group_symop_operation_xyz
x,y,z
-x,1/2+y,1/2-z
-x,-y,-z
x,1/2-y,1/2+z
loop_
_atom_site_type_symbol
_atom_site_label
_atom_site_fract_x
_atom_site_fract_y
_atom_site_fract_z
Si Si1 0.178577 0.256423 0.192484
Si Si2 0.290409 0.819519 0.493067
Si Si3 0.835881 0.889988 0.915590
Si Si4 0.578912 0.379321 0.200932
Si Si5 0.300237 0.316076 0.405376
Si Si6 0.326217 0.555564 0.594052
Si Si7 0.303085 0.516213 0.059155
O O1 0.195207 0.164406 0.183522
O O2 0.436615 0.303038 0.216360
O O3 0.108244 0.282086 0.291337
O O4 0.987256 0.285837 0.075682
O O5 0.341262 0.857084 0.394571
O O6 0.480541 0.749744 0.548844
O O7 0.314118 0.890453 0.573203
O O8 0.652705 0.963797 0.891717
O O9 0.789551 0.835119 0.001203
O O10 0.118066 0.924556 0.976239
O O11 0.768371 0.409580 0.317113
O O12 0.397200 0.454916 0.156417
O O13 0.422525 0.396576 0.387654
O O14 0.500000 0.500000 0.000000
O O15 0.000000 0.500000 0.000000
#
# Coordination Sequence:
#
# PCOD9245322 Si02
#       7
#     4   4   4   4   4   4   4
#     4  11  22  38  63  89 124 165 216 262 327 393
#     4  11  21  39  63  88 130 163 216 273 327 394
#     4  11  22  42  63  90 128 163 216 270 327 396
#     4  10  21  40  62  91 124 169 209 271 331 393
#     4  11  23  39  64  91 123 171 208 269 329 393
#     4  10  23  40  65  89 126 168 213 267 330 403
#     4  10  21  37  63  92 130 173 215 273 337 396
#
# _framework density 22.692281999999999
#
# number of rings (size 3 to 8) (size 9 to 14) (size 15 to 20)
#    0.000    1.429    4.286    1.286    2.000    0.000 
#    0.000    0.000    6.286    0.000    0.000    0.000 
#    0.000    0.000    0.000    0.000    0.000    0.000 
#
# Total GULP energy -156147.976641 kJ/mol
# GULP energy per Si atom -5576.713451 kJ/mol
# Density = 2.264063 g / cm^3
# Si number density = 22.692282 Si / 1000 Ang^3
#
#
#
# Elastic Constant Matrix: (Units=GPa)
#
#
# Indices 1 2 3 4 5 6 
#
# 1 46.4252 23.2627 4.9055 0.0000 -2.3572 0.0000
# 2 23.2627 153.7915 40.8162 0.0000 0.8073 0.0000
# 3 4.9055 40.8162 73.3452 0.0000 2.4914 0.0000
# 4 0.0000 0.0000 0.0000 29.8815 0.0000 3.3178
# 5 -2.3572 0.8073 2.4914 0.0000 30.9425 0.0000
# 6 0.0000 0.0000 0.0000 3.3178 0.0000 30.7525
#
#
#
# Elastic Compliance Matrix: (Units=1/GPa)
#
#
# Indices 1 2 3 4 5 6 
#
# 1 0.023425 -0.003661 0.000408 0.000000 0.001847 0.000000
# 2 -0.003661 0.008202 -0.004315 0.000000 -0.000146 0.000000
# 3 0.000408 -0.004315 0.016047 0.000000 -0.001148 0.000000
# 4 0.000000 0.000000 0.000000 0.033871 0.000000 -0.003654
# 5 0.001847 -0.000146 -0.001148 0.000000 0.032555 0.000000
# 6 0.000000 0.000000 0.000000 -0.003654 0.000000 0.032912
#
#
# Mechanical properties :
#
#
# Convention : Reuss Voigt Hill
#
# Bulk Modulus (GPa) = 30.73280 45.72561 38.22921
# Shear Modulus (GPa) = 28.90269 31.95378 30.42824
#
# Velocity S-wave (km/s) = 3.57274 3.75658 3.66581
# Velocity P-wave (km/s) = 5.53100 6.24579 5.89923
#
# Compressibility (1/GPa) = 0.03253853
#
# Stress axis : x y z
#
# Youngs Moduli (GPa) = 42.68884 121.92210 62.31739
#
# Poissons Ratio (x) = 0.44640 -0.02543
# Poissons Ratio (y) = 0.15630 0.26887
# Poissons Ratio (z) = -0.01742 0.52604
#
# Static dielectric constant tensor:
#      x y z
#    x 1.959140 0.000000 -0.046410 
#    y 0.000000 1.856450 0.000000 
#    z -0.046410 0.000000 1.900640 
# 
# From -- ./inp_files/37637.got.cif
#   From: 2010.05.17/outbox.cif.g08.bks.cpg/sg14_19_cif.got.tgz:37637.got - 2010.06.03 17:49:19.
