data_PCOD9245661
_publ_section_title
;
Structure prediction by ZEFSAII (Michael W. Deem and Ramdas Pophale) SiO2 
 PCOD9245661
Probable space group: P 21/C
;
_chemical_formula_sum "Si O2"
_cell_formula_units_Z 16
_cell_length_a 7.984349
_cell_length_b 4.997837
_cell_length_c 17.591113
_cell_angle_alpha 90.000000
_cell_angle_beta 77.418062
_cell_angle_gamma 90.000000
_cell_volume 685.106796
_symmetry_space_group_name_H-M "P 21/C"
_symmetry_group_IT_number 14
_symmetry_cell_setting 'monoclinic'
loop_
_space_group_symop_operation_xyz
x,y,z
-x,1/2+y,1/2-z
-x,-y,-z
x,1/2-y,1/2+z
loop_
_atom_site_type_symbol
_atom_site_label
_atom_site_fract_x
_atom_site_fract_y
_atom_site_fract_z
Si Si1 0.888315 0.368860 0.771661
Si Si2 0.163465 0.781864 0.056322
Si Si3 0.589483 0.850803 0.210769
Si Si4 0.768600 0.779156 0.543124
O O1 0.804857 0.295166 0.860283
O O2 0.029180 0.600897 0.770418
O O3 0.042846 0.241901 0.936886
O O4 0.244502 0.497246 0.271908
O O5 0.772955 0.925961 0.972586
O O6 0.245162 0.574717 0.988899
O O7 0.555140 0.572760 0.257878
O O8 0.626722 0.787402 0.119524
#
# Coordination Sequence:
#
# PCOD9245661 Si02
#       4
#     4   4   4   4
#     4  12  24  42  68 100 128 167 230 271 311 382
#     4  10  21  38  67  96 122 164 222 279 304 373
#     4  12  26  44  64  96 139 176 207 266 339 396
#     4  10  21  40  63  95 128 168 213 265 330 374
#
# _framework density 23.354023000000002
#
# number of rings (size 3 to 8) (size 9 to 14) (size 15 to 20)
#    0.000    1.000    2.500    4.500    7.000    0.000 
#    0.000    7.500    0.000    0.000    0.000    0.000 
#    0.000    0.000    0.000    0.000    0.000    0.000 
#
# Total GULP energy -89653.691017 kJ/mol
# GULP energy per Si atom -5603.355689 kJ/mol
# Density = 2.330087 g / cm^3
# Si number density = 23.354023 Si / 1000 Ang^3
#
#
#
# Elastic Constant Matrix: (Units=GPa)
#
#
# Indices 1 2 3 4 5 6 
#
# 1 41.2721 18.9464 17.2347 0.0000 -10.5117 0.0000
# 2 18.9464 104.8351 12.9192 0.0000 -16.0688 0.0000
# 3 17.2347 12.9192 104.7373 0.0000 -22.2820 0.0000
# 4 0.0000 0.0000 0.0000 58.1067 0.0000 -26.0719
# 5 -10.5117 -16.0688 -22.2820 0.0000 22.2043 0.0000
# 6 0.0000 0.0000 0.0000 -26.0719 0.0000 48.7433
#
#
#
# Elastic Compliance Matrix: (Units=1/GPa)
#
#
# Indices 1 2 3 4 5 6 
#
# 1 0.029148 -0.003632 -0.002507 0.000000 0.008654 0.000000
# 2 -0.003632 0.011196 0.000731 0.000000 0.007116 0.000000
# 3 -0.002507 0.000731 0.012371 0.000000 0.011756 0.000000
# 4 0.000000 0.000000 0.000000 0.022644 0.000000 0.012112
# 5 0.008654 0.007116 0.011756 0.000000 0.066080 0.000000
# 6 0.000000 0.000000 0.000000 0.012112 0.000000 0.026994
#
#
# Mechanical properties :
#
#
# Convention : Reuss Voigt Hill
#
# Bulk Modulus (GPa) = 23.86798 38.78280 31.32539
# Shear Modulus (GPa) = 25.87762 39.26048 32.56905
#
# Velocity S-wave (km/s) = 3.33236 4.10457 3.73846
# Velocity P-wave (km/s) = 5.00484 6.25347 5.66367
#
# Compressibility (1/GPa) = 0.04189713
#
# Stress axis : x y z
#
# Youngs Moduli (GPa) = 34.30764 89.31854 80.83305
#
# Poissons Ratio (x) = 0.32443 0.20266
# Poissons Ratio (y) = 0.12462 -0.05905
# Poissons Ratio (z) = 0.08602 -0.06525
#
# Static dielectric constant tensor:
#      x y z
#    x 1.982490 0.000000 0.004510 
#    y 0.000000 1.812560 0.000000 
#    z 0.004510 0.000000 1.800750 
# 
# From -- ./inp_files/38329.got.cif
#   From: 2010.05.17/outbox.cif.g08.bks.cpg/sg14_20_cif.got.tgz:38329.got - 2010.06.03 17:49:19.
