data_PCOD9245517
_publ_section_title
;
Structure prediction by ZEFSAII (Michael W. Deem and Ramdas Pophale) SiO2 
 PCOD9245517
Probable space group: P 21/C
;
_chemical_formula_sum "Si O2"
_cell_formula_units_Z 28
_cell_length_a 15.284460
_cell_length_b 12.221478
_cell_length_c 7.945360
_cell_angle_alpha 90.000000
_cell_angle_beta 120.272936
_cell_angle_gamma 90.000000
_cell_volume 1281.790434
_symmetry_space_group_name_H-M "P 21/C"
_symmetry_group_IT_number 14
_symmetry_cell_setting 'monoclinic'
loop_
_space_group_symop_operation_xyz
x,y,z
-x,1/2+y,1/2-z
-x,-y,-z
x,1/2-y,1/2+z
loop_
_atom_site_type_symbol
_atom_site_label
_atom_site_fract_x
_atom_site_fract_y
_atom_site_fract_z
Si Si1 0.676411 0.815198 0.521044
Si Si2 0.917124 0.415282 0.347264
Si Si3 0.080186 0.689871 0.297131
Si Si4 0.374765 0.092488 0.168129
Si Si5 0.569987 0.012888 0.232465
Si Si6 0.250409 0.554723 0.307162
Si Si7 0.860333 0.908117 0.546762
O O1 0.633178 0.693932 0.468582
O O2 0.669855 0.864500 0.700585
O O3 0.789409 0.813751 0.553150
O O4 0.613116 0.898678 0.342689
O O5 0.945900 0.317622 0.247612
O O6 0.888162 0.349404 0.486378
O O7 0.846382 0.494347 0.170303
O O8 0.000000 0.500000 0.500000
O O9 0.174419 0.651522 0.276050
O O10 0.976680 0.626582 0.148533
O O11 0.493646 0.063276 0.294456
O O12 0.310884 0.992519 0.027161
O O13 0.666441 0.079698 0.256375
O O14 0.500000 0.000000 0.000000
O O15 0.182488 0.455123 0.168126
#
# Coordination Sequence:
#
# PCOD9245517 Si02
#       7
#     4   4   4   4   4   4   4
#     4  11  22  38  62  90 120 160 200 251 313 369
#     4  10  23  40  60  88 124 166 211 254 306 370
#     4  11  22  39  61  87 124 166 202 251 307 363
#     4  11  22  40  62  89 120 158 206 255 308 370
#     4   9  20  40  60  87 121 153 201 255 305 366
#     4  10  21  38  62  89 120 159 202 249 306 367
#     4  10  22  39  60  90 124 158 206 255 304 373
#
# _framework density 21.844445
#
# number of rings (size 3 to 8) (size 9 to 14) (size 15 to 20)
#    0.000    1.714    0.000    5.143    0.000    8.000 
#    0.000   14.286    0.000    0.000    0.000    0.000 
#    0.000    0.000    0.000    0.000    0.000    0.000 
#
# Total GULP energy -156244.440282 kJ/mol
# GULP energy per Si atom -5580.158582 kJ/mol
# Density = 2.179473 g / cm^3
# Si number density = 21.844445 Si / 1000 Ang^3
#
#
#
# Elastic Constant Matrix: (Units=GPa)
#
#
# Indices 1 2 3 4 5 6 
#
# 1 87.9416 36.3647 25.6432 0.0000 19.9600 0.0000
# 2 36.3647 86.2841 13.8997 0.0000 3.9065 0.0000
# 3 25.6432 13.8997 71.6177 0.0000 2.6431 0.0000
# 4 0.0000 0.0000 0.0000 38.7783 0.0000 -1.3859
# 5 19.9600 3.9065 2.6431 0.0000 28.4783 0.0000
# 6 0.0000 0.0000 0.0000 -1.3859 0.0000 29.0503
#
#
#
# Elastic Compliance Matrix: (Units=1/GPa)
#
#
# Indices 1 2 3 4 5 6 
#
# 1 0.017911 -0.006269 -0.004781 0.000000 -0.011250 0.000000
# 2 -0.006269 0.014216 -0.000607 0.000000 0.002500 0.000000
# 3 -0.004781 -0.000607 0.015720 0.000000 0.001975 0.000000
# 4 0.000000 0.000000 0.000000 0.025832 0.000000 0.001232
# 5 -0.011250 0.002500 0.001975 0.000000 0.042473 0.000000
# 6 0.000000 0.000000 0.000000 0.001232 0.000000 0.034482
#
#
# Mechanical properties :
#
#
# Convention : Reuss Voigt Hill
#
# Bulk Modulus (GPa) = 40.76134 44.18429 42.47281
# Shear Modulus (GPa) = 27.45356 30.59043 29.02199
#
# Velocity S-wave (km/s) = 3.54895 3.74622 3.64892
# Velocity P-wave (km/s) = 5.95766 6.24363 6.10232
#
# Compressibility (1/GPa) = 0.02453305
#
# Stress axis : x y z
#
# Youngs Moduli (GPa) = 55.83133 70.34175 63.61386
#
# Poissons Ratio (x) = 0.44098 0.30416
# Poissons Ratio (y) = 0.35001 0.03859
# Poissons Ratio (z) = 0.26694 0.04268
#
# Static dielectric constant tensor:
#      x y z
#    x 1.845250 0.000000 -0.037490 
#    y 0.000000 1.795080 0.000000 
#    z -0.037490 0.000000 1.853310 
# 
# From -- ./inp_files/15885.got.cif
#   From: 2010.05.17/outbox.cif.g08.bks.cpg/sg14_8_cif.got.tgz:15885.got - 2010.06.03 17:49:19.
