data_PCOD9245473
_publ_section_title
;
Structure prediction by ZEFSAII (Michael W. Deem and Ramdas Pophale) SiO2 
 PCOD9245473
Probable space group: P 21/C
;
_chemical_formula_sum "Si O2"
_cell_formula_units_Z 28
_cell_length_a 8.618671
_cell_length_b 12.093674
_cell_length_c 16.784388
_cell_angle_alpha 90.000000
_cell_angle_beta 120.896726
_cell_angle_gamma 90.000000
_cell_volume 1501.201750
_symmetry_space_group_name_H-M "P 21/C"
_symmetry_group_IT_number 14
_symmetry_cell_setting 'monoclinic'
loop_
_space_group_symop_operation_xyz
x,y,z
-x,1/2+y,1/2-z
-x,-y,-z
x,1/2-y,1/2+z
loop_
_atom_site_type_symbol
_atom_site_label
_atom_site_fract_x
_atom_site_fract_y
_atom_site_fract_z
Si Si1 0.575292 0.120852 0.500000
Si Si2 0.660870 0.674185 0.500000
Si Si3 0.271512 0.120676 0.803493
Si Si4 0.620302 0.256614 0.849781
Si Si5 0.981354 0.366025 0.500000
Si Si6 0.335474 0.879324 0.803493
Si Si7 0.920739 0.256615 0.150218
O O1 0.435545 0.211025 0.500000
O O2 0.598325 0.150043 0.412670
O O3 0.772985 0.150043 0.587329
O O4 0.500000 0.000000 0.500000
O O5 0.703336 0.612946 0.594256
O O6 0.845736 0.684072 0.500000
O O7 0.514824 0.612947 0.405744
O O8 0.446296 0.180648 0.814880
O O9 0.095530 0.189775 0.735283
O O10 0.264704 1.000000 0.764705
O O11 0.624962 0.310224 0.764716
O O12 0.797545 0.181746 0.912555
O O13 0.000000 0.500000 0.500000
O O14 0.972435 0.318255 0.587445
O O15 0.183465 0.819351 0.814880
#
# Coordination Sequence:
#
# PCOD9245473 Si02
#       7
#     4   4   4   4   4   4   4
#     4   9  21  41  60  82 118 155 191 243 296 344
#     4  10  21  38  61  84 114 156 199 234 287 354
#     4  11  22  39  59  85 119 154 191 243 291 340
#     4  10  23  37  57  90 116 148 202 238 284 358
#     4  11  21  39  62  86 116 153 191 241 294 346
#     4  11  22  39  59  85 119 154 191 243 291 340
#     4  10  23  37  57  90 116 148 202 238 284 358
#
# _framework density 18.651724000000002
#
# number of rings (size 3 to 8) (size 9 to 14) (size 15 to 20)
#    0.000    1.714    0.000    4.714    0.000    6.857 
#    0.000    5.714    0.000    0.000    0.000    0.000 
#    0.000    0.000    0.000    0.000    0.000    0.000 
#
# Total GULP energy -156380.303986 kJ/mol
# GULP energy per Si atom -5585.010857 kJ/mol
# Density = 1.860927 g / cm^3
# Si number density = 18.651724 Si / 1000 Ang^3
#
#
#
# Elastic Constant Matrix: (Units=GPa)
#
#
# Indices 1 2 3 4 5 6 
#
# 1 169.8207 40.4714 67.2510 0.0000 -3.2755 0.0000
# 2 40.4714 74.5733 37.9291 0.0000 -0.3441 0.0000
# 3 67.2510 37.9291 111.8923 0.0000 -4.5572 0.0000
# 4 0.0000 0.0000 0.0000 3.4327 0.0000 -2.6484
# 5 -3.2755 -0.3441 -4.5572 0.0000 38.9989 0.0000
# 6 0.0000 0.0000 0.0000 -2.6484 0.0000 23.0217
#
#
#
# Elastic Compliance Matrix: (Units=1/GPa)
#
#
# Indices 1 2 3 4 5 6 
#
# 1 0.008044 -0.002307 -0.004045 0.000000 0.000183 0.000000
# 2 -0.002307 0.016875 -0.004356 0.000000 -0.000554 0.000000
# 3 -0.004045 -0.004356 0.012891 0.000000 0.001128 0.000000
# 4 0.000000 0.000000 0.000000 0.319688 0.000000 0.036776
# 5 0.000183 -0.000554 0.001128 0.000000 0.025784 0.000000
# 6 0.000000 0.000000 0.000000 0.036776 0.000000 0.047668
#
#
# Mechanical properties :
#
#
# Convention : Reuss Voigt Hill
#
# Bulk Modulus (GPa) = 61.00204 71.95435 66.47820
# Shear Modulus (GPa) = 10.92108 27.13299 19.02704
#
# Velocity S-wave (km/s) = 2.42239 3.81821 3.19740
# Velocity P-wave (km/s) = 6.37188 7.62233 7.02498
#
# Compressibility (1/GPa) = 0.01639289
#
# Stress axis : x y z
#
# Youngs Moduli (GPa) = 124.31882 59.26011 77.57382
#
# Poissons Ratio (x) = 0.13673 0.31379
# Poissons Ratio (y) = 0.28683 0.33791
# Poissons Ratio (z) = 0.50288 0.25814
#
# Static dielectric constant tensor:
#      x y z
#    x 1.623590 0.000000 0.004340 
#    y 0.000000 1.621000 0.000000 
#    z 0.004340 0.000000 1.655650 
# 
# From -- ./inp_files/40097.got.cif
#   From: 2010.05.17/outbox.cif.g08.bks.cpg/sg14_21_cif.got.tgz:40097.got - 2010.06.03 17:49:19.
