data_PCOD9245903
_publ_section_title
;
Structure prediction by ZEFSAII (Michael W. Deem and Ramdas Pophale) SiO2 
 PCOD9245903
Probable space group: P 21/C
;
_chemical_formula_sum "Si O2"
_cell_formula_units_Z 28
_cell_length_a 8.965748
_cell_length_b 28.932587
_cell_length_c 5.086690
_cell_angle_alpha 90.000000
_cell_angle_beta 123.145229
_cell_angle_gamma 90.000000
_cell_volume 1104.799845
_symmetry_space_group_name_H-M "P 21/C"
_symmetry_group_IT_number 14
_symmetry_cell_setting 'monoclinic'
loop_
_space_group_symop_operation_xyz
x,y,z
-x,1/2+y,1/2-z
-x,-y,-z
x,1/2-y,1/2+z
loop_
_atom_site_type_symbol
_atom_site_label
_atom_site_fract_x
_atom_site_fract_y
_atom_site_fract_z
Si Si1 0.977276 0.457143 0.786591
Si Si2 0.692879 0.220053 0.275845
Si Si3 0.816343 0.631886 0.440066
Si Si4 0.811338 0.384021 0.021069
Si Si5 0.377008 0.544118 0.822891
Si Si6 0.326742 0.090480 0.675250
Si Si7 0.262628 0.275698 0.345648
O O1 0.897724 0.413425 0.869612
O O2 0.823886 0.470707 0.436672
O O3 0.177042 0.443168 0.906710
O O4 0.000000 0.500000 0.000000
O O5 0.749774 0.254850 0.562905
O O6 0.754357 0.167355 0.380546
O O7 0.476879 0.218686 0.065574
O O8 0.705371 0.632614 0.061711
O O9 0.818249 0.679659 0.598967
O O10 0.723852 0.599220 0.572407
O O11 0.024660 0.619585 0.612558
O O12 0.656272 0.415019 0.999153
O O13 0.500000 0.500000 0.000000
O O14 0.481153 0.569074 0.684784
O O15 0.212070 0.234969 0.499487
#
# Coordination Sequence:
#
# PCOD9245903 Si02
#       7
#     4   4   4   4   4   4   4
#     4  11  27  49  73 107 158 197 259 320 384 460
#     4  10  24  42  71 107 146 190 250 316 371 450
#     4  11  24  45  69 103 144 193 243 310 366 458
#     4  11  26  45  74 108 153 201 254 313 385 452
#     4  12  28  45  78 108 149 205 261 314 390 459
#     4  11  26  45  72 102 146 192 248 304 374 447
#     4  10  21  39  64  99 140 184 239 306 375 439
#
# _framework density 25.343959999999999
#
# number of rings (size 3 to 8) (size 9 to 14) (size 15 to 20)
#    0.000    1.143    1.429    2.571   10.000    4.571 
#    0.000    0.000    0.000    0.000    0.000    0.000 
#    0.000    0.000    0.000    0.000    0.000    0.000 
#
# Total GULP energy -156715.611136 kJ/mol
# GULP energy per Si atom -5596.986112 kJ/mol
# Density = 2.528628 g / cm^3
# Si number density = 25.343960 Si / 1000 Ang^3
#
#
#
# Elastic Constant Matrix: (Units=GPa)
#
#
# Indices 1 2 3 4 5 6 
#
# 1 102.5995 26.1502 22.4416 0.0000 7.0605 0.0000
# 2 26.1502 122.3743 13.0082 0.0000 -3.3369 0.0000
# 3 22.4416 13.0082 78.5031 0.0000 7.0721 0.0000
# 4 0.0000 0.0000 0.0000 30.5286 0.0000 -0.3753
# 5 7.0605 -3.3369 7.0721 0.0000 38.5048 0.0000
# 6 0.0000 0.0000 0.0000 -0.3753 0.0000 47.7911
#
#
#
# Elastic Compliance Matrix: (Units=1/GPa)
#
#
# Indices 1 2 3 4 5 6 
#
# 1 0.010979 -0.002113 -0.002634 0.000000 -0.001713 0.000000
# 2 -0.002113 0.008762 -0.000967 0.000000 0.001324 0.000000
# 3 -0.002634 -0.000967 0.013845 0.000000 -0.002144 0.000000
# 4 0.000000 0.000000 0.000000 0.032759 0.000000 0.000257
# 5 -0.001713 0.001324 -0.002144 0.000000 0.026793 0.000000
# 6 0.000000 0.000000 0.000000 0.000257 0.000000 0.020926
#
#
# Mechanical properties :
#
#
# Convention : Reuss Voigt Hill
#
# Bulk Modulus (GPa) = 45.13149 47.40853 46.27001
# Shear Modulus (GPa) = 37.62808 39.49001 38.55904
#
# Velocity S-wave (km/s) = 3.85736 3.95164 3.90478
# Velocity P-wave (km/s) = 6.13882 6.29025 6.21500
#
# Compressibility (1/GPa) = 0.02215748
#
# Stress axis : x y z
#
# Youngs Moduli (GPa) = 91.08143 114.12828 72.22938
#
# Poissons Ratio (x) = 0.24113 0.19027
# Poissons Ratio (y) = 0.19244 0.06986
# Poissons Ratio (z) = 0.23993 0.11039
#
# Static dielectric constant tensor:
#      x y z
#    x 1.959480 0.000000 0.016380 
#    y 0.000000 1.991840 0.000000 
#    z 0.016380 0.000000 2.023140 
# 
# From -- ./inp_files/2269.got.cif
#   From: 2010.05.17/outbox.cif.g08.bks.cpg/sg14_2_cif.got.tgz:2269.got - 2010.06.03 17:49:19.
