data_PCOD9245792
_publ_section_title
;
Structure prediction by ZEFSAII (Michael W. Deem and Ramdas Pophale) SiO2 
 PCOD9245792
Probable space group: P 21/C
;
_chemical_formula_sum "Si O2"
_cell_formula_units_Z 28
_cell_length_a 8.745667
_cell_length_b 6.080290
_cell_length_c 30.300605
_cell_angle_alpha 90.000000
_cell_angle_beta 51.474358
_cell_angle_gamma 90.000000
_cell_volume 1260.544629
_symmetry_space_group_name_H-M "P 21/C"
_symmetry_group_IT_number 14
_symmetry_cell_setting 'monoclinic'
loop_
_space_group_symop_operation_xyz
x,y,z
-x,1/2+y,1/2-z
-x,-y,-z
x,1/2-y,1/2+z
loop_
_atom_site_type_symbol
_atom_site_label
_atom_site_fract_x
_atom_site_fract_y
_atom_site_fract_z
Si Si1 0.105259 0.869459 0.375158
Si Si2 0.552628 0.772618 0.678656
Si Si3 0.242646 0.502223 0.286010
Si Si4 0.715492 0.513431 0.484334
Si Si5 0.459090 0.190950 0.414454
Si Si6 0.118070 0.749965 0.622208
Si Si7 0.828337 0.323654 0.041029
O O1 0.272734 0.053614 0.349000
O O2 0.112317 0.743009 0.420674
O O3 0.920384 0.023422 0.397580
O O4 0.154264 0.713841 0.326012
O O5 0.594505 0.597688 0.709689
O O6 0.354155 0.907999 0.723207
O O7 0.564723 0.677321 0.627188
O O8 0.068100 0.323615 0.314893
O O9 0.500000 0.500000 0.500000
O O10 0.677173 0.727614 0.521029
O O11 0.848868 0.448754 0.418653
O O12 0.794406 0.346659 0.507923
O O13 0.682757 0.213336 0.387581
O O14 0.379588 0.948957 0.418700
O O15 0.000000 0.500000 0.000000
#
# Coordination Sequence:
#
# PCOD9245792 Si02
#       7
#     4   4   4   4   4   4   4
#     4  10  21  39  62  90 122 156 211 257 304 379
#     4  10  21  41  62  89 115 159 210 260 308 369
#     4  11  21  39  65  83 119 160 205 257 315 362
#     4  10  22  40  62  92 131 167 201 256 322 381
#     4  10  24  42  61  91 132 158 213 259 314 387
#     4  10  23  39  58  92 125 165 203 251 321 383
#     4  11  22  38  64  94 121 168 211 255 312 377
#
# _framework density 22.212619
#
# number of rings (size 3 to 8) (size 9 to 14) (size 15 to 20)
#    0.000    1.714    2.857    0.857    2.000    5.143 
#    2.571    0.000    0.000    0.000    0.000    0.000 
#    0.000    0.000    0.000    0.000    0.000    0.000 
#
# Total GULP energy -156088.162009 kJ/mol
# GULP energy per Si atom -5574.577215 kJ/mol
# Density = 2.216206 g / cm^3
# Si number density = 22.212619 Si / 1000 Ang^3
#
#
#
# Elastic Constant Matrix: (Units=GPa)
#
#
# Indices 1 2 3 4 5 6 
#
# 1 104.6127 35.5604 13.7841 0.0000 -9.9255 0.0000
# 2 35.5604 29.7757 -4.4242 0.0000 -0.0915 0.0000
# 3 13.7841 -4.4242 57.0807 0.0000 -5.1344 0.0000
# 4 0.0000 0.0000 0.0000 35.1365 0.0000 2.3712
# 5 -9.9255 -0.0915 -5.1344 0.0000 24.3243 0.0000
# 6 0.0000 0.0000 0.0000 2.3712 0.0000 28.7963
#
#
#
# Elastic Compliance Matrix: (Units=1/GPa)
#
#
# Indices 1 2 3 4 5 6 
#
# 1 0.018880 -0.023390 -0.005797 0.000000 0.006392 0.000000
# 2 -0.023390 0.062964 0.009879 0.000000 -0.007222 0.000000
# 3 -0.005797 0.009879 0.019852 0.000000 0.001862 0.000000
# 4 0.000000 0.000000 0.000000 0.028620 0.000000 -0.002357
# 5 0.006392 -0.007222 0.001862 0.000000 0.044085 0.000000
# 6 0.000000 0.000000 0.000000 -0.002357 0.000000 0.034921
#
#
# Mechanical properties :
#
#
# Convention : Reuss Voigt Hill
#
# Bulk Modulus (GPa) = 15.85292 31.25664 23.55478
# Shear Modulus (GPa) = 18.58978 27.42132 23.00555
#
# Velocity S-wave (km/s) = 2.89606 3.51735 3.22172
# Velocity P-wave (km/s) = 4.28197 5.53152 4.94637
#
# Compressibility (1/GPa) = 0.06307987
#
# Stress axis : x y z
#
# Youngs Moduli (GPa) = 52.96553 15.88212 50.37235
#
# Poissons Ratio (x) = 0.37148 0.29202
# Poissons Ratio (y) = 1.23886 -0.49762
# Poissons Ratio (z) = 0.30705 -0.15690
#
# Static dielectric constant tensor:
#      x y z
#    x 1.837230 0.000000 0.007070 
#    y 0.000000 1.909850 0.000000 
#    z 0.007070 0.000000 1.879870 
# 
# From -- ./inp_files/79066.got.cif
#   From: 2010.05.17/outbox.cif.g08.bks.cpg/sg14_40_cif.got.tgz:79066.got - 2010.06.03 17:49:19.
