data_PCOD9245922
_publ_section_title
;
Structure prediction by ZEFSAII (Michael W. Deem and Ramdas Pophale) SiO2 
 PCOD9245922
Probable space group: P 21/C
;
_chemical_formula_sum "Si O2"
_cell_formula_units_Z 28
_cell_length_a 13.743100
_cell_length_b 7.675284
_cell_length_c 19.181696
_cell_angle_alpha 90.000000
_cell_angle_beta 142.967482
_cell_angle_gamma 90.000000
_cell_volume 1218.585733
_symmetry_space_group_name_H-M "P 21/C"
_symmetry_group_IT_number 14
_symmetry_cell_setting 'monoclinic'
loop_
_space_group_symop_operation_xyz
x,y,z
-x,1/2+y,1/2-z
-x,-y,-z
x,1/2-y,1/2+z
loop_
_atom_site_type_symbol
_atom_site_label
_atom_site_fract_x
_atom_site_fract_y
_atom_site_fract_z
Si Si1 0.767866 0.438303 0.629254
Si Si2 0.229958 0.340044 0.660121
Si Si3 0.553302 0.840356 0.116368
Si Si4 0.911209 0.291603 0.425879
Si Si5 0.643892 0.897800 0.395740
Si Si6 0.929460 0.758064 0.130456
Si Si7 0.598821 0.377067 0.750691
O O1 0.623304 0.314827 0.517299
O O2 0.670977 0.551984 0.631884
O O3 0.841184 0.581503 0.617995
O O4 0.919634 0.326915 0.743143
O O5 0.339622 0.315125 0.790667
O O6 0.195002 0.538285 0.618560
O O7 0.300866 0.228459 0.636824
O O8 0.046560 0.266173 0.561998
O O9 0.521053 0.967516 0.163395
O O10 0.789572 0.133761 0.346708
O O11 0.998590 0.320485 0.402354
O O12 0.790300 0.885751 0.533192
O O13 0.486002 0.793695 0.328373
O O14 0.596351 0.077996 0.331689
#
# Coordination Sequence:
#
# PCOD9245922 Si02
#       7
#     4   4   4   4   4   4   4
#     4  11  24  44  62  92 125 178 214 260 310 374
#     4   9  21  39  61  95 121 163 203 260 319 370
#     4  10  22  42  66  86 130 170 210 258 316 380
#     4  10  21  39  65  92 127 158 206 267 317 385
#     4  10  22  38  64  94 127 160 208 264 316 383
#     4  11  24  42  62  91 125 169 219 261 310 378
#     4  11  20  40  64  92 126 161 203 263 328 370
#
# _framework density 22.977456
#
# number of rings (size 3 to 8) (size 9 to 14) (size 15 to 20)
#    0.000    1.714    2.857    0.857    4.000    1.714 
#    7.714    0.714    0.000    0.000    0.000    0.000 
#    0.000    0.000    0.000    0.000    0.000    0.000 
#
# Total GULP energy -156170.824084 kJ/mol
# GULP energy per Si atom -5577.529432 kJ/mol
# Density = 2.292516 g / cm^3
# Si number density = 22.977456 Si / 1000 Ang^3
#
#
#
# Elastic Constant Matrix: (Units=GPa)
#
#
# Indices 1 2 3 4 5 6 
#
# 1 40.3913 12.1029 22.2143 0.0000 1.7219 0.0000
# 2 12.1029 41.3931 52.8773 0.0000 7.5826 0.0000
# 3 22.2143 52.8773 200.4415 0.0000 18.8427 0.0000
# 4 0.0000 0.0000 0.0000 39.1174 0.0000 5.8347
# 5 1.7219 7.5826 18.8427 0.0000 25.4521 0.0000
# 6 0.0000 0.0000 0.0000 5.8347 0.0000 26.0030
#
#
#
# Elastic Compliance Matrix: (Units=1/GPa)
#
#
# Indices 1 2 3 4 5 6 
#
# 1 0.027420 -0.006344 -0.001471 0.000000 0.001124 0.000000
# 2 -0.006344 0.038292 -0.008992 0.000000 -0.004321 0.000000
# 3 -0.001471 -0.008992 0.007806 0.000000 -0.003001 0.000000
# 4 0.000000 0.000000 0.000000 0.026449 0.000000 -0.005935
# 5 0.001124 -0.004321 -0.003001 0.000000 0.042722 0.000000
# 6 0.000000 0.000000 0.000000 -0.005935 0.000000 0.039789
#
#
# Mechanical properties :
#
#
# Convention : Reuss Voigt Hill
#
# Bulk Modulus (GPa) = 25.06032 50.73499 37.89765
# Shear Modulus (GPa) = 21.79644 31.11658 26.45651
#
# Velocity S-wave (km/s) = 3.08328 3.68397 3.39693
# Velocity P-wave (km/s) = 4.85856 6.34222 5.64931
#
# Compressibility (1/GPa) = 0.03990373
#
# Stress axis : x y z
#
# Youngs Moduli (GPa) = 36.46993 26.11482 128.10165
#
# Poissons Ratio (x) = 0.16568 0.18842
# Poissons Ratio (y) = 0.23137 1.15193
# Poissons Ratio (z) = 0.05364 0.23483
#
# Static dielectric constant tensor:
#      x y z
#    x 1.920680 0.000000 0.026730 
#    y 0.000000 1.952030 0.000000 
#    z 0.026730 0.000000 1.920630 
# 
# From -- ./inp_files/68372.got.cif
#   From: 2010.05.17/outbox.cif.g08.bks.cpg/sg14_35_cif.got.tgz:68372.got - 2010.06.03 17:49:19.
