data_PCOD9245857
_publ_section_title
;
Structure prediction by ZEFSAII (Michael W. Deem and Ramdas Pophale) SiO2 
 PCOD9245857
Probable space group: P 21/C
;
_chemical_formula_sum "Si O2"
_cell_formula_units_Z 20
_cell_length_a 5.225300
_cell_length_b 21.601569
_cell_length_c 9.553246
_cell_angle_alpha 90.000000
_cell_angle_beta 119.617886
_cell_angle_gamma 90.000000
_cell_volume 937.427084
_symmetry_space_group_name_H-M "P 21/C"
_symmetry_group_IT_number 14
_symmetry_cell_setting 'monoclinic'
loop_
_space_group_symop_operation_xyz
x,y,z
-x,1/2+y,1/2-z
-x,-y,-z
x,1/2-y,1/2+z
loop_
_atom_site_type_symbol
_atom_site_label
_atom_site_fract_x
_atom_site_fract_y
_atom_site_fract_z
Si Si1 0.817070 0.050916 0.862501
Si Si2 0.217635 0.621323 0.375396
Si Si3 0.855001 0.993591 0.309291
Si Si4 0.305207 0.288903 0.463927
Si Si5 0.051237 0.748923 0.370134
O O1 0.477715 0.030119 0.764256
O O2 0.819421 0.109136 0.968205
O O3 0.961197 0.049806 0.748169
O O4 0.000000 0.000000 0.000000
O O5 0.157536 0.560865 0.269687
O O6 0.549983 0.646505 0.447021
O O7 0.022002 0.681069 0.287605
O O8 0.000000 0.000000 0.500000
O O9 0.090833 0.296488 0.274961
O O10 0.132940 0.255004 0.539577
O O11 0.600228 0.249308 0.506057
#
# Coordination Sequence:
#
# PCOD9245857 Si02
#       5
#     4   4   4   4   4
#     4  10  21  39  64  85 121 160 198 236 298 365
#     4   9  23  37  67  83 125 161 200 235 316 352
#     4  11  23  40  60  94 124 152 205 256 288 355
#     4  10  22  40  62  86 122 158 201 251 297 357
#     4  10  22  40  62  84 123 153 206 246 297 356
#
# _framework density 21.334993000000001
#
# number of rings (size 3 to 8) (size 9 to 14) (size 15 to 20)
#    1.200    0.800    0.000    4.200    8.400    0.000 
#    3.600    0.000    0.000    0.000    0.000    0.000 
#    0.000    0.000    0.000    0.000    0.000    0.000 
#
# Total GULP energy -111514.780507 kJ/mol
# GULP energy per Si atom -5575.739025 kJ/mol
# Density = 2.128643 g / cm^3
# Si number density = 21.334993 Si / 1000 Ang^3
#
#
#
# Elastic Constant Matrix: (Units=GPa)
#
#
# Indices 1 2 3 4 5 6 
#
# 1 162.7000 13.1099 46.9557 0.0000 -7.6998 0.0000
# 2 13.1099 47.8867 27.6406 0.0000 -2.7751 0.0000
# 3 46.9557 27.6406 119.8178 0.0000 -8.7919 0.0000
# 4 0.0000 0.0000 0.0000 26.5932 0.0000 7.5675
# 5 -7.6998 -2.7751 -8.7919 0.0000 30.1051 0.0000
# 6 0.0000 0.0000 0.0000 7.5675 0.0000 -4.3594
#
#
#
# Elastic Compliance Matrix: (Units=1/GPa)
#
#
# Indices 1 2 3 4 5 6 
#
# 1 0.006965 -0.000364 -0.002572 0.000000 0.000997 0.000000
# 2 -0.000364 0.024120 -0.005381 0.000000 0.000559 0.000000
# 3 -0.002572 -0.005381 0.010741 0.000000 0.001983 0.000000
# 4 0.000000 0.000000 0.000000 0.025170 0.000000 0.043693
# 5 0.000997 0.000559 0.001983 0.000000 0.034102 0.000000
# 6 0.000000 0.000000 0.000000 0.043693 0.000000 -0.153542
#
#
# Mechanical properties :
#
#
# Convention : Reuss Voigt Hill
#
# Bulk Modulus (GPa) = 39.69514 56.20187 47.94851
# Shear Modulus (GPa) = -182.40616 26.64765 -77.87925
#
# Velocity S-wave (km/s) = -9.25645 3.53797 -6.04833
# Velocity P-wave (km/s) = 9.77734 6.56425 5.12382
#
# Compressibility (1/GPa) = 0.02519200
#
# Stress axis : x y z
#
# Youngs Moduli (GPa) = 143.57048 41.45859 93.10243
#
# Poissons Ratio (x) = 0.01510 0.23950
# Poissons Ratio (y) = 0.05230 0.50094
# Poissons Ratio (z) = 0.36933 0.22307
#
# Static dielectric constant tensor:
#      x y z
#    x 1.793850 0.000000 -0.012630 
#    y 0.000000 1.866680 0.000000 
#    z -0.012630 0.000000 1.767870 
# 
# From -- ./inp_files/5842.got.cif
#   From: 2010.05.17/outbox.cif.g08.bks.cpg/sg14_3_cif.got.tgz:5842.got - 2010.06.03 17:49:19.
