data_PCOD9245845
_publ_section_title
;
Structure prediction by ZEFSAII (Michael W. Deem and Ramdas Pophale) SiO2 
 PCOD9245845
Probable space group: P 21/C
;
_chemical_formula_sum "Si O2"
_cell_formula_units_Z 24
_cell_length_a 12.518941
_cell_length_b 9.232500
_cell_length_c 9.227780
_cell_angle_alpha 90.000000
_cell_angle_beta 76.450197
_cell_angle_gamma 90.000000
_cell_volume 1036.871299
_symmetry_space_group_name_H-M "P 21/C"
_symmetry_group_IT_number 14
_symmetry_cell_setting 'monoclinic'
loop_
_space_group_symop_operation_xyz
x,y,z
-x,1/2+y,1/2-z
-x,-y,-z
x,1/2-y,1/2+z
loop_
_atom_site_type_symbol
_atom_site_label
_atom_site_fract_x
_atom_site_fract_y
_atom_site_fract_z
Si Si1 0.439088 0.167158 0.605210
Si Si2 0.643949 0.331326 0.390700
Si Si3 0.398095 0.074191 0.328392
Si Si4 0.924178 0.894023 0.120926
Si Si5 0.995579 0.347186 0.081548
Si Si6 0.778196 0.146562 0.138161
O O1 0.529561 0.271002 0.492750
O O2 0.357270 0.113987 0.503882
O O3 0.403135 0.273198 0.744344
O O4 0.496446 0.026160 0.658811
O O5 0.649277 0.466856 0.279085
O O6 0.691859 0.203578 0.279604
O O7 0.723113 0.360994 0.499714
O O8 0.979231 0.861708 0.257089
O O9 0.817185 0.989127 0.174318
O O10 0.914883 0.750812 0.029431
O O11 0.000000 0.000000 0.000000
O O12 0.879714 0.261647 0.101629
O O13 0.000000 0.500000 0.000000
#
# Coordination Sequence:
#
# PCOD9245845 Si02
#       6
#     4   4   4   4   4   4
#     4  11  23  42  70  95 127 178 230 266 330 407
#     4  12  22  41  65  99 130 170 214 283 340 381
#     4  11  23  42  68  95 129 175 227 267 328 407
#     4  10  21  39  63  94 123 173 217 256 315 405
#     4  11  21  40  68  91 127 171 219 263 318 399
#     4  11  23  40  65  94 130 167 216 269 335 387
#
# _framework density 23.146557000000001
#
# number of rings (size 3 to 8) (size 9 to 14) (size 15 to 20)
#    0.000    1.000    3.333    5.500    0.000    0.000 
#    0.000    3.333    0.000    0.000    0.000    0.000 
#    0.000    0.000    0.000    0.000    0.000    0.000 
#
# Total GULP energy -134046.913947 kJ/mol
# GULP energy per Si atom -5585.288081 kJ/mol
# Density = 2.309387 g / cm^3
# Si number density = 23.146557 Si / 1000 Ang^3
#
#
#
# Elastic Constant Matrix: (Units=GPa)
#
#
# Indices 1 2 3 4 5 6 
#
# 1 43.9928 -4.0505 18.9317 0.0000 15.4373 0.0000
# 2 -4.0505 165.4432 108.8027 0.0000 44.1499 0.0000
# 3 18.9317 108.8027 295.0354 0.0000 105.0416 0.0000
# 4 0.0000 0.0000 0.0000 59.4901 0.0000 10.6025
# 5 15.4373 44.1499 105.0416 0.0000 72.9865 0.0000
# 6 0.0000 0.0000 0.0000 10.6025 0.0000 27.6643
#
#
#
# Elastic Compliance Matrix: (Units=1/GPa)
#
#
# Indices 1 2 3 4 5 6 
#
# 1 0.025364 0.002517 -0.000213 0.000000 -0.006581 0.000000
# 2 0.002517 0.008282 -0.002548 0.000000 -0.001875 0.000000
# 3 -0.000213 -0.002548 0.007748 0.000000 -0.009565 0.000000
# 4 0.000000 0.000000 0.000000 0.018042 0.000000 -0.006915
# 5 -0.006581 -0.001875 -0.009565 0.000000 0.029992 0.000000
# 6 0.000000 0.000000 0.000000 -0.006915 0.000000 0.038798
#
#
# Mechanical properties :
#
#
# Convention : Reuss Voigt Hill
#
# Bulk Modulus (GPa) = 24.44627 83.53770 53.99199
# Shear Modulus (GPa) = 35.12488 57.41399 46.26944
#
# Velocity S-wave (km/s) = 3.89974 4.98582 4.47584
# Velocity P-wave (km/s) = 5.55533 8.32548 7.07726
#
# Compressibility (1/GPa) = 0.04090603
#
# Stress axis : x y z
#
# Youngs Moduli (GPa) = 39.42658 120.74108 129.06391
#
# Poissons Ratio (x) = -0.30391 0.02745
# Poissons Ratio (y) = -0.09924 0.32890
# Poissons Ratio (z) = 0.00838 0.30769
#
# Static dielectric constant tensor:
#      x y z
#    x 1.962340 0.000000 -0.019020 
#    y 0.000000 1.842600 0.000000 
#    z -0.019020 0.000000 1.918730 
# 
# From -- ./inp_files/15118.got.cif
#   From: 2010.05.17/outbox.cif.g08.bks.cpg/sg14_8_cif.got.tgz:15118.got - 2010.06.03 17:49:19.
