data_PCOD9245367
_publ_section_title
;
Structure prediction by ZEFSAII (Michael W. Deem and Ramdas Pophale) SiO2 
 PCOD9245367
Probable space group: P 21/C
;
_chemical_formula_sum "Si O2"
_cell_formula_units_Z 28
_cell_length_a 5.632427
_cell_length_b 16.239422
_cell_length_c 14.853609
_cell_angle_alpha 90.000000
_cell_angle_beta 111.446608
_cell_angle_gamma 90.000000
_cell_volume 1264.547736
_symmetry_space_group_name_H-M "P 21/C"
_symmetry_group_IT_number 14
_symmetry_cell_setting 'monoclinic'
loop_
_space_group_symop_operation_xyz
x,y,z
-x,1/2+y,1/2-z
-x,-y,-z
x,1/2-y,1/2+z
loop_
_atom_site_type_symbol
_atom_site_label
_atom_site_fract_x
_atom_site_fract_y
_atom_site_fract_z
Si Si1 0.310381 0.673952 0.524110
Si Si2 0.893692 0.017712 0.083512
Si Si3 0.360918 0.552080 0.058894
Si Si4 0.709016 0.775045 0.936749
Si Si5 0.342462 0.083158 0.813041
Si Si6 0.394225 0.084411 0.223232
Si Si7 0.897263 0.608512 0.896835
O O1 0.299306 0.590518 0.462543
O O2 0.522804 0.723770 0.497378
O O3 0.430438 0.646964 0.636520
O O4 0.013661 0.702115 0.490771
O O5 0.104465 0.052627 0.180165
O O6 0.787434 0.935203 0.110222
O O7 0.000000 0.000000 0.000000
O O8 0.519365 0.595231 0.161139
O O9 0.203899 0.481229 0.089424
O O10 0.500000 0.500000 0.000000
O O11 0.171330 0.613545 0.981349
O O12 0.605214 0.836610 0.843261
O O13 0.718153 0.680748 0.906727
O O14 0.129663 0.112314 0.713882
O O15 0.452869 0.993976 0.797564
#
# Coordination Sequence:
#
# PCOD9245367 Si02
#       7
#     4   4   4   4   4   4   4
#     4  11  23  39  67  95 142 168 211 272 353 411
#     4  11  19  34  63 103 132 167 221 278 341 417
#     4  10  22  45  70  89 124 181 240 275 321 405
#     4  11  25  44  61 104 136 176 212 287 349 402
#     4  11  20  39  65  96 126 178 221 276 334 418
#     4  10  21  37  67  95 130 171 224 276 341 402
#     4  10  25  43  64  93 128 176 236 278 329 404
#
# _framework density 22.142303999999999
#
# number of rings (size 3 to 8) (size 9 to 14) (size 15 to 20)
#    0.000    1.429    2.857    3.000    2.000    1.143 
#    0.000    0.000    0.000    0.000    0.000    0.000 
#    0.000    0.000    0.000    0.000    0.000    0.000 
#
# Total GULP energy -156135.910597 kJ/mol
# GULP energy per Si atom -5576.282521 kJ/mol
# Density = 2.209191 g / cm^3
# Si number density = 22.142304 Si / 1000 Ang^3
#
#
#
# Elastic Constant Matrix: (Units=GPa)
#
#
# Indices 1 2 3 4 5 6 
#
# 1 77.6868 11.1908 56.8210 0.0000 -3.3889 0.0000
# 2 11.1908 60.6145 19.0116 0.0000 9.6078 0.0000
# 3 56.8210 19.0116 161.9125 0.0000 33.8049 0.0000
# 4 0.0000 0.0000 0.0000 6.8233 0.0000 1.5257
# 5 -3.3889 9.6078 33.8049 0.0000 25.8598 0.0000
# 6 0.0000 0.0000 0.0000 1.5257 0.0000 37.4951
#
#
#
# Elastic Compliance Matrix: (Units=1/GPa)
#
#
# Indices 1 2 3 4 5 6 
#
# 1 0.022771 -0.003652 -0.011648 0.000000 0.019568 0.000000
# 2 -0.003652 0.018225 0.000901 0.000000 -0.008428 0.000000
# 3 -0.011648 0.000901 0.014506 0.000000 -0.020824 0.000000
# 4 0.000000 0.000000 0.000000 0.147903 0.000000 -0.006018
# 5 0.019568 -0.008428 -0.020824 0.000000 0.071587 0.000000
# 6 0.000000 0.000000 0.000000 -0.006018 0.000000 0.026915
#
#
# Mechanical properties :
#
#
# Convention : Reuss Voigt Hill
#
# Bulk Modulus (GPa) = 37.44661 52.69564 45.07113
# Shear Modulus (GPa) = 14.72291 28.24834 21.48562
#
# Velocity S-wave (km/s) = 2.58141 3.57566 3.11841
# Velocity P-wave (km/s) = 5.08266 6.39511 5.77628
#
# Compressibility (1/GPa) = 0.02670469
#
# Stress axis : x y z
#
# Youngs Moduli (GPa) = 43.91489 54.86906 68.93851
#
# Poissons Ratio (x) = 0.20040 0.80299
# Poissons Ratio (y) = 0.16039 -0.06215
# Poissons Ratio (z) = 0.51152 -0.04946
#
# Static dielectric constant tensor:
#      x y z
#    x 1.841780 0.000000 0.035470 
#    y 0.000000 1.839600 0.000000 
#    z 0.035470 0.000000 1.848030 
# 
# From -- ./inp_files/37896.got.cif
#   From: 2010.05.17/outbox.cif.g08.bks.cpg/sg14_19_cif.got.tgz:37896.got - 2010.06.03 17:49:19.
