data_PCOD9245380
_publ_section_title
;
Structure prediction by ZEFSAII (Michael W. Deem and Ramdas Pophale) SiO2 
 PCOD9245380
Probable space group: P 21/C
;
_chemical_formula_sum "Si O2"
_cell_formula_units_Z 30
_cell_length_a 12.006858
_cell_length_b 9.720950
_cell_length_c 17.112031
_cell_angle_alpha 90.000000
_cell_angle_beta 146.061493
_cell_angle_gamma 90.000000
_cell_volume 1115.088810
_symmetry_space_group_name_H-M "P 21/C"
_symmetry_group_IT_number 14
_symmetry_cell_setting 'monoclinic'
loop_
_space_group_symop_operation_xyz
x,y,z
-x,1/2+y,1/2-z
-x,-y,-z
x,1/2-y,1/2+z
loop_
_atom_site_type_symbol
_atom_site_label
_atom_site_fract_x
_atom_site_fract_y
_atom_site_fract_z
Si Si1 0.277920 0.133153 0.399749
Si Si2 0.374511 0.031037 0.732933
Si Si3 0.376494 0.805755 0.626766
Si Si4 0.186915 0.813582 0.863484
Si Si5 0.626310 0.473220 0.201898
Si Si6 0.952713 0.283883 0.369930
Si Si7 0.000000 0.500000 0.000000
Si Si8 0.325448 0.100003 0.988114
O O1 0.411466 0.093106 0.553083
O O2 0.338499 0.291105 0.427199
O O3 0.041891 0.136397 0.271628
O O4 0.319356 0.046487 0.347761
O O5 0.520235 0.156439 0.793325
O O6 0.245944 0.922113 0.600226
O O7 0.490285 0.915098 0.847332
O O8 0.175808 0.079069 0.658823
O O9 0.252557 0.777363 0.475778
O O10 0.566726 0.905174 0.725711
O O11 0.206243 0.737959 0.793304
O O12 0.307171 0.951346 0.941620
O O13 0.813619 0.384265 0.341049
O O14 0.138108 0.359514 0.435199
O O15 0.013141 0.142630 0.444821
#
# Coordination Sequence:
#
# PCOD9245380 Si02
#       8
#     4   4   4   4   4   4   2   4
#     4  10  21  37  70 103 139 178 234 300 357 425
#     4  11  27  49  65 104 137 199 242 303 367 444
#     4  11  27  45  74  98 147 193 248 298 375 437
#     4  10  22  42  69 107 138 185 241 296 364 430
#     4  11  23  42  68 108 140 187 241 299 360 443
#     4  11  24  44  71 111 143 192 243 298 369 431
#     4  12  28  44  72 100 146 182 244 300 360 436
#     4  10  22  44  70  99 147 186 235 299 362 437
#
# _framework density 26.903684999999999
#
# number of rings (size 3 to 8) (size 9 to 14) (size 15 to 20)
#    0.000    1.333    1.333    3.200    9.333    2.133 
#    0.000    4.667    0.000    0.000    0.000    0.000 
#    0.000    0.000    0.000    0.000    0.000    0.000 
#
# Total GULP energy -167227.330915 kJ/mol
# GULP energy per Si atom -5574.244364 kJ/mol
# Density = 2.684245 g / cm^3
# Si number density = 26.903685 Si / 1000 Ang^3
#
#
#
# Elastic Constant Matrix: (Units=GPa)
#
#
# Indices 1 2 3 4 5 6 
#
# 1 64.4945 41.8198 37.6403 0.0000 26.5181 0.0000
# 2 41.8198 147.7972 32.1617 0.0000 -4.2668 0.0000
# 3 37.6403 32.1617 102.7468 0.0000 12.4224 0.0000
# 4 0.0000 0.0000 0.0000 47.4603 0.0000 -2.4429
# 5 26.5181 -4.2668 12.4224 0.0000 44.4159 0.0000
# 6 0.0000 0.0000 0.0000 -2.4429 0.0000 39.1878
#
#
#
# Elastic Compliance Matrix: (Units=1/GPa)
#
#
# Indices 1 2 3 4 5 6 
#
# 1 0.032399 -0.008139 -0.007129 0.000000 -0.018131 0.000000
# 2 -0.008139 0.009388 -0.000676 0.000000 0.005951 0.000000
# 3 -0.007129 -0.000676 0.012471 0.000000 0.000703 0.000000
# 4 0.000000 0.000000 0.000000 0.021138 0.000000 0.001318
# 5 -0.018131 0.005951 0.000703 0.000000 0.033715 0.000000
# 6 0.000000 0.000000 0.000000 0.001318 0.000000 0.025600
#
#
# Mechanical properties :
#
#
# Convention : Reuss Voigt Hill
#
# Bulk Modulus (GPa) = 44.70624 59.80912 52.25768
# Shear Modulus (GPa) = 28.72632 39.77391 34.25012
#
# Velocity S-wave (km/s) = 3.27118 3.84914 3.57187
# Velocity P-wave (km/s) = 5.56064 6.48334 6.03963
#
# Compressibility (1/GPa) = 0.02236824
#
# Stress axis : x y z
#
# Youngs Moduli (GPa) = 30.86536 106.51811 80.18634
#
# Poissons Ratio (x) = 0.86700 0.57165
# Poissons Ratio (y) = 0.25123 0.05423
# Poissons Ratio (z) = 0.22004 0.07203
#
# Static dielectric constant tensor:
#      x y z
#    x 2.574160 0.000000 0.230140 
#    y 0.000000 2.236710 0.000000 
#    z 0.230140 0.000000 2.345090 
# 
# From -- ./inp_files/68396.got.cif
#   From: 2010.05.17/outbox.cif.g08.bks.cpg/sg14_35_cif.got.tgz:68396.got - 2010.06.03 17:49:19.
