data_PCOD9245416
_publ_section_title
;
Structure prediction by ZEFSAII (Michael W. Deem and Ramdas Pophale) SiO2 
 PCOD9245416
Probable space group: P 21/C
;
_chemical_formula_sum "Si O2"
_cell_formula_units_Z 28
_cell_length_a 8.853824
_cell_length_b 13.408722
_cell_length_c 12.516605
_cell_angle_alpha 90.000000
_cell_angle_beta 90.000064
_cell_angle_gamma 90.000000
_cell_volume 1485.952128
_symmetry_space_group_name_H-M "P 21/C"
_symmetry_group_IT_number 14
_symmetry_cell_setting 'monoclinic'
loop_
_space_group_symop_operation_xyz
x,y,z
-x,1/2+y,1/2-z
-x,-y,-z
x,1/2-y,1/2+z
loop_
_atom_site_type_symbol
_atom_site_label
_atom_site_fract_x
_atom_site_fract_y
_atom_site_fract_z
Si Si1 0.833071 0.896730 0.424097
Si Si2 0.026077 0.313312 0.638587
Si Si3 0.526114 0.813289 0.361402
Si Si4 0.966609 0.395112 0.872802
Si Si5 0.749981 0.249997 0.504527
Si Si6 0.466659 0.895101 0.127196
Si Si7 0.666949 0.603243 0.424079
O O1 0.910922 0.799873 0.370386
O O2 0.654407 0.880474 0.417089
O O3 0.891763 0.901608 0.546056
O O4 0.891870 0.995945 0.366627
O O5 0.154385 0.380510 0.582936
O O6 0.008931 0.350327 0.759079
O O7 0.866365 0.311500 0.578232
O O8 0.366382 0.811483 0.421730
O O9 0.509016 0.850321 0.240913
O O10 0.589102 0.700102 0.370368
O O11 0.847847 0.323074 0.931454
O O12 0.652089 0.323046 0.431447
O O13 0.391875 0.004031 0.133382
O O14 0.608269 0.901625 0.046042
#
# Coordination Sequence:
#
# PCOD9245416 Si02
#       7
#     4   4   4   4   4   4   4
#     4   9  22  39  58  85 112 153 199 233 294 355
#     4  10  21  38  59  83 116 152 192 240 293 347
#     4  10  21  38  59  83 116 152 192 240 293 347
#     4  10  21  39  59  83 119 149 192 249 287 346
#     4  10  22  36  56  88 114 150 196 236 292 350
#     4  10  21  39  59  83 119 149 192 249 287 346
#     4   9  22  39  58  85 112 153 199 233 294 355
#
# _framework density 18.843136000000001
#
# number of rings (size 3 to 8) (size 9 to 14) (size 15 to 20)
#    0.000    2.286    0.000    0.857    0.000   19.429 
#    0.000    0.000    0.000    0.000    0.000    0.000 
#    0.000    0.000    0.000    0.000    0.000    0.000 
#
# Total GULP energy -156339.133760 kJ/mol
# GULP energy per Si atom -5583.540491 kJ/mol
# Density = 1.880025 g / cm^3
# Si number density = 18.843136 Si / 1000 Ang^3
#
#
#
# Elastic Constant Matrix: (Units=GPa)
#
#
# Indices 1 2 3 4 5 6 
#
# 1 139.3828 26.6055 65.1242 0.0000 0.0201 0.0000
# 2 26.6055 83.9926 44.1582 0.0000 0.0179 0.0000
# 3 65.1242 44.1582 70.8832 0.0000 0.0154 0.0000
# 4 0.0000 0.0000 0.0000 50.0811 0.0000 0.0012
# 5 0.0201 0.0179 0.0154 0.0000 13.7098 0.0000
# 6 0.0000 0.0000 0.0000 0.0012 0.0000 10.1892
#
#
#
# Elastic Compliance Matrix: (Units=1/GPa)
#
#
# Indices 1 2 3 4 5 6 
#
# 1 0.013141 0.003249 -0.014098 0.000000 -0.000008 0.000000
# 2 0.003249 0.018508 -0.014515 0.000000 -0.000013 0.000000
# 3 -0.014098 -0.014515 0.036102 0.000000 -0.000001 0.000000
# 4 0.000000 0.000000 0.000000 0.019968 0.000000 -0.000002
# 5 -0.000008 -0.000013 -0.000001 0.000000 0.072941 0.000000
# 6 0.000000 0.000000 0.000000 -0.000002 0.000000 0.098143
#
#
# Mechanical properties :
#
#
# Convention : Reuss Voigt Hill
#
# Bulk Modulus (GPa) = 58.73928 62.89272 60.81600
# Shear Modulus (GPa) = 15.86275 25.35405 20.60840
#
# Velocity S-wave (km/s) = 2.90458 3.67213 3.31067
# Velocity P-wave (km/s) = 6.51838 7.17139 6.85267
#
# Compressibility (1/GPa) = 0.01702438
#
# Stress axis : x y z
#
# Youngs Moduli (GPa) = 76.09682 54.03162 27.69910
#
# Poissons Ratio (x) = -0.17555 0.39049
# Poissons Ratio (y) = -0.24724 0.40205
# Poissons Ratio (z) = 1.07278 0.78426
#
# Static dielectric constant tensor:
#      x y z
#    x 1.665770 0.000000 0.000000 
#    y 0.000000 1.643650 0.000000 
#    z 0.000000 0.000000 1.613870 
# 
# From -- ./inp_files/24919.got.cif
#   From: 2010.05.17/outbox.cif.g08.bks.cpg/sg14_13_cif.got.tgz:24919.got - 2010.06.03 17:49:19.
