data_PCOD9245340
_publ_section_title
;
Structure prediction by ZEFSAII (Michael W. Deem and Ramdas Pophale) SiO2 
 PCOD9245340
Probable space group: P 21/C
;
_chemical_formula_sum "Si O2"
_cell_formula_units_Z 24
_cell_length_a 9.633826
_cell_length_b 10.006509
_cell_length_c 11.848291
_cell_angle_alpha 90.000000
_cell_angle_beta 89.258844
_cell_angle_gamma 90.000000
_cell_volume 1142.091145
_symmetry_space_group_name_H-M "P 21/C"
_symmetry_group_IT_number 14
_symmetry_cell_setting 'monoclinic'
loop_
_space_group_symop_operation_xyz
x,y,z
-x,1/2+y,1/2-z
-x,-y,-z
x,1/2-y,1/2+z
loop_
_atom_site_type_symbol
_atom_site_label
_atom_site_fract_x
_atom_site_fract_y
_atom_site_fract_z
Si Si1 0.933461 0.149665 0.996736
Si Si2 0.706991 0.462938 0.343717
Si Si3 0.716709 0.243537 0.659639
Si Si4 0.611363 0.519949 0.703272
Si Si5 0.542482 0.863460 0.442982
Si Si6 0.772134 0.679520 0.516239
O O1 0.862908 0.208503 0.108889
O O2 0.072230 0.229636 0.964395
O O3 0.804683 0.138349 0.913204
O O4 0.000000 0.000000 0.000000
O O5 0.727393 0.400308 0.219554
O O6 0.539999 0.470530 0.354491
O O7 0.758031 0.604672 0.394079
O O8 0.654505 0.367661 0.732366
O O9 0.595002 0.225778 0.568583
O O10 0.600306 0.606480 0.816692
O O11 0.722765 0.575203 0.612487
O O12 0.659197 0.794190 0.515623
O O13 0.500000 0.000000 0.500000
#
# Coordination Sequence:
#
# PCOD9245340 Si02
#       6
#     4   4   4   4   4   4
#     4  10  21  40  64  92 127 176 211 259 325 400
#     4  10  21  37  64  93 125 169 214 264 322 391
#     4  11  22  40  65  96 130 167 218 265 332 389
#     4  11  22  38  68  94 125 171 216 271 330 383
#     4  11  27  40  67  98 131 165 226 283 317 380
#     4  11  22  43  65  92 132 175 216 264 333 389
#
# _framework density 21.014087
#
# number of rings (size 3 to 8) (size 9 to 14) (size 15 to 20)
#    0.000    1.333    5.000    1.500    7.000    1.333 
#    0.000    4.167    0.000    0.000    0.000    0.000 
#    0.000    0.000    0.000    0.000    0.000    0.000 
#
# Total GULP energy -133688.200784 kJ/mol
# GULP energy per Si atom -5570.341699 kJ/mol
# Density = 2.096626 g / cm^3
# Si number density = 21.014087 Si / 1000 Ang^3
#
#
#
# Elastic Constant Matrix: (Units=GPa)
#
#
# Indices 1 2 3 4 5 6 
#
# 1 102.0638 14.5312 21.3624 0.0000 -23.1590 0.0000
# 2 14.5312 62.2475 6.0664 0.0000 -10.8176 0.0000
# 3 21.3624 6.0664 31.6164 0.0000 -3.8331 0.0000
# 4 0.0000 0.0000 0.0000 30.5485 0.0000 -8.7165
# 5 -23.1590 -10.8176 -3.8331 0.0000 20.6181 0.0000
# 6 0.0000 0.0000 0.0000 -8.7165 0.0000 16.7709
#
#
#
# Elastic Compliance Matrix: (Units=1/GPa)
#
#
# Indices 1 2 3 4 5 6 
#
# 1 0.015007 -0.000038 -0.008278 0.000000 0.015297 0.000000
# 2 -0.000038 0.017845 -0.002321 0.000000 0.008888 0.000000
# 3 -0.008278 -0.002321 0.037232 0.000000 -0.003594 0.000000
# 4 0.000000 0.000000 0.000000 0.038435 0.000000 0.019976
# 5 0.015297 0.008888 -0.003594 0.000000 0.069679 0.000000
# 6 0.000000 0.000000 0.000000 0.019976 0.000000 0.070010
#
#
# Mechanical properties :
#
#
# Convention : Reuss Voigt Hill
#
# Bulk Modulus (GPa) = 20.48751 31.09419 25.79085
# Shear Modulus (GPa) = 17.49783 23.85200 20.67491
#
# Velocity S-wave (km/s) = 2.88873 3.37270 3.14006
# Velocity P-wave (km/s) = 4.57132 5.47684 5.04444
#
# Compressibility (1/GPa) = 0.04881022
#
# Stress axis : x y z
#
# Youngs Moduli (GPa) = 66.63605 56.03939 26.85868
#
# Poissons Ratio (x) = 0.00213 0.22233
# Poissons Ratio (y) = 0.00254 0.06233
# Poissons Ratio (z) = 0.55161 0.13005
#
# Static dielectric constant tensor:
#      x y z
#    x 1.783070 0.000000 -0.003480 
#    y 0.000000 1.817500 0.000000 
#    z -0.003480 0.000000 1.807170 
# 
# From -- ./inp_files/38995.got.cif
#   From: 2010.05.17/outbox.cif.g08.bks.cpg/sg14_20_cif.got.tgz:38995.got - 2010.06.03 17:49:19.
