data_PCOD9245868
_publ_section_title
;
Structure prediction by ZEFSAII (Michael W. Deem and Ramdas Pophale) SiO2 
 PCOD9245868
Probable space group: P 21/C
;
_chemical_formula_sum "Si O2"
_cell_formula_units_Z 24
_cell_length_a 7.073171
_cell_length_b 23.369796
_cell_length_c 5.519799
_cell_angle_alpha 90.000000
_cell_angle_beta 91.953717
_cell_angle_gamma 90.000000
_cell_volume 911.884451
_symmetry_space_group_name_H-M "P 21/C"
_symmetry_group_IT_number 14
_symmetry_cell_setting 'monoclinic'
loop_
_space_group_symop_operation_xyz
x,y,z
-x,1/2+y,1/2-z
-x,-y,-z
x,1/2-y,1/2+z
loop_
_atom_site_type_symbol
_atom_site_label
_atom_site_fract_x
_atom_site_fract_y
_atom_site_fract_z
Si Si1 0.755818 0.386810 0.736424
Si Si2 0.530921 0.738182 0.747430
Si Si3 0.401939 0.118720 0.929636
Si Si4 0.829550 0.044760 0.737540
Si Si5 0.232719 0.057129 0.559904
Si Si6 0.131445 0.167853 0.256659
O O1 0.537235 0.375541 0.666953
O O2 0.799836 0.426108 0.497441
O O3 0.903469 0.333562 0.742541
O O4 0.773873 0.416719 0.998750
O O5 0.430485 0.749535 0.491546
O O6 0.546524 0.670648 0.741243
O O7 0.731363 0.775446 0.732928
O O8 0.398201 0.062998 0.764358
O O9 0.195922 0.135746 0.015418
O O10 0.053505 0.034612 0.704118
O O11 0.736924 0.983344 0.669108
O O12 0.179739 0.120314 0.461694
#
# Coordination Sequence:
#
# PCOD9245868 Si02
#       6
#     4   4   4   4   4   4
#     4  11  25  41  64  95 133 160 216 259 319 369
#     4  10  21  39  64  90 118 162 211 252 314 377
#     4  11  23  40  66  94 125 171 209 268 311 386
#     4  10  24  41  63  99 126 173 215 258 311 386
#     4  10  21  40  69  87 134 172 213 258 321 368
#     4  10  22  43  64  91 128 169 206 268 310 381
#
# _framework density 26.319122
#
# number of rings (size 3 to 8) (size 9 to 14) (size 15 to 20)
#    0.000    1.667    3.333    0.000    4.667    3.333 
#    0.000    6.667    0.000    0.000    0.000    0.000 
#    0.000    0.000    0.000    0.000    0.000    0.000 
#
# Total GULP energy -133853.902387 kJ/mol
# GULP energy per Si atom -5577.245933 kJ/mol
# Density = 2.625922 g / cm^3
# Si number density = 26.319122 Si / 1000 Ang^3
#
#
#
# Elastic Constant Matrix: (Units=GPa)
#
#
# Indices 1 2 3 4 5 6 
#
# 1 89.2671 35.4421 14.9287 0.0000 8.2053 0.0000
# 2 35.4421 56.2575 28.0878 0.0000 24.5288 0.0000
# 3 14.9287 28.0878 151.0923 0.0000 -0.0756 0.0000
# 4 0.0000 0.0000 0.0000 52.2408 0.0000 2.4480
# 5 8.2053 24.5288 -0.0756 0.0000 28.7915 0.0000
# 6 0.0000 0.0000 0.0000 2.4480 0.0000 33.7617
#
#
#
# Elastic Compliance Matrix: (Units=1/GPa)
#
#
# Indices 1 2 3 4 5 6 
#
# 1 0.015729 -0.013406 0.000941 0.000000 0.006941 0.000000
# 2 -0.013406 0.044632 -0.006989 0.000000 -0.034222 0.000000
# 3 0.000941 -0.006989 0.007828 0.000000 0.005707 0.000000
# 4 0.000000 0.000000 0.000000 0.019207 0.000000 -0.001393
# 5 0.006941 -0.034222 0.005707 0.000000 0.061924 0.000000
# 6 0.000000 0.000000 0.000000 -0.001393 0.000000 0.029720
#
#
# Mechanical properties :
#
#
# Convention : Reuss Voigt Hill
#
# Bulk Modulus (GPa) = 34.15179 50.39267 42.27223
# Shear Modulus (GPa) = 21.95785 37.50268 29.73026
#
# Velocity S-wave (km/s) = 2.89155 3.77891 3.36461
# Velocity P-wave (km/s) = 4.91449 6.18292 5.58484
#
# Compressibility (1/GPa) = 0.02928105
#
# Stress axis : x y z
#
# Youngs Moduli (GPa) = 63.57487 22.40562 127.75245
#
# Poissons Ratio (x) = 0.30037 -0.12027
# Poissons Ratio (y) = 0.85227 0.89292
# Poissons Ratio (z) = -0.05985 0.15660
#
# Static dielectric constant tensor:
#      x y z
#    x 2.153230 0.000000 0.025900 
#    y 0.000000 2.142430 0.000000 
#    z 0.025900 0.000000 2.055240 
# 
# From -- ./inp_files/1639.got.cif
#   From: 2010.05.17/outbox.cif.g08.bks.cpg/sg14_1_cif.got.tgz:1639.got - 2010.06.03 17:49:19.
