data_PCOD9245421
_publ_section_title
;
Structure prediction by ZEFSAII (Michael W. Deem and Ramdas Pophale) SiO2 
 PCOD9245421
Probable space group: P 21/C
;
_chemical_formula_sum "Si O2"
_cell_formula_units_Z 24
_cell_length_a 8.504581
_cell_length_b 9.239334
_cell_length_c 13.422752
_cell_angle_alpha 90.000000
_cell_angle_beta 91.073463
_cell_angle_gamma 90.000000
_cell_volume 1054.529973
_symmetry_space_group_name_H-M "P 21/C"
_symmetry_group_IT_number 14
_symmetry_cell_setting 'monoclinic'
loop_
_space_group_symop_operation_xyz
x,y,z
-x,1/2+y,1/2-z
-x,-y,-z
x,1/2-y,1/2+z
loop_
_atom_site_type_symbol
_atom_site_label
_atom_site_fract_x
_atom_site_fract_y
_atom_site_fract_z
Si Si1 0.188249 0.514739 0.502453
Si Si2 0.630155 0.631205 0.314807
Si Si3 0.828011 0.290836 0.880528
Si Si4 0.802704 0.773801 0.133090
Si Si5 0.311997 0.013090 0.487491
Si Si6 0.359696 0.654755 0.801826
O O1 0.264139 0.424390 0.593644
O O2 0.226332 0.678554 0.533033
O O3 0.234636 0.438588 0.399500
O O4 0.000000 0.500000 0.500000
O O5 0.729373 0.722497 0.235340
O O6 0.573158 0.485871 0.256438
O O7 0.490835 0.737096 0.344167
O O8 0.741082 0.243153 0.779295
O O9 0.012196 0.263008 0.866208
O O10 0.777791 0.448145 0.918803
O O11 0.730506 0.673968 0.045009
O O12 0.264025 0.917309 0.390406
O O13 0.500000 0.000000 0.500000
#
# Coordination Sequence:
#
# PCOD9245421 Si02
#       6
#     4   4   4   4   4   4
#     4   9  20  38  58  85 116 149 190 239 290 343
#     4  10  21  39  60  85 118 152 194 238 288 346
#     4  10  21  38  59  85 120 154 193 241 289 339
#     4  10  21  38  61  88 115 153 195 240 288 341
#     4  11  22  39  60  86 118 154 196 238 286 348
#     4  10  22  38  57  85 117 152 191 238 288 345
#
# _framework density 22.758955
#
# number of rings (size 3 to 8) (size 9 to 14) (size 15 to 20)
#    0.000    2.000    0.000    3.500    0.000    4.000 
#    0.000   19.167    0.000    0.000    0.000    0.000 
#    0.000    0.000    0.000    0.000    0.000    0.000 
#
# Total GULP energy -134113.008645 kJ/mol
# GULP energy per Si atom -5588.042027 kJ/mol
# Density = 2.270715 g / cm^3
# Si number density = 22.758955 Si / 1000 Ang^3
#
#
#
# Elastic Constant Matrix: (Units=GPa)
#
#
# Indices 1 2 3 4 5 6 
#
# 1 53.3269 14.8840 12.6772 0.0000 18.6618 0.0000
# 2 14.8840 38.7784 0.7677 0.0000 3.6895 0.0000
# 3 12.6772 0.7677 23.6948 0.0000 7.6106 0.0000
# 4 0.0000 0.0000 0.0000 42.9380 0.0000 -6.4828
# 5 18.6618 3.6895 7.6106 0.0000 27.5936 0.0000
# 6 0.0000 0.0000 0.0000 -6.4828 0.0000 27.6642
#
#
#
# Elastic Compliance Matrix: (Units=1/GPa)
#
#
# Indices 1 2 3 4 5 6 
#
# 1 0.029399 -0.009581 -0.010362 0.000000 -0.015744 0.000000
# 2 -0.009581 0.029244 0.003679 0.000000 0.001555 0.000000
# 3 -0.010362 0.003679 0.049961 0.000000 -0.007264 0.000000
# 4 0.000000 0.000000 0.000000 0.024144 0.000000 0.005658
# 5 -0.015744 0.001555 -0.007264 0.000000 0.048684 0.000000
# 6 0.000000 0.000000 0.000000 0.005658 0.000000 0.037474
#
#
# Mechanical properties :
#
#
# Convention : Reuss Voigt Hill
#
# Bulk Modulus (GPa) = 13.14457 19.16200 16.15328
# Shear Modulus (GPa) = 18.06409 25.47057 21.76733
#
# Velocity S-wave (km/s) = 2.82035 3.34899 3.09597
# Velocity P-wave (km/s) = 4.04894 4.83654 4.46016
#
# Compressibility (1/GPa) = 0.07607707
#
# Stress axis : x y z
#
# Youngs Moduli (GPa) = 34.01437 34.19481 20.01555
#
# Poissons Ratio (x) = 0.32762 0.20740
# Poissons Ratio (y) = 0.32589 -0.07364
# Poissons Ratio (z) = 0.35245 -0.12581
#
# Static dielectric constant tensor:
#      x y z
#    x 1.812860 0.000000 0.002200 
#    y 0.000000 1.876480 0.000000 
#    z 0.002200 0.000000 1.840990 
# 
# From -- ./inp_files/39050.got.cif
#   From: 2010.05.17/outbox.cif.g08.bks.cpg/sg14_20_cif.got.tgz:39050.got - 2010.06.03 17:49:19.
