data_PCOD9245591
_publ_section_title
;
Structure prediction by ZEFSAII (Michael W. Deem and Ramdas Pophale) SiO2 
 PCOD9245591
Probable space group: P 21/C
;
_chemical_formula_sum "Si O2"
_cell_formula_units_Z 32
_cell_length_a 8.134497
_cell_length_b 13.796838
_cell_length_c 24.151576
_cell_angle_alpha 90.000000
_cell_angle_beta 148.283574
_cell_angle_gamma 90.000000
_cell_volume 1424.972766
_symmetry_space_group_name_H-M "P 21/C"
_symmetry_group_IT_number 14
_symmetry_cell_setting 'monoclinic'
loop_
_space_group_symop_operation_xyz
x,y,z
-x,1/2+y,1/2-z
-x,-y,-z
x,1/2-y,1/2+z
loop_
_atom_site_type_symbol
_atom_site_label
_atom_site_fract_x
_atom_site_fract_y
_atom_site_fract_z
Si Si1 0.952447 0.656189 0.453372
Si Si2 0.845357 0.282108 0.377989
Si Si3 0.153017 0.647764 0.344598
Si Si4 0.917641 0.760434 0.176749
Si Si5 0.472741 0.396953 0.770015
Si Si6 0.279643 0.427857 0.217566
Si Si7 0.576246 0.543680 0.619998
Si Si8 0.282833 0.695338 0.974708
O O1 0.921408 0.670608 0.510279
O O2 0.210552 0.571958 0.516952
O O3 0.113594 0.755314 0.478488
O O4 0.671249 0.637221 0.330823
O O5 0.766908 0.170514 0.367277
O O6 0.512287 0.336243 0.289992
O O7 0.946299 0.288137 0.343609
O O8 0.143142 0.711177 0.285918
O O9 0.802944 0.618772 0.264856
O O10 0.341888 0.548237 0.393564
O O11 0.277864 0.719618 0.427327
O O12 0.759582 0.858196 0.155635
O O13 0.643799 0.680664 0.090187
O O14 0.584638 0.505565 0.791951
O O15 0.310452 0.480067 0.285402
O O16 0.931332 0.391789 0.106729
#
# Coordination Sequence:
#
# PCOD9245591 Si02
#       8
#     4   4   4   4   4   4   4   4
#     4   9  21  40  64  91 128 162 209 264 317 373
#     4  11  22  40  61  96 128 166 215 261 314 376
#     4  11  21  42  65  93 131 166 210 264 321 371
#     4  11  23  39  64  92 128 170 210 257 322 380
#     4  11  22  39  66  91 125 173 210 267 315 374
#     4  11  21  41  64  92 133 164 215 261 318 370
#     4  10  21  38  64  93 125 165 211 260 317 381
#     4  10  21  42  64  87 131 170 201 264 320 375
#
# _framework density 22.456568999999998
#
# number of rings (size 3 to 8) (size 9 to 14) (size 15 to 20)
#    0.000    1.500    3.750    3.000    0.000    9.500 
#    0.000    5.000    0.000    0.000    0.000    0.000 
#    0.000    0.000    0.000    0.000    0.000    0.000 
#
# Total GULP energy -178940.500238 kJ/mol
# GULP energy per Si atom -5591.890632 kJ/mol
# Density = 2.240546 g / cm^3
# Si number density = 22.456569 Si / 1000 Ang^3
#
#
#
# Elastic Constant Matrix: (Units=GPa)
#
#
# Indices 1 2 3 4 5 6 
#
# 1 91.3521 8.7434 21.2413 0.0000 -26.1145 0.0000
# 2 8.7434 49.2729 13.8577 0.0000 -9.1044 0.0000
# 3 21.2413 13.8577 75.2002 0.0000 -14.0431 0.0000
# 4 0.0000 0.0000 0.0000 -0.7740 0.0000 9.7605
# 5 -26.1145 -9.1044 -14.0431 0.0000 30.6737 0.0000
# 6 0.0000 0.0000 0.0000 9.7605 0.0000 33.6483
#
#
#
# Elastic Compliance Matrix: (Units=1/GPa)
#
#
# Indices 1 2 3 4 5 6 
#
# 1 0.014736 0.000103 -0.002004 0.000000 0.011658 0.000000
# 2 0.000103 0.022122 -0.003131 0.000000 0.005221 0.000000
# 3 -0.002004 -0.003131 0.015253 0.000000 0.004348 0.000000
# 4 0.000000 0.000000 0.000000 -0.277374 0.000000 0.080459
# 5 0.011658 0.005221 0.004348 0.000000 0.046067 0.000000
# 6 0.000000 0.000000 0.000000 0.080459 0.000000 0.006380
#
#
# Mechanical properties :
#
#
# Convention : Reuss Voigt Hill
#
# Bulk Modulus (GPa) = 23.78319 33.72333 28.75326
# Shear Modulus (GPa) = -33.61612 24.17512 -4.72050
#
# Velocity S-wave (km/s) = -3.87323 3.28461 -1.45142
# Velocity P-wave (km/s) = 3.06411 5.42537 3.16590
#
# Compressibility (1/GPa) = 0.04204650
#
# Stress axis : x y z
#
# Youngs Moduli (GPa) = 67.86312 45.20389 65.56205
#
# Poissons Ratio (x) = -0.00466 0.13139
# Poissons Ratio (y) = -0.00699 0.20526
# Poissons Ratio (z) = 0.13601 0.14152
#
# Static dielectric constant tensor:
#      x y z
#    x 1.854770 0.000000 -0.006540 
#    y 0.000000 1.808530 0.000000 
#    z -0.006540 0.000000 1.820100 
# 
# From -- ./inp_files/72462.got.cif
#   From: 2010.05.17/outbox.cif.g08.bks.cpg/sg14_37_cif.got.tgz:72462.got - 2010.06.03 17:49:19.
