data_PCOD9245609
_publ_section_title
;
Structure prediction by ZEFSAII (Michael W. Deem and Ramdas Pophale) SiO2 
 PCOD9245609
Probable space group: P 21/C
;
_chemical_formula_sum "Si O2"
_cell_formula_units_Z 32
_cell_length_a 23.317056
_cell_length_b 11.752396
_cell_length_c 18.649579
_cell_angle_alpha 90.000000
_cell_angle_beta 18.628182
_cell_angle_gamma 90.000000
_cell_volume 1632.445450
_symmetry_space_group_name_H-M "P 21/C"
_symmetry_group_IT_number 14
_symmetry_cell_setting 'monoclinic'
loop_
_space_group_symop_operation_xyz
x,y,z
-x,1/2+y,1/2-z
-x,-y,-z
x,1/2-y,1/2+z
loop_
_atom_site_type_symbol
_atom_site_label
_atom_site_fract_x
_atom_site_fract_y
_atom_site_fract_z
Si Si1 0.658677 0.225993 0.620599
Si Si2 0.265791 0.275502 0.044688
Si Si3 0.832824 0.614551 0.454007
Si Si4 0.423964 0.945820 0.698398
Si Si5 0.186145 0.484899 0.036389
Si Si6 0.046291 0.191859 0.948853
Si Si7 0.952098 0.696365 0.907415
Si Si8 0.228586 0.969595 0.779056
O O1 0.610663 0.316961 0.738987
O O2 0.846708 0.271093 0.361452
O O3 0.690220 0.097452 0.611023
O O4 0.473483 0.235119 0.794807
O O5 0.140856 0.187293 0.148916
O O6 0.250543 0.393908 0.019092
O O7 0.186684 0.284469 0.218537
O O8 0.670335 0.529730 0.634417
O O9 0.816181 0.709075 0.535318
O O10 0.995848 0.536272 0.284644
O O11 0.325260 0.964982 0.740278
O O12 0.623947 0.991237 0.453188
O O13 0.130242 0.418672 0.029294
O O14 0.092700 0.075471 0.937179
O O15 0.040671 0.289285 0.015633
O O16 0.861275 0.151213 0.131561
#
# Coordination Sequence:
#
# PCOD9245609 Si02
#       8
#     4   4   4   4   4   4   4   4
#     4  11  24  37  67  92 125 164 213 262 306 372
#     4  11  25  40  66  95 128 159 214 267 309 368
#     4  10  21  38  65  88 124 166 207 250 310 383
#     4  11  20  40  61  95 123 159 210 258 323 370
#     4  10  23  42  62  89 124 171 208 252 315 382
#     4  11  22  39  59  95 125 162 205 264 323 360
#     4  10  22  40  62  89 126 167 209 252 317 379
#     4  10  23  34  64  92 128 154 200 275 320 368
#
# _framework density 19.602492000000002
#
# number of rings (size 3 to 8) (size 9 to 14) (size 15 to 20)
#    0.000    1.500    3.750    0.750   12.250    0.000 
#    0.000    1.250    0.000    0.000    0.000    0.000 
#    0.000    0.000    0.000    0.000    0.000    0.000 
#
# Total GULP energy -178170.017471 kJ/mol
# GULP energy per Si atom -5567.813046 kJ/mol
# Density = 1.955788 g / cm^3
# Si number density = 19.602492 Si / 1000 Ang^3
#
#
#
# Elastic Constant Matrix: (Units=GPa)
#
#
# Indices 1 2 3 4 5 6 
#
# 1 62.5464 24.2663 27.5394 0.0000 4.1428 0.0000
# 2 24.2663 112.5612 43.3678 0.0000 -0.0758 0.0000
# 3 27.5394 43.3678 65.0022 0.0000 -6.0755 0.0000
# 4 0.0000 0.0000 0.0000 13.5844 0.0000 -7.7390
# 5 4.1428 -0.0758 -6.0755 0.0000 28.8895 0.0000
# 6 0.0000 0.0000 0.0000 -7.7390 0.0000 44.5216
#
#
#
# Elastic Compliance Matrix: (Units=1/GPa)
#
#
# Indices 1 2 3 4 5 6 
#
# 1 0.020412 -0.001216 -0.008273 0.000000 -0.004670 0.000000
# 2 -0.001216 0.012111 -0.007697 0.000000 -0.001412 0.000000
# 3 -0.008273 -0.007697 0.024617 0.000000 0.006343 0.000000
# 4 0.000000 0.000000 0.000000 0.081705 0.000000 0.014202
# 5 -0.004670 -0.001412 0.006343 0.000000 0.036615 0.000000
# 6 0.000000 0.000000 0.000000 0.014202 0.000000 0.024930
#
#
# Mechanical properties :
#
#
# Convention : Reuss Voigt Hill
#
# Bulk Modulus (GPa) = 43.92149 47.82853 45.87501
# Shear Modulus (GPa) = 20.63132 27.06152 23.84642
#
# Velocity S-wave (km/s) = 3.24772 3.71956 3.49162
# Velocity P-wave (km/s) = 6.04304 6.54973 6.30148
#
# Compressibility (1/GPa) = 0.02276790
#
# Stress axis : x y z
#
# Youngs Moduli (GPa) = 48.99094 82.57165 40.62229
#
# Poissons Ratio (x) = 0.10042 0.33607
# Poissons Ratio (y) = 0.05958 0.31266
# Poissons Ratio (z) = 0.40530 0.63553
#
# Static dielectric constant tensor:
#      x y z
#    x 1.743280 0.000000 -0.036140 
#    y 0.000000 1.718110 0.000000 
#    z -0.036140 0.000000 1.749190 
# 
# From -- ./inp_files/61995.got.cif
#   From: 2010.05.17/outbox.cif.g08.bks.cpg/sg14_31_cif.got.tgz:61995.got - 2010.06.03 17:49:19.
