data_PCOD9245678
_publ_section_title
;
Structure prediction by ZEFSAII (Michael W. Deem and Ramdas Pophale) SiO2 
 PCOD9245678
Probable space group: P 21/C
;
_chemical_formula_sum "Si O2"
_cell_formula_units_Z 30
_cell_length_a 9.040382
_cell_length_b 4.930488
_cell_length_c 28.719752
_cell_angle_alpha 90.000000
_cell_angle_beta 89.822275
_cell_angle_gamma 90.000000
_cell_volume 1280.133563
_symmetry_space_group_name_H-M "P 21/C"
_symmetry_group_IT_number 14
_symmetry_cell_setting 'monoclinic'
loop_
_space_group_symop_operation_xyz
x,y,z
-x,1/2+y,1/2-z
-x,-y,-z
x,1/2-y,1/2+z
loop_
_atom_site_type_symbol
_atom_site_label
_atom_site_fract_x
_atom_site_fract_y
_atom_site_fract_z
Si Si1 0.867841 0.026296 0.634977
Si Si2 0.661233 0.420362 0.217132
Si Si3 0.516271 0.083286 0.808246
Si Si4 0.966433 0.028467 0.889125
Si Si5 0.392492 0.266656 0.539331
Si Si6 0.341332 0.762272 0.601431
Si Si7 0.731869 0.400383 0.034629
Si Si8 0.000000 0.000000 0.000000
O O1 0.800329 0.117221 0.683922
O O2 0.763192 0.062626 0.589525
O O3 0.007881 0.217744 0.623829
O O4 0.909423 0.711948 0.634919
O O5 0.614612 0.732768 0.212072
O O6 0.652195 0.365208 0.272316
O O7 0.534871 0.226797 0.194626
O O8 0.540089 0.192177 0.859671
O O9 0.811035 0.159451 0.876752
O O10 0.981157 0.061918 0.944573
O O11 0.369249 0.565845 0.557757
O O12 0.566690 0.223045 0.530804
O O13 0.346603 0.062844 0.581134
O O14 0.287908 0.178473 0.495922
O O15 0.869264 0.235176 0.013489
#
# Coordination Sequence:
#
# PCOD9245678 Si02
#       8
#     4   4   4   4   4   4   4   2
#     4  11  23  39  61  86 127 158 215 250 312 371
#     4  10  21  41  64  97 117 159 203 263 313 392
#     4  10  21  38  69  91 123 155 205 255 333 367
#     4  11  25  38  60  86 121 174 210 248 308 377
#     4  11  25  39  64  92 130 158 219 259 325 368
#     4  12  23  43  61  92 128 165 205 269 311 383
#     4  10  23  40  63  94 121 175 206 270 312 378
#     4  10  22  42  60  84 130 170 218 250 308 378
#
# _framework density 23.435053
#
# number of rings (size 3 to 8) (size 9 to 14) (size 15 to 20)
#    0.000    1.333    1.333    4.000    1.867    6.400 
#    0.000    1.333    0.000    0.000    0.000    0.000 
#    0.000    0.000    0.000    0.000    0.000    0.000 
#
# Total GULP energy -167280.667830 kJ/mol
# GULP energy per Si atom -5576.022261 kJ/mol
# Density = 2.338171 g / cm^3
# Si number density = 23.435053 Si / 1000 Ang^3
#
#
#
# Elastic Constant Matrix: (Units=GPa)
#
#
# Indices 1 2 3 4 5 6 
#
# 1 43.7410 7.8757 11.5649 0.0000 -11.4562 0.0000
# 2 7.8757 50.3885 1.4067 0.0000 -0.4945 0.0000
# 3 11.5649 1.4067 61.4295 0.0000 -23.5685 0.0000
# 4 0.0000 0.0000 0.0000 27.6361 0.0000 -9.7673
# 5 -11.4562 -0.4945 -23.5685 0.0000 31.7552 0.0000
# 6 0.0000 0.0000 0.0000 -9.7673 0.0000 27.3517
#
#
#
# Elastic Compliance Matrix: (Units=1/GPa)
#
#
# Indices 1 2 3 4 5 6 
#
# 1 0.026151 -0.003960 -0.001729 0.000000 0.008089 0.000000
# 2 -0.003960 0.020458 -0.000208 0.000000 -0.001264 0.000000
# 3 -0.001729 -0.000208 0.022885 0.000000 0.016358 0.000000
# 4 0.000000 0.000000 0.000000 0.041411 0.000000 0.014788
# 5 0.008089 -0.001264 0.016358 0.000000 0.046531 0.000000
# 6 0.000000 0.000000 0.000000 0.014788 0.000000 0.041842
#
#
# Mechanical properties :
#
#
# Convention : Reuss Voigt Hill
#
# Bulk Modulus (GPa) = 17.33086 21.91707 19.62397
# Shear Modulus (GPa) = 21.71044 26.32938 24.01991
#
# Velocity S-wave (km/s) = 3.04700 3.35551 3.20497
# Velocity P-wave (km/s) = 4.44862 4.93813 4.69976
#
# Compressibility (1/GPa) = 0.05770054
#
# Stress axis : x y z
#
# Youngs Moduli (GPa) = 38.24003 48.88040 43.69641
#
# Poissons Ratio (x) = 0.19355 0.07554
# Poissons Ratio (y) = 0.15142 0.00909
# Poissons Ratio (z) = 0.06611 0.01017
#
# Static dielectric constant tensor:
#      x y z
#    x 1.992580 0.000000 -0.009070 
#    y 0.000000 1.889260 0.000000 
#    z -0.009070 0.000000 1.870850 
# 
# From -- ./inp_files/79122.got.cif
#   From: 2010.05.17/outbox.cif.g08.bks.cpg/sg14_40_cif.got.tgz:79122.got - 2010.06.03 17:49:19.
