data_PCOD9245433
_publ_section_title
;
Structure prediction by ZEFSAII (Michael W. Deem and Ramdas Pophale) SiO2 
 PCOD9245433
Probable space group: P 21/C
;
_chemical_formula_sum "Si O2"
_cell_formula_units_Z 26
_cell_length_a 14.551001
_cell_length_b 13.216818
_cell_length_c 9.830380
_cell_angle_alpha 90.000000
_cell_angle_beta 40.557217
_cell_angle_gamma 90.000000
_cell_volume 1229.254435
_symmetry_space_group_name_H-M "P 21/C"
_symmetry_group_IT_number 14
_symmetry_cell_setting 'monoclinic'
loop_
_space_group_symop_operation_xyz
x,y,z
-x,1/2+y,1/2-z
-x,-y,-z
x,1/2-y,1/2+z
loop_
_atom_site_type_symbol
_atom_site_label
_atom_site_fract_x
_atom_site_fract_y
_atom_site_fract_z
Si Si1 0.728803 0.184078 0.107812
Si Si2 0.685076 0.015432 0.928794
Si Si3 0.000000 0.000000 0.500000
Si Si4 0.099459 0.135753 0.970135
Si Si5 0.981406 0.706368 0.164451
Si Si6 0.218509 0.553324 0.199031
Si Si7 0.415920 0.607576 0.739019
O O1 0.721132 0.138649 0.268058
O O2 0.619912 0.274420 0.205553
O O3 0.709975 0.093779 0.023077
O O4 0.887478 0.229824 0.918186
O O5 0.619775 0.075607 0.874584
O O6 0.836024 0.971609 0.717343
O O7 0.573904 0.928434 0.091497
O O8 0.047789 0.891951 0.518327
O O9 0.087564 0.222998 0.871826
O O10 0.205498 0.050461 0.797729
O O11 0.121136 0.178825 0.095735
O O12 0.943015 0.083758 0.155423
O O13 0.311859 0.548932 0.959852
#
# Coordination Sequence:
#
# PCOD9245433 Si02
#       7
#     4   4   2   4   4   4   4
#     4  11  21  43  71  95 131 190 220 278 358 421
#     4  11  25  42  72  98 136 181 233 284 347 409
#     4  12  22  42  68 106 132 180 230 296 332 424
#     4  10  21  38  60 104 134 186 226 288 335 418
#     4  11  22  37  69  99 138 180 236 280 355 403
#     4  10  21  38  66  95 138 173 233 279 342 410
#     4  11  23  43  68 101 130 186 229 282 345 427
#
# _framework density 21.151033999999999
#
# number of rings (size 3 to 8) (size 9 to 14) (size 15 to 20)
#    0.000    1.231    3.077    2.769    0.000    6.769 
#    2.769    0.000    6.769    0.000    0.000    0.000 
#    0.000    0.000    0.000    0.000    0.000    0.000 
#
# Total GULP energy -144894.733331 kJ/mol
# GULP energy per Si atom -5572.874359 kJ/mol
# Density = 2.110289 g / cm^3
# Si number density = 21.151034 Si / 1000 Ang^3
#
#
#
# Elastic Constant Matrix: (Units=GPa)
#
#
# Indices 1 2 3 4 5 6 
#
# 1 52.5821 24.0242 13.9521 0.0000 -3.2535 0.0000
# 2 24.0242 71.9465 17.3936 0.0000 0.2216 0.0000
# 3 13.9521 17.3936 55.2756 0.0000 -2.0966 0.0000
# 4 0.0000 0.0000 0.0000 7.6529 0.0000 -5.4006
# 5 -3.2535 0.2216 -2.0966 0.0000 31.5100 0.0000
# 6 0.0000 0.0000 0.0000 -5.4006 0.0000 30.3186
#
#
#
# Elastic Compliance Matrix: (Units=1/GPa)
#
#
# Indices 1 2 3 4 5 6 
#
# 1 0.023268 -0.006902 -0.003617 0.000000 0.002210 0.000000
# 2 -0.006902 0.017096 -0.003679 0.000000 -0.001078 0.000000
# 3 -0.003617 -0.003679 0.020200 0.000000 0.000996 0.000000
# 4 0.000000 0.000000 0.000000 0.149457 0.000000 0.026622
# 5 0.002210 -0.001078 0.000996 0.000000 0.032038 0.000000
# 6 0.000000 0.000000 0.000000 0.026622 0.000000 0.037725
#
#
# Mechanical properties :
#
#
# Convention : Reuss Voigt Hill
#
# Bulk Modulus (GPa) = 31.08643 32.28266 31.68454
# Shear Modulus (GPa) = 15.67878 22.19192 18.93535
#
# Velocity S-wave (km/s) = 2.72559 3.24267 2.99531
# Velocity P-wave (km/s) = 4.96331 5.41442 5.19376
#
# Compressibility (1/GPa) = 0.03216838
#
# Stress axis : x y z
#
# Youngs Moduli (GPa) = 42.97775 58.49160 49.50602
#
# Poissons Ratio (x) = 0.40370 0.17908
# Poissons Ratio (y) = 0.29662 0.18211
# Poissons Ratio (z) = 0.15547 0.21516
#
# Static dielectric constant tensor:
#      x y z
#    x 1.771920 0.000000 0.011010 
#    y 0.000000 1.778920 0.000000 
#    z 0.011010 0.000000 1.749620 
# 
# From -- ./inp_files/16400.got.cif
#   From: 2010.05.17/outbox.cif.g08.bks.cpg/sg14_9_cif.got.tgz:16400.got - 2010.06.03 17:49:19.
