data_PCOD9245531
_publ_section_title
;
Structure prediction by ZEFSAII (Michael W. Deem and Ramdas Pophale) SiO2 
 PCOD9245531
Probable space group: P 21/C
;
_chemical_formula_sum "Si O2"
_cell_formula_units_Z 20
_cell_length_a 8.320016
_cell_length_b 12.065132
_cell_length_c 10.267602
_cell_angle_alpha 90.000000
_cell_angle_beta 124.034215
_cell_angle_gamma 90.000000
_cell_volume 854.130903
_symmetry_space_group_name_H-M "P 21/C"
_symmetry_group_IT_number 14
_symmetry_cell_setting 'monoclinic'
loop_
_space_group_symop_operation_xyz
x,y,z
-x,1/2+y,1/2-z
-x,-y,-z
x,1/2-y,1/2+z
loop_
_atom_site_type_symbol
_atom_site_label
_atom_site_fract_x
_atom_site_fract_y
_atom_site_fract_z
Si Si1 0.399582 0.684884 0.364575
Si Si2 0.169588 0.030447 0.675199
Si Si3 0.963703 0.126737 0.024826
Si Si4 0.994226 0.219310 0.770533
Si Si5 0.494522 0.823128 0.182274
O O1 0.274034 0.574368 0.288608
O O2 0.241368 0.777900 0.331617
O O3 0.493449 0.714300 0.269572
O O4 0.543721 0.682984 0.551108
O O5 0.348414 0.093951 0.688464
O O6 0.068801 0.110143 0.733876
O O7 0.000000 0.000000 0.500000
O O8 0.040610 0.208740 0.944806
O O9 0.728931 0.137204 0.921992
O O10 0.043717 0.176404 0.198033
O O11 0.000000 0.000000 0.000000
#
# Coordination Sequence:
#
# PCOD9245531 Si02
#       5
#     4   4   4   4   4
#     4  10  22  44  63  92 132 172 223 276 335 407
#     4  12  24  40  66  99 133 174 223 283 343 404
#     4  10  21  41  64  93 131 177 225 280 340 403
#     4  10  21  38  62  91 127 169 218 271 330 402
#     4  10  23  41  65  93 129 172 220 276 335 410
#
# _framework density 23.415613
#
# number of rings (size 3 to 8) (size 9 to 14) (size 15 to 20)
#    0.000    1.600    0.000    6.600    0.000    4.800 
#    0.000    9.000    0.000    0.000    0.000    0.000 
#    0.000    0.000    0.000    0.000    0.000    0.000 
#
# Total GULP energy -111637.321005 kJ/mol
# GULP energy per Si atom -5581.866050 kJ/mol
# Density = 2.336232 g / cm^3
# Si number density = 23.415613 Si / 1000 Ang^3
#
#
#
# Elastic Constant Matrix: (Units=GPa)
#
#
# Indices 1 2 3 4 5 6 
#
# 1 45.0571 44.3960 20.9333 0.0000 -9.2585 0.0000
# 2 44.3960 109.7847 56.9490 0.0000 -10.0310 0.0000
# 3 20.9333 56.9490 84.5587 0.0000 -9.7321 0.0000
# 4 0.0000 0.0000 0.0000 30.2431 0.0000 0.3803
# 5 -9.2585 -10.0310 -9.7321 0.0000 41.0079 0.0000
# 6 0.0000 0.0000 0.0000 0.3803 0.0000 48.1151
#
#
#
# Elastic Compliance Matrix: (Units=1/GPa)
#
#
# Indices 1 2 3 4 5 6 
#
# 1 0.038028 -0.015879 0.001873 0.000000 0.005146 0.000000
# 2 -0.015879 0.020690 -0.010110 0.000000 -0.000923 0.000000
# 3 0.001873 -0.010110 0.018439 0.000000 0.002326 0.000000
# 4 0.000000 0.000000 0.000000 0.033069 0.000000 -0.000261
# 5 0.005146 -0.000923 0.002326 0.000000 0.025873 0.000000
# 6 0.000000 0.000000 0.000000 -0.000261 0.000000 0.020786
#
#
# Mechanical properties :
#
#
# Convention : Reuss Voigt Hill
#
# Bulk Modulus (GPa) = 34.57333 53.77298 44.17316
# Shear Modulus (GPa) = 23.28198 31.68136 27.48167
#
# Velocity S-wave (km/s) = 3.15666 3.68231 3.42957
# Velocity P-wave (km/s) = 5.29935 6.41043 5.88119
#
# Compressibility (1/GPa) = 0.02892403
#
# Stress axis : x y z
#
# Youngs Moduli (GPa) = 26.29657 48.33250 54.23322
#
# Poissons Ratio (x) = 0.76749 -0.10156
# Poissons Ratio (y) = 0.41757 0.54828
# Poissons Ratio (z) = -0.04924 0.48862
#
# Static dielectric constant tensor:
#      x y z
#    x 2.024790 0.000000 -0.108430 
#    y 0.000000 1.910140 0.000000 
#    z -0.108430 0.000000 1.936550 
# 
# From -- ./inp_files/24330.got.cif
#   From: 2010.05.17/outbox.cif.g08.bks.cpg/sg14_13_cif.got.tgz:24330.got - 2010.06.03 17:49:19.
