data_PCOD9245448
_publ_section_title
;
Structure prediction by ZEFSAII (Michael W. Deem and Ramdas Pophale) SiO2 
 PCOD9245448
Probable space group: P 21/C
;
_chemical_formula_sum "Si O2"
_cell_formula_units_Z 22
_cell_length_a 18.929576
_cell_length_b 4.824240
_cell_length_c 29.182553
_cell_angle_alpha 90.000000
_cell_angle_beta 161.652659
_cell_angle_gamma 90.000000
_cell_volume 838.872224
_symmetry_space_group_name_H-M "P 21/C"
_symmetry_group_IT_number 14
_symmetry_cell_setting 'monoclinic'
loop_
_space_group_symop_operation_xyz
x,y,z
-x,1/2+y,1/2-z
-x,-y,-z
x,1/2-y,1/2+z
loop_
_atom_site_type_symbol
_atom_site_label
_atom_site_fract_x
_atom_site_fract_y
_atom_site_fract_z
Si Si1 0.806078 0.874437 0.288052
Si Si2 0.381493 0.483687 0.235353
Si Si3 0.864717 0.011899 0.150686
Si Si4 0.795150 0.021494 0.922830
Si Si5 0.500000 0.500000 0.500000
Si Si6 0.137038 0.609229 0.735931
O O1 0.621793 0.908402 0.213651
O O2 0.757103 0.689071 0.212739
O O3 0.992047 0.681515 0.426701
O O4 0.893346 0.170230 0.323926
O O5 0.299024 0.795201 0.177198
O O6 0.614139 0.456153 0.352097
O O7 0.210607 0.285758 0.101410
O O8 0.628658 0.938980 0.028173
O O9 0.047279 0.827036 0.291381
O O10 0.912517 0.931476 0.127169
O O11 0.682874 0.259332 0.621812
#
# Coordination Sequence:
#
# PCOD9245448 Si02
#       6
#     4   4   4   4   2   4
#     4  12  23  38  60  92 125 157 204 262 312 366
#     4  10  21  38  61  87 119 167 204 240 313 375
#     4  10  22  42  65  90 118 158 211 258 315 384
#     4  10  21  38  60  86 123 162 205 252 297 371
#     4  10  24  46  68  86 126 172 208 262 324 382
#     4  11  25  39  62  93 122 161 210 261 318 378
#
# _framework density 26.225687000000001
#
# number of rings (size 3 to 8) (size 9 to 14) (size 15 to 20)
#    0.000    1.455    0.000    5.455    0.000    9.455 
#    0.000    0.000    0.000    0.000    0.000    0.000 
#    0.000    0.000    0.000    0.000    0.000    0.000 
#
# Total GULP energy -122761.688980 kJ/mol
# GULP energy per Si atom -5580.076772 kJ/mol
# Density = 2.616600 g / cm^3
# Si number density = 26.225687 Si / 1000 Ang^3
#
#
#
# Elastic Constant Matrix: (Units=GPa)
#
#
# Indices 1 2 3 4 5 6 
#
# 1 181.0577 43.5353 25.6988 0.0000 39.9378 0.0000
# 2 43.5353 140.8704 -1.7369 0.0000 8.1800 0.0000
# 3 25.6988 -1.7369 50.6140 0.0000 20.7283 0.0000
# 4 0.0000 0.0000 0.0000 30.3997 0.0000 -4.6290
# 5 39.9378 8.1800 20.7283 0.0000 33.1843 0.0000
# 6 0.0000 0.0000 0.0000 -4.6290 0.0000 39.9305
#
#
#
# Elastic Compliance Matrix: (Units=1/GPa)
#
#
# Indices 1 2 3 4 5 6 
#
# 1 0.008022 -0.001972 -0.000519 0.000000 -0.008844 0.000000
# 2 -0.001972 0.007752 0.001448 0.000000 -0.000442 0.000000
# 3 -0.000519 0.001448 0.026823 0.000000 -0.016487 0.000000
# 4 0.000000 0.000000 0.000000 0.033486 0.000000 0.003882
# 5 -0.008844 -0.000442 -0.016487 0.000000 0.051187 0.000000
# 6 0.000000 0.000000 0.000000 0.003882 0.000000 0.025494
#
#
# Mechanical properties :
#
#
# Convention : Reuss Voigt Hill
#
# Bulk Modulus (GPa) = 24.68426 56.39295 40.53860
# Shear Modulus (GPa) = 29.69997 41.03922 35.36960
#
# Velocity S-wave (km/s) = 3.36888 3.96011 3.67640
# Velocity P-wave (km/s) = 4.95632 6.51610 5.78899
#
# Compressibility (1/GPa) = 0.04051165
#
# Stress axis : x y z
#
# Youngs Moduli (GPa) = 124.66161 129.00447 37.28209
#
# Poissons Ratio (x) = 0.25438 0.01933
# Poissons Ratio (y) = 0.24582 -0.05400
# Poissons Ratio (z) = 0.06465 -0.18685
#
# Static dielectric constant tensor:
#      x y z
#    x 2.105600 0.000000 -0.154590 
#    y 0.000000 1.911040 0.000000 
#    z -0.154590 0.000000 2.184950 
# 
# From -- ./inp_files/79824.got.cif
#   From: 2010.05.17/outbox.cif.g08.bks.cpg/sg14_40_cif.got.tgz:79824.got - 2010.06.03 17:49:19.
