data_PCOD9245005
_publ_section_title
;
Structure prediction by ZEFSAII (Michael W. Deem and Ramdas Pophale) SiO2 
 PCOD9245005
Probable space group: P 21/C
;
_chemical_formula_sum "Si O2"
_cell_formula_units_Z 20
_cell_length_a 14.374359
_cell_length_b 9.051346
_cell_length_c 13.516675
_cell_angle_alpha 90.000000
_cell_angle_beta 146.360252
_cell_angle_gamma 90.000000
_cell_volume 974.220305
_symmetry_space_group_name_H-M "P 21/C"
_symmetry_group_IT_number 14
_symmetry_cell_setting 'monoclinic'
loop_
_space_group_symop_operation_xyz
x,y,z
-x,1/2+y,1/2-z
-x,-y,-z
x,1/2-y,1/2+z
loop_
_atom_site_type_symbol
_atom_site_label
_atom_site_fract_x
_atom_site_fract_y
_atom_site_fract_z
Si Si1 0.242305 0.431961 0.750124
Si Si2 0.580102 0.278717 0.086055
Si Si3 0.795417 0.481310 0.705970
Si Si4 0.138302 0.319077 0.042042
Si Si5 0.304581 0.258886 0.992333
O O1 0.270387 0.604779 0.769137
O O2 0.120824 0.347496 0.568438
O O3 0.214018 0.373559 0.836433
O O4 0.429104 0.360481 0.893566
O O5 0.644929 0.133155 0.090261
O O6 0.493241 0.250212 0.115606
O O7 0.807102 0.582347 0.815488
O O8 0.769882 0.596365 0.594679
O O9 0.966476 0.388902 0.850292
O O10 0.273068 0.313159 0.073865
#
# Coordination Sequence:
#
# PCOD9245005 Si02
#       5
#     4   4   4   4   4
#     4   8  19  37  54  80 113 144 182 234 281 328
#     4   9  18  38  56  80 115 148 180 237 287 327
#     4  10  21  37  58  83 111 152 185 236 282 328
#     4  10  21  36  56  81 114 147 192 227 280 335
#     4   9  19  36  56  80 112 145 190 233 275 341
#
# _framework density 20.529236999999998
#
# number of rings (size 3 to 8) (size 9 to 14) (size 15 to 20)
#    1.200    1.600    0.000    0.600    0.000    4.000 
#    0.000    4.000    0.000    0.000    0.000    0.000 
#    0.000    0.000    0.000    0.000    0.000    0.000 
#
# Total GULP energy -111376.492944 kJ/mol
# GULP energy per Si atom -5568.824647 kJ/mol
# Density = 2.048251 g / cm^3
# Si number density = 20.529237 Si / 1000 Ang^3
#
#
#
# Elastic Constant Matrix: (Units=GPa)
#
#
# Indices 1 2 3 4 5 6 
#
# 1 54.9324 10.7086 6.2421 0.0000 -4.4431 0.0000
# 2 10.7086 75.6782 21.0211 0.0000 8.2670 0.0000
# 3 6.2421 21.0211 32.9971 0.0000 13.1881 0.0000
# 4 0.0000 0.0000 0.0000 25.1531 0.0000 12.5610
# 5 -4.4431 8.2670 13.1881 0.0000 20.4385 0.0000
# 6 0.0000 0.0000 0.0000 12.5610 0.0000 18.6480
#
#
#
# Elastic Compliance Matrix: (Units=1/GPa)
#
#
# Indices 1 2 3 4 5 6 
#
# 1 0.020055 -0.002148 -0.006084 0.000000 0.009154 0.000000
# 2 -0.002148 0.016285 -0.009633 0.000000 -0.000838 0.000000
# 3 -0.006084 -0.009633 0.049272 0.000000 -0.029219 0.000000
# 4 0.000000 0.000000 0.000000 0.059908 0.000000 -0.040353
# 5 0.009154 -0.000838 -0.029219 0.000000 0.070110 0.000000
# 6 0.000000 0.000000 0.000000 -0.040353 0.000000 0.080807
#
#
# Mechanical properties :
#
#
# Convention : Reuss Voigt Hill
#
# Bulk Modulus (GPa) = 20.04775 26.61679 23.33227
# Shear Modulus (GPa) = 14.33509 21.22365 17.77937
#
# Velocity S-wave (km/s) = 2.64536 3.21880 2.94607
# Velocity P-wave (km/s) = 4.37233 5.17762 4.79192
#
# Compressibility (1/GPa) = 0.04988090
#
# Stress axis : x y z
#
# Youngs Moduli (GPa) = 49.86373 61.40565 20.29553
#
# Poissons Ratio (x) = 0.13188 0.12348
# Poissons Ratio (y) = 0.10709 0.19552
# Poissons Ratio (z) = 0.30338 0.59155
#
# Static dielectric constant tensor:
#      x y z
#    x 1.713000 0.000000 0.030800 
#    y 0.000000 1.756580 0.000000 
#    z 0.030800 0.000000 1.784410 
# 
# From -- ./inp_files/22797.got.cif
#   From: 2010.05.17/outbox.cif.g08.bks.cpg/sg14_12_cif.got.tgz:22797.got - 2010.06.03 17:49:19.
