data_PCOD9245952
_publ_section_title
;
Structure prediction by ZEFSAII (Michael W. Deem and Ramdas Pophale) SiO2 
 PCOD9245952
Probable space group: P 21/C
;
_chemical_formula_sum "Si O2"
_cell_formula_units_Z 18
_cell_length_a 4.822936
_cell_length_b 11.192658
_cell_length_c 12.438127
_cell_angle_alpha 90.000000
_cell_angle_beta 75.557449
_cell_angle_gamma 90.000000
_cell_volume 650.210075
_symmetry_space_group_name_H-M "P 21/C"
_symmetry_group_IT_number 14
_symmetry_cell_setting 'monoclinic'
loop_
_space_group_symop_operation_xyz
x,y,z
-x,1/2+y,1/2-z
-x,-y,-z
x,1/2-y,1/2+z
loop_
_atom_site_type_symbol
_atom_site_label
_atom_site_fract_x
_atom_site_fract_y
_atom_site_fract_z
Si Si1 0.866641 0.898948 0.157729
Si Si2 0.383379 0.285987 0.952345
Si Si3 0.114267 0.621865 0.866669
Si Si4 0.500000 0.500000 0.000000
Si Si5 0.673407 0.128650 0.076866
O O1 0.702293 0.774468 0.149167
O O2 0.013404 0.906598 0.257785
O O3 0.665836 0.009988 0.146421
O O4 0.115675 0.895039 0.044072
O O5 0.652407 0.372909 0.929067
O O6 0.401917 0.180758 0.038825
O O7 0.181712 0.387721 0.031933
O O8 0.368617 0.545741 0.891599
O O9 0.206786 0.759436 0.868832
#
# Coordination Sequence:
#
# PCOD9245952 Si02
#       5
#     4   4   4   2   4
#     4  10  21  39  66  89 128 170 213 269 327 393
#     4  10  21  40  59  92 128 165 211 272 317 396
#     4  10  22  39  63  93 125 167 216 266 329 386
#     4  10  22  40  58  88 132 164 210 264 322 390
#     4   9  21  41  61  92 127 163 219 266 325 391
#
# _framework density 27.683361000000001
#
# number of rings (size 3 to 8) (size 9 to 14) (size 15 to 20)
#    0.000    2.222    0.000    1.333    3.111    3.556 
#    4.000    0.000    0.000    0.000    0.000    0.000 
#    0.000    0.000    0.000    0.000    0.000    0.000 
#
# Total GULP energy -100485.513588 kJ/mol
# GULP energy per Si atom -5582.528533 kJ/mol
# Density = 2.762035 g / cm^3
# Si number density = 27.683361 Si / 1000 Ang^3
#
#
#
# Elastic Constant Matrix: (Units=GPa)
#
#
# Indices 1 2 3 4 5 6 
#
# 1 118.3985 44.0254 64.8063 0.0000 31.9985 0.0000
# 2 44.0254 189.8805 93.1842 0.0000 44.0901 0.0000
# 3 64.8063 93.1842 156.2294 0.0000 46.2080 0.0000
# 4 0.0000 0.0000 0.0000 19.5209 0.0000 22.2762
# 5 31.9985 44.0901 46.2080 0.0000 66.3227 0.0000
# 6 0.0000 0.0000 0.0000 22.2762 0.0000 49.2655
#
#
#
# Elastic Compliance Matrix: (Units=1/GPa)
#
#
# Indices 1 2 3 4 5 6 
#
# 1 0.011315 -0.000118 -0.003819 0.000000 -0.002720 0.000000
# 2 -0.000118 0.007746 -0.003861 0.000000 -0.002403 0.000000
# 3 -0.003819 -0.003861 0.011316 0.000000 -0.003475 0.000000
# 4 0.000000 0.000000 0.000000 0.105838 0.000000 -0.047857
# 5 -0.002720 -0.002403 -0.003475 0.000000 0.020408 0.000000
# 6 0.000000 0.000000 0.000000 -0.047857 0.000000 0.041937
#
#
# Mechanical properties :
#
#
# Convention : Reuss Voigt Hill
#
# Bulk Modulus (GPa) = 67.64908 96.50448 82.07678
# Shear Modulus (GPa) = 22.82229 44.52132 33.67181
#
# Velocity S-wave (km/s) = 2.87436 4.01463 3.49136
# Velocity P-wave (km/s) = 5.95867 7.51169 6.77979
#
# Compressibility (1/GPa) = 0.01478217
#
# Stress axis : x y z
#
# Youngs Moduli (GPa) = 88.37538 129.09107 88.37427
#
# Poissons Ratio (x) = 0.01520 0.33750
# Poissons Ratio (y) = 0.01041 0.34120
# Poissons Ratio (z) = 0.33750 0.49840
#
# Static dielectric constant tensor:
#      x y z
#    x 2.589760 0.000000 -0.131910 
#    y 0.000000 2.353860 0.000000 
#    z -0.131910 0.000000 2.150140 
# 
# From -- ./inp_files/20395.got.cif
#   From: 2010.05.17/outbox.cif.g08.bks.cpg/sg14_11_cif.got.tgz:20395.got - 2010.06.03 17:49:19.
