data_PCOD9245337
_publ_section_title
;
Structure prediction by ZEFSAII (Michael W. Deem and Ramdas Pophale) SiO2 
 PCOD9245337
Probable space group: P 21/C
;
_chemical_formula_sum "Si O2"
_cell_formula_units_Z 28
_cell_length_a 24.321746
_cell_length_b 8.903948
_cell_length_c 7.547222
_cell_angle_alpha 90.000000
_cell_angle_beta 133.372995
_cell_angle_gamma 90.000000
_cell_volume 1188.059581
_symmetry_space_group_name_H-M "P 21/C"
_symmetry_group_IT_number 14
_symmetry_cell_setting 'monoclinic'
loop_
_space_group_symop_operation_xyz
x,y,z
-x,1/2+y,1/2-z
-x,-y,-z
x,1/2-y,1/2+z
loop_
_atom_site_type_symbol
_atom_site_label
_atom_site_fract_x
_atom_site_fract_y
_atom_site_fract_z
Si Si1 0.392714 0.418687 0.927905
Si Si2 0.233206 0.538739 0.524443
Si Si3 0.917864 0.560832 0.360171
Si Si4 0.922356 0.910800 0.285391
Si Si5 0.455550 0.841252 0.298227
Si Si6 0.387015 0.544963 0.290345
Si Si7 0.227132 0.885785 0.428582
O O1 0.307011 0.432468 0.664253
O O2 0.433872 0.558926 0.920551
O O3 0.456018 0.295133 0.018908
O O4 0.390494 0.428002 0.135973
O O5 0.153116 0.471179 0.286579
O O6 0.236306 0.706588 0.454697
O O7 0.230825 0.566623 0.731224
O O8 0.920299 0.732474 0.304545
O O9 0.911498 0.562052 0.555724
O O10 0.848563 0.452843 0.150356
O O11 0.000000 0.500000 0.500000
O O12 0.000000 0.000000 0.500000
O O13 0.403830 0.696294 0.213083
O O14 0.438003 0.932449 0.077788
O O15 0.302245 0.544078 0.179216
#
# Coordination Sequence:
#
# PCOD9245337 Si02
#       7
#     4   4   4   4   4   4   4
#     4  10  22  37  56  87 123 158 211 263 311 381
#     4  10  21  39  61  91 124 160 208 263 318 375
#     4  11  24  43  65  95 128 166 211 258 316 382
#     4  11  24  43  65  94 130 167 207 260 319 382
#     4  11  20  35  59  86 116 164 210 256 320 374
#     4  11  19  38  60  85 124 161 213 267 319 377
#     4  10  21  37  64  91 121 162 210 259 316 381
#
# _framework density 23.567841999999999
#
# number of rings (size 3 to 8) (size 9 to 14) (size 15 to 20)
#    0.000    1.429    2.857    3.000    0.000    4.571 
#    0.000    5.714    0.000    0.000    0.000    0.000 
#    0.000    0.000    0.000    0.000    0.000    0.000 
#
# Total GULP energy -156205.773653 kJ/mol
# GULP energy per Si atom -5578.777630 kJ/mol
# Density = 2.351420 g / cm^3
# Si number density = 23.567842 Si / 1000 Ang^3
#
#
#
# Elastic Constant Matrix: (Units=GPa)
#
#
# Indices 1 2 3 4 5 6 
#
# 1 109.9659 18.2771 55.8295 0.0000 40.9630 0.0000
# 2 18.2771 40.3040 30.7472 0.0000 21.3033 0.0000
# 3 55.8295 30.7472 118.4734 0.0000 38.4846 0.0000
# 4 0.0000 0.0000 0.0000 -62.9668 0.0000 95.1107
# 5 40.9630 21.3033 38.4846 0.0000 66.7905 0.0000
# 6 0.0000 0.0000 0.0000 95.1107 0.0000 -67.7927
#
#
#
# Elastic Compliance Matrix: (Units=1/GPa)
#
#
# Indices 1 2 3 4 5 6 
#
# 1 0.013509 0.000437 -0.004605 0.000000 -0.005771 0.000000
# 2 0.000437 0.033386 -0.006550 0.000000 -0.007142 0.000000
# 3 -0.004605 -0.006550 0.013182 0.000000 -0.002682 0.000000
# 4 0.000000 0.000000 0.000000 0.014190 0.000000 0.019909
# 5 -0.005771 -0.007142 -0.002682 0.000000 0.022335 0.000000
# 6 0.000000 0.000000 0.000000 0.019909 0.000000 0.013180
#
#
# Mechanical properties :
#
#
# Convention : Reuss Voigt Hill
#
# Bulk Modulus (GPa) = 25.87953 53.16119 39.52036
# Shear Modulus (GPa) = 34.69872 -1.86783 16.41545
#
# Velocity S-wave (km/s) = 3.84121 -0.89121 2.64203
# Velocity P-wave (km/s) = 5.53876 4.64183 5.11001
#
# Compressibility (1/GPa) = 0.03864058
#
# Stress axis : x y z
#
# Youngs Moduli (GPa) = 74.02689 29.95308 75.86204
#
# Poissons Ratio (x) = -0.01310 0.34931
# Poissons Ratio (y) = -0.03237 0.49693
# Poissons Ratio (z) = 0.34086 0.19621
#
# Static dielectric constant tensor:
#      x y z
#    x 1.934550 0.000000 0.066990 
#    y 0.000000 1.979720 0.000000 
#    z 0.066990 0.000000 1.974100 
# 
# From -- ./inp_files/19762.got.cif
#   From: 2010.05.17/outbox.cif.g08.bks.cpg/sg14_10_cif.got.tgz:19762.got - 2010.06.03 17:49:19.
