data_PCOD9245467
_publ_section_title
;
Structure prediction by ZEFSAII (Michael W. Deem and Ramdas Pophale) SiO2 
 PCOD9245467
Probable space group: P 21/C
;
_chemical_formula_sum "Si O2"
_cell_formula_units_Z 24
_cell_length_a 10.756496
_cell_length_b 18.078847
_cell_length_c 16.106873
_cell_angle_alpha 90.000000
_cell_angle_beta 23.445495
_cell_angle_gamma 90.000000
_cell_volume 1246.238229
_symmetry_space_group_name_H-M "P 21/C"
_symmetry_group_IT_number 14
_symmetry_cell_setting 'monoclinic'
loop_
_space_group_symop_operation_xyz
x,y,z
-x,1/2+y,1/2-z
-x,-y,-z
x,1/2-y,1/2+z
loop_
_atom_site_type_symbol
_atom_site_label
_atom_site_fract_x
_atom_site_fract_y
_atom_site_fract_z
Si Si1 0.347396 0.971695 0.283234
Si Si2 0.121533 0.683518 0.302051
Si Si3 0.359068 0.565802 0.530032
Si Si4 0.495318 0.330343 0.425009
Si Si5 0.330448 0.421080 0.098830
Si Si6 0.811876 0.576623 0.626127
O O1 0.385252 0.900238 0.201513
O O2 0.478531 0.945156 0.290824
O O3 0.000000 0.000000 0.500000
O O4 0.548831 0.038206 0.118426
O O5 0.265828 0.763232 0.232675
O O6 0.848106 0.687847 0.400190
O O7 0.970180 0.639653 0.472431
O O8 0.414468 0.635359 0.091375
O O9 0.500000 0.500000 0.500000
O O10 0.502418 0.640366 0.481258
O O11 0.984624 0.572338 0.762190
O O12 0.224909 0.400657 0.256523
O O13 0.500000 0.500000 0.000000
O O14 0.000000 0.500000 0.500000
#
# Coordination Sequence:
#
# PCOD9245467 Si02
#       6
#     4   4   4   4   4   4
#     4  10  22  38  64  93 125 163 203 268 309 366
#     4  11  24  44  64  90 129 166 209 262 319 373
#     4  10  21  38  60  93 120 160 214 244 312 376
#     4  10  23  43  62  89 124 166 208 258 319 379
#     4  12  22  38  67  92 127 168 203 266 310 368
#     4  11  22  40  62  99 124 161 218 249 314 383
#
# _framework density 19.257954999999999
#
# number of rings (size 3 to 8) (size 9 to 14) (size 15 to 20)
#    0.000    1.333    3.333    3.000    7.000    1.333 
#    3.000    1.667    0.000    0.000    0.000    0.000 
#    0.000    0.000    0.000    0.000    0.000    0.000 
#
# Total GULP energy -133941.520349 kJ/mol
# GULP energy per Si atom -5580.896681 kJ/mol
# Density = 1.921412 g / cm^3
# Si number density = 19.257955 Si / 1000 Ang^3
#
#
#
# Elastic Constant Matrix: (Units=GPa)
#
#
# Indices 1 2 3 4 5 6 
#
# 1 99.9976 27.0788 43.7538 0.0000 -23.4624 0.0000
# 2 27.0788 90.1868 35.8597 0.0000 -19.6477 0.0000
# 3 43.7538 35.8597 113.6638 0.0000 -33.0318 0.0000
# 4 0.0000 0.0000 0.0000 40.7250 0.0000 -7.2102
# 5 -23.4624 -19.6477 -33.0318 0.0000 41.4733 0.0000
# 6 0.0000 0.0000 0.0000 -7.2102 0.0000 18.1484
#
#
#
# Elastic Compliance Matrix: (Units=1/GPa)
#
#
# Indices 1 2 3 4 5 6 
#
# 1 0.012792 -0.001706 -0.003276 0.000000 0.003819 0.000000
# 2 -0.001706 0.013350 -0.002599 0.000000 0.003289 0.000000
# 3 -0.003276 -0.002599 0.012989 0.000000 0.007260 0.000000
# 4 0.000000 0.000000 0.000000 0.026413 0.000000 0.010494
# 5 0.003819 0.003289 0.007260 0.000000 0.033613 0.000000
# 6 0.000000 0.000000 0.000000 0.010494 0.000000 0.059270
#
#
# Mechanical properties :
#
#
# Convention : Reuss Voigt Hill
#
# Bulk Modulus (GPa) = 41.72148 57.47031 49.59590
# Shear Modulus (GPa) = 27.53613 33.21307 30.37460
#
# Velocity S-wave (km/s) = 3.78545 4.15739 3.97577
# Velocity P-wave (km/s) = 6.38888 7.27683 6.84726
#
# Compressibility (1/GPa) = 0.02396847
#
# Stress axis : x y z
#
# Youngs Moduli (GPa) = 78.17564 74.90367 76.98876
#
# Poissons Ratio (x) = 0.12780 0.25221
# Poissons Ratio (y) = 0.13338 0.20011
# Poissons Ratio (z) = 0.25609 0.19469
#
# Static dielectric constant tensor:
#      x y z
#    x 1.727610 0.000000 0.016040 
#    y 0.000000 1.607160 0.000000 
#    z 0.016040 0.000000 1.658990 
# 
# From -- ./inp_files/58136.got.cif
#   From: 2010.05.17/outbox.cif.g08.bks.cpg/sg14_30_cif.got.tgz:58136.got - 2010.06.03 17:49:19.
