data_PCOD9245710
_publ_section_title
;
Structure prediction by ZEFSAII (Michael W. Deem and Ramdas Pophale) SiO2 
 PCOD9245710
Probable space group: P 21/C
;
_chemical_formula_sum "Si O2"
_cell_formula_units_Z 24
_cell_length_a 20.406706
_cell_length_b 5.506707
_cell_length_c 11.916348
_cell_angle_alpha 90.000000
_cell_angle_beta 134.067276
_cell_angle_gamma 90.000000
_cell_volume 962.164035
_symmetry_space_group_name_H-M "P 21/C"
_symmetry_group_IT_number 14
_symmetry_cell_setting 'monoclinic'
loop_
_space_group_symop_operation_xyz
x,y,z
-x,1/2+y,1/2-z
-x,-y,-z
x,1/2-y,1/2+z
loop_
_atom_site_type_symbol
_atom_site_label
_atom_site_fract_x
_atom_site_fract_y
_atom_site_fract_z
Si Si1 0.141389 0.586517 0.164534
Si Si2 0.993714 0.661438 0.170378
Si Si3 0.456135 0.670147 0.564046
Si Si4 0.295513 0.287409 0.400286
Si Si5 0.618478 0.078541 0.327543
Si Si6 0.697303 0.404981 0.253495
O O1 0.199436 0.405408 0.311035
O O2 0.219526 0.758871 0.204916
O O3 0.069755 0.707886 0.163768
O O4 0.090797 0.441419 0.004541
O O5 0.017975 0.420881 0.277519
O O6 0.379066 0.469325 0.492334
O O7 0.459368 0.813401 0.685101
O O8 0.556966 0.568091 0.664188
O O9 0.404196 0.852604 0.418887
O O10 0.320033 0.089436 0.521784
O O11 0.284397 0.176483 0.261563
O O12 0.681323 0.292773 0.355323
#
# Coordination Sequence:
#
# PCOD9245710 Si02
#       6
#     4   4   4   4   4   4
#     4  10  26  47  70 108 144 170 239 293 344 447
#     4  11  28  49  82 109 142 193 227 289 372 437
#     4  10  21  39  58  92 127 180 231 291 328 414
#     4  10  23  42  63  94 138 174 230 294 343 412
#     4  11  21  39  64  89 133 183 237 279 353 400
#     4  10  24  39  64  96 131 180 224 292 347 413
#
# _framework density 24.943773
#
# number of rings (size 3 to 8) (size 9 to 14) (size 15 to 20)
#    0.000    1.667    1.667    0.500    7.000    7.333 
#    0.000    0.000    0.000    0.000    0.000    0.000 
#    0.000    0.000    0.000    0.000    0.000    0.000 
#
# Total GULP energy -134022.711272 kJ/mol
# GULP energy per Si atom -5584.279636 kJ/mol
# Density = 2.488700 g / cm^3
# Si number density = 24.943773 Si / 1000 Ang^3
#
#
#
# Elastic Constant Matrix: (Units=GPa)
#
#
# Indices 1 2 3 4 5 6 
#
# 1 78.5650 -1.5726 28.3016 0.0000 9.0493 0.0000
# 2 -1.5726 45.6789 15.1803 0.0000 -0.6725 0.0000
# 3 28.3016 15.1803 94.6074 0.0000 12.6903 0.0000
# 4 0.0000 0.0000 0.0000 37.6040 0.0000 -7.6743
# 5 9.0493 -0.6725 12.6903 0.0000 31.0691 0.0000
# 6 0.0000 0.0000 0.0000 -7.6743 0.0000 33.5739
#
#
#
# Elastic Compliance Matrix: (Units=1/GPa)
#
#
# Indices 1 2 3 4 5 6 
#
# 1 0.014615 0.001914 -0.004352 0.000000 -0.002438 0.000000
# 2 0.001914 0.023510 -0.004590 0.000000 0.001826 0.000000
# 3 -0.004352 -0.004590 0.013173 0.000000 -0.004212 0.000000
# 4 0.000000 0.000000 0.000000 0.027894 0.000000 0.006376
# 5 -0.002438 0.001826 -0.004212 0.000000 0.034656 0.000000
# 6 0.000000 0.000000 0.000000 0.006376 0.000000 0.031242
#
#
# Mechanical properties :
#
#
# Convention : Reuss Voigt Hill
#
# Bulk Modulus (GPa) = 26.85138 33.63001 30.24069
# Shear Modulus (GPa) = 29.14394 32.24554 30.69474
#
# Velocity S-wave (km/s) = 3.42187 3.59935 3.51174
# Velocity P-wave (km/s) = 5.13813 5.54846 5.34723
#
# Compressibility (1/GPa) = 0.03724204
#
# Stress axis : x y z
#
# Youngs Moduli (GPa) = 68.42195 42.53514 75.91042
#
# Poissons Ratio (x) = -0.08140 0.33037
# Poissons Ratio (y) = -0.13093 0.34841
# Poissons Ratio (z) = 0.29778 0.19522
#
# Static dielectric constant tensor:
#      x y z
#    x 1.986730 0.000000 -0.134000 
#    y 0.000000 2.067180 0.000000 
#    z -0.134000 0.000000 2.013530 
# 
# From -- ./inp_files/50911.got.cif
#   From: 2010.05.17/outbox.cif.g08.bks.cpg/sg14_26_cif.got.tgz:50911.got - 2010.06.03 17:49:19.
