data_PCOD9245627
_publ_section_title
;
Structure prediction by ZEFSAII (Michael W. Deem and Ramdas Pophale) SiO2 
 PCOD9245627
Probable space group: P 21/C
;
_chemical_formula_sum "Si O2"
_cell_formula_units_Z 28
_cell_length_a 20.323653
_cell_length_b 7.528967
_cell_length_c 14.620780
_cell_angle_alpha 90.000000
_cell_angle_beta 149.972046
_cell_angle_gamma 90.000000
_cell_volume 1119.552606
_symmetry_space_group_name_H-M "P 21/C"
_symmetry_group_IT_number 14
_symmetry_cell_setting 'monoclinic'
loop_
_space_group_symop_operation_xyz
x,y,z
-x,1/2+y,1/2-z
-x,-y,-z
x,1/2-y,1/2+z
loop_
_atom_site_type_symbol
_atom_site_label
_atom_site_fract_x
_atom_site_fract_y
_atom_site_fract_z
Si Si1 0.900226 0.382926 0.440048
Si Si2 0.655727 0.632411 0.433289
Si Si3 0.812045 0.312873 0.669292
Si Si4 0.357962 0.418833 0.801357
Si Si5 0.626282 0.032444 0.373079
Si Si6 0.010041 0.813193 0.284511
Si Si7 0.199211 0.388339 0.067076
O O1 0.872802 0.217376 0.340991
O O2 0.757953 0.457680 0.297938
O O3 0.972331 0.342867 0.620969
O O4 0.000000 0.500000 0.500000
O O5 0.778215 0.516272 0.612449
O O6 0.628536 0.592593 0.293039
O O7 0.660599 0.841821 0.458419
O O8 0.526315 0.557611 0.326445
O O9 0.899373 0.225495 0.694617
O O10 0.680494 0.193845 0.498584
O O11 0.294877 0.221872 0.750565
O O12 0.500000 0.500000 0.000000
O O13 0.700738 0.015004 0.366606
O O14 0.866423 0.776363 0.069483
O O15 0.071112 0.981188 0.413922
#
# Coordination Sequence:
#
# PCOD9245627 Si02
#       7
#     4   4   4   4   4   4   4
#     4  12  25  46  71 107 143 192 245 304 363 443
#     4  11  21  40  68  96 141 190 233 294 373 435
#     4  11  23  43  68  98 140 187 236 298 365 424
#     4  11  24  44  70 104 145 184 241 305 376 436
#     4  10  21  38  66 100 130 191 243 287 365 446
#     4  11  23  47  72 102 145 190 248 299 364 441
#     4  10  23  42  72 102 142 197 240 307 372 436
#
# _framework density 25.009992
#
# number of rings (size 3 to 8) (size 9 to 14) (size 15 to 20)
#    0.000    1.143    2.857    4.286    4.000    0.000 
#    5.143    2.143    0.000    0.000    0.000    0.000 
#    0.000    0.000    0.000    0.000    0.000    0.000 
#
# Total GULP energy -156201.366097 kJ/mol
# GULP energy per Si atom -5578.620218 kJ/mol
# Density = 2.495307 g / cm^3
# Si number density = 25.009992 Si / 1000 Ang^3
#
#
#
# Elastic Constant Matrix: (Units=GPa)
#
#
# Indices 1 2 3 4 5 6 
#
# 1 62.8274 0.2921 30.1633 0.0000 10.2761 0.0000
# 2 0.2921 70.1691 -1.0180 0.0000 13.0963 0.0000
# 3 30.1633 -1.0180 99.2401 0.0000 24.1275 0.0000
# 4 0.0000 0.0000 0.0000 48.0164 0.0000 2.1833
# 5 10.2761 13.0963 24.1275 0.0000 41.9641 0.0000
# 6 0.0000 0.0000 0.0000 2.1833 0.0000 35.7593
#
#
#
# Elastic Compliance Matrix: (Units=1/GPa)
#
#
# Indices 1 2 3 4 5 6 
#
# 1 0.018721 0.000140 -0.005305 0.000000 -0.001578 0.000000
# 2 0.000140 0.015332 0.001496 0.000000 -0.005679 0.000000
# 3 -0.005305 0.001496 0.013371 0.000000 -0.006855 0.000000
# 4 0.000000 0.000000 0.000000 0.020884 0.000000 -0.001275
# 5 -0.001578 -0.005679 -0.006855 0.000000 0.029930 0.000000
# 6 0.000000 0.000000 0.000000 -0.001275 0.000000 0.028043
#
#
# Mechanical properties :
#
#
# Convention : Reuss Voigt Hill
#
# Bulk Modulus (GPa) = 24.94735 32.34572 28.64653
# Shear Modulus (GPa) = 34.01759 38.66791 36.34275
#
# Velocity S-wave (km/s) = 3.69204 3.93631 3.81613
# Velocity P-wave (km/s) = 5.30768 5.79833 5.55842
#
# Compressibility (1/GPa) = 0.04008443
#
# Stress axis : x y z
#
# Youngs Moduli (GPa) = 53.41598 65.22169 74.78827
#
# Poissons Ratio (x) = -0.00910 0.39676
# Poissons Ratio (y) = -0.00745 -0.11185
# Poissons Ratio (z) = 0.28338 -0.09754
#
# Static dielectric constant tensor:
#      x y z
#    x 2.042230 0.000000 0.016360 
#    y 0.000000 2.092540 0.000000 
#    z 0.016360 0.000000 1.953860 
# 
# From -- ./inp_files/50141.got.cif
#   From: 2010.05.17/outbox.cif.g08.bks.cpg/sg14_26_cif.got.tgz:50141.got - 2010.06.03 17:49:19.
