data_PCOD9245910
_publ_section_title
;
Structure prediction by ZEFSAII (Michael W. Deem and Ramdas Pophale) SiO2 
 PCOD9245910
Probable space group: P 21/C
;
_chemical_formula_sum "Si O2"
_cell_formula_units_Z 32
_cell_length_a 12.135435
_cell_length_b 8.938972
_cell_length_c 23.790802
_cell_angle_alpha 90.000000
_cell_angle_beta 34.717032
_cell_angle_gamma 90.000000
_cell_volume 1469.819335
_symmetry_space_group_name_H-M "P 21/C"
_symmetry_group_IT_number 14
_symmetry_cell_setting 'monoclinic'
loop_
_space_group_symop_operation_xyz
x,y,z
-x,1/2+y,1/2-z
-x,-y,-z
x,1/2-y,1/2+z
loop_
_atom_site_type_symbol
_atom_site_label
_atom_site_fract_x
_atom_site_fract_y
_atom_site_fract_z
Si Si1 0.647623 0.786024 0.359824
Si Si2 0.104240 0.697281 0.525771
Si Si3 0.239407 0.795211 0.086221
Si Si4 0.172666 0.050791 0.610431
Si Si5 0.554821 0.997065 0.158935
Si Si6 0.324087 0.284305 0.831227
Si Si7 0.625170 0.490386 0.086026
Si Si8 0.752942 0.037887 0.799297
O O1 0.449292 0.715162 0.468496
O O2 0.757760 0.860024 0.365041
O O3 0.764177 0.641554 0.292687
O O4 0.578593 0.908750 0.343144
O O5 0.097838 0.656728 0.594891
O O6 0.236065 0.568145 0.442431
O O7 0.895863 0.735559 0.588374
O O8 0.225570 0.852027 0.469435
O O9 0.190416 0.623420 0.120462
O O10 0.245863 0.898141 0.138091
O O11 0.310385 0.070113 0.499106
O O12 0.952475 0.092029 0.687638
O O13 0.421717 0.129065 0.238961
O O14 0.442877 0.927693 0.152343
O O15 0.567498 0.868388 0.199616
O O16 0.351662 0.395301 0.872866
#
# Coordination Sequence:
#
# PCOD9245910 Si02
#       8
#     4   4   4   4   4   4   4   4
#     4  10  21  39  65  89 138 168 222 266 333 405
#     4  10  22  47  70  97 133 179 226 278 341 403
#     4  10  21  40  66  94 130 171 212 271 344 398
#     4  10  22  37  63  98 130 172 220 271 330 410
#     4  12  26  44  68 101 132 176 229 276 339 398
#     4  12  27  44  72  95 139 179 227 285 329 413
#     4  10  21  43  67  93 130 183 220 272 343 392
#     4  12  23  40  64  99 133 169 219 278 339 399
#
# _framework density 21.771383
#
# number of rings (size 3 to 8) (size 9 to 14) (size 15 to 20)
#    0.000    1.500    2.500    5.625    3.500    1.000 
#    0.000    0.000    0.000    0.000    0.000    0.000 
#    0.000    0.000    0.000    0.000    0.000    0.000 
#
# Total GULP energy -178789.903760 kJ/mol
# GULP energy per Si atom -5587.184493 kJ/mol
# Density = 2.172183 g / cm^3
# Si number density = 21.771383 Si / 1000 Ang^3
#
#
#
# Elastic Constant Matrix: (Units=GPa)
#
#
# Indices 1 2 3 4 5 6 
#
# 1 110.4411 49.2216 37.0030 0.0000 6.7300 0.0000
# 2 49.2216 58.1482 19.7064 0.0000 13.6666 0.0000
# 3 37.0030 19.7064 47.5922 0.0000 -4.7947 0.0000
# 4 0.0000 0.0000 0.0000 30.9653 0.0000 17.5595
# 5 6.7300 13.6666 -4.7947 0.0000 32.4320 0.0000
# 6 0.0000 0.0000 0.0000 17.5595 0.0000 33.5959
#
#
#
# Elastic Compliance Matrix: (Units=1/GPa)
#
#
# Indices 1 2 3 4 5 6 
#
# 1 0.017041 -0.011588 -0.008442 0.000000 0.000099 0.000000
# 2 -0.011588 0.031508 -0.005210 0.000000 -0.011643 0.000000
# 3 -0.008442 -0.005210 0.030586 0.000000 0.008469 0.000000
# 4 0.000000 0.000000 0.000000 0.045898 0.000000 -0.023989
# 5 0.000099 -0.011643 0.008469 0.000000 0.036972 0.000000
# 6 0.000000 0.000000 0.000000 -0.023989 0.000000 0.042304
#
#
# Mechanical properties :
#
#
# Convention : Reuss Voigt Hill
#
# Bulk Modulus (GPa) = 34.89601 47.56040 41.22820
# Shear Modulus (GPa) = 18.91501 26.74867 22.83184
#
# Velocity S-wave (km/s) = 2.95074 3.50896 3.24189
# Velocity P-wave (km/s) = 5.26045 6.18950 5.74379
#
# Compressibility (1/GPa) = 0.02865657
#
# Stress axis : x y z
#
# Youngs Moduli (GPa) = 58.68097 31.73759 32.69481
#
# Poissons Ratio (x) = 0.36776 0.27600
# Poissons Ratio (y) = 0.67997 0.17035
# Poissons Ratio (z) = 0.49537 0.16536
#
# Static dielectric constant tensor:
#      x y z
#    x 1.822410 0.000000 -0.008140 
#    y 0.000000 1.764590 0.000000 
#    z -0.008140 0.000000 1.821740 
# 
# From -- ./inp_files/73094.got.cif
#   From: 2010.05.17/outbox.cif.g08.bks.cpg/sg14_37_cif.got.tgz:73094.got - 2010.06.03 17:49:19.
