data_PCOD9245436
_publ_section_title
;
Structure prediction by ZEFSAII (Michael W. Deem and Ramdas Pophale) SiO2 
 PCOD9245436
Probable space group: P 21/C
;
_chemical_formula_sum "Si O2"
_cell_formula_units_Z 16
_cell_length_a 13.350135
_cell_length_b 5.271053
_cell_length_c 9.089357
_cell_angle_alpha 90.000000
_cell_angle_beta 88.996278
_cell_angle_gamma 90.000000
_cell_volume 639.513267
_symmetry_space_group_name_H-M "P 21/C"
_symmetry_group_IT_number 14
_symmetry_cell_setting 'monoclinic'
loop_
_space_group_symop_operation_xyz
x,y,z
-x,1/2+y,1/2-z
-x,-y,-z
x,1/2-y,1/2+z
loop_
_atom_site_type_symbol
_atom_site_label
_atom_site_fract_x
_atom_site_fract_y
_atom_site_fract_z
Si Si1 0.805260 0.507537 0.366195
Si Si2 0.617596 0.633446 0.200215
Si Si3 0.574042 0.368852 0.611747
Si Si4 0.118667 0.992369 0.470458
O O1 0.687942 0.525620 0.326192
O O2 0.836097 0.260668 0.456936
O O3 0.836483 0.759914 0.451588
O O4 0.857550 0.498099 0.203924
O O5 0.503505 0.683538 0.252329
O O6 0.616479 0.410754 0.078559
O O7 0.652983 0.914421 0.153934
O O8 0.500000 0.500000 0.500000
O O9 0.000000 0.000000 0.500000
#
# Coordination Sequence:
#
# PCOD9245436 Si02
#       4
#     4   4   4   4
#     4  12  26  44  74 100 138 175 230 275 334 411
#     4  10  23  37  58  94 118 174 212 268 320 385
#     4  10  21  38  60  83 131 161 217 262 324 380
#     4  12  26  47  71 102 136 177 221 284 344 401
#
# _framework density 25.019027000000001
#
# number of rings (size 3 to 8) (size 9 to 14) (size 15 to 20)
#    0.000    1.000    0.000    6.000    7.000    0.000 
#    0.000    0.000    0.000    0.000    0.000    0.000 
#    0.000    0.000    0.000    0.000    0.000    0.000 
#
# Total GULP energy -89576.850160 kJ/mol
# GULP energy per Si atom -5598.553135 kJ/mol
# Density = 2.496208 g / cm^3
# Si number density = 25.019027 Si / 1000 Ang^3
#
#
#
# Elastic Constant Matrix: (Units=GPa)
#
#
# Indices 1 2 3 4 5 6 
#
# 1 127.5057 35.2679 11.1557 0.0000 4.5631 0.0000
# 2 35.2679 180.0550 40.3667 0.0000 -9.3790 0.0000
# 3 11.1557 40.3667 96.8343 0.0000 -19.4338 0.0000
# 4 0.0000 0.0000 0.0000 54.0487 0.0000 13.7873
# 5 4.5631 -9.3790 -19.4338 0.0000 41.3650 0.0000
# 6 0.0000 0.0000 0.0000 13.7873 0.0000 32.2094
#
#
#
# Elastic Compliance Matrix: (Units=1/GPa)
#
#
# Indices 1 2 3 4 5 6 
#
# 1 0.008393 -0.001587 -0.000622 0.000000 -0.001578 0.000000
# 2 -0.001587 0.006428 -0.002395 0.000000 0.000507 0.000000
# 3 -0.000622 -0.002395 0.012478 0.000000 0.005388 0.000000
# 4 0.000000 0.000000 0.000000 0.020770 0.000000 -0.008890
# 5 -0.001578 0.000507 0.005388 0.000000 0.026995 0.000000
# 6 0.000000 0.000000 0.000000 -0.008890 0.000000 0.034852
#
#
# Mechanical properties :
#
#
# Convention : Reuss Voigt Hill
#
# Bulk Modulus (GPa) = 55.27482 64.21951 59.74716
# Shear Modulus (GPa) = 39.95068 46.69828 43.32448
#
# Velocity S-wave (km/s) = 4.00035 4.32500 4.16584
# Velocity P-wave (km/s) = 6.59379 7.11792 6.86087
#
# Compressibility (1/GPa) = 0.01809142
#
# Stress axis : x y z
#
# Youngs Moduli (GPa) = 119.15362 155.56960 80.13898
#
# Poissons Ratio (x) = 0.24682 0.04986
# Poissons Ratio (y) = 0.18905 0.19193
# Poissons Ratio (z) = 0.07413 0.37259
#
# Static dielectric constant tensor:
#      x y z
#    x 2.025860 0.000000 -0.082460 
#    y 0.000000 2.040960 0.000000 
#    z -0.082460 0.000000 2.000800 
# 
# From -- ./inp_files/14819.got.cif
#   From: 2010.05.17/outbox.cif.g08.bks.cpg/sg14_8_cif.got.tgz:14819.got - 2010.06.03 17:49:19.
