data_PCOD9245032
_publ_section_title
;
Structure prediction by ZEFSAII (Michael W. Deem and Ramdas Pophale) SiO2 
 PCOD9245032
Probable space group: P 21/C
;
_chemical_formula_sum "Si O2"
_cell_formula_units_Z 16
_cell_length_a 7.123067
_cell_length_b 6.701081
_cell_length_c 25.450516
_cell_angle_alpha 90.000000
_cell_angle_beta 153.502871
_cell_angle_gamma 90.000000
_cell_volume 541.991251
_symmetry_space_group_name_H-M "P 21/C"
_symmetry_group_IT_number 14
_symmetry_cell_setting 'monoclinic'
loop_
_space_group_symop_operation_xyz
x,y,z
-x,1/2+y,1/2-z
-x,-y,-z
x,1/2-y,1/2+z
loop_
_atom_site_type_symbol
_atom_site_label
_atom_site_fract_x
_atom_site_fract_y
_atom_site_fract_z
Si Si1 0.943986 0.074293 0.163399
Si Si2 0.146392 0.862937 0.692491
Si Si3 0.733309 0.235104 0.002291
Si Si4 0.350068 0.716712 0.630656
O O1 0.183191 0.196432 0.266831
O O2 0.477026 0.991548 0.054045
O O3 0.957194 0.214034 0.114701
O O4 0.199770 0.869332 0.221371
O O5 0.174894 0.843953 0.635850
O O6 0.655967 0.886487 0.585657
O O7 0.490166 0.002251 0.807184
O O8 0.905338 0.252122 0.986571
#
# Coordination Sequence:
#
# PCOD9245032 Si02
#       4
#     4   4   4   4
#     4   9  21  41  54  88 113 141 197 225 274 345
#     4  10  21  36  57  85 111 148 189 228 272 341
#     4   9  21  41  56  83 118 145 183 239 277 321
#     4  12  20  38  62  80 116 152 182 232 282 325
#
# _framework density 29.520771
#
# number of rings (size 3 to 8) (size 9 to 14) (size 15 to 20)
#    1.500    0.500    2.500    1.500    0.000    2.000 
#    0.000    1.250    0.000    0.000    0.000    0.000 
#    0.000    0.000    0.000    0.000    0.000    0.000 
#
# Total GULP energy -89262.240104 kJ/mol
# GULP energy per Si atom -5578.890006 kJ/mol
# Density = 2.945358 g / cm^3
# Si number density = 29.520771 Si / 1000 Ang^3
#
#
#
# Elastic Constant Matrix: (Units=GPa)
#
#
# Indices 1 2 3 4 5 6 
#
# 1 140.6432 21.8856 44.4718 0.0000 -48.7709 0.0000
# 2 21.8856 61.2662 21.3566 0.0000 -14.6043 0.0000
# 3 44.4718 21.3566 152.4741 0.0000 -43.5693 0.0000
# 4 0.0000 0.0000 0.0000 51.0645 0.0000 11.8614
# 5 -48.7709 -14.6043 -43.5693 0.0000 52.4494 0.0000
# 6 0.0000 0.0000 0.0000 11.8614 0.0000 33.0647
#
#
#
# Elastic Compliance Matrix: (Units=1/GPa)
#
#
# Indices 1 2 3 4 5 6 
#
# 1 0.010635 -0.001505 -0.000243 0.000000 0.009269 0.000000
# 2 -0.001505 0.017922 -0.001371 0.000000 0.002452 0.000000
# 3 -0.000243 -0.001371 0.008717 0.000000 0.006634 0.000000
# 4 0.000000 0.000000 0.000000 0.021363 0.000000 -0.007664
# 5 0.009269 0.002452 0.006634 0.000000 0.033878 0.000000
# 6 0.000000 0.000000 0.000000 -0.007664 0.000000 0.032993
#
#
# Mechanical properties :
#
#
# Convention : Reuss Voigt Hill
#
# Bulk Modulus (GPa) = 32.21903 58.86795 45.54349
# Shear Modulus (GPa) = 35.18871 45.09368 40.14120
#
# Velocity S-wave (km/s) = 3.45628 3.91260 3.69149
# Velocity P-wave (km/s) = 5.18320 6.35576 5.79919
#
# Compressibility (1/GPa) = 0.03103756
#
# Stress axis : x y z
#
# Youngs Moduli (GPa) = 94.02714 55.79676 114.72071
#
# Poissons Ratio (x) = 0.08398 0.02783
# Poissons Ratio (y) = 0.14152 0.15723
# Poissons Ratio (z) = 0.02281 0.07647
#
# Static dielectric constant tensor:
#      x y z
#    x 2.430360 0.000000 0.120180 
#    y 0.000000 2.341250 0.000000 
#    z 0.120180 0.000000 2.258750 
# 
# From -- ./inp_files/22613.got.cif
#   From: 2010.05.17/outbox.cif.g08.bks.cpg/sg14_12_cif.got.tgz:22613.got - 2010.06.03 17:49:19.
