data_PCOD9245722
_publ_section_title
;
Structure prediction by ZEFSAII (Michael W. Deem and Ramdas Pophale) SiO2 
 PCOD9245722
Probable space group: P 21/C
;
_chemical_formula_sum "Si O2"
_cell_formula_units_Z 32
_cell_length_a 7.462540
_cell_length_b 33.783198
_cell_length_c 5.126814
_cell_angle_alpha 90.000000
_cell_angle_beta 90.845702
_cell_angle_gamma 90.000000
_cell_volume 1292.372420
_symmetry_space_group_name_H-M "P 21/C"
_symmetry_group_IT_number 14
_symmetry_cell_setting 'monoclinic'
loop_
_space_group_symop_operation_xyz
x,y,z
-x,1/2+y,1/2-z
-x,-y,-z
x,1/2-y,1/2+z
loop_
_atom_site_type_symbol
_atom_site_label
_atom_site_fract_x
_atom_site_fract_y
_atom_site_fract_z
Si Si1 0.819977 0.892182 0.722699
Si Si2 0.379637 0.725669 0.357837
Si Si3 0.071647 0.152386 0.771080
Si Si4 0.380107 0.009264 0.751644
Si Si5 0.188279 0.229621 0.084869
Si Si6 0.487471 0.089808 0.616681
Si Si7 0.696576 0.139885 0.959953
Si Si8 0.176338 0.566597 0.174850
O O1 0.615872 0.902988 0.655818
O O2 0.856915 0.856889 0.514628
O O3 0.966298 0.925114 0.640186
O O4 0.862449 0.880268 0.016927
O O5 0.314999 0.751075 0.603201
O O6 0.596075 0.727643 0.383854
O O7 0.328846 0.679532 0.372232
O O8 0.857314 0.149766 0.765487
O O9 0.127819 0.191772 0.921758
O O10 0.216101 0.978632 0.756142
O O11 0.500000 0.000000 0.500000
O O12 0.364878 0.056439 0.747262
O O13 0.500000 0.000000 0.000000
O O14 0.128871 0.235797 0.381360
O O15 0.521980 0.128560 0.788626
O O16 0.688425 0.073706 0.565185
O O17 0.756049 0.101398 0.127450
#
# Coordination Sequence:
#
# PCOD9245722 Si02
#       8
#     4   4   4   4   4   4   4   4
#     4  11  25  39  64  95 131 166 223 263 315 384
#     4  10  24  39  59  93 123 161 213 265 315 382
#     4  11  24  42  60  95 127 164 215 274 313 385
#     4  10  21  39  66  94 132 169 216 266 322 382
#     4  10  21  39  60  84 123 162 204 264 327 379
#     4  11  23  40  69  95 127 181 214 263 334 377
#     4  11  23  40  69  88 133 169 215 267 323 385
#     4  10  23  43  63  98 135 167 221 269 321 385
#
# _framework density 24.760662
#
# number of rings (size 3 to 8) (size 9 to 14) (size 15 to 20)
#    0.000    1.500    2.500    1.500    5.250    2.500 
#    0.000    0.000    0.000    5.250    0.000    0.000 
#    0.000    0.000    0.000    0.000    0.000    0.000 
#
# Total GULP energy -178895.242347 kJ/mol
# GULP energy per Si atom -5590.476323 kJ/mol
# Density = 2.470431 g / cm^3
# Si number density = 24.760662 Si / 1000 Ang^3
#
#
#
# Elastic Constant Matrix: (Units=GPa)
#
#
# Indices 1 2 3 4 5 6 
#
# 1 78.3678 -6.4917 18.9866 0.0000 1.4083 0.0000
# 2 -6.4917 64.7590 21.8259 0.0000 -7.8303 0.0000
# 3 18.9866 21.8259 92.0011 0.0000 8.9560 0.0000
# 4 0.0000 0.0000 0.0000 33.0608 0.0000 4.5589
# 5 1.4083 -7.8303 8.9560 0.0000 19.4304 0.0000
# 6 0.0000 0.0000 0.0000 4.5589 0.0000 26.5089
#
#
#
# Elastic Compliance Matrix: (Units=1/GPa)
#
#
# Indices 1 2 3 4 5 6 
#
# 1 0.013867 0.002872 -0.003725 0.000000 0.001869 0.000000
# 2 0.002872 0.019031 -0.006108 0.000000 0.010276 0.000000
# 3 -0.003725 -0.006108 0.013925 0.000000 -0.008610 0.000000
# 4 0.000000 0.000000 0.000000 0.030982 0.000000 -0.005328
# 5 0.001869 0.010276 -0.008610 0.000000 0.059440 0.000000
# 6 0.000000 0.000000 0.000000 -0.005328 0.000000 0.038639
#
#
# Mechanical properties :
#
#
# Convention : Reuss Voigt Hill
#
# Bulk Modulus (GPa) = 30.39441 33.75216 32.07329
# Shear Modulus (GPa) = 24.90359 29.18715 27.04537
#
# Velocity S-wave (km/s) = 3.17483 3.43705 3.30854
# Velocity P-wave (km/s) = 5.07359 5.42329 5.25135
#
# Compressibility (1/GPa) = 0.03290079
#
# Stress axis : x y z
#
# Youngs Moduli (GPa) = 72.11319 52.54638 71.81173
#
# Poissons Ratio (x) = -0.15089 0.26750
# Poissons Ratio (y) = -0.20708 0.43861
# Poissons Ratio (z) = 0.26862 0.32094
#
# Static dielectric constant tensor:
#      x y z
#    x 1.951940 0.000000 -0.033110 
#    y 0.000000 2.075930 0.000000 
#    z -0.033110 0.000000 1.981770 
# 
# From -- ./inp_files/2231.got.cif
#   From: 2010.05.17/outbox.cif.g08.bks.cpg/sg14_2_cif.got.tgz:2231.got - 2010.06.03 17:49:19.
