data_PCOD9245971
_publ_section_title
;
Structure prediction by ZEFSAII (Michael W. Deem and Ramdas Pophale) SiO2 
 PCOD9245971
Probable space group: P 21/C
;
_chemical_formula_sum "Si O2"
_cell_formula_units_Z 24
_cell_length_a 9.340390
_cell_length_b 7.726608
_cell_length_c 13.807568
_cell_angle_alpha 90.000000
_cell_angle_beta 76.099095
_cell_angle_gamma 90.000000
_cell_volume 967.301333
_symmetry_space_group_name_H-M "P 21/C"
_symmetry_group_IT_number 14
_symmetry_cell_setting 'monoclinic'
loop_
_space_group_symop_operation_xyz
x,y,z
-x,1/2+y,1/2-z
-x,-y,-z
x,1/2-y,1/2+z
loop_
_atom_site_type_symbol
_atom_site_label
_atom_site_fract_x
_atom_site_fract_y
_atom_site_fract_z
Si Si1 0.970118 0.889128 0.743465
Si Si2 0.182859 0.795192 0.318291
Si Si3 0.431661 0.961660 0.772375
Si Si4 0.236168 0.106962 0.977340
Si Si5 0.329473 0.249017 0.163985
Si Si6 0.922483 0.255731 0.967102
O O1 0.840398 0.747392 0.774360
O O2 0.072605 0.868889 0.820036
O O3 0.070574 0.859344 0.633443
O O4 0.881705 0.065027 0.743772
O O5 0.341369 0.717470 0.274179
O O6 0.155110 0.856667 0.431826
O O7 0.587979 0.899941 0.787321
O O8 0.411914 0.074417 0.679123
O O9 0.347065 0.066983 0.871235
O O10 0.319520 0.198323 0.053106
O O11 0.171375 0.921507 0.023369
O O12 0.092407 0.213760 0.966986
#
# Coordination Sequence:
#
# PCOD9245971 Si02
#       6
#     4   4   4   4   4   4
#     4  12  22  39  67  96 129 169 210 269 316 380
#     4  11  24  40  64  97 128 165 214 264 325 378
#     4  11  25  44  64  94 130 171 215 268 320 386
#     4  10  21  41  67  93 129 173 210 263 325 377
#     4  12  23  41  66  91 129 172 216 257 324 382
#     4  10  21  39  66  97 127 166 216 262 319 376
#
# _framework density 24.811295999999999
#
# number of rings (size 3 to 8) (size 9 to 14) (size 15 to 20)
#    0.000    1.000    3.333    4.000    2.333    0.000 
#    0.000    0.833    0.000    0.000    0.000    0.000 
#    0.000    0.000    0.000    0.000    0.000    0.000 
#
# Total GULP energy -134388.578237 kJ/mol
# GULP energy per Si atom -5599.524093 kJ/mol
# Density = 2.475482 g / cm^3
# Si number density = 24.811296 Si / 1000 Ang^3
#
#
#
# Elastic Constant Matrix: (Units=GPa)
#
#
# Indices 1 2 3 4 5 6 
#
# 1 118.7955 8.0464 8.2837 0.0000 8.9785 0.0000
# 2 8.0464 58.8329 18.5272 0.0000 6.9216 0.0000
# 3 8.2837 18.5272 85.9283 0.0000 26.2589 0.0000
# 4 0.0000 0.0000 0.0000 33.9333 0.0000 10.4728
# 5 8.9785 6.9216 26.2589 0.0000 21.9884 0.0000
# 6 0.0000 0.0000 0.0000 10.4728 0.0000 34.6164
#
#
#
# Elastic Compliance Matrix: (Units=1/GPa)
#
#
# Indices 1 2 3 4 5 6 
#
# 1 0.008739 -0.000907 0.000561 0.000000 -0.003953 0.000000
# 2 -0.000907 0.018367 -0.003494 0.000000 -0.001239 0.000000
# 3 0.000561 -0.003494 0.019007 0.000000 -0.021828 0.000000
# 4 0.000000 0.000000 0.000000 0.032505 0.000000 -0.009834
# 5 -0.003953 -0.001239 -0.021828 0.000000 0.073550 0.000000
# 6 0.000000 0.000000 0.000000 -0.009834 0.000000 0.031863
#
#
# Mechanical properties :
#
#
# Convention : Reuss Voigt Hill
#
# Bulk Modulus (GPa) = 26.01900 37.03014 31.52457
# Shear Modulus (GPa) = 24.44718 33.35426 28.90072
#
# Velocity S-wave (km/s) = 3.14239 3.67047 3.41665
# Velocity P-wave (km/s) = 4.86577 5.73762 5.31958
#
# Compressibility (1/GPa) = 0.03843346
#
# Stress axis : x y z
#
# Youngs Moduli (GPa) = 114.43107 54.44421 52.61118
#
# Poissons Ratio (x) = 0.04937 -0.02952
# Poissons Ratio (y) = 0.10377 0.18384
# Poissons Ratio (z) = -0.06420 0.19025
#
# Static dielectric constant tensor:
#      x y z
#    x 1.919130 0.000000 -0.011290 
#    y 0.000000 2.072220 0.000000 
#    z -0.011290 0.000000 1.924310 
# 
# From -- ./inp_files/38916.got.cif
#   From: 2010.05.17/outbox.cif.g08.bks.cpg/sg14_20_cif.got.tgz:38916.got - 2010.06.03 17:49:19.
