data_PCOD9245876
_publ_section_title
;
Structure prediction by ZEFSAII (Michael W. Deem and Ramdas Pophale) SiO2 
 PCOD9245876
Probable space group: P 21/C
;
_chemical_formula_sum "Si O2"
_cell_formula_units_Z 24
_cell_length_a 23.064557
_cell_length_b 7.285142
_cell_length_c 16.747846
_cell_angle_alpha 90.000000
_cell_angle_beta 158.695511
_cell_angle_gamma 90.000000
_cell_volume 1022.436757
_symmetry_space_group_name_H-M "P 21/C"
_symmetry_group_IT_number 14
_symmetry_cell_setting 'monoclinic'
loop_
_space_group_symop_operation_xyz
x,y,z
-x,1/2+y,1/2-z
-x,-y,-z
x,1/2-y,1/2+z
loop_
_atom_site_type_symbol
_atom_site_label
_atom_site_fract_x
_atom_site_fract_y
_atom_site_fract_z
Si Si1 0.855287 0.282134 0.661095
Si Si2 0.492716 0.571451 0.832042
Si Si3 0.138740 0.854711 0.658610
Si Si4 0.456686 0.078636 0.029094
Si Si5 0.650396 0.687718 0.876685
Si Si6 0.992593 0.163189 0.673924
O O1 0.680595 0.364759 0.421671
O O2 0.856348 0.224836 0.755967
O O3 0.976533 0.452450 0.808037
O O4 0.908781 0.167934 0.652410
O O5 0.617386 0.645117 0.926656
O O6 0.466488 0.353598 0.803086
O O7 0.537122 0.700333 0.963489
O O8 0.104493 0.762388 0.528154
O O9 0.295097 0.982538 0.851674
O O10 0.000000 0.000000 0.500000
O O11 0.592584 0.997062 0.260800
O O12 0.500000 0.000000 0.000000
O O13 0.832623 0.744384 0.097411
#
# Coordination Sequence:
#
# PCOD9245876 Si02
#       6
#     4   4   4   4   4   4
#     4  10  21  39  64  91 130 169 218 278 330 400
#     4  11  21  42  66  95 133 172 225 276 333 407
#     4  10  21  42  65  95 128 173 224 267 337 400
#     4  12  25  41  72  97 133 181 221 279 344 396
#     4  11  23  41  67 100 128 177 224 270 341 401
#     4  10  23  39  65  93 127 172 222 271 336 402
#
# _framework density 23.473334000000001
#
# number of rings (size 3 to 8) (size 9 to 14) (size 15 to 20)
#    0.000    1.333    3.333    3.000    7.000    0.667 
#    0.000    0.833    0.000    0.000    0.000    0.000 
#    0.000    0.000    0.000    0.000    0.000    0.000 
#
# Total GULP energy -133956.791067 kJ/mol
# GULP energy per Si atom -5581.532961 kJ/mol
# Density = 2.341991 g / cm^3
# Si number density = 23.473334 Si / 1000 Ang^3
#
#
#
# Elastic Constant Matrix: (Units=GPa)
#
#
# Indices 1 2 3 4 5 6 
#
# 1 137.5209 23.9144 39.0295 0.0000 3.6385 0.0000
# 2 23.9144 82.9496 4.4498 0.0000 10.5825 0.0000
# 3 39.0295 4.4498 80.8084 0.0000 20.2577 0.0000
# 4 0.0000 0.0000 0.0000 27.7483 0.0000 1.1466
# 5 3.6385 10.5825 20.2577 0.0000 29.5497 0.0000
# 6 0.0000 0.0000 0.0000 1.1466 0.0000 30.8337
#
#
#
# Elastic Compliance Matrix: (Units=1/GPa)
#
#
# Indices 1 2 3 4 5 6 
#
# 1 0.009111 -0.002783 -0.005091 0.000000 0.003365 0.000000
# 2 -0.002783 0.013502 0.002085 0.000000 -0.005922 0.000000
# 3 -0.005091 0.002085 0.017810 0.000000 -0.012329 0.000000
# 4 0.000000 0.000000 0.000000 0.036094 0.000000 -0.001342
# 5 0.003365 -0.005922 -0.012329 0.000000 0.044000 0.000000
# 6 0.000000 0.000000 0.000000 -0.001342 0.000000 0.032482
#
#
# Mechanical properties :
#
#
# Convention : Reuss Voigt Hill
#
# Bulk Modulus (GPa) = 34.66757 48.45180 41.55968
# Shear Modulus (GPa) = 28.70411 33.21871 30.96141
#
# Velocity S-wave (km/s) = 3.50071 3.76595 3.63575
# Velocity P-wave (km/s) = 5.58040 6.29253 5.94713
#
# Compressibility (1/GPa) = 0.02884540
#
# Stress axis : x y z
#
# Youngs Moduli (GPa) = 109.75257 74.06568 56.14876
#
# Poissons Ratio (x) = 0.20612 0.28585
# Poissons Ratio (y) = 0.30544 -0.11709
# Poissons Ratio (z) = 0.55875 -0.15445
#
# Static dielectric constant tensor:
#      x y z
#    x 1.922060 0.000000 -0.048520 
#    y 0.000000 1.983390 0.000000 
#    z -0.048520 0.000000 1.923650 
# 
# From -- ./inp_files/61816.got.cif
#   From: 2010.05.17/outbox.cif.g08.bks.cpg/sg14_31_cif.got.tgz:61816.got - 2010.06.03 17:49:19.
