data_PCOD9245840
_publ_section_title
;
Structure prediction by ZEFSAII (Michael W. Deem and Ramdas Pophale) SiO2 
 PCOD9245840
Probable space group: P 21/C
;
_chemical_formula_sum "Si O2"
_cell_formula_units_Z 20
_cell_length_a 8.054199
_cell_length_b 20.921674
_cell_length_c 4.945669
_cell_angle_alpha 90.000000
_cell_angle_beta 85.232168
_cell_angle_gamma 90.000000
_cell_volume 830.497693
_symmetry_space_group_name_H-M "P 21/C"
_symmetry_group_IT_number 14
_symmetry_cell_setting 'monoclinic'
loop_
_space_group_symop_operation_xyz
x,y,z
-x,1/2+y,1/2-z
-x,-y,-z
x,1/2-y,1/2+z
loop_
_atom_site_type_symbol
_atom_site_label
_atom_site_fract_x
_atom_site_fract_y
_atom_site_fract_z
Si Si1 0.457040 0.787448 0.136338
Si Si2 0.731819 0.409195 0.187544
Si Si3 0.946253 0.564044 0.669843
Si Si4 0.638737 0.483609 0.705588
Si Si5 0.146211 0.294738 0.406264
O O1 0.430598 0.725005 0.324512
O O2 0.335090 0.838571 0.283141
O O3 0.652683 0.804965 0.132743
O O4 0.728819 0.431089 0.501640
O O5 0.924761 0.425699 0.098397
O O6 0.615734 0.447993 0.994212
O O7 0.756005 0.543759 0.759187
O O8 0.933919 0.635404 0.546903
O O9 0.000000 0.500000 0.500000
O O10 0.500000 0.500000 0.500000
O O11 0.102686 0.242993 0.639821
#
# Coordination Sequence:
#
# PCOD9245840 Si02
#       5
#     4   4   4   4   4
#     4  10  21  39  63  92 127 171 220 269 325 397
#     4  11  23  39  61  92 126 162 209 268 324 379
#     4  10  24  43  66  98 136 174 219 275 335 397
#     4  11  23  40  63  90 123 168 214 263 318 383
#     4  10  23  41  64  92 127 171 219 269 327 396
#
# _framework density 24.081944
#
# number of rings (size 3 to 8) (size 9 to 14) (size 15 to 20)
#    0.000    1.600    0.000    3.600    0.000   11.200 
#    0.000    0.000    0.000    0.000    0.000    0.000 
#    0.000    0.000    0.000    0.000    0.000    0.000 
#
# Total GULP energy -111416.083828 kJ/mol
# GULP energy per Si atom -5570.804191 kJ/mol
# Density = 2.402713 g / cm^3
# Si number density = 24.081944 Si / 1000 Ang^3
#
#
#
# Elastic Constant Matrix: (Units=GPa)
#
#
# Indices 1 2 3 4 5 6 
#
# 1 103.9811 57.0667 27.9710 0.0000 23.5590 0.0000
# 2 57.0667 141.0780 20.9429 0.0000 -0.1152 0.0000
# 3 27.9710 20.9429 117.3971 0.0000 6.3105 0.0000
# 4 0.0000 0.0000 0.0000 29.5171 0.0000 -11.0246
# 5 23.5590 -0.1152 6.3105 0.0000 21.0974 0.0000
# 6 0.0000 0.0000 0.0000 -11.0246 0.0000 34.0464
#
#
#
# Elastic Compliance Matrix: (Units=1/GPa)
#
#
# Indices 1 2 3 4 5 6 
#
# 1 0.018828 -0.007324 -0.002081 0.000000 -0.020442 0.000000
# 2 -0.007324 0.010134 -0.000514 0.000000 0.008387 0.000000
# 3 -0.002081 -0.000514 0.009127 0.000000 -0.000410 0.000000
# 4 0.000000 0.000000 0.000000 0.038540 0.000000 0.012480
# 5 -0.020442 0.008387 -0.000410 0.000000 0.070395 0.000000
# 6 0.000000 0.000000 0.000000 0.012480 0.000000 0.033413
#
#
# Mechanical properties :
#
#
# Convention : Reuss Voigt Hill
#
# Bulk Modulus (GPa) = 54.78520 63.82415 59.30468
# Shear Modulus (GPa) = 24.22983 34.03055 29.13019
#
# Velocity S-wave (km/s) = 3.17541 3.76322 3.48174
# Velocity P-wave (km/s) = 6.02023 6.74113 6.39086
#
# Compressibility (1/GPa) = 0.01825310
#
# Stress axis : x y z
#
# Youngs Moduli (GPa) = 53.11289 98.67884 109.55940
#
# Poissons Ratio (x) = 0.72270 0.22794
# Poissons Ratio (y) = 0.38899 0.05628
# Poissons Ratio (z) = 0.11050 0.05069
#
# Static dielectric constant tensor:
#      x y z
#    x 2.488260 0.000000 -0.226630 
#    y 0.000000 1.891540 0.000000 
#    z -0.226630 0.000000 1.968230 
# 
# From -- ./inp_files/1154.got.cif
#   From: 2010.05.17/outbox.cif.g08.bks.cpg/sg14_1_cif.got.tgz:1154.got - 2010.06.03 17:49:19.
