data_PCOD9245769
_publ_section_title
;
Structure prediction by ZEFSAII (Michael W. Deem and Ramdas Pophale) SiO2 
 PCOD9245769
Probable space group: P 21/C
;
_chemical_formula_sum "Si O2"
_cell_formula_units_Z 32
_cell_length_a 14.436219
_cell_length_b 11.486573
_cell_length_c 13.310843
_cell_angle_alpha 90.000000
_cell_angle_beta 141.367781
_cell_angle_gamma 90.000000
_cell_volume 1378.021616
_symmetry_space_group_name_H-M "P 21/C"
_symmetry_group_IT_number 14
_symmetry_cell_setting 'monoclinic'
loop_
_space_group_symop_operation_xyz
x,y,z
-x,1/2+y,1/2-z
-x,-y,-z
x,1/2-y,1/2+z
loop_
_atom_site_type_symbol
_atom_site_label
_atom_site_fract_x
_atom_site_fract_y
_atom_site_fract_z
Si Si1 0.659910 0.678030 0.986342
Si Si2 0.137829 0.502631 0.490107
Si Si3 0.387355 0.943102 0.667083
Si Si4 0.623282 0.670416 0.265557
Si Si5 0.640919 0.214997 0.178297
Si Si6 0.052007 0.681740 0.583082
Si Si7 0.674328 0.475178 0.541034
Si Si8 0.198983 0.193127 0.731356
O O1 0.674467 0.556720 0.940327
O O2 0.669976 0.778754 0.912397
O O3 0.498907 0.705501 0.903428
O O4 0.787860 0.705803 0.173566
O O5 0.278220 0.444339 0.668391
O O6 0.064011 0.598945 0.496088
O O7 0.204294 0.552070 0.443041
O O8 0.025084 0.392801 0.393764
O O9 0.454014 0.863974 0.634089
O O10 0.306691 0.858778 0.677698
O O11 0.529404 0.985119 0.854792
O O12 0.667380 0.770520 0.228278
O O13 0.780255 0.285434 0.255579
O O14 0.617739 0.120532 0.071285
O O15 0.947634 0.789372 0.459727
O O16 0.756174 0.574234 0.677085
#
# Coordination Sequence:
#
# PCOD9245769 Si02
#       8
#     4   4   4   4   4   4   4   4
#     4  11  22  39  65  92 128 167 210 256 330 375
#     4   9  19  43  62  81 127 170 206 254 324 386
#     4  10  21  39  61  91 133 168 208 265 319 377
#     4   9  19  37  62  86 122 165 204 259 311 382
#     4  11  22  38  65 100 124 163 221 271 312 379
#     4  10  23  41  65  91 125 169 215 268 316 384
#     4  11  21  39  65  94 124 171 210 263 331 379
#     4  11  22  40  64  89 124 174 209 251 334 384
#
# _framework density 23.221699000000001
#
# number of rings (size 3 to 8) (size 9 to 14) (size 15 to 20)
#    0.000    1.750    3.750    2.625    1.750    2.000 
#    2.250    0.000    0.000    0.000    0.000    0.000 
#    0.000    0.000    0.000    0.000    0.000    0.000 
#
# Total GULP energy -178458.583745 kJ/mol
# GULP energy per Si atom -5576.830742 kJ/mol
# Density = 2.316885 g / cm^3
# Si number density = 23.221699 Si / 1000 Ang^3
#
#
#
# Elastic Constant Matrix: (Units=GPa)
#
#
# Indices 1 2 3 4 5 6 
#
# 1 30.1578 36.9888 4.6580 0.0000 -1.8333 0.0000
# 2 36.9888 7.3750 -5.4416 0.0000 12.5782 0.0000
# 3 4.6580 -5.4416 35.5279 0.0000 4.3498 0.0000
# 4 0.0000 0.0000 0.0000 29.2824 0.0000 4.8895
# 5 -1.8333 12.5782 4.3498 0.0000 17.9187 0.0000
# 6 0.0000 0.0000 0.0000 4.8895 0.0000 25.7505
#
#
#
# Elastic Compliance Matrix: (Units=1/GPa)
#
#
# Indices 1 2 3 4 5 6 
#
# 1 0.002129 0.023722 0.005531 0.000000 -0.017777 0.000000
# 2 0.023722 -0.017530 -0.007832 0.000000 0.016634 0.000000
# 3 0.005531 -0.007832 0.026260 0.000000 -0.000311 0.000000
# 4 0.000000 0.000000 0.000000 0.035268 0.000000 -0.006697
# 5 -0.017777 0.016634 -0.000311 0.000000 0.042388 0.000000
# 6 0.000000 0.000000 0.000000 -0.006697 0.000000 0.040106
#
#
# Mechanical properties :
#
#
# Convention : Reuss Voigt Hill
#
# Bulk Modulus (GPa) = 18.62173 16.16346 17.39260
# Shear Modulus (GPa) = 48.22555 17.04736 32.63646
#
# Velocity S-wave (km/s) = 4.56208 2.71239 3.75297
# Velocity P-wave (km/s) = 5.98219 4.09695 5.12697
#
# Compressibility (1/GPa) = 0.05370070
#
# Stress axis : x y z
#
# Youngs Moduli (GPa) = 469.73514 -57.04378 38.08021
#
# Poissons Ratio (x) = 1.35319 -0.21061
# Poissons Ratio (y) = -11.14304 0.29823
# Poissons Ratio (z) = -2.59796 -0.44675
#
# Static dielectric constant tensor:
#      x y z
#    x 1.915980 0.000000 -0.018750 
#    y 0.000000 1.934380 0.000000 
#    z -0.018750 0.000000 1.891400 
# 
# From -- ./inp_files/47162.got.cif
#   From: 2010.05.17/outbox.cif.g08.bks.cpg/sg14_24_cif.got.tgz:47162.got - 2010.06.03 17:49:19.
