data_PCOD9245643
_publ_section_title
;
Structure prediction by ZEFSAII (Michael W. Deem and Ramdas Pophale) SiO2 
 PCOD9245643
Probable space group: P 21/C
;
_chemical_formula_sum "Si O2"
_cell_formula_units_Z 24
_cell_length_a 7.045621
_cell_length_b 10.433708
_cell_length_c 18.327962
_cell_angle_alpha 90.000000
_cell_angle_beta 43.996904
_cell_angle_gamma 90.000000
_cell_volume 935.877708
_symmetry_space_group_name_H-M "P 21/C"
_symmetry_group_IT_number 14
_symmetry_cell_setting 'monoclinic'
loop_
_space_group_symop_operation_xyz
x,y,z
-x,1/2+y,1/2-z
-x,-y,-z
x,1/2-y,1/2+z
loop_
_atom_site_type_symbol
_atom_site_label
_atom_site_fract_x
_atom_site_fract_y
_atom_site_fract_z
Si Si1 0.160578 0.256951 0.650476
Si Si2 0.525323 0.880164 0.049186
Si Si3 0.259931 0.900283 0.829592
Si Si4 0.020025 0.978019 0.267183
Si Si5 0.003433 0.353079 0.458471
Si Si6 0.877267 0.567126 0.105605
O O1 0.415563 0.269944 0.524930
O O2 0.092817 0.381521 0.718618
O O3 0.902646 0.286029 0.665557
O O4 0.216672 0.126592 0.679585
O O5 0.260066 0.887507 0.170821
O O6 0.761400 0.867852 0.044598
O O7 0.500000 0.000000 0.000000
O O8 0.547757 0.925558 0.711016
O O9 0.079950 0.033367 0.880420
O O10 0.265421 0.869113 0.915420
O O11 0.011729 0.992275 0.355709
O O12 0.025867 0.214135 0.419738
O O13 0.000000 0.500000 0.000000
#
# Coordination Sequence:
#
# PCOD9245643 Si02
#       6
#     4   4   4   4   4   4
#     4  10  23  41  67  92 130 167 219 269 331 386
#     4   9  18  39  66  91 127 172 210 260 331 390
#     4  10  22  41  65  93 130 169 217 270 321 394
#     4  11  23  43  63  95 130 171 214 274 325 391
#     4  10  21  38  66  96 127 170 222 265 330 389
#     4  12  25  40  67  97 133 173 220 274 327 383
#
# _framework density 25.644379000000001
#
# number of rings (size 3 to 8) (size 9 to 14) (size 15 to 20)
#    0.000    1.667    1.667    3.000    4.667    0.000 
#    0.000    3.333    0.000    0.000    0.000    0.000 
#    0.000    0.000    0.000    0.000    0.000    0.000 
#
# Total GULP energy -133690.430599 kJ/mol
# GULP energy per Si atom -5570.434608 kJ/mol
# Density = 2.558601 g / cm^3
# Si number density = 25.644379 Si / 1000 Ang^3
#
#
#
# Elastic Constant Matrix: (Units=GPa)
#
#
# Indices 1 2 3 4 5 6 
#
# 1 52.6506 7.1815 3.5578 0.0000 7.2520 0.0000
# 2 7.1815 150.0433 48.3616 0.0000 11.3121 0.0000
# 3 3.5578 48.3616 149.4858 0.0000 15.5323 0.0000
# 4 0.0000 0.0000 0.0000 38.9190 0.0000 9.8755
# 5 7.2520 11.3121 15.5323 0.0000 34.6812 0.0000
# 6 0.0000 0.0000 0.0000 9.8755 0.0000 19.7213
#
#
#
# Elastic Compliance Matrix: (Units=1/GPa)
#
#
# Indices 1 2 3 4 5 6 
#
# 1 0.019621 -0.000696 0.000169 0.000000 -0.003951 0.000000
# 2 -0.000696 0.007532 -0.002286 0.000000 -0.001287 0.000000
# 3 0.000169 -0.002286 0.007710 0.000000 -0.002743 0.000000
# 4 0.000000 0.000000 0.000000 0.029434 0.000000 -0.014739
# 5 -0.003951 -0.001287 -0.002743 0.000000 0.031308 0.000000
# 6 0.000000 0.000000 0.000000 -0.014739 0.000000 0.058087
#
#
# Mechanical properties :
#
#
# Convention : Reuss Voigt Hill
#
# Bulk Modulus (GPa) = 34.20395 52.26463 43.23429
# Shear Modulus (GPa) = 29.57429 38.20289 33.88859
#
# Velocity S-wave (km/s) = 3.39963 3.86387 3.63916
# Velocity P-wave (km/s) = 5.36440 6.35065 5.87825
#
# Compressibility (1/GPa) = 0.02923639
#
# Stress axis : x y z
#
# Youngs Moduli (GPa) = 50.96615 132.76593 129.69714
#
# Poissons Ratio (x) = 0.09235 -0.02187
# Poissons Ratio (y) = 0.03545 0.29655
# Poissons Ratio (z) = -0.00859 0.30356
#
# Static dielectric constant tensor:
#      x y z
#    x 2.121930 0.000000 -0.030580 
#    y 0.000000 2.217230 0.000000 
#    z -0.030580 0.000000 2.129530 
# 
# From -- ./inp_files/65316.got.cif
#   From: 2010.05.17/outbox.cif.g08.bks.cpg/sg14_33_cif.got.tgz:65316.got - 2010.06.03 17:49:19.
