data_PCOD9245624
_publ_section_title
;
Structure prediction by ZEFSAII (Michael W. Deem and Ramdas Pophale) SiO2 
 PCOD9245624
Probable space group: P 21/C
;
_chemical_formula_sum "Si O2"
_cell_formula_units_Z 26
_cell_length_a 12.469589
_cell_length_b 17.199554
_cell_length_c 10.572604
_cell_angle_alpha 90.000000
_cell_angle_beta 155.119249
_cell_angle_gamma 90.000000
_cell_volume 954.016455
_symmetry_space_group_name_H-M "P 21/C"
_symmetry_group_IT_number 14
_symmetry_cell_setting 'monoclinic'
loop_
_space_group_symop_operation_xyz
x,y,z
-x,1/2+y,1/2-z
-x,-y,-z
x,1/2-y,1/2+z
loop_
_atom_site_type_symbol
_atom_site_label
_atom_site_fract_x
_atom_site_fract_y
_atom_site_fract_z
Si Si1 0.500000 0.500000 0.500000
Si Si2 0.696369 0.854579 0.092840
Si Si3 0.356781 0.197963 0.407794
Si Si4 0.851430 0.568574 0.190473
Si Si5 0.142535 0.887543 0.772964
Si Si6 0.708600 0.412602 0.128525
Si Si7 0.037336 0.718411 0.733287
O O1 0.445747 0.436109 0.555096
O O2 0.618160 0.428391 0.535941
O O3 0.516388 0.781968 0.944052
O O4 0.842940 0.813961 0.131406
O O5 0.928467 0.876674 0.436497
O O6 0.283904 0.152431 0.457401
O O7 0.496869 0.131102 0.481016
O O8 0.115595 0.219302 0.063315
O O9 0.668772 0.498296 0.032706
O O10 0.004717 0.554880 0.226160
O O11 0.056487 0.577568 0.522528
O O12 0.165519 0.804334 0.871469
O O13 0.768635 0.351795 0.082234
#
# Coordination Sequence:
#
# PCOD9245624 Si02
#       7
#     2   4   4   4   4   4   4
#     4  12  26  42  64 100 128 174 226 268 328 406
#     4  11  24  43  64  94 135 175 220 274 335 398
#     4  10  21  40  64  92 125 171 221 269 329 400
#     4  10  21  40  64  94 132 169 214 279 335 389
#     4  11  24  44  66  93 136 175 214 277 338 397
#     4  10  21  38  65  97 125 168 224 272 327 397
#     4  10  22  42  64  91 132 172 215 270 335 396
#
# _framework density 27.253197
#
# number of rings (size 3 to 8) (size 9 to 14) (size 15 to 20)
#    0.000    1.538    1.538    2.769    0.000    3.692 
#    2.769    0.000    0.000    0.000    0.000    0.000 
#    0.000    0.000    0.000    0.000    0.000    0.000 
#
# Total GULP energy -144869.444595 kJ/mol
# GULP energy per Si atom -5571.901715 kJ/mol
# Density = 2.719117 g / cm^3
# Si number density = 27.253197 Si / 1000 Ang^3
#
#
#
# Elastic Constant Matrix: (Units=GPa)
#
#
# Indices 1 2 3 4 5 6 
#
# 1 126.6011 75.7160 10.3374 0.0000 18.9471 0.0000
# 2 75.7160 217.5994 37.4246 0.0000 24.6826 0.0000
# 3 10.3374 37.4246 56.4947 0.0000 -7.8249 0.0000
# 4 0.0000 0.0000 0.0000 19.4357 0.0000 3.9905
# 5 18.9471 24.6826 -7.8249 0.0000 44.6204 0.0000
# 6 0.0000 0.0000 0.0000 3.9905 0.0000 38.9082
#
#
#
# Elastic Compliance Matrix: (Units=1/GPa)
#
#
# Indices 1 2 3 4 5 6 
#
# 1 0.010237 -0.003261 -0.000067 0.000000 -0.002555 0.000000
# 2 -0.003261 0.006842 -0.004374 0.000000 -0.003167 0.000000
# 3 -0.000067 -0.004374 0.021471 0.000000 0.006214 0.000000
# 4 0.000000 0.000000 0.000000 0.052558 0.000000 -0.005390
# 5 -0.002555 -0.003167 0.006214 0.000000 0.026338 0.000000
# 6 0.000000 0.000000 0.000000 -0.005390 0.000000 0.026254
#
#
# Mechanical properties :
#
#
# Convention : Reuss Voigt Hill
#
# Bulk Modulus (GPa) = 43.20406 71.96124 57.58265
# Shear Modulus (GPa) = 29.97248 39.07402 34.52325
#
# Velocity S-wave (km/s) = 3.31989 3.79058 3.56302
# Velocity P-wave (km/s) = 5.53017 6.75426 6.17264
#
# Compressibility (1/GPa) = 0.02314597
#
# Stress axis : x y z
#
# Youngs Moduli (GPa) = 97.68725 146.16083 46.57358
#
# Poissons Ratio (x) = 0.47658 0.00312
# Poissons Ratio (y) = 0.31853 0.20373
# Poissons Ratio (z) = 0.00654 0.63936
#
# Static dielectric constant tensor:
#      x y z
#    x 2.181300 0.000000 0.003930 
#    y 0.000000 2.133770 0.000000 
#    z 0.003930 0.000000 2.237200 
# 
# From -- ./inp_files/30500.got.cif
#   From: 2010.05.17/outbox.cif.g08.bks.cpg/sg14_16_cif.got.tgz:30500.got - 2010.06.03 17:49:19.
