data_PCOD9245140
_publ_section_title
;
Structure prediction by ZEFSAII (Michael W. Deem and Ramdas Pophale) SiO2 
 PCOD9245140
Probable space group: P 21/C
;
_chemical_formula_sum "Si O2"
_cell_formula_units_Z 28
_cell_length_a 19.013498
_cell_length_b 11.854748
_cell_length_c 8.412829
_cell_angle_alpha 90.000000
_cell_angle_beta 137.966248
_cell_angle_gamma 90.000000
_cell_volume 1269.671212
_symmetry_space_group_name_H-M "P 21/C"
_symmetry_group_IT_number 14
_symmetry_cell_setting 'monoclinic'
loop_
_space_group_symop_operation_xyz
x,y,z
-x,1/2+y,1/2-z
-x,-y,-z
x,1/2-y,1/2+z
loop_
_atom_site_type_symbol
_atom_site_label
_atom_site_fract_x
_atom_site_fract_y
_atom_site_fract_z
Si Si1 0.016149 0.894233 0.232499
Si Si2 0.172407 0.460458 0.791932
Si Si3 0.547766 0.009824 0.823293
Si Si4 0.107365 0.821128 0.696369
Si Si5 0.375270 0.099022 0.761840
Si Si6 0.524856 0.185970 0.526003
Si Si7 0.247010 0.834910 0.221322
O O1 0.029125 0.884349 0.444114
O O2 0.049375 0.779970 0.193822
O O3 0.093064 0.992416 0.293437
O O4 0.900309 0.918144 0.972807
O O5 0.238137 0.566307 0.835173
O O6 0.260130 0.374865 0.002597
O O7 0.442305 0.025516 0.749521
O O8 0.554761 0.125900 0.740926
O O9 0.535940 0.908333 0.679026
O O10 0.635273 0.975358 0.096765
O O11 0.187957 0.768031 0.704877
O O12 0.179742 0.875173 0.954494
O O13 0.449971 0.206612 0.920726
O O14 0.637055 0.202442 0.631793
#
# Coordination Sequence:
#
# PCOD9245140 Si02
#       7
#     4   4   4   4   4   4   4
#     4   9  20  40  63  90 124 158 213 267 314 378
#     4  10  21  41  62  90 127 165 207 264 324 375
#     4  10  24  40  60  88 129 165 216 256 317 381
#     4   9  20  36  62  93 117 161 214 260 316 372
#     4  11  23  40  65  90 127 174 206 265 322 372
#     4  11  23  41  60  93 128 165 218 263 303 397
#     4  10  21  36  64  88 119 165 210 261 310 381
#
# _framework density 22.052952000000001
#
# number of rings (size 3 to 8) (size 9 to 14) (size 15 to 20)
#    0.000    2.000    1.429    0.857    6.000    2.857 
#    5.143    0.000    0.000    0.000    0.000    0.000 
#    0.000    0.000    0.000    0.000    0.000    0.000 
#
# Total GULP energy -156300.568363 kJ/mol
# GULP energy per Si atom -5582.163156 kJ/mol
# Density = 2.200276 g / cm^3
# Si number density = 22.052952 Si / 1000 Ang^3
#
#
#
# Elastic Constant Matrix: (Units=GPa)
#
#
# Indices 1 2 3 4 5 6 
#
# 1 46.5704 11.3630 34.2886 0.0000 -3.6515 0.0000
# 2 11.3630 54.4255 27.0152 0.0000 9.7837 0.0000
# 3 34.2886 27.0152 75.8715 0.0000 17.3737 0.0000
# 4 0.0000 0.0000 0.0000 17.6635 0.0000 -11.8082
# 5 -3.6515 9.7837 17.3737 0.0000 36.8227 0.0000
# 6 0.0000 0.0000 0.0000 -11.8082 0.0000 13.2968
#
#
#
# Elastic Compliance Matrix: (Units=1/GPa)
#
#
# Indices 1 2 3 4 5 6 
#
# 1 0.036980 -0.000345 -0.019564 0.000000 0.012989 0.000000
# 2 -0.000345 0.022519 -0.007270 0.000000 -0.002587 0.000000
# 3 -0.019564 -0.007270 0.027594 0.000000 -0.013028 0.000000
# 4 0.000000 0.000000 0.000000 0.139328 0.000000 0.123729
# 5 0.012989 -0.002587 -0.013028 0.000000 0.035279 0.000000
# 6 0.000000 0.000000 0.000000 0.123729 0.000000 0.185083
#
#
# Mechanical properties :
#
#
# Convention : Reuss Voigt Hill
#
# Bulk Modulus (GPa) = 30.54815 35.80014 33.17414
# Shear Modulus (GPa) = 9.76463 20.50331 15.13397
#
# Velocity S-wave (km/s) = 2.10652 3.05246 2.62249
# Velocity P-wave (km/s) = 4.44959 5.35652 4.92398
#
# Compressibility (1/GPa) = 0.03273521
#
# Stress axis : x y z
#
# Youngs Moduli (GPa) = 27.04170 44.40597 36.24036
#
# Poissons Ratio (x) = 0.01531 0.70901
# Poissons Ratio (y) = 0.00932 0.26347
# Poissons Ratio (z) = 0.52904 0.32284
#
# Static dielectric constant tensor:
#      x y z
#    x 1.790510 0.000000 -0.019100 
#    y 0.000000 1.828660 0.000000 
#    z -0.019100 0.000000 1.875010 
# 
# From -- ./inp_files/18981.got.cif
#   From: 2010.05.17/outbox.cif.g08.bks.cpg/sg14_10_cif.got.tgz:18981.got - 2010.06.03 17:49:19.
