data_PCOD9245048
_publ_section_title
;
Structure prediction by ZEFSAII (Michael W. Deem and Ramdas Pophale) SiO2 
 PCOD9245048
Probable space group: P 21/C
;
_chemical_formula_sum "Si O2"
_cell_formula_units_Z 32
_cell_length_a 11.526953
_cell_length_b 8.163833
_cell_length_c 33.548285
_cell_angle_alpha 90.000000
_cell_angle_beta 25.943626
_cell_angle_gamma 90.000000
_cell_volume 1381.159116
_symmetry_space_group_name_H-M "P 21/C"
_symmetry_group_IT_number 14
_symmetry_cell_setting 'monoclinic'
loop_
_space_group_symop_operation_xyz
x,y,z
-x,1/2+y,1/2-z
-x,-y,-z
x,1/2-y,1/2+z
loop_
_atom_site_type_symbol
_atom_site_label
_atom_site_fract_x
_atom_site_fract_y
_atom_site_fract_z
Si Si1 0.112563 0.048403 0.230980
Si Si2 0.744404 0.684035 0.592680
Si Si3 0.754287 0.653305 0.458189
Si Si4 0.639409 0.883179 0.765987
Si Si5 0.980538 0.111017 0.426439
Si Si6 0.617805 0.203441 0.356813
Si Si7 0.498001 0.196421 0.045440
Si Si8 0.885613 0.259231 0.090862
O O1 0.170934 0.137835 0.254666
O O2 0.812082 0.061164 0.309683
O O3 0.194883 0.860324 0.208971
O O4 0.308569 0.130983 0.138601
O O5 0.553409 0.536547 0.664400
O O6 0.910334 0.748746 0.578309
O O7 0.548902 0.816506 0.632008
O O8 0.950886 0.654642 0.492521
O O9 0.563939 0.737625 0.550088
O O10 0.679779 0.729377 0.438664
O O11 0.688524 0.460142 0.476389
O O12 0.043466 0.685415 0.387522
O O13 0.822733 0.909029 0.671436
O O14 0.423572 0.743407 0.823656
O O15 0.690648 0.159612 0.500302
O O16 0.001504 0.942373 0.443933
#
# Coordination Sequence:
#
# PCOD9245048 Si02
#       8
#     4   4   4   4   4   4   4   4
#     4  10  21  36  58  83 114 154 194 236 291 349
#     4  10  22  42  61  82 119 158 196 239 293 363
#     4   9  20  39  60  83 115 159 199 233 288 356
#     4  11  23  40  60  84 119 158 195 238 296 362
#     4  12  24  37  59  92 120 148 197 256 298 337
#     4   9  20  37  58  84 112 150 193 238 288 345
#     4  10  21  38  60  86 119 157 196 239 291 353
#     4  11  23  39  62  88 115 156 200 242 298 352
#
# _framework density 23.168945000000001
#
# number of rings (size 3 to 8) (size 9 to 14) (size 15 to 20)
#    0.000    1.750    0.000    4.500    0.000    6.500 
#    0.000    1.250    0.000    0.000    0.000    0.000 
#    0.000    0.000    0.000    0.000    0.000    0.000 
#
# Total GULP energy -178948.032668 kJ/mol
# GULP energy per Si atom -5592.126021 kJ/mol
# Density = 2.311621 g / cm^3
# Si number density = 23.168945 Si / 1000 Ang^3
#
#
#
# Elastic Constant Matrix: (Units=GPa)
#
#
# Indices 1 2 3 4 5 6 
#
# 1 124.5071 2.1536 17.4762 0.0000 11.1640 0.0000
# 2 2.1536 41.8860 7.4928 0.0000 0.4817 0.0000
# 3 17.4762 7.4928 67.4008 0.0000 2.4842 0.0000
# 4 0.0000 0.0000 0.0000 1.0196 0.0000 -18.7321
# 5 11.1640 0.4817 2.4842 0.0000 31.7274 0.0000
# 6 0.0000 0.0000 0.0000 -18.7321 0.0000 34.2165
#
#
#
# Elastic Compliance Matrix: (Units=1/GPa)
#
#
# Indices 1 2 3 4 5 6 
#
# 1 0.008585 -0.000030 -0.002118 0.000000 -0.002855 0.000000
# 2 -0.000030 0.024360 -0.002695 0.000000 -0.000148 0.000000
# 3 -0.002118 -0.002695 0.015702 0.000000 -0.000443 0.000000
# 4 0.000000 0.000000 0.000000 -0.108278 0.000000 -0.059278
# 5 -0.002855 -0.000148 -0.000443 0.000000 0.032560 0.000000
# 6 0.000000 0.000000 0.000000 -0.059278 0.000000 -0.003226
#
#
# Mechanical properties :
#
#
# Convention : Reuss Voigt Hill
#
# Bulk Modulus (GPa) = 25.66587 32.00434 28.83511
# Shear Modulus (GPa) = -655.66007 27.17078 -314.24465
#
# Velocity S-wave (km/s) = -16.84058 3.42822 -11.65874
# Velocity P-wave (km/s) = 19.15825 5.43265 12.99086
#
# Compressibility (1/GPa) = 0.03896225
#
# Stress axis : x y z
#
# Youngs Moduli (GPa) = 116.47704 41.05157 63.68782
#
# Poissons Ratio (x) = 0.00122 0.13486
# Poissons Ratio (y) = 0.00347 0.17163
# Poissons Ratio (z) = 0.24665 0.11063
#
# Static dielectric constant tensor:
#      x y z
#    x 1.885840 0.000000 -0.028170 
#    y 0.000000 1.917320 0.000000 
#    z -0.028170 0.000000 1.833280 
# 
# From -- ./inp_files/80000.got.cif
#   From: 2010.05.17/outbox.cif.g08.bks.cpg/sg14_40_cif.got.tgz:80000.got - 2010.06.03 17:49:19.
