data_PCOD9245382
_publ_section_title
;
Structure prediction by ZEFSAII (Michael W. Deem and Ramdas Pophale) SiO2 
 PCOD9245382
Probable space group: P 21/C
;
_chemical_formula_sum "Si O2"
_cell_formula_units_Z 28
_cell_length_a 7.573721
_cell_length_b 6.822644
_cell_length_c 27.468372
_cell_angle_alpha 90.000000
_cell_angle_beta 91.989006
_cell_angle_gamma 90.000000
_cell_volume 1418.512590
_symmetry_space_group_name_H-M "P 21/C"
_symmetry_group_IT_number 14
_symmetry_cell_setting 'monoclinic'
loop_
_space_group_symop_operation_xyz
x,y,z
-x,1/2+y,1/2-z
-x,-y,-z
x,1/2-y,1/2+z
loop_
_atom_site_type_symbol
_atom_site_label
_atom_site_fract_x
_atom_site_fract_y
_atom_site_fract_z
Si Si1 0.804006 0.995107 0.474881
Si Si2 0.442418 0.252794 0.864209
Si Si3 0.245088 0.305672 0.274052
Si Si4 0.139134 0.685063 0.228454
Si Si5 0.660069 0.935072 0.807454
Si Si6 0.479380 0.286092 0.478300
Si Si7 0.759409 0.553274 0.861789
O O1 0.676870 0.823377 0.494074
O O2 0.671924 0.179750 0.483254
O O3 0.826160 0.971370 0.417105
O O4 0.000000 0.000000 0.500000
O O5 0.271549 0.270557 0.828781
O O6 0.424497 0.218255 0.921041
O O7 0.568473 0.442226 0.858730
O O8 0.527860 0.061577 0.839210
O O9 0.239124 0.539145 0.266242
O O10 0.386353 0.206093 0.238988
O O11 0.054311 0.234082 0.254513
O O12 0.132399 0.563727 0.177942
O O13 0.228961 0.889958 0.216144
O O14 0.746982 0.778283 0.845106
O O15 0.500000 0.500000 0.500000
#
# Coordination Sequence:
#
# PCOD9245382 Si02
#       7
#     4   4   4   4   4   4   4
#     4  10  22  41  67  95 129 168 214 269 327 379
#     4  10  23  37  62  87 115 161 206 248 313 374
#     4  11  22  36  55  82 116 156 197 246 301 359
#     4  10  21  38  54  81 119 154 193 249 293 363
#     4  10  21  38  58  80 118 155 197 249 305 362
#     4  10  22  44  64  94 132 165 216 273 320 383
#     4   9  21  40  60  86 119 157 200 257 306 371
#
# _framework density 19.738983999999999
#
# number of rings (size 3 to 8) (size 9 to 14) (size 15 to 20)
#    0.000    2.000    1.429    0.857    8.000    0.571 
#    2.571    0.000    0.000    0.000    0.000    0.000 
#    0.000    0.000    0.000    0.000    0.000    0.000 
#
# Total GULP energy -155995.901627 kJ/mol
# GULP energy per Si atom -5571.282201 kJ/mol
# Density = 1.969406 g / cm^3
# Si number density = 19.738984 Si / 1000 Ang^3
#
#
#
# Elastic Constant Matrix: (Units=GPa)
#
#
# Indices 1 2 3 4 5 6 
#
# 1 70.6682 32.1958 31.0455 0.0000 13.8774 0.0000
# 2 32.1958 120.2813 30.9482 0.0000 11.3814 0.0000
# 3 31.0455 30.9482 108.1767 0.0000 14.2842 0.0000
# 4 0.0000 0.0000 0.0000 24.6852 0.0000 -5.2347
# 5 13.8774 11.3814 14.2842 0.0000 31.1766 0.0000
# 6 0.0000 0.0000 0.0000 -5.2347 0.0000 12.4735
#
#
#
# Elastic Compliance Matrix: (Units=1/GPa)
#
#
# Indices 1 2 3 4 5 6 
#
# 1 0.018343 -0.003494 -0.003571 0.000000 -0.005253 0.000000
# 2 -0.003494 0.009789 -0.001630 0.000000 -0.001272 0.000000
# 3 -0.003571 -0.001630 0.011119 0.000000 -0.002910 0.000000
# 4 0.000000 0.000000 0.000000 0.044467 0.000000 0.018661
# 5 -0.005253 -0.001272 -0.002910 0.000000 0.036211 0.000000
# 6 0.000000 0.000000 0.000000 0.018661 0.000000 0.088002
#
#
# Mechanical properties :
#
#
# Convention : Reuss Voigt Hill
#
# Bulk Modulus (GPa) = 45.74232 54.16723 49.95478
# Shear Modulus (GPa) = 21.49539 27.32950 24.41244
#
# Velocity S-wave (km/s) = 3.30355 3.72498 3.52058
# Velocity P-wave (km/s) = 6.14615 6.78248 6.47214
#
# Compressibility (1/GPa) = 0.02186159
#
# Stress axis : x y z
#
# Youngs Moduli (GPa) = 54.51734 102.15818 89.93212
#
# Poissons Ratio (x) = 0.35694 0.32114
# Poissons Ratio (y) = 0.19048 0.14657
# Poissons Ratio (z) = 0.19468 0.16650
#
# Static dielectric constant tensor:
#      x y z
#    x 1.747940 0.000000 0.024980 
#    y 0.000000 1.708370 0.000000 
#    z 0.024980 0.000000 1.695970 
# 
# From -- ./inp_files/76094.got.cif
#   From: 2010.05.17/outbox.cif.g08.bks.cpg/sg14_39_cif.got.tgz:76094.got - 2010.06.03 17:49:19.
