data_PCOD9245409
_publ_section_title
;
Structure prediction by ZEFSAII (Michael W. Deem and Ramdas Pophale) SiO2 
 PCOD9245409
Probable space group: P 21/C
;
_chemical_formula_sum "Si O2"
_cell_formula_units_Z 32
_cell_length_a 7.875436
_cell_length_b 14.146105
_cell_length_c 15.145001
_cell_angle_alpha 90.000000
_cell_angle_beta 48.112445
_cell_angle_gamma 90.000000
_cell_volume 1256.088289
_symmetry_space_group_name_H-M "P 21/C"
_symmetry_group_IT_number 14
_symmetry_cell_setting 'monoclinic'
loop_
_space_group_symop_operation_xyz
x,y,z
-x,1/2+y,1/2-z
-x,-y,-z
x,1/2-y,1/2+z
loop_
_atom_site_type_symbol
_atom_site_label
_atom_site_fract_x
_atom_site_fract_y
_atom_site_fract_z
Si Si1 0.585927 0.123122 0.496432
Si Si2 0.172060 0.007793 0.709213
Si Si3 0.735598 0.767820 0.838621
Si Si4 0.926479 0.771429 0.956234
Si Si5 0.716269 0.982823 0.790500
Si Si6 0.184142 0.901149 0.405586
Si Si7 0.307243 0.925841 0.840323
Si Si8 0.420201 0.238414 0.791048
O O1 0.736096 0.093847 0.361258
O O2 0.513753 0.230894 0.540451
O O3 0.723722 0.079256 0.530159
O O4 0.335101 0.076200 0.594943
O O5 0.237744 0.999100 0.788360
O O6 0.907784 0.033365 0.785340
O O7 0.742102 0.877972 0.817958
O O8 0.749779 0.724825 0.734474
O O9 0.914139 0.755382 0.855834
O O10 0.972243 0.668667 0.983247
O O11 0.091701 0.856210 0.929842
O O12 0.680657 0.791741 0.081289
O O13 0.441628 0.983751 0.869853
O O14 0.816294 0.010692 0.659135
O O15 0.366690 0.828726 0.300183
O O16 0.490128 0.846265 0.744134
#
# Coordination Sequence:
#
# PCOD9245409 Si02
#       8
#     4   4   4   4   4   4   4   4
#     4  10  22  38  61  96 125 164 215 266 328 387
#     4  11  21  38  65  92 126 164 210 269 330 374
#     4  10  21  40  61  91 129 166 212 265 319 390
#     4  11  21  40  66  90 124 173 217 262 322 379
#     4  11  22  39  61  90 131 165 208 263 323 371
#     4  10  22  39  62  91 132 161 212 275 310 386
#     4  10  21  38  58  90 128 160 207 273 308 378
#     4   9  22  40  63  92 124 170 217 256 332 379
#
# _framework density 25.475916000000002
#
# number of rings (size 3 to 8) (size 9 to 14) (size 15 to 20)
#    0.000    1.750    2.500    2.250    3.500    1.500 
#    0.000    1.250    0.000    0.000    0.000    0.000 
#    0.000    0.000    0.000    0.000    0.000    0.000 
#
# Total GULP energy -178388.003721 kJ/mol
# GULP energy per Si atom -5574.625116 kJ/mol
# Density = 2.541793 g / cm^3
# Si number density = 25.475916 Si / 1000 Ang^3
#
#
#
# Elastic Constant Matrix: (Units=GPa)
#
#
# Indices 1 2 3 4 5 6 
#
# 1 145.1759 5.4549 4.6474 0.0000 9.9805 0.0000
# 2 5.4549 49.6340 3.7013 0.0000 2.6760 0.0000
# 3 4.6474 3.7013 25.3688 0.0000 -2.0597 0.0000
# 4 0.0000 0.0000 0.0000 21.2672 0.0000 -4.3562
# 5 9.9805 2.6760 -2.0597 0.0000 19.0401 0.0000
# 6 0.0000 0.0000 0.0000 -4.3562 0.0000 33.3052
#
#
#
# Elastic Compliance Matrix: (Units=1/GPa)
#
#
# Indices 1 2 3 4 5 6 
#
# 1 0.007224 -0.000467 -0.001571 0.000000 -0.003891 0.000000
# 2 -0.000467 0.020596 -0.003162 0.000000 -0.002992 0.000000
# 3 -0.001571 -0.003162 0.040627 0.000000 0.005663 0.000000
# 4 0.000000 0.000000 0.000000 0.048315 0.000000 0.006319
# 5 -0.003891 -0.002992 0.005663 0.000000 0.055593 0.000000
# 6 0.000000 0.000000 0.000000 0.006319 0.000000 0.030852
#
#
# Mechanical properties :
#
#
# Convention : Reuss Voigt Hill
#
# Bulk Modulus (GPa) = 17.22766 27.53179 22.37973
# Shear Modulus (GPa) = 21.46322 28.48083 24.97202
#
# Velocity S-wave (km/s) = 2.90572 3.34721 3.13424
# Velocity P-wave (km/s) = 4.24672 5.07630 4.67993
#
# Compressibility (1/GPa) = 0.05804619
#
# Stress axis : x y z
#
# Youngs Moduli (GPa) = 138.43677 48.55331 24.61391
#
# Poissons Ratio (x) = 0.02267 0.03867
# Poissons Ratio (y) = 0.06464 0.07784
# Poissons Ratio (z) = 0.21750 0.15354
#
# Static dielectric constant tensor:
#      x y z
#    x 2.073030 0.000000 -0.033620 
#    y 0.000000 2.150590 0.000000 
#    z -0.033620 0.000000 2.011580 
# 
# From -- ./inp_files/55850.got.cif
#   From: 2010.05.17/outbox.cif.g08.bks.cpg/sg14_28_cif.got.tgz:55850.got - 2010.06.03 17:49:19.
