data_PCOD9245114
_publ_section_title
;
Structure prediction by ZEFSAII (Michael W. Deem and Ramdas Pophale) SiO2 
 PCOD9245114
Probable space group: P 21/C
;
_chemical_formula_sum "Si O2"
_cell_formula_units_Z 32
_cell_length_a 7.641006
_cell_length_b 18.780823
_cell_length_c 14.484630
_cell_angle_alpha 90.000000
_cell_angle_beta 139.264105
_cell_angle_gamma 90.000000
_cell_volume 1356.443862
_symmetry_space_group_name_H-M "P 21/C"
_symmetry_group_IT_number 14
_symmetry_cell_setting 'monoclinic'
loop_
_space_group_symop_operation_xyz
x,y,z
-x,1/2+y,1/2-z
-x,-y,-z
x,1/2-y,1/2+z
loop_
_atom_site_type_symbol
_atom_site_label
_atom_site_fract_x
_atom_site_fract_y
_atom_site_fract_z
Si Si1 0.005604 0.715540 0.342231
Si Si2 0.844411 0.461871 0.307188
Si Si3 0.755958 0.919420 0.656038
Si Si4 0.359901 0.966626 0.068099
Si Si5 0.239313 0.653964 0.873058
Si Si6 0.834018 0.040734 0.326344
Si Si7 0.508999 0.185835 0.842729
Si Si8 0.902270 0.614817 0.921652
O O1 0.191304 0.761770 0.347433
O O2 0.189834 0.712253 0.510225
O O3 0.943884 0.636812 0.283524
O O4 0.710845 0.753284 0.222632
O O5 0.646740 0.521004 0.182944
O O6 0.779426 0.450846 0.388036
O O7 0.851076 0.390708 0.250972
O O8 0.127525 0.502420 0.412259
O O9 0.531360 0.873637 0.515518
O O10 0.917937 0.962313 0.643712
O O11 0.499241 0.890175 0.103954
O O12 0.562053 0.032663 0.161161
O O13 0.062712 0.635740 0.893830
O O14 0.894314 0.110295 0.411672
O O15 0.816990 0.967190 0.376620
O O16 0.372376 0.160583 0.689971
#
# Coordination Sequence:
#
# PCOD9245114 Si02
#       8
#     4   4   4   4   4   4   4   4
#     4  11  23  43  64  95 134 179 227 260 335 407
#     4  11  23  40  69 100 128 172 224 282 337 393
#     4  12  23  38  68  96 128 174 223 279 330 402
#     4  10  23  42  67 100 136 166 219 286 342 404
#     4  11  23  40  63  93 129 178 219 273 326 402
#     4  10  21  36  61  98 124 159 212 271 333 382
#     4  10  21  42  67  91 132 181 216 268 327 401
#     4   9  20  37  63  91 127 163 209 270 324 391
#
# _framework density 23.591097999999999
#
# number of rings (size 3 to 8) (size 9 to 14) (size 15 to 20)
#    0.000    1.500    3.750    1.125    5.250    2.500 
#    0.000    2.500    0.000    0.000    0.000    0.000 
#    0.000    0.000    0.000    0.000    0.000    0.000 
#
# Total GULP energy -178286.041928 kJ/mol
# GULP energy per Si atom -5571.438810 kJ/mol
# Density = 2.353740 g / cm^3
# Si number density = 23.591098 Si / 1000 Ang^3
#
#
#
# Elastic Constant Matrix: (Units=GPa)
#
#
# Indices 1 2 3 4 5 6 
#
# 1 48.1943 14.2086 28.1165 0.0000 1.4441 0.0000
# 2 14.2086 99.4860 28.2814 0.0000 -0.9561 0.0000
# 3 28.1165 28.2814 106.8485 0.0000 25.0603 0.0000
# 4 0.0000 0.0000 0.0000 54.5085 0.0000 3.0348
# 5 1.4441 -0.9561 25.0603 0.0000 34.9351 0.0000
# 6 0.0000 0.0000 0.0000 3.0348 0.0000 15.1356
#
#
#
# Elastic Compliance Matrix: (Units=1/GPa)
#
#
# Indices 1 2 3 4 5 6 
#
# 1 0.025280 -0.001523 -0.007207 0.000000 0.004083 0.000000
# 2 -0.001523 0.011201 -0.003187 0.000000 0.002656 0.000000
# 3 -0.007207 -0.003187 0.014487 0.000000 -0.010181 0.000000
# 4 0.000000 0.000000 0.000000 0.018553 0.000000 -0.003720
# 5 0.004083 0.002656 -0.010181 0.000000 0.035832 0.000000
# 6 0.000000 0.000000 0.000000 -0.003720 0.000000 0.066815
#
#
# Mechanical properties :
#
#
# Convention : Reuss Voigt Hill
#
# Bulk Modulus (GPa) = 36.85254 43.97132 40.41193
# Shear Modulus (GPa) = 24.38477 33.17734 28.78106
#
# Velocity S-wave (km/s) = 3.21852 3.75420 3.49663
# Velocity P-wave (km/s) = 5.42836 6.12139 5.78526
#
# Compressibility (1/GPa) = 0.02713517
#
# Stress axis : x y z
#
# Youngs Moduli (GPa) = 39.55619 89.28117 69.02737
#
# Poissons Ratio (x) = 0.13593 0.49749
# Poissons Ratio (y) = 0.06023 0.21998
# Poissons Ratio (z) = 0.28509 0.28452
#
# Static dielectric constant tensor:
#      x y z
#    x 1.928190 0.000000 0.031800 
#    y 0.000000 1.962370 0.000000 
#    z 0.031800 0.000000 2.088530 
# 
# From -- ./inp_files/42063.got.cif
#   From: 2010.05.17/outbox.cif.g08.bks.cpg/sg14_22_cif.got.tgz:42063.got - 2010.06.03 17:49:19.
