data_PCOD9245746
_publ_section_title
;
Structure prediction by ZEFSAII (Michael W. Deem and Ramdas Pophale) SiO2 
 PCOD9245746
Probable space group: P 21/C
;
_chemical_formula_sum "Si O2"
_cell_formula_units_Z 24
_cell_length_a 7.489422
_cell_length_b 7.964459
_cell_length_c 24.419003
_cell_angle_alpha 90.000000
_cell_angle_beta 144.404990
_cell_angle_gamma 90.000000
_cell_volume 847.801951
_symmetry_space_group_name_H-M "P 21/C"
_symmetry_group_IT_number 14
_symmetry_cell_setting 'monoclinic'
loop_
_space_group_symop_operation_xyz
x,y,z
-x,1/2+y,1/2-z
-x,-y,-z
x,1/2-y,1/2+z
loop_
_atom_site_type_symbol
_atom_site_label
_atom_site_fract_x
_atom_site_fract_y
_atom_site_fract_z
Si Si1 0.678350 0.696761 0.107015
Si Si2 0.671253 0.691077 0.766204
Si Si3 0.929485 0.391036 0.564418
Si Si4 0.325600 0.194203 0.059917
Si Si5 0.914059 0.488094 0.720914
Si Si6 0.072768 0.594813 0.104774
O O1 0.864017 0.869510 0.163654
O O2 0.755743 0.580237 0.178661
O O3 0.826454 0.605948 0.092491
O O4 0.331484 0.751180 0.011482
O O5 0.767026 0.582016 0.737827
O O6 0.732888 0.572375 0.834457
O O7 0.330014 0.759535 0.674101
O O8 0.896713 0.846458 0.836450
O O9 0.760952 0.567158 0.511754
O O10 0.178951 0.379734 0.578355
O O11 0.688332 0.172151 0.155390
O O12 0.144527 0.363309 0.000720
#
# Coordination Sequence:
#
# PCOD9245746 Si02
#       6
#     4   4   4   4   4   4
#     4  10  23  38  59  92 119 154 201 251 300 351
#     4  11  23  40  62  88 122 163 201 246 299 364
#     4  10  21  39  61  85 119 157 198 245 301 353
#     4  10  21  41  62  85 121 163 199 242 301 362
#     4  10  23  41  61  85 123 160 197 249 302 357
#     4  11  23  38  61  90 120 158 206 249 297 358
#
# _framework density 28.308499000000001
#
# number of rings (size 3 to 8) (size 9 to 14) (size 15 to 20)
#    0.000    1.667    0.000    6.000    0.000   12.667 
#    0.000    0.000    0.000    0.000    0.000    0.000 
#    0.000    0.000    0.000    0.000    0.000    0.000 
#
# Total GULP energy -134571.906137 kJ/mol
# GULP energy per Si atom -5607.162756 kJ/mol
# Density = 2.824407 g / cm^3
# Si number density = 28.308499 Si / 1000 Ang^3
#
#
#
# Elastic Constant Matrix: (Units=GPa)
#
#
# Indices 1 2 3 4 5 6 
#
# 1 60.7564 -0.0955 24.7258 0.0000 2.2025 0.0000
# 2 -0.0955 101.6025 30.8560 0.0000 1.3721 0.0000
# 3 24.7258 30.8560 177.1614 0.0000 24.1612 0.0000
# 4 0.0000 0.0000 0.0000 56.2882 0.0000 -2.5081
# 5 2.2025 1.3721 24.1612 0.0000 39.1016 0.0000
# 6 0.0000 0.0000 0.0000 -2.5081 0.0000 43.0170
#
#
#
# Elastic Compliance Matrix: (Units=1/GPa)
#
#
# Indices 1 2 3 4 5 6 
#
# 1 0.017526 0.000821 -0.002676 0.000000 0.000637 0.000000
# 2 0.000821 0.010455 -0.002052 0.000000 0.000855 0.000000
# 3 -0.002676 -0.002052 0.006929 0.000000 -0.004059 0.000000
# 4 0.000000 0.000000 0.000000 0.017812 0.000000 0.001039
# 5 0.000637 0.000855 -0.004059 0.000000 0.028016 0.000000
# 6 0.000000 0.000000 0.000000 0.001039 0.000000 0.023307
#
#
# Mechanical properties :
#
#
# Convention : Reuss Voigt Hill
#
# Bulk Modulus (GPa) = 36.90686 50.05475 43.48080
# Shear Modulus (GPa) = 41.35917 46.61695 43.98806
#
# Velocity S-wave (km/s) = 3.82647 4.06242 3.94621
# Velocity P-wave (km/s) = 5.70861 6.30274 6.01302
#
# Compressibility (1/GPa) = 0.02709524
#
# Stress axis : x y z
#
# Youngs Moduli (GPa) = 57.05683 95.65097 144.32171
#
# Poissons Ratio (x) = -0.07849 0.38620
# Poissons Ratio (y) = -0.04682 0.29615
# Poissons Ratio (z) = 0.15268 0.19627
#
# Static dielectric constant tensor:
#      x y z
#    x 2.145540 0.000000 -0.110460 
#    y 0.000000 2.311110 0.000000 
#    z -0.110460 0.000000 2.134670 
# 
# From -- ./inp_files/79433.got.cif
#   From: 2010.05.17/outbox.cif.g08.bks.cpg/sg14_40_cif.got.tgz:79433.got - 2010.06.03 17:49:19.
