data_PCOD9245151
_publ_section_title
;
Structure prediction by ZEFSAII (Michael W. Deem and Ramdas Pophale) SiO2 
 PCOD9245151
Probable space group: P 21/C
;
_chemical_formula_sum "Si O2"
_cell_formula_units_Z 28
_cell_length_a 21.936391
_cell_length_b 5.212815
_cell_length_c 24.360499
_cell_angle_alpha 90.000000
_cell_angle_beta 155.732998
_cell_angle_gamma 90.000000
_cell_volume 1144.865012
_symmetry_space_group_name_H-M "P 21/C"
_symmetry_group_IT_number 14
_symmetry_cell_setting 'monoclinic'
loop_
_space_group_symop_operation_xyz
x,y,z
-x,1/2+y,1/2-z
-x,-y,-z
x,1/2-y,1/2+z
loop_
_atom_site_type_symbol
_atom_site_label
_atom_site_fract_x
_atom_site_fract_y
_atom_site_fract_z
Si Si1 0.761617 0.946126 0.569157
Si Si2 0.502158 0.194879 0.715940
Si Si3 0.974148 0.136978 0.658438
Si Si4 0.709779 0.929455 0.220675
Si Si5 0.697896 0.440209 0.276643
Si Si6 0.982197 0.871353 0.920045
Si Si7 0.792468 0.260328 0.694956
O O1 0.709654 0.107411 0.579167
O O2 0.829425 0.116138 0.576110
O O3 0.637143 0.774914 0.439474
O O4 0.901542 0.788847 0.705955
O O5 0.532463 0.469973 0.768266
O O6 0.626453 0.074354 0.777998
O O7 0.945664 0.271882 0.577581
O O8 0.060350 0.876476 0.712957
O O9 0.643938 0.674815 0.194226
O O10 0.887092 0.866509 0.365219
O O11 0.668624 0.168076 0.224371
O O12 0.693622 0.022784 0.144049
O O13 0.876878 0.465557 0.430276
O O14 0.858588 0.072968 0.796182
#
# Coordination Sequence:
#
# PCOD9245151 Si02
#       7
#     4   4   4   4   4   4   4
#     4  11  23  43  69 101 141 180 238 286 359 406
#     4  12  30  50  72 102 144 188 231 283 349 441
#     4  10  21  36  68 100 131 177 225 299 347 400
#     4  11  23  42  66 102 139 180 238 283 345 404
#     4  12  25  42  68  99 139 191 225 278 355 412
#     4  10  22  37  67 101 139 172 233 294 345 403
#     4  10  22  39  65 103 133 173 227 300 336 399
#
# _framework density 24.457031000000001
#
# number of rings (size 3 to 8) (size 9 to 14) (size 15 to 20)
#    0.000    1.143    2.857    2.571    8.000    0.000 
#    0.000    1.429    0.000    0.000    0.000    0.000 
#    0.000    0.000    0.000    0.000    0.000    0.000 
#
# Total GULP energy -156512.450796 kJ/mol
# GULP energy per Si atom -5589.730386 kJ/mol
# Density = 2.440137 g / cm^3
# Si number density = 24.457031 Si / 1000 Ang^3
#
#
#
# Elastic Constant Matrix: (Units=GPa)
#
#
# Indices 1 2 3 4 5 6 
#
# 1 91.2753 26.1121 -6.3384 0.0000 -0.5114 0.0000
# 2 26.1121 113.3047 -7.0309 0.0000 -16.1075 0.0000
# 3 -6.3384 -7.0309 42.4012 0.0000 -3.8741 0.0000
# 4 0.0000 0.0000 0.0000 10.7070 0.0000 -5.7698
# 5 -0.5114 -16.1075 -3.8741 0.0000 35.4174 0.0000
# 6 0.0000 0.0000 0.0000 -5.7698 0.0000 42.4362
#
#
#
# Elastic Compliance Matrix: (Units=1/GPa)
#
#
# Indices 1 2 3 4 5 6 
#
# 1 0.011833 -0.002788 0.001218 0.000000 -0.000964 0.000000
# 2 -0.002788 0.010260 0.001724 0.000000 0.004814 0.000000
# 3 0.001218 0.001724 0.024369 0.000000 0.003467 0.000000
# 4 0.000000 0.000000 0.000000 0.100780 0.000000 0.013702
# 5 -0.000964 0.004814 0.003467 0.000000 0.030790 0.000000
# 6 0.000000 0.000000 0.000000 0.013702 0.000000 0.025428
#
#
# Mechanical properties :
#
#
# Convention : Reuss Voigt Hill
#
# Bulk Modulus (GPa) = 21.38112 30.27409 25.82761
# Shear Modulus (GPa) = 22.85807 33.32802 28.09305
#
# Velocity S-wave (km/s) = 3.06047 3.69550 3.39288
# Velocity P-wave (km/s) = 4.60977 5.53302 5.09236
#
# Compressibility (1/GPa) = 0.04677023
#
# Stress axis : x y z
#
# Youngs Moduli (GPa) = 84.51098 97.46787 41.03561
#
# Poissons Ratio (x) = 0.27178 -0.05000
# Poissons Ratio (y) = 0.23565 -0.07076
# Poissons Ratio (z) = -0.10297 -0.16807
#
# Static dielectric constant tensor:
#      x y z
#    x 2.072730 0.000000 -0.010000 
#    y 0.000000 2.017140 0.000000 
#    z -0.010000 0.000000 1.888320 
# 
# From -- ./inp_files/74508.got.cif
#   From: 2010.05.17/outbox.cif.g08.bks.cpg/sg14_38_cif.got.tgz:74508.got - 2010.06.03 17:49:19.
