data_PCOD9245957
_publ_section_title
;
Structure prediction by ZEFSAII (Michael W. Deem and Ramdas Pophale) SiO2 
 PCOD9245957
Probable space group: P 21/C
;
_chemical_formula_sum "Si O2"
_cell_formula_units_Z 32
_cell_length_a 17.475195
_cell_length_b 5.088036
_cell_length_c 15.177887
_cell_angle_alpha 90.000000
_cell_angle_beta 84.120346
_cell_angle_gamma 90.000000
_cell_volume 1342.433492
_symmetry_space_group_name_H-M "P 21/C"
_symmetry_group_IT_number 14
_symmetry_cell_setting 'monoclinic'
loop_
_space_group_symop_operation_xyz
x,y,z
-x,1/2+y,1/2-z
-x,-y,-z
x,1/2-y,1/2+z
loop_
_atom_site_type_symbol
_atom_site_label
_atom_site_fract_x
_atom_site_fract_y
_atom_site_fract_z
Si Si1 0.363361 0.237734 0.413085
Si Si2 0.273859 0.254201 0.601782
Si Si3 0.815679 0.266516 0.439361
Si Si4 0.967978 0.565712 0.365874
Si Si5 0.327273 0.943255 0.752573
Si Si6 0.486703 0.878906 0.695703
Si Si7 0.775843 0.129491 0.632891
Si Si8 0.059089 0.078327 0.341527
O O1 0.337705 0.256105 0.516975
O O2 0.356161 0.488067 0.348457
O O3 0.450694 0.142268 0.388550
O O4 0.298132 0.049205 0.379088
O O5 0.238748 0.540334 0.607687
O O6 0.307748 0.182736 0.691713
O O7 0.207515 0.034037 0.584214
O O8 0.898627 0.401065 0.417485
O O9 0.791953 0.296313 0.543692
O O10 0.948367 0.568470 0.263781
O O11 0.997880 0.859142 0.384646
O O12 0.039173 0.371428 0.372543
O O13 0.397577 0.801570 0.694065
O O14 0.247760 0.800519 0.781260
O O15 0.514223 0.676223 0.768149
O O16 0.854669 0.981341 0.641148
#
# Coordination Sequence:
#
# PCOD9245957 Si02
#       8
#     4   4   4   4   4   4   4   4
#     4  10  23  43  63  95 138 159 222 265 318 379
#     4  11  25  39  66  98 128 172 215 269 313 379
#     4  11  24  43  62  92 134 162 211 272 317 373
#     4  10  22  41  57  89 126 159 208 267 310 379
#     4  11  23  40  68  94 128 177 219 256 333 379
#     4  10  21  39  66  92 130 174 209 265 320 377
#     4  11  23  40  65  92 125 170 214 263 322 384
#     4  10  23  37  63  88 119 165 211 256 320 378
#
# _framework density 23.837306000000002
#
# number of rings (size 3 to 8) (size 9 to 14) (size 15 to 20)
#    0.000    1.500    2.500    1.500    5.250    2.500 
#    0.000    0.000    0.000    6.000    0.000    0.000 
#    0.000    0.000    0.000    0.000    0.000    0.000 
#
# Total GULP energy -178755.019464 kJ/mol
# GULP energy per Si atom -5586.094358 kJ/mol
# Density = 2.378305 g / cm^3
# Si number density = 23.837306 Si / 1000 Ang^3
#
#
#
# Elastic Constant Matrix: (Units=GPa)
#
#
# Indices 1 2 3 4 5 6 
#
# 1 47.4392 -9.3982 13.0198 0.0000 -10.7163 0.0000
# 2 -9.3982 64.3530 15.1974 0.0000 2.7385 0.0000
# 3 13.0198 15.1974 77.8451 0.0000 -8.6558 0.0000
# 4 0.0000 0.0000 0.0000 -0.5033 0.0000 24.4757
# 5 -10.7163 2.7385 -8.6558 0.0000 29.1469 0.0000
# 6 0.0000 0.0000 0.0000 24.4757 0.0000 11.0236
#
#
#
# Elastic Compliance Matrix: (Units=1/GPa)
#
#
# Indices 1 2 3 4 5 6 
#
# 1 0.024751 0.004276 -0.004144 0.000000 0.007468 0.000000
# 2 0.004276 0.017216 -0.004220 0.000000 -0.001299 0.000000
# 3 -0.004144 -0.004220 0.014724 0.000000 0.003246 0.000000
# 4 0.000000 0.000000 0.000000 -0.018233 0.000000 0.040482
# 5 0.007468 -0.001299 0.003246 0.000000 0.038140 0.000000
# 6 0.000000 0.000000 0.000000 0.040482 0.000000 0.000833
#
#
# Mechanical properties :
#
#
# Convention : Reuss Voigt Hill
#
# Bulk Modulus (GPa) = 20.61319 25.25279 22.93299
# Shear Modulus (GPa) = 49.12577 19.32132 34.22354
#
# Velocity S-wave (km/s) = 4.54461 2.85010 3.79319
# Velocity P-wave (km/s) = 6.01700 4.63116 5.36898
#
# Compressibility (1/GPa) = 0.04851263
#
# Stress axis : x y z
#
# Youngs Moduli (GPa) = 40.40259 58.08662 67.91658
#
# Poissons Ratio (x) = -0.24835 0.28145
# Poissons Ratio (y) = -0.17274 0.28664
# Poissons Ratio (z) = 0.16743 0.24515
#
# Static dielectric constant tensor:
#      x y z
#    x 1.984380 0.000000 -0.024220 
#    y 0.000000 1.943760 0.000000 
#    z -0.024220 0.000000 1.904520 
# 
# From -- ./inp_files/48135.got.cif
#   From: 2010.05.17/outbox.cif.g08.bks.cpg/sg14_25_cif.got.tgz:48135.got - 2010.06.03 17:49:19.
