data_PCOD9245477
_publ_section_title
;
Structure prediction by ZEFSAII (Michael W. Deem and Ramdas Pophale) SiO2 
 PCOD9245477
Probable space group: P 21/C
;
_chemical_formula_sum "Si O2"
_cell_formula_units_Z 28
_cell_length_a 14.229871
_cell_length_b 10.896136
_cell_length_c 8.294981
_cell_angle_alpha 90.000000
_cell_angle_beta 61.301364
_cell_angle_gamma 90.000000
_cell_volume 1128.149103
_symmetry_space_group_name_H-M "P 21/C"
_symmetry_group_IT_number 14
_symmetry_cell_setting 'monoclinic'
loop_
_space_group_symop_operation_xyz
x,y,z
-x,1/2+y,1/2-z
-x,-y,-z
x,1/2-y,1/2+z
loop_
_atom_site_type_symbol
_atom_site_label
_atom_site_fract_x
_atom_site_fract_y
_atom_site_fract_z
Si Si1 0.975671 0.581469 0.225605
Si Si2 0.194579 0.892503 0.117431
Si Si3 0.273341 0.182730 0.779718
Si Si4 0.932810 0.295859 0.557465
Si Si5 0.363862 0.932850 0.217079
Si Si6 0.815220 0.923692 0.460430
Si Si7 0.415317 0.153804 0.958822
O O1 0.995845 0.615299 0.394295
O O2 0.066337 0.479464 0.109790
O O3 0.859283 0.523895 0.298013
O O4 0.997947 0.706256 0.112202
O O5 0.127479 0.793370 0.271734
O O6 0.310991 0.880832 0.096821
O O7 0.160523 0.863504 0.964934
O O8 0.200014 0.108005 0.715683
O O9 0.336156 0.119477 0.876457
O O10 0.367230 0.224635 0.577530
O O11 0.213566 0.300287 0.912843
O O12 0.461643 0.851140 0.197728
O O13 0.268410 0.968926 0.417427
O O14 0.408793 0.062604 0.116991
#
# Coordination Sequence:
#
# PCOD9245477 Si02
#       7
#     4   4   4   4   4   4   4
#     4  11  23  44  62  91 133 158 212 256 305 377
#     4  11  23  42  63  90 128 161 206 257 311 369
#     4   9  20  40  62  95 121 165 213 248 320 369
#     4  10  24  42  61  92 123 167 210 245 312 372
#     4  10  21  38  61  85 124 165 200 260 314 352
#     4  10  21  39  63  93 128 161 209 257 310 374
#     4   9  20  39  58  87 121 159 211 258 301 370
#
# _framework density 24.819417000000001
#
# number of rings (size 3 to 8) (size 9 to 14) (size 15 to 20)
#    0.000    2.000    1.429    0.857    2.000    2.857 
#   12.857    0.000    0.000    0.000    0.000    0.000 
#    0.000    0.000    0.000    0.000    0.000    0.000 
#
# Total GULP energy -156589.745284 kJ/mol
# GULP energy per Si atom -5592.490903 kJ/mol
# Density = 2.476293 g / cm^3
# Si number density = 24.819417 Si / 1000 Ang^3
#
#
#
# Elastic Constant Matrix: (Units=GPa)
#
#
# Indices 1 2 3 4 5 6 
#
# 1 148.6692 25.8485 44.7845 0.0000 -1.5190 0.0000
# 2 25.8485 46.8901 23.8400 0.0000 3.6581 0.0000
# 3 44.7845 23.8400 89.3637 0.0000 13.4729 0.0000
# 4 0.0000 0.0000 0.0000 23.6313 0.0000 9.6027
# 5 -1.5190 3.6581 13.4729 0.0000 42.2584 0.0000
# 6 0.0000 0.0000 0.0000 9.6027 0.0000 38.0748
#
#
#
# Elastic Compliance Matrix: (Units=1/GPa)
#
#
# Indices 1 2 3 4 5 6 
#
# 1 0.008351 -0.002867 -0.003680 0.000000 0.001722 0.000000
# 2 -0.002867 0.025657 -0.005313 0.000000 -0.000630 0.000000
# 3 -0.003680 -0.005313 0.015130 0.000000 -0.004496 0.000000
# 4 0.000000 0.000000 0.000000 0.047149 0.000000 -0.011891
# 5 0.001722 -0.000630 -0.004496 0.000000 0.025214 0.000000
# 6 0.000000 0.000000 0.000000 -0.011891 0.000000 0.029263
#
#
# Mechanical properties :
#
#
# Convention : Reuss Voigt Hill
#
# Bulk Modulus (GPa) = 39.34157 52.65211 45.99684
# Shear Modulus (GPa) = 27.32907 33.48958 30.40932
#
# Velocity S-wave (km/s) = 3.32191 3.67731 3.50412
# Velocity P-wave (km/s) = 5.53163 6.26819 5.91140
#
# Compressibility (1/GPa) = 0.02541841
#
# Stress axis : x y z
#
# Youngs Moduli (GPa) = 119.74811 38.97537 66.09593
#
# Poissons Ratio (x) = 0.11174 0.24322
# Poissons Ratio (y) = 0.34331 0.35116
# Poissons Ratio (z) = 0.44064 0.20707
#
# Static dielectric constant tensor:
#      x y z
#    x 1.996020 0.000000 -0.002480 
#    y 0.000000 2.003550 0.000000 
#    z -0.002480 0.000000 2.028520 
# 
# From -- ./inp_files/15515.got.cif
#   From: 2010.05.17/outbox.cif.g08.bks.cpg/sg14_8_cif.got.tgz:15515.got - 2010.06.03 17:49:19.
