data_PCOD9245934
_publ_section_title
;
Structure prediction by ZEFSAII (Michael W. Deem and Ramdas Pophale) SiO2 
 PCOD9245934
Probable space group: P 21/C
;
_chemical_formula_sum "Si O2"
_cell_formula_units_Z 28
_cell_length_a 9.612091
_cell_length_b 7.463779
_cell_length_c 19.763244
_cell_angle_alpha 90.000000
_cell_angle_beta 57.827746
_cell_angle_gamma 90.000000
_cell_volume 1200.153401
_symmetry_space_group_name_H-M "P 21/C"
_symmetry_group_IT_number 14
_symmetry_cell_setting 'monoclinic'
loop_
_space_group_symop_operation_xyz
x,y,z
-x,1/2+y,1/2-z
-x,-y,-z
x,1/2-y,1/2+z
loop_
_atom_site_type_symbol
_atom_site_label
_atom_site_fract_x
_atom_site_fract_y
_atom_site_fract_z
Si Si1 0.038992 0.710764 0.539950
Si Si2 0.300192 0.522315 0.007867
Si Si3 0.117884 0.331454 0.559143
Si Si4 0.272481 0.632731 0.160312
Si Si5 0.529178 0.456546 0.173130
Si Si6 0.743867 0.692882 0.203100
Si Si7 0.046921 0.222081 0.728527
O O1 0.146627 0.541279 0.536296
O O2 0.011987 0.713887 0.466761
O O3 0.860119 0.698250 0.621066
O O4 0.118766 0.892329 0.545730
O O5 0.268794 0.308794 0.013233
O O6 0.355444 0.598984 0.065951
O O7 0.398200 0.596688 0.918524
O O8 0.051818 0.301402 0.651802
O O9 0.407728 0.621093 0.183541
O O10 0.152167 0.460328 0.200105
O O11 0.141532 0.791043 0.198406
O O12 0.675311 0.519945 0.182970
O O13 0.414148 0.307020 0.234348
O O14 0.854789 0.664803 0.240355
#
# Coordination Sequence:
#
# PCOD9245934 Si02
#       7
#     4   4   4   4   4   4   4
#     4  11  22  42  68 100 132 173 234 270 324 405
#     4  11  22  42  69  98 130 181 218 279 335 400
#     4  10  22  37  67 100 130 166 224 279 318 388
#     4  10  22  40  67  93 134 172 222 277 333 393
#     4  11  25  42  64  96 139 171 217 279 350 388
#     4  11  24  44  64  97 137 174 226 276 333 407
#     4  10  21  39  65  96 126 172 226 268 324 398
#
# _framework density 23.330349999999999
#
# number of rings (size 3 to 8) (size 9 to 14) (size 15 to 20)
#    0.000    1.429    2.857    2.571    0.000    4.571 
#    0.000    0.000    0.000    4.286    0.000    0.000 
#    0.000    0.000    0.000    0.000    0.000    0.000 
#
# Total GULP energy -156475.742514 kJ/mol
# GULP energy per Si atom -5588.419376 kJ/mol
# Density = 2.327725 g / cm^3
# Si number density = 23.330350 Si / 1000 Ang^3
#
#
#
# Elastic Constant Matrix: (Units=GPa)
#
#
# Indices 1 2 3 4 5 6 
#
# 1 71.0082 9.2495 34.2731 0.0000 31.9870 0.0000
# 2 9.2495 64.4957 20.5214 0.0000 1.7861 0.0000
# 3 34.2731 20.5214 121.0264 0.0000 14.4982 0.0000
# 4 0.0000 0.0000 0.0000 29.6210 0.0000 -5.9374
# 5 31.9870 1.7861 14.4982 0.0000 43.3461 0.0000
# 6 0.0000 0.0000 0.0000 -5.9374 0.0000 29.6635
#
#
#
# Elastic Compliance Matrix: (Units=1/GPa)
#
#
# Indices 1 2 3 4 5 6 
#
# 1 0.023600 -0.001504 -0.004531 0.000000 -0.015838 0.000000
# 2 -0.001504 0.016488 -0.002522 0.000000 0.001274 0.000000
# 3 -0.004531 -0.002522 0.009960 0.000000 0.000116 0.000000
# 4 0.000000 0.000000 0.000000 0.035171 0.000000 0.007040
# 5 -0.015838 0.001274 0.000116 0.000000 0.034667 0.000000
# 6 0.000000 0.000000 0.000000 0.007040 0.000000 0.035121
#
#
# Mechanical properties :
#
#
# Convention : Reuss Voigt Hill
#
# Bulk Modulus (GPa) = 30.36499 42.73535 36.55017
# Shear Modulus (GPa) = 27.30769 33.35855 30.33312
#
# Velocity S-wave (km/s) = 3.42494 3.78542 3.60968
# Velocity P-wave (km/s) = 5.35572 6.12071 5.75095
#
# Compressibility (1/GPa) = 0.03293266
#
# Stress axis : x y z
#
# Youngs Moduli (GPa) = 42.37213 60.65040 100.40642
#
# Poissons Ratio (x) = 0.09124 0.45493
# Poissons Ratio (y) = 0.06374 0.25326
# Poissons Ratio (z) = 0.19198 0.15298
#
# Static dielectric constant tensor:
#      x y z
#    x 1.876270 0.000000 -0.016180 
#    y 0.000000 1.914280 0.000000 
#    z -0.016180 0.000000 1.886450 
# 
# From -- ./inp_files/64979.got.cif
#   From: 2010.05.17/outbox.cif.g08.bks.cpg/sg14_33_cif.got.tgz:64979.got - 2010.06.03 17:49:19.
