data_PCOD9245724
_publ_section_title
;
Structure prediction by ZEFSAII (Michael W. Deem and Ramdas Pophale) SiO2 
 PCOD9245724
Probable space group: P 21/C
;
_chemical_formula_sum "Si O2"
_cell_formula_units_Z 16
_cell_length_a 7.147039
_cell_length_b 9.281140
_cell_length_c 17.195587
_cell_angle_alpha 90.000000
_cell_angle_beta 30.525114
_cell_angle_gamma 90.000000
_cell_volume 579.343799
_symmetry_space_group_name_H-M "P 21/C"
_symmetry_group_IT_number 14
_symmetry_cell_setting 'monoclinic'
loop_
_space_group_symop_operation_xyz
x,y,z
-x,1/2+y,1/2-z
-x,-y,-z
x,1/2-y,1/2+z
loop_
_atom_site_type_symbol
_atom_site_label
_atom_site_fract_x
_atom_site_fract_y
_atom_site_fract_z
Si Si1 0.611013 0.545380 0.744163
Si Si2 0.917463 0.204928 0.049516
Si Si3 0.325683 0.266205 0.056725
Si Si4 0.978406 0.042645 0.275251
O O1 0.251806 0.637102 0.891697
O O2 0.598955 0.405054 0.693418
O O3 0.772705 0.494837 0.768038
O O4 0.890462 0.645961 0.595775
O O5 0.221034 0.204807 0.010024
O O6 0.013381 0.388122 0.186596
O O7 0.312815 0.140553 0.125429
O O8 0.705713 0.351954 0.919372
#
# Coordination Sequence:
#
# PCOD9245724 Si02
#       4
#     4   4   4   4
#     4  10  22  38  60  88 118 156 197 241 292 344
#     4  10  21  39  60  86 120 155 196 243 290 345
#     4  10  22  41  61  87 120 153 195 242 292 349
#     4  10  23  40  61  88 118 156 196 240 294 348
#
# _framework density 27.617456000000001
#
# number of rings (size 3 to 8) (size 9 to 14) (size 15 to 20)
#    0.000    2.000    0.000    3.000    0.000   11.000 
#    0.000    0.000    0.000    0.000    0.000    0.000 
#    0.000    0.000    0.000    0.000    0.000    0.000 
#
# Total GULP energy -89768.572415 kJ/mol
# GULP energy per Si atom -5610.535776 kJ/mol
# Density = 2.755460 g / cm^3
# Si number density = 27.617456 Si / 1000 Ang^3
#
#
#
# Elastic Constant Matrix: (Units=GPa)
#
#
# Indices 1 2 3 4 5 6 
#
# 1 56.7007 25.2962 32.0756 0.0000 20.3773 0.0000
# 2 25.2962 128.8620 58.5584 0.0000 3.0295 0.0000
# 3 32.0756 58.5584 108.4740 0.0000 16.4959 0.0000
# 4 0.0000 0.0000 0.0000 97.4459 0.0000 0.3666
# 5 20.3773 3.0295 16.4959 0.0000 36.0200 0.0000
# 6 0.0000 0.0000 0.0000 0.3666 0.0000 41.1017
#
#
#
# Elastic Compliance Matrix: (Units=1/GPa)
#
#
# Indices 1 2 3 4 5 6 
#
# 1 0.025735 -0.002861 -0.004179 0.000000 -0.012404 0.000000
# 2 -0.002861 0.010711 -0.005423 0.000000 0.003201 0.000000
# 3 -0.004179 -0.005423 0.013923 0.000000 -0.003556 0.000000
# 4 0.000000 0.000000 0.000000 0.010262 0.000000 -0.000092
# 5 -0.012404 0.003201 -0.003556 0.000000 0.036139 0.000000
# 6 0.000000 0.000000 0.000000 -0.000092 0.000000 0.024331
#
#
# Mechanical properties :
#
#
# Convention : Reuss Voigt Hill
#
# Bulk Modulus (GPa) = 39.30420 58.43300 48.86860
# Shear Modulus (GPa) = 32.36084 46.78729 39.57406
#
# Velocity S-wave (km/s) = 3.42680 4.12043 3.78952
# Velocity P-wave (km/s) = 5.46990 6.62127 6.07293
#
# Compressibility (1/GPa) = 0.02544257
#
# Stress axis : x y z
#
# Youngs Moduli (GPa) = 38.85781 93.36180 71.82487
#
# Poissons Ratio (x) = 0.26714 0.30014
# Poissons Ratio (y) = 0.11118 0.38950
# Poissons Ratio (z) = 0.16238 0.50630
#
# Static dielectric constant tensor:
#      x y z
#    x 2.107230 0.000000 -0.031450 
#    y 0.000000 2.135550 0.000000 
#    z -0.031450 0.000000 2.132600 
# 
# From -- ./inp_files/7199.got.cif
#   From: 2010.05.17/outbox.cif.g08.bks.cpg/sg14_4_cif.got.tgz:7199.got - 2010.06.03 17:49:19.
