data_PCOD9245837
_publ_section_title
;
Structure prediction by ZEFSAII (Michael W. Deem and Ramdas Pophale) SiO2 
 PCOD9245837
Probable space group: P 21/C
;
_chemical_formula_sum "Si O2"
_cell_formula_units_Z 30
_cell_length_a 15.055052
_cell_length_b 10.624788
_cell_length_c 16.845652
_cell_angle_alpha 90.000000
_cell_angle_beta 25.277610
_cell_angle_gamma 90.000000
_cell_volume 1150.595959
_symmetry_space_group_name_H-M "P 21/C"
_symmetry_group_IT_number 14
_symmetry_cell_setting 'monoclinic'
loop_
_space_group_symop_operation_xyz
x,y,z
-x,1/2+y,1/2-z
-x,-y,-z
x,1/2-y,1/2+z
loop_
_atom_site_type_symbol
_atom_site_label
_atom_site_fract_x
_atom_site_fract_y
_atom_site_fract_z
Si Si1 0.500000 0.000000 0.500000
Si Si2 0.072962 0.065597 0.521566
Si Si3 0.735089 0.167630 0.540631
Si Si4 0.137271 0.307200 0.224672
Si Si5 0.280277 0.351271 0.467162
Si Si6 0.338927 0.264639 0.221202
Si Si7 0.646032 0.051634 0.952587
Si Si8 0.842281 0.406874 0.776707
O O1 0.400635 0.088897 0.659424
O O2 0.326223 0.877785 0.654237
O O3 0.179357 0.196768 0.411363
O O4 0.871475 0.087405 0.737849
O O5 0.208219 0.959200 0.456020
O O6 0.000000 0.000000 0.500000
O O7 0.491672 0.184060 0.752160
O O8 0.891408 0.283088 0.435773
O O9 0.806869 0.137688 0.393841
O O10 0.238721 0.231998 0.215135
O O11 0.238340 0.445757 0.154848
O O12 0.202052 0.264238 0.085083
O O13 0.328783 0.455301 0.495529
O O14 0.088742 0.404225 0.569440
O O15 0.536601 0.175925 0.071562
O O16 0.500000 0.000000 0.000000
#
# Coordination Sequence:
#
# PCOD9245837 Si02
#       8
#     2   4   4   4   4   4   4   4
#     4  10  26  52  66  84 138 204 228 268 344 416
#     4  12  19  35  65 106 135 160 215 282 354 400
#     4  11  21  39  65 100 132 161 222 284 345 402
#     4  10  21  39  63  91 136 177 212 283 341 400
#     4  11  21  38  64  98 132 165 224 286 348 398
#     4  11  22  39  68  95 139 180 225 274 333 429
#     4  12  19  33  63 105 138 165 208 283 355 398
#     4  10  24  46  62  90 131 185 234 271 334 418
#
# _framework density 26.073443000000001
#
# number of rings (size 3 to 8) (size 9 to 14) (size 15 to 20)
#    0.000    1.067    8.000    0.000    0.000    3.200 
#    2.400    5.333    0.000    0.000    0.000    0.000 
#    0.000    0.000    0.000    0.000    0.000    0.000 
#
# Total GULP energy -167298.447748 kJ/mol
# GULP energy per Si atom -5576.614925 kJ/mol
# Density = 2.601410 g / cm^3
# Si number density = 26.073443 Si / 1000 Ang^3
#
#
#
# Elastic Constant Matrix: (Units=GPa)
#
#
# Indices 1 2 3 4 5 6 
#
# 1 69.4570 38.7184 42.9877 0.0000 -14.3657 0.0000
# 2 38.7184 106.5162 42.8339 0.0000 13.7981 0.0000
# 3 42.9877 42.8339 226.0425 0.0000 2.6577 0.0000
# 4 0.0000 0.0000 0.0000 51.8601 0.0000 -0.8146
# 5 -14.3657 13.7981 2.6577 0.0000 46.4145 0.0000
# 6 0.0000 0.0000 0.0000 -0.8146 0.0000 40.8438
#
#
#
# Elastic Compliance Matrix: (Units=1/GPa)
#
#
# Indices 1 2 3 4 5 6 
#
# 1 0.022891 -0.008430 -0.002871 0.000000 0.009756 0.000000
# 2 -0.008430 0.013677 -0.000911 0.000000 -0.006623 0.000000
# 3 -0.002871 -0.000911 0.005153 0.000000 -0.000913 0.000000
# 4 0.000000 0.000000 0.000000 0.019289 0.000000 0.000385
# 5 0.009756 -0.006623 -0.000913 0.000000 0.026586 0.000000
# 6 0.000000 0.000000 0.000000 0.000385 0.000000 0.024491
#
#
# Mechanical properties :
#
#
# Convention : Reuss Voigt Hill
#
# Bulk Modulus (GPa) = 57.80933 72.34395 65.07664
# Shear Modulus (GPa) = 35.14315 46.32206 40.73260
#
# Velocity S-wave (km/s) = 3.67529 4.21955 3.95679
# Velocity P-wave (km/s) = 6.34273 7.17955 6.77407
#
# Compressibility (1/GPa) = 0.01729825
#
# Stress axis : x y z
#
# Youngs Moduli (GPa) = 43.68502 73.11687 194.05667
#
# Poissons Ratio (x) = 0.61640 0.55705
# Poissons Ratio (y) = 0.36828 0.17670
# Poissons Ratio (z) = 0.12540 0.06658
#
# Static dielectric constant tensor:
#      x y z
#    x 3.058140 0.000000 -0.875940 
#    y 0.000000 2.337350 0.000000 
#    z -0.875940 0.000000 2.956940 
# 
# From -- ./inp_files/69281.got.cif
#   From: 2010.05.17/outbox.cif.g08.bks.cpg/sg14_35_cif.got.tgz:69281.got - 2010.06.03 17:49:19.
