data_PCOD9245890
_publ_section_title
;
Structure prediction by ZEFSAII (Michael W. Deem and Ramdas Pophale) SiO2 
 PCOD9245890
Probable space group: P 21/C
;
_chemical_formula_sum "Si O2"
_cell_formula_units_Z 26
_cell_length_a 19.919886
_cell_length_b 10.887326
_cell_length_c 15.552047
_cell_angle_alpha 90.000000
_cell_angle_beta 161.254626
_cell_angle_gamma 90.000000
_cell_volume 1083.905756
_symmetry_space_group_name_H-M "P 21/C"
_symmetry_group_IT_number 14
_symmetry_cell_setting 'monoclinic'
loop_
_space_group_symop_operation_xyz
x,y,z
-x,1/2+y,1/2-z
-x,-y,-z
x,1/2-y,1/2+z
loop_
_atom_site_type_symbol
_atom_site_label
_atom_site_fract_x
_atom_site_fract_y
_atom_site_fract_z
Si Si1 0.149895 0.622720 0.004918
Si Si2 0.909830 0.892143 0.044604
Si Si3 0.354613 0.962296 0.496086
Si Si4 0.440432 0.039571 0.076389
Si Si5 0.307111 0.705436 0.363332
Si Si6 0.897310 0.633969 0.954559
Si Si7 0.500000 0.500000 0.000000
O O1 0.372911 0.625324 0.228573
O O2 0.178486 0.713840 0.119268
O O3 0.119684 0.486401 0.007644
O O4 0.979713 0.641050 0.726142
O O5 0.118572 0.943150 0.247578
O O6 0.824388 0.762756 0.904320
O O7 0.727799 0.991353 0.822639
O O8 0.510722 0.981807 0.764599
O O9 0.403879 0.833894 0.505674
O O10 0.386579 0.051163 0.454722
O O11 0.226764 0.099359 0.783366
O O12 0.460360 0.910222 0.048983
O O13 0.139206 0.661912 0.229598
#
# Coordination Sequence:
#
# PCOD9245890 Si02
#       7
#     4   4   4   4   4   4   2
#     4  10  21  39  64  93 132 168 218 264 314 382
#     4  10  25  44  62  98 133 166 213 269 324 378
#     4  10  25  44  62  98 133 166 213 269 324 378
#     4  10  21  39  64  93 132 168 218 264 314 382
#     4  10  21  39  64  93 132 168 218 264 314 382
#     4  10  21  39  64  93 132 168 218 264 314 382
#     4  12  26  40  72  82 132 162 214 254 340 382
#
# _framework density 23.987325999999999
#
# number of rings (size 3 to 8) (size 9 to 14) (size 15 to 20)
#    0.000    1.846    0.000    4.154    8.615    2.462 
#    5.538    3.077    0.000    0.000    0.000    0.000 
#    0.000    0.000    0.000    0.000    0.000    0.000 
#
# Total GULP energy -144759.802641 kJ/mol
# GULP energy per Si atom -5567.684717 kJ/mol
# Density = 2.393273 g / cm^3
# Si number density = 23.987326 Si / 1000 Ang^3
#
#
#
# Elastic Constant Matrix: (Units=GPa)
#
#
# Indices 1 2 3 4 5 6 
#
# 1 80.3803 0.0920 22.7397 0.0000 -20.1603 0.0000
# 2 0.0920 67.2708 34.1939 0.0000 -8.9484 0.0000
# 3 22.7397 34.1939 118.1369 0.0000 -23.2388 0.0000
# 4 0.0000 0.0000 0.0000 -4.9385 0.0000 1.0190
# 5 -20.1603 -8.9484 -23.2388 0.0000 51.1194 0.0000
# 6 0.0000 0.0000 0.0000 1.0190 0.0000 5.5862
#
#
#
# Elastic Compliance Matrix: (Units=1/GPa)
#
#
# Indices 1 2 3 4 5 6 
#
# 1 0.014326 0.001811 -0.002315 0.000000 0.004915 0.000000
# 2 0.001811 0.017691 -0.005183 0.000000 0.001455 0.000000
# 3 -0.002315 -0.005183 0.011040 0.000000 0.003198 0.000000
# 4 0.000000 0.000000 0.000000 -0.195145 0.000000 0.035598
# 5 0.004915 0.001455 0.003198 0.000000 0.023209 0.000000
# 6 0.000000 0.000000 0.000000 0.035598 0.000000 0.172518
#
#
# Mechanical properties :
#
#
# Convention : Reuss Voigt Hill
#
# Bulk Modulus (GPa) = 31.56292 42.20436 36.88364
# Shear Modulus (GPa) = 76.25064 24.27092 50.26078
#
# Velocity S-wave (km/s) = 5.64419 3.18437 4.58242
# Velocity P-wave (km/s) = 7.46074 5.58148 6.58846
#
# Compressibility (1/GPa) = 0.03168275
#
# Stress axis : x y z
#
# Youngs Moduli (GPa) = 69.80159 56.52656 90.58250
#
# Poissons Ratio (x) = -0.10236 0.20970
# Poissons Ratio (y) = -0.12640 0.46948
# Poissons Ratio (z) = 0.16159 0.29297
#
# Static dielectric constant tensor:
#      x y z
#    x 2.046610 0.000000 0.013200 
#    y 0.000000 1.609570 0.000000 
#    z 0.013200 0.000000 1.906800 
# 
# From -- ./inp_files/50507.got.cif
#   From: 2010.05.17/outbox.cif.g08.bks.cpg/sg14_26_cif.got.tgz:50507.got - 2010.06.03 17:49:19.
