data_PCOD9245234
_publ_section_title
;
Structure prediction by ZEFSAII (Michael W. Deem and Ramdas Pophale) SiO2 
 PCOD9245234
Probable space group: P 21/C
;
_chemical_formula_sum "Si O2"
_cell_formula_units_Z 32
_cell_length_a 25.285824
_cell_length_b 14.929312
_cell_length_c 8.744134
_cell_angle_alpha 90.000000
_cell_angle_beta 149.829433
_cell_angle_gamma 90.000000
_cell_volume 1658.957913
_symmetry_space_group_name_H-M "P 21/C"
_symmetry_group_IT_number 14
_symmetry_cell_setting 'monoclinic'
loop_
_space_group_symop_operation_xyz
x,y,z
-x,1/2+y,1/2-z
-x,-y,-z
x,1/2-y,1/2+z
loop_
_atom_site_type_symbol
_atom_site_label
_atom_site_fract_x
_atom_site_fract_y
_atom_site_fract_z
Si Si1 0.779755 0.650229 0.766695
Si Si2 0.995668 0.649344 0.172475
Si Si3 0.616606 0.002734 0.224735
Si Si4 0.383391 0.997358 0.141707
Si Si5 0.770586 0.149655 0.109912
Si Si6 0.220235 0.349881 0.867598
Si Si7 0.995660 0.649238 0.806027
Si Si8 0.229430 0.649769 0.757145
O O1 0.683156 0.586213 0.483293
O O2 0.766659 0.750071 0.666868
O O3 0.889542 0.609910 0.977825
O O4 0.787142 0.656513 0.968008
O O5 0.997383 0.750071 0.243468
O O6 0.111670 0.613225 0.500475
O O7 0.985309 0.650869 0.963363
O O8 0.682047 0.086323 0.452947
O O9 0.683177 0.913927 0.432711
O O10 0.612221 0.008190 0.030545
O O11 0.500000 0.000000 0.000000
O O12 0.500000 0.000000 0.500000
O O13 0.317892 0.913838 0.042711
O O14 0.762052 0.249925 0.155145
O O15 0.888350 0.113084 0.441942
O O16 0.762350 0.153550 0.905818
O O17 0.110461 0.390235 0.529868
#
# Coordination Sequence:
#
# PCOD9245234 Si02
#       8
#     4   4   4   4   4   4   4   4
#     4  10  21  37  59  86 115 149 187 231 285 340
#     4   9  17  31  55  86 117 148 183 226 279 340
#     4  11  25  42  59  82 113 151 197 244 287 338
#     4  11  25  42  59  82 113 151 197 244 287 338
#     4  10  21  38  61  88 118 152 189 232 285 341
#     4  10  21  37  59  86 115 149 187 231 285 340
#     4   9  17  31  55  86 117 148 183 226 279 340
#     4  10  21  38  61  88 118 152 189 232 285 341
#
# _framework density 19.289217000000001
#
# number of rings (size 3 to 8) (size 9 to 14) (size 15 to 20)
#    0.000    2.000    0.000    4.500    0.000    9.000 
#    0.000    7.500    0.000    0.000    0.000    0.000 
#    0.000    0.000    0.000    0.000    0.000    0.000 
#
# Total GULP energy -178686.161919 kJ/mol
# GULP energy per Si atom -5583.942560 kJ/mol
# Density = 1.924531 g / cm^3
# Si number density = 19.289217 Si / 1000 Ang^3
#
#
#
# Elastic Constant Matrix: (Units=GPa)
#
#
# Indices 1 2 3 4 5 6 
#
# 1 100.8543 54.3978 76.4043 0.0000 32.1103 0.0000
# 2 54.3978 112.6094 82.3263 0.0000 17.9557 0.0000
# 3 76.4043 82.3263 199.2985 0.0000 31.2552 0.0000
# 4 0.0000 0.0000 0.0000 32.9663 0.0000 3.8947
# 5 32.1103 17.9557 31.2552 0.0000 36.6065 0.0000
# 6 0.0000 0.0000 0.0000 3.8947 0.0000 26.9146
#
#
#
# Elastic Compliance Matrix: (Units=1/GPa)
#
#
# Indices 1 2 3 4 5 6 
#
# 1 0.018577 -0.004688 -0.003453 0.000000 -0.011048 0.000000
# 2 -0.004688 0.014037 -0.004118 0.000000 0.000743 0.000000
# 3 -0.003453 -0.004118 0.008371 0.000000 -0.002099 0.000000
# 4 0.000000 0.000000 0.000000 0.030862 0.000000 -0.004466
# 5 -0.011048 0.000743 -0.002099 0.000000 0.038437 0.000000
# 6 0.000000 0.000000 0.000000 -0.004466 0.000000 0.037801
#
#
# Mechanical properties :
#
#
# Convention : Reuss Voigt Hill
#
# Bulk Modulus (GPa) = 60.72231 93.22433 76.97332
# Shear Modulus (GPa) = 28.07568 32.60639 30.34104
#
# Velocity S-wave (km/s) = 3.81926 4.11590 3.97035
# Velocity P-wave (km/s) = 7.14123 8.42747 7.81087
#
# Compressibility (1/GPa) = 0.01646841
#
# Stress axis : x y z
#
# Youngs Moduli (GPa) = 53.82993 71.24156 119.45575
#
# Poissons Ratio (x) = 0.33400 0.41243
# Poissons Ratio (y) = 0.25237 0.49186
# Poissons Ratio (z) = 0.18585 0.29334
#
# Static dielectric constant tensor:
#      x y z
#    x 1.650360 0.000000 0.015170 
#    y 0.000000 1.665010 0.000000 
#    z 0.015170 0.000000 1.673930 
# 
# From -- ./inp_files/19559.got.cif
#   From: 2010.05.17/outbox.cif.g08.bks.cpg/sg14_10_cif.got.tgz:19559.got - 2010.06.03 17:49:19.
