data_PCOD9245921
_publ_section_title
;
Structure prediction by ZEFSAII (Michael W. Deem and Ramdas Pophale) SiO2 
 PCOD9245921
Probable space group: P 21/C
;
_chemical_formula_sum "Si O2"
_cell_formula_units_Z 28
_cell_length_a 11.101387
_cell_length_b 9.558040
_cell_length_c 18.705753
_cell_angle_alpha 90.000000
_cell_angle_beta 144.799396
_cell_angle_gamma 90.000000
_cell_volume 1144.131894
_symmetry_space_group_name_H-M "P 21/C"
_symmetry_group_IT_number 14
_symmetry_cell_setting 'monoclinic'
loop_
_space_group_symop_operation_xyz
x,y,z
-x,1/2+y,1/2-z
-x,-y,-z
x,1/2-y,1/2+z
loop_
_atom_site_type_symbol
_atom_site_label
_atom_site_fract_x
_atom_site_fract_y
_atom_site_fract_z
Si Si1 0.462653 0.766361 0.093420
Si Si2 0.050003 0.559198 0.214662
Si Si3 0.791577 0.612042 0.843177
Si Si4 0.774761 0.332175 0.897315
Si Si5 0.209838 0.649556 0.725911
Si Si6 0.407617 0.161894 0.499579
Si Si7 0.776303 0.954406 0.050947
O O1 0.651634 0.767390 0.242021
O O2 0.279932 0.691946 0.047518
O O3 0.517069 0.708308 0.042505
O O4 0.383950 0.926452 0.049988
O O5 0.803601 0.573418 0.107694
O O6 0.104302 0.461533 0.174939
O O7 0.136820 0.713632 0.237052
O O8 0.160041 0.495392 0.337291
O O9 0.681438 0.480671 0.827960
O O10 0.972946 0.660353 0.984292
O O11 0.716143 0.209403 0.814421
O O12 0.000645 0.556104 0.619860
O O13 0.407345 0.591797 0.865267
O O14 0.338841 0.305628 0.505773
#
# Coordination Sequence:
#
# PCOD9245921 Si02
#       7
#     4   4   4   4   4   4   4
#     4  12  24  40  71  96 125 172 223 266 324 396
#     4  10  21  39  65  92 126 167 217 268 328 385
#     4  10  23  46  65  89 133 175 212 268 330 388
#     4  10  25  43  64  93 131 175 214 263 331 393
#     4  10  23  42  62  95 134 168 215 271 324 392
#     4  11  23  40  67  98 128 167 219 273 329 387
#     4  11  22  39  67  97 127 170 217 273 329 376
#
# _framework density 24.472702000000002
#
# number of rings (size 3 to 8) (size 9 to 14) (size 15 to 20)
#    0.000    1.429    2.857    2.143    4.000    6.857 
#    2.571    0.000    0.000    0.000    0.000    0.000 
#    0.000    0.000    0.000    0.000    0.000    0.000 
#
# Total GULP energy -156793.519401 kJ/mol
# GULP energy per Si atom -5599.768550 kJ/mol
# Density = 2.441700 g / cm^3
# Si number density = 24.472702 Si / 1000 Ang^3
#
#
#
# Elastic Constant Matrix: (Units=GPa)
#
#
# Indices 1 2 3 4 5 6 
#
# 1 59.4220 2.8312 -13.5007 0.0000 11.2101 0.0000
# 2 2.8312 30.2509 0.7884 0.0000 7.7450 0.0000
# 3 -13.5007 0.7884 82.6410 0.0000 4.3715 0.0000
# 4 0.0000 0.0000 0.0000 32.1952 0.0000 12.5160
# 5 11.2101 7.7450 4.3715 0.0000 30.3602 0.0000
# 6 0.0000 0.0000 0.0000 12.5160 0.0000 20.3492
#
#
#
# Elastic Compliance Matrix: (Units=1/GPa)
#
#
# Indices 1 2 3 4 5 6 
#
# 1 0.019049 0.000060 0.003511 0.000000 -0.007554 0.000000
# 2 0.000060 0.035369 0.000152 0.000000 -0.009067 0.000000
# 3 0.003511 0.000152 0.012841 0.000000 -0.003184 0.000000
# 4 0.000000 0.000000 0.000000 0.040821 0.000000 -0.025107
# 5 -0.007554 -0.009067 -0.003184 0.000000 0.038499 0.000000
# 6 0.000000 0.000000 0.000000 -0.025107 0.000000 0.064584
#
#
# Mechanical properties :
#
#
# Convention : Reuss Voigt Hill
#
# Bulk Modulus (GPa) = 13.38621 16.95021 15.16821
# Shear Modulus (GPa) = 21.87051 28.72727 25.29889
#
# Velocity S-wave (km/s) = 2.99267 3.42987 3.21870
# Velocity P-wave (km/s) = 4.17411 4.75673 4.47491
#
# Compressibility (1/GPa) = 0.07470374
#
# Stress axis : x y z
#
# Youngs Moduli (GPa) = 52.49695 28.27364 77.87512
#
# Poissons Ratio (x) = -0.00169 -0.27341
# Poissons Ratio (y) = -0.00314 -0.01183
# Poissons Ratio (z) = -0.18431 -0.00430
#
# Static dielectric constant tensor:
#      x y z
#    x 1.912290 0.000000 0.060200 
#    y 0.000000 1.973680 0.000000 
#    z 0.060200 0.000000 1.946310 
# 
# From -- ./inp_files/67369.got.cif
#   From: 2010.05.17/outbox.cif.g08.bks.cpg/sg14_34_cif.got.tgz:67369.got - 2010.06.03 17:49:19.
