data_PCOD9245602
_publ_section_title
;
Structure prediction by ZEFSAII (Michael W. Deem and Ramdas Pophale) SiO2 
 PCOD9245602
Probable space group: P 21/C
;
_chemical_formula_sum "Si O2"
_cell_formula_units_Z 32
_cell_length_a 18.801235
_cell_length_b 8.943135
_cell_length_c 9.049777
_cell_angle_alpha 90.000000
_cell_angle_beta 76.689948
_cell_angle_gamma 90.000000
_cell_volume 1480.773712
_symmetry_space_group_name_H-M "P 21/C"
_symmetry_group_IT_number 14
_symmetry_cell_setting 'monoclinic'
loop_
_space_group_symop_operation_xyz
x,y,z
-x,1/2+y,1/2-z
-x,-y,-z
x,1/2-y,1/2+z
loop_
_atom_site_type_symbol
_atom_site_label
_atom_site_fract_x
_atom_site_fract_y
_atom_site_fract_z
Si Si1 0.929147 0.578620 0.963172
Si Si2 0.021428 0.356822 0.390136
Si Si3 0.229402 0.837654 0.816944
Si Si4 0.135106 0.705702 0.086826
Si Si5 0.647123 0.522840 0.885477
Si Si6 0.470926 0.709071 0.172848
Si Si7 0.656201 0.082675 0.706807
Si Si8 0.575315 0.840880 0.885553
O O1 0.867093 0.450801 0.004121
O O2 0.942080 0.600634 0.782485
O O3 0.000000 0.500000 0.000000
O O4 0.927809 0.739271 0.044028
O O5 0.945402 0.274821 0.382926
O O6 0.000000 0.500000 0.500000
O O7 0.162417 0.833294 0.735892
O O8 0.285460 0.968252 0.747579
O O9 0.277736 0.688161 0.780026
O O10 0.192323 0.824149 0.993393
O O11 0.576865 0.416592 0.886442
O O12 0.621488 0.688761 0.862092
O O13 0.669517 0.502320 0.046326
O O14 0.528729 0.641277 0.258206
O O15 0.411823 0.806138 0.288550
O O16 0.517179 0.817108 0.043478
O O17 0.631019 0.977838 0.853687
#
# Coordination Sequence:
#
# PCOD9245602 Si02
#       8
#     4   4   4   4   4   4   4   4
#     4  10  21  38  64  98 139 164 206 261 308 369
#     4  11  21  39  67 105 135 166 202 264 330 363
#     4  11  24  42  66  84 121 176 219 249 305 375
#     4  11  22  42  67  93 125 169 214 250 300 383
#     4  11  23  42  59  90 130 156 207 273 308 376
#     4  11  22  37  65  89 118 163 206 260 333 387
#     4  11  23  41  60  91 124 161 213 263 312 382
#     4  12  22  38  63  88 126 158 201 271 337 370
#
# _framework density 21.610323999999999
#
# number of rings (size 3 to 8) (size 9 to 14) (size 15 to 20)
#    0.000    1.000    3.750    5.250    0.000    1.000 
#    0.000    3.750    0.000    0.000    0.000    0.000 
#    0.000    0.000    0.000    0.000    0.000    0.000 
#
# Total GULP energy -178796.573383 kJ/mol
# GULP energy per Si atom -5587.392918 kJ/mol
# Density = 2.156114 g / cm^3
# Si number density = 21.610324 Si / 1000 Ang^3
#
#
#
# Elastic Constant Matrix: (Units=GPa)
#
#
# Indices 1 2 3 4 5 6 
#
# 1 67.5270 26.2437 8.4733 0.0000 -0.5614 0.0000
# 2 26.2437 70.6134 -8.1559 0.0000 5.0973 0.0000
# 3 8.4733 -8.1559 57.1749 0.0000 2.9433 0.0000
# 4 0.0000 0.0000 0.0000 28.0143 0.0000 -7.6551
# 5 -0.5614 5.0973 2.9433 0.0000 38.3038 0.0000
# 6 0.0000 0.0000 0.0000 -7.6551 0.0000 18.9516
#
#
#
# Elastic Compliance Matrix: (Units=1/GPa)
#
#
# Indices 1 2 3 4 5 6 
#
# 1 0.018132 -0.007289 -0.003805 0.000000 0.001528 0.000000
# 2 -0.007289 0.017496 0.003716 0.000000 -0.002721 0.000000
# 3 -0.003805 0.003716 0.018686 0.000000 -0.001986 0.000000
# 4 0.000000 0.000000 0.000000 0.040125 0.000000 0.016208
# 5 0.001528 -0.002721 -0.001986 0.000000 0.026644 0.000000
# 6 0.000000 0.000000 0.000000 0.016208 0.000000 0.059313
#
#
# Mechanical properties :
#
#
# Convention : Reuss Voigt Hill
#
# Bulk Modulus (GPa) = 25.27922 27.60415 26.44169
# Shear Modulus (GPa) = 23.99942 28.30422 26.15182
#
# Velocity S-wave (km/s) = 3.33611 3.62298 3.48250
# Velocity P-wave (km/s) = 5.15390 5.50478 5.33223
#
# Compressibility (1/GPa) = 0.03955818
#
# Stress axis : x y z
#
# Youngs Moduli (GPa) = 55.15193 57.15580 53.51458
#
# Poissons Ratio (x) = 0.41658 0.20365
# Poissons Ratio (y) = 0.40198 -0.19886
# Poissons Ratio (z) = 0.20988 -0.21239
#
# Static dielectric constant tensor:
#      x y z
#    x 1.767890 0.000000 -0.019950 
#    y 0.000000 1.819520 0.000000 
#    z -0.019950 0.000000 1.799040 
# 
# From -- ./inp_files/18609.got.cif
#   From: 2010.05.17/outbox.cif.g08.bks.cpg/sg14_10_cif.got.tgz:18609.got - 2010.06.03 17:49:19.
