data_PCOD9245296
_publ_section_title
;
Structure prediction by ZEFSAII (Michael W. Deem and Ramdas Pophale) SiO2 
 PCOD9245296
Probable space group: P 21/C
;
_chemical_formula_sum "Si O2"
_cell_formula_units_Z 26
_cell_length_a 13.094865
_cell_length_b 4.929725
_cell_length_c 18.690007
_cell_angle_alpha 90.000000
_cell_angle_beta 94.522115
_cell_angle_gamma 90.000000
_cell_volume 1202.760356
_symmetry_space_group_name_H-M "P 21/C"
_symmetry_group_IT_number 14
_symmetry_cell_setting 'monoclinic'
loop_
_space_group_symop_operation_xyz
x,y,z
-x,1/2+y,1/2-z
-x,-y,-z
x,1/2-y,1/2+z
loop_
_atom_site_type_symbol
_atom_site_label
_atom_site_fract_x
_atom_site_fract_y
_atom_site_fract_z
Si Si1 0.500000 0.000000 0.000000
Si Si2 0.373476 0.428911 0.797145
Si Si3 0.109139 0.806141 0.951046
Si Si4 0.112434 0.191662 0.552086
Si Si5 0.315179 0.420762 0.630923
Si Si6 0.688861 0.070081 0.119284
Si Si7 0.431281 0.572742 0.107249
O O1 0.510076 0.274954 0.951522
O O2 0.390681 0.920472 0.950528
O O3 0.342710 0.372376 0.714538
O O4 0.349804 0.732745 0.820257
O O5 0.494172 0.396807 0.820413
O O6 0.312099 0.227972 0.846431
O O7 0.201980 0.822504 0.901498
O O8 0.998147 0.712431 0.916113
O O9 0.130831 0.600468 0.018010
O O10 0.102078 0.105281 0.984145
O O11 0.206138 0.304217 0.603285
O O12 0.333340 0.736064 0.616068
O O13 0.400279 0.240614 0.591113
#
# Coordination Sequence:
#
# PCOD9245296 Si02
#       7
#     2   4   4   4   4   4   4
#     4  10  22  36  58  90 112 146 194 234 296 348
#     4  11  24  38  55  84 118 157 195 229 282 352
#     4  10  21  39  60  87 114 144 185 244 302 329
#     4  10  21  37  62  87 111 144 193 239 285 353
#     4  12  22  39  59  83 114 158 196 231 282 348
#     4  11  22  38  58  83 120 152 188 243 290 341
#     4  11  23  37  59  84 119 151 188 243 287 341
#
# _framework density 21.61694
#
# number of rings (size 3 to 8) (size 9 to 14) (size 15 to 20)
#    0.000    1.231    0.000    7.385    0.000    6.769 
#    0.000    1.538    0.000    0.000    0.000    0.000 
#    0.000    0.000    0.000    0.000    0.000    0.000 
#
# Total GULP energy -144994.895755 kJ/mol
# GULP energy per Si atom -5576.726760 kJ/mol
# Density = 2.156774 g / cm^3
# Si number density = 21.616940 Si / 1000 Ang^3
#
#
#
# Elastic Constant Matrix: (Units=GPa)
#
#
# Indices 1 2 3 4 5 6 
#
# 1 124.2557 5.8523 11.5069 0.0000 7.7621 0.0000
# 2 5.8523 81.1702 -14.9592 0.0000 -1.4028 0.0000
# 3 11.5069 -14.9592 40.5837 0.0000 4.2906 0.0000
# 4 0.0000 0.0000 0.0000 27.9950 0.0000 -2.8837
# 5 7.7621 -1.4028 4.2906 0.0000 27.1636 0.0000
# 6 0.0000 0.0000 0.0000 -2.8837 0.0000 29.4925
#
#
#
# Elastic Compliance Matrix: (Units=1/GPa)
#
#
# Indices 1 2 3 4 5 6 
#
# 1 0.008471 -0.001125 -0.002598 0.000000 -0.002068 0.000000
# 2 -0.001125 0.013367 0.005227 0.000000 0.000186 0.000000
# 3 -0.002598 0.005227 0.027658 0.000000 -0.003357 0.000000
# 4 0.000000 0.000000 0.000000 0.036084 0.000000 0.003528
# 5 -0.002068 0.000186 -0.003357 0.000000 0.037945 0.000000
# 6 0.000000 0.000000 0.000000 0.003528 0.000000 0.034252
#
#
# Mechanical properties :
#
#
# Convention : Reuss Voigt Hill
#
# Bulk Modulus (GPa) = 19.04635 27.86772 23.45704
# Shear Modulus (GPa) = 29.02397 33.17087 31.09742
#
# Velocity S-wave (km/s) = 3.66819 3.92150 3.79696
# Velocity P-wave (km/s) = 5.17405 5.78133 5.48610
#
# Compressibility (1/GPa) = 0.05250350
#
# Stress axis : x y z
#
# Youngs Moduli (GPa) = 118.05398 74.80902 36.15537
#
# Poissons Ratio (x) = 0.08418 0.09393
# Poissons Ratio (y) = 0.13284 -0.18897
# Poissons Ratio (z) = 0.30669 -0.39100
#
# Static dielectric constant tensor:
#      x y z
#    x 1.856670 0.000000 -0.040600 
#    y 0.000000 1.759550 0.000000 
#    z -0.040600 0.000000 1.789020 
# 
# From -- ./inp_files/56602.got.cif
#   From: 2010.05.17/outbox.cif.g08.bks.cpg/sg14_29_cif.got.tgz:56602.got - 2010.06.03 17:49:19.
