data_PCOD9245274
_publ_section_title
;
Structure prediction by ZEFSAII (Michael W. Deem and Ramdas Pophale) SiO2 
 PCOD9245274
Probable space group: P 21/C
;
_chemical_formula_sum "Si O2"
_cell_formula_units_Z 24
_cell_length_a 9.995873
_cell_length_b 20.335010
_cell_length_c 9.772304
_cell_angle_alpha 90.000000
_cell_angle_beta 41.053861
_cell_angle_gamma 90.000000
_cell_volume 1304.590491
_symmetry_space_group_name_H-M "P 21/C"
_symmetry_group_IT_number 14
_symmetry_cell_setting 'monoclinic'
loop_
_space_group_symop_operation_xyz
x,y,z
-x,1/2+y,1/2-z
-x,-y,-z
x,1/2-y,1/2+z
loop_
_atom_site_type_symbol
_atom_site_label
_atom_site_fract_x
_atom_site_fract_y
_atom_site_fract_z
Si Si1 0.689272 0.342742 0.104882
Si Si2 0.232733 0.484866 0.351315
Si Si3 0.159723 0.320781 0.803647
Si Si4 0.521473 0.105120 0.456579
Si Si5 0.367264 0.268625 0.912667
Si Si6 0.593608 0.937445 0.002659
O O1 0.552250 0.276967 0.217057
O O2 0.584183 0.394042 0.290216
O O3 0.666135 0.372075 0.970186
O O4 0.919768 0.329772 0.969694
O O5 0.366010 0.549891 0.219249
O O6 0.265676 0.460928 0.480265
O O7 0.000000 0.500000 0.500000
O O8 0.326817 0.429076 0.179269
O O9 0.224538 0.289048 0.896976
O O10 0.243708 0.274243 0.618002
O O11 0.276361 0.390143 0.695569
O O12 0.454913 0.166969 0.418769
O O13 0.500000 0.000000 0.000000
#
# Coordination Sequence:
#
# PCOD9245274 Si02
#       6
#     4   4   4   4   4   4
#     4  10  23  40  60  89 124 159 201 253 295 359
#     4  10  21  37  61  87 115 158 198 239 296 356
#     4  11  24  38  63  88 120 163 202 245 309 356
#     4  10  21  39  59  85 123 153 195 250 293 347
#     4  11  23  40  58  90 121 158 204 250 296 361
#     4  10  22  40  59  89 124 153 202 252 294 358
#
# _framework density 18.396578999999999
#
# number of rings (size 3 to 8) (size 9 to 14) (size 15 to 20)
#    0.000    1.667    1.667    2.000    2.333    3.333 
#    0.000    0.000    0.000    0.000    0.000    0.000 
#    0.000    0.000    0.000    0.000    0.000    0.000 
#
# Total GULP energy -134134.440846 kJ/mol
# GULP energy per Si atom -5588.935035 kJ/mol
# Density = 1.835471 g / cm^3
# Si number density = 18.396579 Si / 1000 Ang^3
#
#
#
# Elastic Constant Matrix: (Units=GPa)
#
#
# Indices 1 2 3 4 5 6 
#
# 1 100.2081 43.9641 36.7900 0.0000 -9.3714 0.0000
# 2 43.9641 110.6325 16.7087 0.0000 1.7724 0.0000
# 3 36.7900 16.7087 24.6011 0.0000 -3.2274 0.0000
# 4 0.0000 0.0000 0.0000 17.3480 0.0000 7.4953
# 5 -9.3714 1.7724 -3.2274 0.0000 23.9648 0.0000
# 6 0.0000 0.0000 0.0000 7.4953 0.0000 43.2420
#
#
#
# Elastic Compliance Matrix: (Units=1/GPa)
#
#
# Indices 1 2 3 4 5 6 
#
# 1 0.024777 -0.004960 -0.032947 0.000000 0.005619 0.000000
# 2 -0.004960 0.011133 -0.000515 0.000000 -0.002832 0.000000
# 3 -0.032947 -0.000515 0.090177 0.000000 -0.000701 0.000000
# 4 0.000000 0.000000 0.000000 0.062310 0.000000 -0.010800
# 5 0.005619 -0.002832 -0.000701 0.000000 0.044040 0.000000
# 6 0.000000 0.000000 0.000000 -0.010800 0.000000 0.024998
#
#
# Mechanical properties :
#
#
# Convention : Reuss Voigt Hill
#
# Bulk Modulus (GPa) = 20.30759 47.81862 34.06310
# Shear Modulus (GPa) = 14.25743 26.10954 20.18349
#
# Velocity S-wave (km/s) = 2.78691 3.77139 3.31589
# Velocity P-wave (km/s) = 4.62802 6.70926 5.76337
#
# Compressibility (1/GPa) = 0.04924267
#
# Stress axis : x y z
#
# Youngs Moduli (GPa) = 40.36033 89.82094 11.08925
#
# Poissons Ratio (x) = 0.44552 0.36536
# Poissons Ratio (y) = 0.20019 0.00572
# Poissons Ratio (z) = 1.32974 0.04630
#
# Static dielectric constant tensor:
#      x y z
#    x 1.589750 0.000000 0.016020 
#    y 0.000000 1.624240 0.000000 
#    z 0.016020 0.000000 1.615190 
# 
# From -- ./inp_files/6324.got.cif
#   From: 2010.05.17/outbox.cif.g08.bks.cpg/sg14_4_cif.got.tgz:6324.got - 2010.06.03 17:49:19.
