data_PCOD9245022
_publ_section_title
;
Structure prediction by ZEFSAII (Michael W. Deem and Ramdas Pophale) SiO2 
 PCOD9245022
Probable space group: P 21/C
;
_chemical_formula_sum "Si O2"
_cell_formula_units_Z 32
_cell_length_a 22.527779
_cell_length_b 13.503096
_cell_length_c 9.709041
_cell_angle_alpha 90.000000
_cell_angle_beta 28.134623
_cell_angle_gamma 90.000000
_cell_volume 1392.679153
_symmetry_space_group_name_H-M "P 21/C"
_symmetry_group_IT_number 14
_symmetry_cell_setting 'monoclinic'
loop_
_space_group_symop_operation_xyz
x,y,z
-x,1/2+y,1/2-z
-x,-y,-z
x,1/2-y,1/2+z
loop_
_atom_site_type_symbol
_atom_site_label
_atom_site_fract_x
_atom_site_fract_y
_atom_site_fract_z
Si Si1 0.251142 0.411859 0.863996
Si Si2 0.893890 0.380764 0.325931
Si Si3 0.170628 0.066516 0.233367
Si Si4 0.549018 0.153389 0.191026
Si Si5 0.480602 0.940349 0.290213
Si Si6 0.211794 0.489314 0.235794
Si Si7 0.266306 0.188180 0.812667
Si Si8 0.346236 0.729241 0.245823
O O1 0.204751 0.459587 0.817739
O O2 0.403901 0.410931 0.544785
O O3 0.211274 0.296839 0.938304
O O4 0.197323 0.464942 0.106964
O O5 0.846009 0.468107 0.321869
O O6 0.871999 0.425665 0.523085
O O7 0.799580 0.291800 0.488760
O O8 0.040686 0.371879 0.997277
O O9 0.271415 0.135805 0.951550
O O10 0.532873 0.038213 0.260794
O O11 0.407593 0.193756 0.468536
O O12 0.622115 0.214485 0.159013
O O13 0.613698 0.169745 0.910808
O O14 0.356136 0.977155 0.465913
O O15 0.429218 0.855293 0.496713
O O16 0.193902 0.387986 0.360923
#
# Coordination Sequence:
#
# PCOD9245022 Si02
#       8
#     4   4   4   4   4   4   4   4
#     4  12  20  33  61  90 119 148 198 246 299 340
#     4   9  21  44  60  79 117 160 203 240 296 354
#     4  10  21  39  65  82 111 164 203 243 289 355
#     4  11  23  36  62  90 123 158 196 241 305 362
#     4  10  21  37  58  90 125 162 190 239 306 366
#     4   9  21  35  57  88 121 151 192 248 290 349
#     4  10  21  36  56  89 120 151 196 234 297 355
#     4  11  22  40  60  88 122 160 198 246 296 365
#
# _framework density 22.977295999999999
#
# number of rings (size 3 to 8) (size 9 to 14) (size 15 to 20)
#    0.000    1.750    1.250    3.750    3.500    2.500 
#    2.250    0.000    2.750    0.000    0.000    0.000 
#    0.000    0.000    0.000    0.000    0.000    0.000 
#
# Total GULP energy -178938.284008 kJ/mol
# GULP energy per Si atom -5591.821375 kJ/mol
# Density = 2.292500 g / cm^3
# Si number density = 22.977296 Si / 1000 Ang^3
#
#
#
# Elastic Constant Matrix: (Units=GPa)
#
#
# Indices 1 2 3 4 5 6 
#
# 1 42.5520 -2.2300 8.6759 0.0000 27.3626 0.0000
# 2 -2.2300 38.8221 -0.6165 0.0000 2.9221 0.0000
# 3 8.6759 -0.6165 52.3539 0.0000 3.6994 0.0000
# 4 0.0000 0.0000 0.0000 30.2787 0.0000 -0.4612
# 5 27.3626 2.9221 3.6994 0.0000 40.5877 0.0000
# 6 0.0000 0.0000 0.0000 -0.4612 0.0000 9.4527
#
#
#
# Elastic Compliance Matrix: (Units=1/GPa)
#
#
# Indices 1 2 3 4 5 6 
#
# 1 0.043600 0.004626 -0.005103 0.000000 -0.029261 0.000000
# 2 0.004626 0.026400 -0.000102 0.000000 -0.005010 0.000000
# 3 -0.005103 -0.000102 0.019829 0.000000 0.001640 0.000000
# 4 0.000000 0.000000 0.000000 0.033051 0.000000 0.001612
# 5 -0.029261 -0.005010 0.001640 0.000000 0.044576 0.000000
# 6 0.000000 0.000000 0.000000 0.001612 0.000000 0.105868
#
#
# Mechanical properties :
#
#
# Convention : Reuss Voigt Hill
#
# Bulk Modulus (GPa) = 11.27769 16.15411 13.71590
# Shear Modulus (GPa) = 16.44528 24.59040 20.51784
#
# Velocity S-wave (km/s) = 2.67819 3.27495 2.99149
# Velocity P-wave (km/s) = 3.80559 4.62018 4.23253
#
# Compressibility (1/GPa) = 0.08867061
#
# Stress axis : x y z
#
# Youngs Moduli (GPa) = 22.93601 37.87919 50.43034
#
# Poissons Ratio (x) = -0.17522 0.25735
# Poissons Ratio (y) = -0.10610 0.00513
# Poissons Ratio (z) = 0.11704 0.00385
#
# Static dielectric constant tensor:
#      x y z
#    x 1.850470 0.000000 0.005860 
#    y 0.000000 1.923950 0.000000 
#    z 0.005860 0.000000 1.841200 
# 
# From -- ./inp_files/19540.got.cif
#   From: 2010.05.17/outbox.cif.g08.bks.cpg/sg14_10_cif.got.tgz:19540.got - 2010.06.03 17:49:19.
