data_PCOD9245295
_publ_section_title
;
Structure prediction by ZEFSAII (Michael W. Deem and Ramdas Pophale) SiO2 
 PCOD9245295
Probable space group: P 21/C
;
_chemical_formula_sum "Si O2"
_cell_formula_units_Z 32
_cell_length_a 10.684691
_cell_length_b 14.794595
_cell_length_c 21.195282
_cell_angle_alpha 90.000000
_cell_angle_beta 24.970823
_cell_angle_gamma 90.000000
_cell_volume 1414.418462
_symmetry_space_group_name_H-M "P 21/C"
_symmetry_group_IT_number 14
_symmetry_cell_setting 'monoclinic'
loop_
_space_group_symop_operation_xyz
x,y,z
-x,1/2+y,1/2-z
-x,-y,-z
x,1/2-y,1/2+z
loop_
_atom_site_type_symbol
_atom_site_label
_atom_site_fract_x
_atom_site_fract_y
_atom_site_fract_z
Si Si1 0.162644 0.470872 0.159517
Si Si2 0.707595 0.285837 0.811812
Si Si3 0.893284 0.677351 0.970543
Si Si4 0.245459 0.313577 0.825706
Si Si5 0.709188 0.482288 0.465561
Si Si6 0.256447 0.242109 0.616865
Si Si7 0.692531 0.222323 0.025613
Si Si8 0.755559 0.008643 0.727506
O O1 0.141692 0.361356 0.160936
O O2 0.029714 0.498196 0.288389
O O3 0.971244 0.509930 0.188960
O O4 0.500000 0.500000 0.000000
O O5 0.908395 0.243520 0.664409
O O6 0.970829 0.306771 0.741915
O O7 0.440406 0.344118 0.903869
O O8 0.489412 0.226492 0.956446
O O9 0.094895 0.588751 0.879007
O O10 0.828598 0.712905 0.069613
O O11 0.555351 0.277899 0.658127
O O12 0.262727 0.420891 0.807331
O O13 0.995679 0.274947 0.893071
O O14 0.500000 0.500000 0.500000
O O15 0.717368 0.378826 0.486462
O O16 0.557641 0.531666 0.594685
O O17 0.450165 0.235558 0.590444
#
# Coordination Sequence:
#
# PCOD9245295 Si02
#       8
#     4   4   4   4   4   4   4   4
#     4  11  20  36  58  93 132 157 204 256 325 398
#     4  10  21  37  62  85 123 161 206 261 314 375
#     4  11  22  42  60  91 124 170 224 264 310 393
#     4  11  23  39  64  88 125 172 215 266 320 377
#     4   9  21  37  58  87 130 170 195 255 332 395
#     4  11  21  37  61  95 123 159 203 265 322 388
#     4  11  22  38  63  93 125 163 213 262 328 390
#     4  10  21  40  58  89 123 171 212 260 324 381
#
# _framework density 22.624139
#
# number of rings (size 3 to 8) (size 9 to 14) (size 15 to 20)
#    0.000    1.500    2.500    4.125    1.750    2.000 
#    2.250    0.000    0.000    0.000    0.000   12.250 
#    0.000    0.000    0.000    0.000    0.000    0.000 
#
# Total GULP energy -178355.855751 kJ/mol
# GULP energy per Si atom -5573.620492 kJ/mol
# Density = 2.257265 g / cm^3
# Si number density = 22.624139 Si / 1000 Ang^3
#
#
#
# Elastic Constant Matrix: (Units=GPa)
#
#
# Indices 1 2 3 4 5 6 
#
# 1 51.1896 -11.0536 22.9595 0.0000 6.6822 0.0000
# 2 -11.0536 41.2684 7.0522 0.0000 1.6594 0.0000
# 3 22.9595 7.0522 175.7920 0.0000 16.8396 0.0000
# 4 0.0000 0.0000 0.0000 22.5544 0.0000 1.3755
# 5 6.6822 1.6594 16.8396 0.0000 38.7961 0.0000
# 6 0.0000 0.0000 0.0000 1.3755 0.0000 17.7148
#
#
#
# Elastic Compliance Matrix: (Units=1/GPa)
#
#
# Indices 1 2 3 4 5 6 
#
# 1 0.022686 0.006698 -0.002953 0.000000 -0.002912 0.000000
# 2 0.006698 0.026392 -0.001789 0.000000 -0.001506 0.000000
# 3 -0.002953 -0.001789 0.006354 0.000000 -0.002173 0.000000
# 4 0.000000 0.000000 0.000000 0.044548 0.000000 -0.003459
# 5 -0.002912 -0.001506 -0.002173 0.000000 0.027285 0.000000
# 6 0.000000 0.000000 0.000000 -0.003459 0.000000 0.056719
#
#
# Mechanical properties :
#
#
# Convention : Reuss Voigt Hill
#
# Bulk Modulus (GPa) = 16.85080 34.01845 25.43463
# Shear Modulus (GPa) = 25.01835 32.43251 28.72543
#
# Velocity S-wave (km/s) = 3.32900 3.79031 3.56712
# Velocity P-wave (km/s) = 4.71600 5.85015 5.31343
#
# Compressibility (1/GPa) = 0.05934435
#
# Stress axis : x y z
#
# Youngs Moduli (GPa) = 44.07989 37.89031 157.37844
#
# Poissons Ratio (x) = -0.25379 0.46469
# Poissons Ratio (y) = -0.29525 0.28160
# Poissons Ratio (z) = 0.13015 0.06780
#
# Static dielectric constant tensor:
#      x y z
#    x 1.885710 0.000000 0.029680 
#    y 0.000000 1.830730 0.000000 
#    z 0.029680 0.000000 1.856100 
# 
# From -- ./inp_files/73369.got.cif
#   From: 2010.05.17/outbox.cif.g08.bks.cpg/sg14_37_cif.got.tgz:73369.got - 2010.06.03 17:49:19.
