data_PCOD9245632
_publ_section_title
;
Structure prediction by ZEFSAII (Michael W. Deem and Ramdas Pophale) SiO2 
 PCOD9245632
Probable space group: P 21/C
;
_chemical_formula_sum "Si O2"
_cell_formula_units_Z 32
_cell_length_a 8.984699
_cell_length_b 21.855781
_cell_length_c 15.070865
_cell_angle_alpha 90.000000
_cell_angle_beta 149.605470
_cell_angle_gamma 90.000000
_cell_volume 1497.327702
_symmetry_space_group_name_H-M "P 21/C"
_symmetry_group_IT_number 14
_symmetry_cell_setting 'monoclinic'
loop_
_space_group_symop_operation_xyz
x,y,z
-x,1/2+y,1/2-z
-x,-y,-z
x,1/2-y,1/2+z
loop_
_atom_site_type_symbol
_atom_site_label
_atom_site_fract_x
_atom_site_fract_y
_atom_site_fract_z
Si Si1 0.201920 0.563391 0.691823
Si Si2 0.604021 0.387261 0.915788
Si Si3 0.861514 0.989240 0.525884
Si Si4 0.279049 0.824030 0.359267
Si Si5 0.354991 0.934126 0.902437
Si Si6 0.039773 0.569833 0.411526
Si Si7 0.596337 0.337102 0.718065
Si Si8 0.166925 0.269009 0.951594
O O1 0.536182 0.539223 0.853241
O O2 0.192103 0.613838 0.762905
O O3 0.114134 0.588991 0.549999
O O4 0.995985 0.504412 0.605038
O O5 0.817589 0.443747 0.043861
O O6 0.587961 0.375605 0.803446
O O7 0.278600 0.405708 0.778635
O O8 0.705964 0.332109 0.028222
O O9 0.068014 0.950903 0.696334
O O10 0.000000 0.000000 0.500000
O O11 0.597689 0.806704 0.483858
O O12 0.048255 0.771927 0.218095
O O13 0.267883 0.909586 0.954558
O O14 0.491036 0.880808 0.910284
O O15 0.500000 0.000000 0.000000
O O16 0.371020 0.279962 0.609133
O O17 0.931161 0.311897 0.880374
#
# Coordination Sequence:
#
# PCOD9245632 Si02
#       8
#     4   4   4   4   4   4   4   4
#     4  10  21  38  66  88 135 169 206 261 317 397
#     4  11  23  38  69  93 130 167 210 271 321 397
#     4  11  21  37  58 100 134 167 205 252 330 395
#     4  11  23  43  66  91 123 174 220 272 321 378
#     4  12  25  39  66  97 138 173 212 272 332 401
#     4  10  22  38  61 102 128 169 210 251 335 392
#     4  11  24  45  65  96 131 168 222 272 327 391
#     4  10  25  45  66  88 125 175 225 275 322 380
#
# _framework density 21.371406
#
# number of rings (size 3 to 8) (size 9 to 14) (size 15 to 20)
#    0.000    1.250    1.250    4.500    7.000    3.000 
#    0.000    5.000    0.000    0.000    0.000    0.000 
#    0.000    0.000    0.000    0.000    0.000    0.000 
#
# Total GULP energy -178810.613872 kJ/mol
# GULP energy per Si atom -5587.831683 kJ/mol
# Density = 2.132276 g / cm^3
# Si number density = 21.371406 Si / 1000 Ang^3
#
#
#
# Elastic Constant Matrix: (Units=GPa)
#
#
# Indices 1 2 3 4 5 6 
#
# 1 77.2125 19.0812 21.8675 0.0000 -10.7247 0.0000
# 2 19.0812 58.3217 4.2572 0.0000 2.2748 0.0000
# 3 21.8675 4.2572 46.4056 0.0000 8.9807 0.0000
# 4 0.0000 0.0000 0.0000 31.2954 0.0000 1.8067
# 5 -10.7247 2.2748 8.9807 0.0000 36.7145 0.0000
# 6 0.0000 0.0000 0.0000 1.8067 0.0000 18.8808
#
#
#
# Elastic Compliance Matrix: (Units=1/GPa)
#
#
# Indices 1 2 3 4 5 6 
#
# 1 0.018148 -0.005549 -0.009589 0.000000 0.007991 0.000000
# 2 -0.005549 0.018977 0.001486 0.000000 -0.003160 0.000000
# 3 -0.009589 0.001486 0.027808 0.000000 -0.009695 0.000000
# 4 0.000000 0.000000 0.000000 0.032131 0.000000 -0.003075
# 5 0.007991 -0.003160 -0.009695 0.000000 0.032139 0.000000
# 6 0.000000 0.000000 0.000000 -0.003075 0.000000 0.053258
#
#
# Mechanical properties :
#
#
# Convention : Reuss Voigt Hill
#
# Bulk Modulus (GPa) = 26.57670 30.26129 28.41900
# Shear Modulus (GPa) = 22.49120 26.49373 24.49246
#
# Velocity S-wave (km/s) = 3.24759 3.52473 3.38899
# Velocity P-wave (km/s) = 5.15025 5.54576 5.35166
#
# Compressibility (1/GPa) = 0.03762694
#
# Stress axis : x y z
#
# Youngs Moduli (GPa) = 55.10139 52.69628 35.96104
#
# Poissons Ratio (x) = 0.29243 0.34484
# Poissons Ratio (y) = 0.30578 -0.05343
# Poissons Ratio (z) = 0.52838 -0.07829
#
# Static dielectric constant tensor:
#      x y z
#    x 1.778650 0.000000 0.032510 
#    y 0.000000 1.804210 0.000000 
#    z 0.032510 0.000000 1.745360 
# 
# From -- ./inp_files/42243.got.cif
#   From: 2010.05.17/outbox.cif.g08.bks.cpg/sg14_22_cif.got.tgz:42243.got - 2010.06.03 17:49:19.
