data_PCOD9245527
_publ_section_title
;
Structure prediction by ZEFSAII (Michael W. Deem and Ramdas Pophale) SiO2 
 PCOD9245527
Probable space group: P 21/C
;
_chemical_formula_sum "Si O2"
_cell_formula_units_Z 28
_cell_length_a 30.202822
_cell_length_b 7.021747
_cell_length_c 31.060153
_cell_angle_alpha 90.000000
_cell_angle_beta 9.129324
_cell_angle_gamma 90.000000
_cell_volume 1045.136613
_symmetry_space_group_name_H-M "P 21/C"
_symmetry_group_IT_number 14
_symmetry_cell_setting 'monoclinic'
loop_
_space_group_symop_operation_xyz
x,y,z
-x,1/2+y,1/2-z
-x,-y,-z
x,1/2-y,1/2+z
loop_
_atom_site_type_symbol
_atom_site_label
_atom_site_fract_x
_atom_site_fract_y
_atom_site_fract_z
Si Si1 0.784991 0.686658 0.981477
Si Si2 0.075024 0.225961 0.841212
Si Si3 0.723657 0.094541 0.817604
Si Si4 0.472467 0.286766 0.646181
Si Si5 0.972791 0.564107 0.373778
Si Si6 0.653164 0.956624 0.042957
Si Si7 0.324815 0.874406 0.702539
O O1 0.825282 0.880013 0.970969
O O2 0.064798 0.570485 0.719255
O O3 0.564539 0.555735 0.216476
O O4 0.704660 0.744171 0.010282
O O5 0.056404 0.447189 0.872937
O O6 0.407818 0.197949 0.526494
O O7 0.973453 0.148217 0.892639
O O8 0.904197 0.101382 0.040184
O O9 0.851621 0.241865 0.661193
O O10 0.539231 0.190292 0.032035
O O11 0.500000 0.000000 0.000000
O O12 0.545831 0.488278 0.598735
O O13 0.709764 0.136964 0.433777
O O14 0.184971 0.202124 0.940083
O O15 0.500000 0.000000 0.500000
#
# Coordination Sequence:
#
# PCOD9245527 Si02
#       7
#     4   4   4   4   4   4   4
#     4  10  21  38  62  91 123 155 197 244 295 359
#     4  11  22  36  55  82 111 143 189 239 286 332
#     4  10  23  39  56  84 117 148 194 250 296 343
#     4  10  22  40  60  81 116 156 192 233 293 359
#     4  10  21  39  60  84 114 154 195 233 285 358
#     4  10  21  39  62  90 120 158 197 243 299 357
#     4  11  22  37  57  78 108 150 192 234 288 348
#
# _framework density 26.790756999999999
#
# number of rings (size 3 to 8) (size 9 to 14) (size 15 to 20)
#    0.000    1.714    0.000    4.286    0.000    6.857 
#    0.000    2.857    0.000    0.000    0.000    0.000 
#    0.000    0.000    0.000    0.000    0.000    0.000 
#
# Total GULP energy -156538.155135 kJ/mol
# GULP energy per Si atom -5590.648398 kJ/mol
# Density = 2.672978 g / cm^3
# Si number density = 26.790757 Si / 1000 Ang^3
#
#
#
# Elastic Constant Matrix: (Units=GPa)
#
#
# Indices 1 2 3 4 5 6 
#
# 1 100.2921 11.5164 8.2185 0.0000 11.9172 0.0000
# 2 11.5164 32.2017 6.7449 0.0000 -5.3908 0.0000
# 3 8.2185 6.7449 149.0989 0.0000 -4.0363 0.0000
# 4 0.0000 0.0000 0.0000 15.7529 0.0000 0.9142
# 5 11.9172 -5.3908 -4.0363 0.0000 31.5633 0.0000
# 6 0.0000 0.0000 0.0000 0.9142 0.0000 64.3145
#
#
#
# Elastic Compliance Matrix: (Units=1/GPa)
#
#
# Indices 1 2 3 4 5 6 
#
# 1 0.011163 -0.004732 -0.000539 0.000000 -0.005092 0.000000
# 2 -0.004732 0.034228 -0.001085 0.000000 0.007494 0.000000
# 3 -0.000539 -0.001085 0.006810 0.000000 0.000889 0.000000
# 4 0.000000 0.000000 0.000000 0.063533 0.000000 -0.000903
# 5 -0.005092 0.007494 0.000889 0.000000 0.034998 0.000000
# 6 0.000000 0.000000 0.000000 -0.000903 0.000000 0.015561
#
#
# Mechanical properties :
#
#
# Convention : Reuss Voigt Hill
#
# Bulk Modulus (GPa) = 25.32287 37.17247 31.24767
# Shear Modulus (GPa) = 26.01876 39.33369 32.67623
#
# Velocity S-wave (km/s) = 3.11976 3.83584 3.49618
# Velocity P-wave (km/s) = 4.73813 5.78995 5.29024
#
# Compressibility (1/GPa) = 0.03948999
#
# Stress axis : x y z
#
# Youngs Moduli (GPa) = 89.57787 29.21564 146.84687
#
# Poissons Ratio (x) = 0.13825 0.07917
# Poissons Ratio (y) = 0.42388 0.15929
# Poissons Ratio (z) = 0.04829 0.03169
#
# Static dielectric constant tensor:
#      x y z
#    x 2.066180 0.000000 0.012440 
#    y 0.000000 2.312830 0.000000 
#    z 0.012440 0.000000 1.988930 
# 
# From -- ./inp_files/80943.got.cif
#   From: 2010.05.17/outbox.cif.g08.bks.cpg/sg14_41_cif.got.tgz:80943.got - 2010.06.03 17:49:19.
