data_PCOD9245440
_publ_section_title
;
Structure prediction by ZEFSAII (Michael W. Deem and Ramdas Pophale) SiO2 
 PCOD9245440
Probable space group: P 21/C
;
_chemical_formula_sum "Si O2"
_cell_formula_units_Z 28
_cell_length_a 5.083433
_cell_length_b 10.005058
_cell_length_c 26.340911
_cell_angle_alpha 90.000000
_cell_angle_beta 73.376404
_cell_angle_gamma 90.000000
_cell_volume 1283.706869
_symmetry_space_group_name_H-M "P 21/C"
_symmetry_group_IT_number 14
_symmetry_cell_setting 'monoclinic'
loop_
_space_group_symop_operation_xyz
x,y,z
-x,1/2+y,1/2-z
-x,-y,-z
x,1/2-y,1/2+z
loop_
_atom_site_type_symbol
_atom_site_label
_atom_site_fract_x
_atom_site_fract_y
_atom_site_fract_z
Si Si1 0.906661 0.249437 0.662509
Si Si2 0.452803 0.106639 0.637969
Si Si3 0.927206 0.718343 0.165063
Si Si4 0.360039 0.527395 0.768269
Si Si5 0.703636 0.550470 0.031528
Si Si6 0.781885 0.019866 0.832806
Si Si7 0.501283 0.770484 0.099083
O O1 0.162123 0.154137 0.633393
O O2 0.039174 0.390854 0.665712
O O3 0.655767 0.233219 0.637321
O O4 0.780213 0.173812 0.718485
O O5 0.430110 0.038611 0.695511
O O6 0.616350 0.015015 0.589959
O O7 0.834040 0.595845 0.204487
O O8 0.688349 0.747526 0.138155
O O9 0.008015 0.856084 0.188434
O O10 0.212525 0.689816 0.119898
O O11 0.406899 0.502770 0.706583
O O12 0.665430 0.709181 0.043150
O O13 0.500000 0.500000 0.000000
O O14 0.000000 0.500000 0.000000
O O15 0.601929 0.076841 0.889720
#
# Coordination Sequence:
#
# PCOD9245440 Si02
#       7
#     4   4   4   4   4   4   4
#     4  10  22  40  58  87 133 172 201 248 322 360
#     4  10  23  41  60  92 128 158 204 279 298 377
#     4  10  21  38  60  85 133 160 214 256 299 351
#     4  10  21  38  61  89 130 168 218 251 303 364
#     4  12  23  41  73  97 116 161 216 273 334 357
#     4  10  24  36  62  91 128 182 202 242 315 388
#     4  10  22  40  58  93 128 153 210 275 297 374
#
# _framework density 21.811834000000001
#
# number of rings (size 3 to 8) (size 9 to 14) (size 15 to 20)
#    1.714    0.000    1.429    3.429    2.000    2.286 
#    0.000    0.000    0.000    5.143    0.000    0.000 
#    0.000    0.000    0.000    0.000    0.000    0.000 
#
# Total GULP energy -155983.723061 kJ/mol
# GULP energy per Si atom -5570.847252 kJ/mol
# Density = 2.176219 g / cm^3
# Si number density = 21.811834 Si / 1000 Ang^3
#
#
#
# Elastic Constant Matrix: (Units=GPa)
#
#
# Indices 1 2 3 4 5 6 
#
# 1 91.3808 -3.6171 -1.8457 0.0000 0.8889 0.0000
# 2 -3.6171 76.6094 5.1868 0.0000 1.6272 0.0000
# 3 -1.8457 5.1868 20.4893 0.0000 5.6533 0.0000
# 4 0.0000 0.0000 0.0000 19.5621 0.0000 -3.3041
# 5 0.8889 1.6272 5.6533 0.0000 24.3758 0.0000
# 6 0.0000 0.0000 0.0000 -3.3041 0.0000 23.1049
#
#
#
# Elastic Compliance Matrix: (Units=1/GPa)
#
#
# Indices 1 2 3 4 5 6 
#
# 1 0.010989 0.000461 0.001060 0.000000 -0.000677 0.000000
# 2 0.000461 0.013301 -0.003286 0.000000 -0.000143 0.000000
# 3 0.001060 -0.003286 0.053080 0.000000 -0.012130 0.000000
# 4 0.000000 0.000000 0.000000 0.052385 0.000000 0.007491
# 5 -0.000677 -0.000143 -0.012130 0.000000 0.043872 0.000000
# 6 0.000000 0.000000 0.000000 0.007491 0.000000 0.044352
#
#
# Mechanical properties :
#
#
# Convention : Reuss Voigt Hill
#
# Bulk Modulus (GPa) = 13.54263 20.88084 17.21174
# Shear Modulus (GPa) = 20.31519 25.99225 23.15372
#
# Velocity S-wave (km/s) = 3.05517 3.45579 3.26163
# Velocity P-wave (km/s) = 4.32062 5.05146 4.70026
#
# Compressibility (1/GPa) = 0.07384089
#
# Stress axis : x y z
#
# Youngs Moduli (GPa) = 90.99605 75.18497 18.83948
#
# Poissons Ratio (x) = -0.03470 -0.01997
# Poissons Ratio (y) = -0.04199 0.06191
# Poissons Ratio (z) = -0.09646 0.24706
#
# Static dielectric constant tensor:
#      x y z
#    x 1.820980 0.000000 -0.035860 
#    y 0.000000 1.878730 0.000000 
#    z -0.035860 0.000000 1.796850 
# 
# From -- ./inp_files/75754.got.cif
#   From: 2010.05.17/outbox.cif.g08.bks.cpg/sg14_38_cif.got.tgz:75754.got - 2010.06.03 17:49:19.
