data_PCOD9245556
_publ_section_title
;
Structure prediction by ZEFSAII (Michael W. Deem and Ramdas Pophale) SiO2 
 PCOD9245556
Probable space group: P 21/C
;
_chemical_formula_sum "Si O2"
_cell_formula_units_Z 28
_cell_length_a 11.178797
_cell_length_b 8.166351
_cell_length_c 13.602521
_cell_angle_alpha 90.000000
_cell_angle_beta 69.166385
_cell_angle_gamma 90.000000
_cell_volume 1160.583190
_symmetry_space_group_name_H-M "P 21/C"
_symmetry_group_IT_number 14
_symmetry_cell_setting 'monoclinic'
loop_
_space_group_symop_operation_xyz
x,y,z
-x,1/2+y,1/2-z
-x,-y,-z
x,1/2-y,1/2+z
loop_
_atom_site_type_symbol
_atom_site_label
_atom_site_fract_x
_atom_site_fract_y
_atom_site_fract_z
Si Si1 0.935270 0.174874 0.002655
Si Si2 0.108925 0.184903 0.604236
Si Si3 0.659737 0.332415 0.405428
Si Si4 0.654482 0.064618 0.116418
Si Si5 0.085438 0.547314 0.697830
Si Si6 0.450032 0.231417 0.306944
Si Si7 0.637746 0.994330 0.511866
O O1 0.793218 0.149602 0.090126
O O2 0.028113 0.304242 0.026697
O O3 0.933190 0.176000 0.886012
O O4 0.000000 0.000000 0.000000
O O5 0.097806 0.365163 0.653414
O O6 0.255525 0.133970 0.553989
O O7 0.031107 0.063259 0.695674
O O8 0.640904 0.457693 0.502142
O O9 0.775907 0.396801 0.305024
O O10 0.544957 0.292675 0.366050
O O11 0.689092 0.169105 0.461020
O O12 0.538217 0.177076 0.190123
O O13 0.643561 0.888425 0.175081
O O14 0.385506 0.066431 0.369662
O O15 0.500000 0.000000 0.500000
#
# Coordination Sequence:
#
# PCOD9245556 Si02
#       7
#     4   4   4   4   4   4   4
#     4   9  20  38  60  85 119 160 202 255 312 374
#     4  11  21  40  62  89 123 162 207 259 316 375
#     4  10  21  40  60  87 122 159 208 265 317 379
#     4  11  22  38  61  91 122 163 214 261 319 384
#     4  10  21  38  63  91 119 160 206 259 317 377
#     4  11  22  39  60  87 124 166 208 264 320 381
#     4  10  22  39  61  86 119 162 205 253 311 376
#
# _framework density 24.125799000000001
#
# number of rings (size 3 to 8) (size 9 to 14) (size 15 to 20)
#    0.000    1.714    0.000    5.571    0.000    4.571 
#    0.000   15.000    0.000    0.000    0.000    0.000 
#    0.000    0.000    0.000    0.000    0.000    0.000 
#
# Total GULP energy -156278.167920 kJ/mol
# GULP energy per Si atom -5581.363140 kJ/mol
# Density = 2.407089 g / cm^3
# Si number density = 24.125799 Si / 1000 Ang^3
#
#
#
# Elastic Constant Matrix: (Units=GPa)
#
#
# Indices 1 2 3 4 5 6 
#
# 1 83.4882 29.1466 28.5059 0.0000 -19.2565 0.0000
# 2 29.1466 79.1482 9.3391 0.0000 -9.0189 0.0000
# 3 28.5059 9.3391 89.6824 0.0000 -28.5604 0.0000
# 4 0.0000 0.0000 0.0000 43.3158 0.0000 -13.7331
# 5 -19.2565 -9.0189 -28.5604 0.0000 26.2889 0.0000
# 6 0.0000 0.0000 0.0000 -13.7331 0.0000 35.2077
#
#
#
# Elastic Compliance Matrix: (Units=1/GPa)
#
#
# Indices 1 2 3 4 5 6 
#
# 1 0.016211 -0.004817 -0.002134 0.000000 0.007903 0.000000
# 2 -0.004817 0.014581 0.000737 0.000000 0.002274 0.000000
# 3 -0.002134 0.000737 0.017331 0.000000 0.017518 0.000000
# 4 0.000000 0.000000 0.000000 0.026344 0.000000 0.010276
# 5 0.007903 0.002274 0.017518 0.000000 0.063640 0.000000
# 6 0.000000 0.000000 0.000000 0.010276 0.000000 0.032411
#
#
# Mechanical properties :
#
#
# Convention : Reuss Voigt Hill
#
# Bulk Modulus (GPa) = 28.01612 42.92244 35.46928
# Shear Modulus (GPa) = 25.66147 33.31761 29.48954
#
# Velocity S-wave (km/s) = 3.26491 3.72021 3.49997
# Velocity P-wave (km/s) = 5.08434 6.02353 5.57376
#
# Compressibility (1/GPa) = 0.03569373
#
# Stress axis : x y z
#
# Youngs Moduli (GPa) = 61.68598 68.58363 57.70056
#
# Poissons Ratio (x) = 0.33040 0.12315
# Poissons Ratio (y) = 0.29717 -0.04253
# Poissons Ratio (z) = 0.13165 -0.05056
#
# Static dielectric constant tensor:
#      x y z
#    x 2.077120 0.000000 -0.026820 
#    y 0.000000 2.033250 0.000000 
#    z -0.026820 0.000000 1.950120 
# 
# From -- ./inp_files/43619.got.cif
#   From: 2010.05.17/outbox.cif.g08.bks.cpg/sg14_22_cif.got.tgz:43619.got - 2010.06.03 17:49:19.
