data_PCOD9245178
_publ_section_title
;
Structure prediction by ZEFSAII (Michael W. Deem and Ramdas Pophale) SiO2 
 PCOD9245178
Probable space group: P 21/C
;
_chemical_formula_sum "Si O2"
_cell_formula_units_Z 28
_cell_length_a 14.273543
_cell_length_b 11.660884
_cell_length_c 19.796502
_cell_angle_alpha 90.000000
_cell_angle_beta 161.032545
_cell_angle_gamma 90.000000
_cell_volume 1070.968128
_symmetry_space_group_name_H-M "P 21/C"
_symmetry_group_IT_number 14
_symmetry_cell_setting 'monoclinic'
loop_
_space_group_symop_operation_xyz
x,y,z
-x,1/2+y,1/2-z
-x,-y,-z
x,1/2-y,1/2+z
loop_
_atom_site_type_symbol
_atom_site_label
_atom_site_fract_x
_atom_site_fract_y
_atom_site_fract_z
Si Si1 0.252238 0.273985 0.321521
Si Si2 0.736413 0.928556 0.849825
Si Si3 0.826118 0.482407 0.669065
Si Si4 0.882170 0.249039 0.434680
Si Si5 0.632450 0.084648 0.534443
Si Si6 0.755574 0.705226 0.030599
Si Si7 0.522899 0.947282 0.845112
O O1 0.270789 0.409057 0.351529
O O2 0.182529 0.217440 0.346628
O O3 0.552204 0.212109 0.505330
O O4 0.016533 0.247079 0.102398
O O5 0.516898 0.918253 0.639827
O O6 0.589979 0.983544 0.815179
O O7 0.876540 0.800483 0.950138
O O8 0.000000 0.000000 0.000000
O O9 0.002453 0.383950 0.828396
O O10 0.580671 0.463348 0.444150
O O11 0.069525 0.531105 0.784255
O O12 0.780680 0.118408 0.353813
O O13 0.584067 0.319964 0.216158
O O14 0.500000 0.000000 0.500000
O O15 0.740072 0.836108 0.995893
#
# Coordination Sequence:
#
# PCOD9245178 Si02
#       7
#     4   4   4   4   4   4   4
#     4  10  21  37  56  88 118 153 198 239 301 344
#     4  11  21  33  61  91 112 154 201 242 295 344
#     4  11  20  35  62  82 121 155 193 244 299 352
#     4   9  21  38  53  83 123 151 190 249 290 350
#     4  11  21  34  59  90 119 147 199 253 287 348
#     4   9  20  38  53  84 118 153 188 240 295 347
#     4   9  22  36  55  88 122 151 193 252 293 345
#
# _framework density 26.144568
#
# number of rings (size 3 to 8) (size 9 to 14) (size 15 to 20)
#    0.857    1.143    1.429    2.571    4.000    0.000 
#    0.000    0.000    0.000   11.143    0.000    0.000 
#    0.000    0.000    0.000    0.000    0.000    0.000 
#
# Total GULP energy -156042.421808 kJ/mol
# GULP energy per Si atom -5572.943636 kJ/mol
# Density = 2.608506 g / cm^3
# Si number density = 26.144568 Si / 1000 Ang^3
#
#
#
# Elastic Constant Matrix: (Units=GPa)
#
#
# Indices 1 2 3 4 5 6 
#
# 1 123.1594 3.9280 12.1573 0.0000 -13.8760 0.0000
# 2 3.9280 72.1513 23.1721 0.0000 -1.6599 0.0000
# 3 12.1573 23.1721 72.5813 0.0000 -31.9677 0.0000
# 4 0.0000 0.0000 0.0000 39.7071 0.0000 0.1280
# 5 -13.8760 -1.6599 -31.9677 0.0000 27.1652 0.0000
# 6 0.0000 0.0000 0.0000 0.1280 0.0000 40.4389
#
#
#
# Elastic Compliance Matrix: (Units=1/GPa)
#
#
# Indices 1 2 3 4 5 6 
#
# 1 0.008693 -0.000824 0.001538 0.000000 0.006199 0.000000
# 2 -0.000824 0.016978 -0.010402 0.000000 -0.011625 0.000000
# 3 0.001538 -0.010402 0.035099 0.000000 0.041454 0.000000
# 4 0.000000 0.000000 0.000000 0.025185 0.000000 -0.000080
# 5 0.006199 -0.011625 0.041454 0.000000 0.088051 0.000000
# 6 0.000000 0.000000 0.000000 -0.000080 0.000000 0.024729
#
#
# Mechanical properties :
#
#
# Convention : Reuss Voigt Hill
#
# Bulk Modulus (GPa) = 24.15978 38.48965 31.32471
# Shear Modulus (GPa) = 21.56014 36.70454 29.13234
#
# Velocity S-wave (km/s) = 2.87479 3.75094 3.34170
# Velocity P-wave (km/s) = 4.50334 5.78906 5.18620
#
# Compressibility (1/GPa) = 0.04139111
#
# Stress axis : x y z
#
# Youngs Moduli (GPa) = 115.04143 58.89954 28.49073
#
# Poissons Ratio (x) = 0.04856 -0.04381
# Poissons Ratio (y) = 0.09484 0.29637
# Poissons Ratio (z) = -0.17689 0.61270
#
# Static dielectric constant tensor:
#      x y z
#    x 2.004480 0.000000 -0.011460 
#    y 0.000000 2.208890 0.000000 
#    z -0.011460 0.000000 2.262060 
# 
# From -- ./inp_files/68618.got.cif
#   From: 2010.05.17/outbox.cif.g08.bks.cpg/sg14_35_cif.got.tgz:68618.got - 2010.06.03 17:49:19.
