data_PCOD9245604
_publ_section_title
;
Structure prediction by ZEFSAII (Michael W. Deem and Ramdas Pophale) SiO2 
 PCOD9245604
Probable space group: P 21/C
;
_chemical_formula_sum "Si O2"
_cell_formula_units_Z 24
_cell_length_a 11.380024
_cell_length_b 14.065895
_cell_length_c 15.009312
_cell_angle_alpha 90.000000
_cell_angle_beta 27.887397
_cell_angle_gamma 90.000000
_cell_volume 1123.754854
_symmetry_space_group_name_H-M "P 21/C"
_symmetry_group_IT_number 14
_symmetry_cell_setting 'monoclinic'
loop_
_space_group_symop_operation_xyz
x,y,z
-x,1/2+y,1/2-z
-x,-y,-z
x,1/2-y,1/2+z
loop_
_atom_site_type_symbol
_atom_site_label
_atom_site_fract_x
_atom_site_fract_y
_atom_site_fract_z
Si Si1 0.386349 0.869201 0.843652
Si Si2 0.985891 0.645484 0.465937
Si Si3 0.319544 0.435166 0.476647
Si Si4 0.926989 0.940590 0.681294
Si Si5 0.951647 0.859718 0.467597
Si Si6 0.578597 0.157174 0.646681
O O1 0.668954 0.859539 0.617833
O O2 0.327632 0.765088 0.922275
O O3 0.191972 0.891977 0.895349
O O4 0.380874 0.955008 0.917288
O O5 0.931367 0.587068 0.413080
O O6 0.052346 0.753407 0.394039
O O7 0.705984 0.649043 0.699280
O O8 0.525037 0.372104 0.286538
O O9 0.270804 0.413370 0.611170
O O10 0.207394 0.914365 0.528307
O O11 0.911319 0.884404 0.599080
O O12 0.908265 0.052038 0.670921
#
# Coordination Sequence:
#
# PCOD9245604 Si02
#       6
#     4   4   4   4   4   4
#     4  11  19  41  62  87 124 160 197 246 309 347
#     4   9  20  39  63  86 120 162 195 245 307 349
#     4  10  23  37  65  93 115 160 202 244 297 366
#     4  11  21  41  62  93 121 154 211 237 299 359
#     4  10  21  38  65  83 127 164 184 259 300 341
#     4   9  21  39  61  84 124 158 190 257 292 345
#
# _framework density 21.356973
#
# number of rings (size 3 to 8) (size 9 to 14) (size 15 to 20)
#    1.000    1.000    3.333    0.500    0.000    2.000 
#    0.000    6.667    0.000    0.000    0.000    0.000 
#    0.000    0.000    0.000    0.000    0.000    0.000 
#
# Total GULP energy -133823.755558 kJ/mol
# GULP energy per Si atom -5575.989815 kJ/mol
# Density = 2.130836 g / cm^3
# Si number density = 21.356973 Si / 1000 Ang^3
#
#
#
# Elastic Constant Matrix: (Units=GPa)
#
#
# Indices 1 2 3 4 5 6 
#
# 1 57.0774 -9.2198 12.4412 0.0000 -15.9819 0.0000
# 2 -9.2198 92.6071 6.3896 0.0000 13.0167 0.0000
# 3 12.4412 6.3896 56.0827 0.0000 8.2866 0.0000
# 4 0.0000 0.0000 0.0000 14.2053 0.0000 -14.1644
# 5 -15.9819 13.0167 8.2866 0.0000 27.7949 0.0000
# 6 0.0000 0.0000 0.0000 -14.1644 0.0000 22.4311
#
#
#
# Elastic Compliance Matrix: (Units=1/GPa)
#
#
# Indices 1 2 3 4 5 6 
#
# 1 0.023646 0.000695 -0.007621 0.000000 0.015542 0.000000
# 2 0.000695 0.011595 -0.000766 0.000000 -0.004802 0.000000
# 3 -0.007621 -0.000766 0.021134 0.000000 -0.010324 0.000000
# 4 0.000000 0.000000 0.000000 0.190080 0.000000 0.120029
# 5 0.015542 -0.004802 -0.010324 0.000000 0.050241 0.000000
# 6 0.000000 0.000000 0.000000 0.120029 0.000000 0.120375
#
#
# Mechanical properties :
#
#
# Convention : Reuss Voigt Hill
#
# Bulk Modulus (GPa) = 24.39511 24.99880 24.69696
# Shear Modulus (GPa) = 11.20778 25.96334 18.58556
#
# Velocity S-wave (km/s) = 2.29330 3.49045 2.95317
# Velocity P-wave (km/s) = 4.29647 5.28913 4.81843
#
# Compressibility (1/GPa) = 0.04099182
#
# Stress axis : x y z
#
# Youngs Moduli (GPa) = 42.29134 86.24151 47.31677
#
# Poissons Ratio (x) = -0.05997 0.36061
# Poissons Ratio (y) = -0.02941 0.03623
# Poissons Ratio (z) = 0.32231 0.06604
#
# Static dielectric constant tensor:
#      x y z
#    x 1.825230 0.000000 -0.069960 
#    y 0.000000 1.793480 0.000000 
#    z -0.069960 0.000000 1.763490 
# 
# From -- ./inp_files/45017.got.cif
#   From: 2010.05.17/outbox.cif.g08.bks.cpg/sg14_23_cif.got.tgz:45017.got - 2010.06.03 17:49:19.
