data_PCOD9245518
_publ_section_title
;
Structure prediction by ZEFSAII (Michael W. Deem and Ramdas Pophale) SiO2 
 PCOD9245518
Probable space group: P 21/C
;
_chemical_formula_sum "Si O2"
_cell_formula_units_Z 24
_cell_length_a 15.609041
_cell_length_b 7.419309
_cell_length_c 20.140709
_cell_angle_alpha 90.000000
_cell_angle_beta 22.408593
_cell_angle_gamma 90.000000
_cell_volume 889.155290
_symmetry_space_group_name_H-M "P 21/C"
_symmetry_group_IT_number 14
_symmetry_cell_setting 'monoclinic'
loop_
_space_group_symop_operation_xyz
x,y,z
-x,1/2+y,1/2-z
-x,-y,-z
x,1/2-y,1/2+z
loop_
_atom_site_type_symbol
_atom_site_label
_atom_site_fract_x
_atom_site_fract_y
_atom_site_fract_z
Si Si1 0.661586 0.327164 0.886020
Si Si2 0.542100 0.200555 0.615221
Si Si3 0.130115 0.282785 0.589007
Si Si4 0.925910 0.806847 0.578535
Si Si5 0.994228 0.363103 0.836587
Si Si6 0.586478 0.214254 0.296656
O O1 0.608612 0.219003 0.857067
O O2 0.925704 0.386396 0.699095
O O3 0.500000 0.500000 0.000000
O O4 0.618909 0.232876 0.987139
O O5 0.292030 0.262903 0.808186
O O6 0.750821 0.235823 0.513045
O O7 0.516809 0.985130 0.627570
O O8 0.096487 0.314780 0.692173
O O9 0.397528 0.320352 0.389383
O O10 0.061767 0.076316 0.620826
O O11 0.865938 0.811804 0.699237
O O12 0.155127 0.695309 0.409170
O O13 0.000000 0.000000 0.500000
#
# Coordination Sequence:
#
# PCOD9245518 Si02
#       6
#     4   4   4   4   4   4
#     4   9  18  37  65  92 120 158 211 263 310 372
#     4   9  21  41  61  85 120 168 214 253 308 378
#     4  10  21  41  66  93 122 163 219 266 314 379
#     4  12  25  39  58  93 134 164 204 265 325 382
#     4  10  23  42  65  92 125 165 213 268 322 380
#     4  10  21  38  62  89 120 166 208 253 317 381
#
# _framework density 26.991911999999999
#
# number of rings (size 3 to 8) (size 9 to 14) (size 15 to 20)
#    0.000    2.000    0.000    3.500    0.000    9.333 
#    0.000    9.167    0.000    0.000    0.000    0.000 
#    0.000    0.000    0.000    0.000    0.000    0.000 
#
# Total GULP energy -134220.713824 kJ/mol
# GULP energy per Si atom -5592.529743 kJ/mol
# Density = 2.693048 g / cm^3
# Si number density = 26.991912 Si / 1000 Ang^3
#
#
#
# Elastic Constant Matrix: (Units=GPa)
#
#
# Indices 1 2 3 4 5 6 
#
# 1 110.2987 9.8377 28.4902 0.0000 -28.1643 0.0000
# 2 9.8377 39.6871 12.3092 0.0000 -10.1140 0.0000
# 3 28.4902 12.3092 142.3806 0.0000 -53.6281 0.0000
# 4 0.0000 0.0000 0.0000 41.7637 0.0000 -6.4095
# 5 -28.1643 -10.1140 -53.6281 0.0000 52.8955 0.0000
# 6 0.0000 0.0000 0.0000 -6.4095 0.0000 22.2904
#
#
#
# Elastic Compliance Matrix: (Units=1/GPa)
#
#
# Indices 1 2 3 4 5 6 
#
# 1 0.010551 -0.001246 0.000037 0.000000 0.005417 0.000000
# 2 -0.001246 0.026669 -0.000624 0.000000 0.003803 0.000000
# 3 0.000037 -0.000624 0.011377 0.000000 0.011435 0.000000
# 4 0.000000 0.000000 0.000000 0.025050 0.000000 0.007203
# 5 0.005417 0.003803 0.011435 0.000000 0.034110 0.000000
# 6 0.000000 0.000000 0.000000 0.007203 0.000000 0.046933
#
#
# Mechanical properties :
#
#
# Convention : Reuss Voigt Hill
#
# Bulk Modulus (GPa) = 22.25664 43.73785 32.99724
# Shear Modulus (GPa) = 28.84619 39.50522 34.17571
#
# Velocity S-wave (km/s) = 3.27264 3.82985 3.56216
# Velocity P-wave (km/s) = 4.74803 5.98299 5.40093
#
# Compressibility (1/GPa) = 0.04493041
#
# Stress axis : x y z
#
# Youngs Moduli (GPa) = 94.77637 37.49710 87.89695
#
# Poissons Ratio (x) = 0.04674 -0.00323
# Poissons Ratio (y) = 0.11813 0.05482
# Poissons Ratio (z) = -0.00349 0.02338
#
# Static dielectric constant tensor:
#      x y z
#    x 2.118770 0.000000 -0.095690 
#    y 0.000000 2.132670 0.000000 
#    z -0.095690 0.000000 2.474800 
# 
# From -- ./inp_files/74137.got.cif
#   From: 2010.05.17/outbox.cif.g08.bks.cpg/sg14_38_cif.got.tgz:74137.got - 2010.06.03 17:49:19.
