data_PCOD9245374
_publ_section_title
;
Structure prediction by ZEFSAII (Michael W. Deem and Ramdas Pophale) SiO2 
 PCOD9245374
Probable space group: P 21/C
;
_chemical_formula_sum "Si O2"
_cell_formula_units_Z 20
_cell_length_a 5.469608
_cell_length_b 8.147643
_cell_length_c 22.922332
_cell_angle_alpha 90.000000
_cell_angle_beta 133.414721
_cell_angle_gamma 90.000000
_cell_volume 742.030403
_symmetry_space_group_name_H-M "P 21/C"
_symmetry_group_IT_number 14
_symmetry_cell_setting 'monoclinic'
loop_
_space_group_symop_operation_xyz
x,y,z
-x,1/2+y,1/2-z
-x,-y,-z
x,1/2-y,1/2+z
loop_
_atom_site_type_symbol
_atom_site_label
_atom_site_fract_x
_atom_site_fract_y
_atom_site_fract_z
Si Si1 0.972085 0.825259 0.222490
Si Si2 0.927348 0.123211 0.362682
Si Si3 0.270785 0.188667 0.607170
Si Si4 0.184015 0.366326 0.700007
Si Si5 0.787475 0.896436 0.011970
O O1 0.856804 0.677529 0.159846
O O2 0.365899 0.824345 0.302979
O O3 0.826213 0.795217 0.261671
O O4 0.929321 0.000826 0.185523
O O5 0.569421 0.089364 0.274264
O O6 0.966615 0.293188 0.404750
O O7 0.949720 0.973157 0.412568
O O8 0.106646 0.328944 0.620968
O O9 0.336740 0.247451 0.552211
O O10 0.500000 0.000000 0.000000
O O11 0.000000 0.000000 0.000000
#
# Coordination Sequence:
#
# PCOD9245374 Si02
#       5
#     4   4   4   4   4
#     4  10  21  37  69 102 139 182 235 299 357 425
#     4  10  23  44  66 102 138 188 237 297 357 431
#     4  10  23  44  67 100 140 185 240 294 361 427
#     4  10  21  39  68 103 140 180 237 297 359 421
#     4  12  29  48  71 103 143 192 237 294 357 427
#
# _framework density 26.953071999999999
#
# number of rings (size 3 to 8) (size 9 to 14) (size 15 to 20)
#    0.000    1.600    0.000    3.000    8.400    3.200 
#    0.000    2.000    0.000    0.000    0.000    0.000 
#    0.000    0.000    0.000    0.000    0.000    0.000 
#
# Total GULP energy -111496.712484 kJ/mol
# GULP energy per Si atom -5574.835624 kJ/mol
# Density = 2.689173 g / cm^3
# Si number density = 26.953072 Si / 1000 Ang^3
#
#
#
# Elastic Constant Matrix: (Units=GPa)
#
#
# Indices 1 2 3 4 5 6 
#
# 1 117.4092 66.3851 39.4062 0.0000 -37.9161 0.0000
# 2 66.3851 147.5655 48.6051 0.0000 -19.5297 0.0000
# 3 39.4062 48.6051 93.7232 0.0000 -33.5579 0.0000
# 4 0.0000 0.0000 0.0000 49.6938 0.0000 -15.6761
# 5 -37.9161 -19.5297 -33.5579 0.0000 43.6921 0.0000
# 6 0.0000 0.0000 0.0000 -15.6761 0.0000 48.9263
#
#
#
# Elastic Compliance Matrix: (Units=1/GPa)
#
#
# Indices 1 2 3 4 5 6 
#
# 1 0.014958 -0.005428 0.000421 0.000000 0.010877 0.000000
# 2 -0.005428 0.010152 -0.004199 0.000000 -0.003398 0.000000
# 3 0.000421 -0.004199 0.016730 0.000000 0.011338 0.000000
# 4 0.000000 0.000000 0.000000 0.022386 0.000000 0.007172
# 5 0.010877 -0.003398 0.011338 0.000000 0.039516 0.000000
# 6 0.000000 0.000000 0.000000 0.007172 0.000000 0.022737
#
#
# Mechanical properties :
#
#
# Convention : Reuss Voigt Hill
#
# Bulk Modulus (GPa) = 42.68686 74.16564 58.42625
# Shear Modulus (GPa) = 32.74379 42.08255 37.41317
#
# Velocity S-wave (km/s) = 3.48924 3.95565 3.72974
# Velocity P-wave (km/s) = 5.66612 6.95983 6.34603
#
# Compressibility (1/GPa) = 0.02342641
#
# Stress axis : x y z
#
# Youngs Moduli (GPa) = 66.85457 98.50284 59.77255
#
# Poissons Ratio (x) = 0.53468 -0.02514
# Poissons Ratio (y) = 0.36289 0.25100
# Poissons Ratio (z) = -0.02811 0.41364
#
# Static dielectric constant tensor:
#      x y z
#    x 2.214710 0.000000 0.003860 
#    y 0.000000 2.283490 0.000000 
#    z 0.003860 0.000000 2.136450 
# 
# From -- ./inp_files/52548.got.cif
#   From: 2010.05.17/outbox.cif.g08.bks.cpg/sg14_27_cif.got.tgz:52548.got - 2010.06.03 17:49:19.
