data_PCOD9245586
_publ_section_title
;
Structure prediction by ZEFSAII (Michael W. Deem and Ramdas Pophale) SiO2 
 PCOD9245586
Probable space group: P 21/C
;
_chemical_formula_sum "Si O2"
_cell_formula_units_Z 28
_cell_length_a 5.255186
_cell_length_b 25.244401
_cell_length_c 9.812763
_cell_angle_alpha 90.000000
_cell_angle_beta 64.246668
_cell_angle_gamma 90.000000
_cell_volume 1172.496629
_symmetry_space_group_name_H-M "P 21/C"
_symmetry_group_IT_number 14
_symmetry_cell_setting 'monoclinic'
loop_
_space_group_symop_operation_xyz
x,y,z
-x,1/2+y,1/2-z
-x,-y,-z
x,1/2-y,1/2+z
loop_
_atom_site_type_symbol
_atom_site_label
_atom_site_fract_x
_atom_site_fract_y
_atom_site_fract_z
Si Si1 0.608528 0.213164 0.189312
Si Si2 0.815410 0.529790 0.152765
Si Si3 0.754312 0.072307 0.828117
Si Si4 0.155852 0.626977 0.980545
Si Si5 0.968817 0.260012 0.874771
Si Si6 0.093422 0.060951 0.004892
Si Si7 0.631057 0.099712 0.297314
O O1 0.803247 0.231583 0.271340
O O2 0.545911 0.151399 0.231843
O O3 0.305563 0.244106 0.265005
O O4 0.792654 0.218946 0.008712
O O5 0.826842 0.488727 0.272035
O O6 0.490621 0.540730 0.197431
O O7 0.000000 0.500000 0.000000
O O8 0.913538 0.589345 0.097931
O O9 0.783240 0.108396 0.686164
O O10 0.425954 0.069699 0.943107
O O11 0.962122 0.088812 0.900388
O O12 0.071153 0.687044 0.023532
O O13 0.398444 0.613865 0.035887
O O14 0.947536 0.088741 0.167848
O O15 0.000000 0.000000 0.000000
#
# Coordination Sequence:
#
# PCOD9245586 Si02
#       7
#     4   4   4   4   4   4   4
#     4  11  25  44  71  99 130 174 215 278 331 397
#     4  10  21  38  64  90 126 171 220 259 314 373
#     4  11  26  39  64  93 128 173 215 264 315 376
#     4  10  24  42  66  93 126 171 222 268 313 390
#     4  11  24  45  70  98 133 168 218 272 337 393
#     4  12  25  41  60  92 134 170 210 264 322 378
#     4  11  24  41  67  92 133 169 219 261 332 383
#
# _framework density 23.880666000000002
#
# number of rings (size 3 to 8) (size 9 to 14) (size 15 to 20)
#    0.000    1.143    2.857    2.143    6.000    3.429 
#    0.000    0.000    0.000    0.000    0.000    0.000 
#    0.000    0.000    0.000    0.000    0.000    0.000 
#
# Total GULP energy -156168.401485 kJ/mol
# GULP energy per Si atom -5577.442910 kJ/mol
# Density = 2.382631 g / cm^3
# Si number density = 23.880666 Si / 1000 Ang^3
#
#
#
# Elastic Constant Matrix: (Units=GPa)
#
#
# Indices 1 2 3 4 5 6 
#
# 1 86.2891 2.8531 24.6878 0.0000 -22.4274 0.0000
# 2 2.8531 46.1389 -3.2583 0.0000 -3.5427 0.0000
# 3 24.6878 -3.2583 94.8244 0.0000 -7.4868 0.0000
# 4 0.0000 0.0000 0.0000 36.4705 0.0000 -8.1349
# 5 -22.4274 -3.5427 -7.4868 0.0000 34.4614 0.0000
# 6 0.0000 0.0000 0.0000 -8.1349 0.0000 22.0617
#
#
#
# Elastic Compliance Matrix: (Units=1/GPa)
#
#
# Indices 1 2 3 4 5 6 
#
# 1 0.014829 -0.000457 -0.003173 0.000000 0.008914 0.000000
# 2 -0.000457 0.021944 0.001045 0.000000 0.002186 0.000000
# 3 -0.003173 0.001045 0.011450 0.000000 0.000530 0.000000
# 4 0.000000 0.000000 0.000000 0.029877 0.000000 0.011017
# 5 0.008914 0.002186 0.000530 0.000000 0.035159 0.000000
# 6 0.000000 0.000000 0.000000 0.011017 0.000000 0.049390
#
#
# Mechanical properties :
#
#
# Convention : Reuss Voigt Hill
#
# Bulk Modulus (GPa) = 23.22634 30.64640 26.93637
# Shear Modulus (GPa) = 27.44746 32.13003 29.78875
#
# Velocity S-wave (km/s) = 3.39390 3.67201 3.53569
# Velocity P-wave (km/s) = 5.01051 5.55330 5.28887
#
# Compressibility (1/GPa) = 0.04305456
#
# Stress axis : x y z
#
# Youngs Moduli (GPa) = 67.43698 45.57136 87.33940
#
# Poissons Ratio (x) = 0.02081 0.27709
# Poissons Ratio (y) = 0.03079 -0.09131
# Poissons Ratio (z) = 0.21395 -0.04764
#
# Static dielectric constant tensor:
#      x y z
#    x 2.468500 0.000000 -0.044660 
#    y 0.000000 1.964220 0.000000 
#    z -0.044660 0.000000 1.906080 
# 
# From -- ./inp_files/6890.got.cif
#   From: 2010.05.17/outbox.cif.g08.bks.cpg/sg14_4_cif.got.tgz:6890.got - 2010.06.03 17:49:19.
