data_PCOD9245412
_publ_section_title
;
Structure prediction by ZEFSAII (Michael W. Deem and Ramdas Pophale) SiO2 
 PCOD9245412
Probable space group: P 21/C
;
_chemical_formula_sum "Si O2"
_cell_formula_units_Z 28
_cell_length_a 14.435357
_cell_length_b 18.852290
_cell_length_c 7.993117
_cell_angle_alpha 90.000000
_cell_angle_beta 44.262577
_cell_angle_gamma 90.000000
_cell_volume 1518.205910
_symmetry_space_group_name_H-M "P 21/C"
_symmetry_group_IT_number 14
_symmetry_cell_setting 'monoclinic'
loop_
_space_group_symop_operation_xyz
x,y,z
-x,1/2+y,1/2-z
-x,-y,-z
x,1/2-y,1/2+z
loop_
_atom_site_type_symbol
_atom_site_label
_atom_site_fract_x
_atom_site_fract_y
_atom_site_fract_z
Si Si1 0.006594 0.580947 0.427319
Si Si2 0.506310 0.344490 0.903021
Si Si3 0.280452 0.064328 0.811114
Si Si4 0.221179 0.159295 0.186273
Si Si5 0.637626 0.777143 0.698420
Si Si6 0.791869 0.400340 0.553006
Si Si7 0.048187 0.580309 0.984349
O O1 0.093781 0.618619 0.458537
O O2 0.070702 0.582493 0.156949
O O3 0.000000 0.500000 0.500000
O O4 0.850939 0.601306 0.602754
O O5 0.472664 0.318370 0.762283
O O6 0.659649 0.354583 0.741223
O O7 0.416922 0.414302 0.048184
O O8 0.439233 0.283966 0.102470
O O9 0.251465 0.981470 0.852926
O O10 0.284609 0.096955 0.991901
O O11 0.287180 0.168590 0.279720
O O12 0.069508 0.136589 0.393674
O O13 0.255274 0.233558 0.050530
O O14 0.842253 0.400819 0.295910
O O15 0.000000 0.500000 0.000000
#
# Coordination Sequence:
#
# PCOD9245412 Si02
#       7
#     4   4   4   4   4   4   4
#     4   9  18  33  56  82 118 151 174 221 288 348
#     4  10  21  38  59  79 113 153 197 237 285 341
#     4   9  18  35  59  87 113 143 193 234 283 357
#     4   9  18  35  60  83 105 148 202 237 271 348
#     4   9  20  39  59  75 110 160 198 237 277 339
#     4  11  21  36  57  90 122 150 175 243 309 336
#     4  11  19  35  59  90 122 144 191 239 297 349
#
# _framework density 18.442820999999999
#
# number of rings (size 3 to 8) (size 9 to 14) (size 15 to 20)
#    0.000    2.286    4.286    0.429    2.000    0.000 
#    7.714    2.143    0.000    0.000    0.000    0.000 
#    0.000    0.000    0.000    0.000    0.000    0.000 
#
# Total GULP energy -155888.115440 kJ/mol
# GULP energy per Si atom -5567.432694 kJ/mol
# Density = 1.840084 g / cm^3
# Si number density = 18.442821 Si / 1000 Ang^3
#
#
#
# Elastic Constant Matrix: (Units=GPa)
#
#
# Indices 1 2 3 4 5 6 
#
# 1 112.6756 21.1200 39.0786 0.0000 1.4067 0.0000
# 2 21.1200 30.0849 5.7689 0.0000 -5.8960 0.0000
# 3 39.0786 5.7689 80.2612 0.0000 -6.4905 0.0000
# 4 0.0000 0.0000 0.0000 8.6639 0.0000 -5.3594
# 5 1.4067 -5.8960 -6.4905 0.0000 26.1563 0.0000
# 6 0.0000 0.0000 0.0000 -5.3594 0.0000 25.6776
#
#
#
# Elastic Compliance Matrix: (Units=1/GPa)
#
#
# Indices 1 2 3 4 5 6 
#
# 1 0.012531 -0.008470 -0.005818 0.000000 -0.004027 0.000000
# 2 -0.008470 0.040789 0.002013 0.000000 0.010149 0.000000
# 3 -0.005818 0.002013 0.015521 0.000000 0.004618 0.000000
# 4 0.000000 0.000000 0.000000 0.132534 0.000000 0.027662
# 5 -0.004027 0.010149 0.004618 0.000000 0.041882 0.000000
# 6 0.000000 0.000000 0.000000 0.027662 0.000000 0.044718
#
#
# Mechanical properties :
#
#
# Convention : Reuss Voigt Hill
#
# Bulk Modulus (GPa) = 22.57856 39.43965 31.00910
# Shear Modulus (GPa) = 15.27708 22.56984 18.92346
#
# Velocity S-wave (km/s) = 2.88123 3.50204 3.20669
# Velocity P-wave (km/s) = 4.83091 6.14684 5.52817
#
# Compressibility (1/GPa) = 0.04428980
#
# Stress axis : x y z
#
# Youngs Moduli (GPa) = 79.80321 24.51666 64.42968
#
# Poissons Ratio (x) = 0.20767 0.37485
# Poissons Ratio (y) = 0.67596 -0.12971
# Poissons Ratio (z) = 0.46429 -0.04936
#
# Static dielectric constant tensor:
#      x y z
#    x 1.656180 0.000000 0.024990 
#    y 0.000000 1.634530 0.000000 
#    z 0.024990 0.000000 1.664380 
# 
# From -- ./inp_files/16755.got.cif
#   From: 2010.05.17/outbox.cif.g08.bks.cpg/sg14_9_cif.got.tgz:16755.got - 2010.06.03 17:49:19.
