data_PCOD9245532
_publ_section_title
;
Structure prediction by ZEFSAII (Michael W. Deem and Ramdas Pophale) SiO2 
 PCOD9245532
Probable space group: P 21/C
;
_chemical_formula_sum "Si O2"
_cell_formula_units_Z 32
_cell_length_a 21.435527
_cell_length_b 8.846797
_cell_length_c 22.576078
_cell_angle_alpha 90.000000
_cell_angle_beta 160.890663
_cell_angle_gamma 90.000000
_cell_volume 1401.554864
_symmetry_space_group_name_H-M "P 21/C"
_symmetry_group_IT_number 14
_symmetry_cell_setting 'monoclinic'
loop_
_space_group_symop_operation_xyz
x,y,z
-x,1/2+y,1/2-z
-x,-y,-z
x,1/2-y,1/2+z
loop_
_atom_site_type_symbol
_atom_site_label
_atom_site_fract_x
_atom_site_fract_y
_atom_site_fract_z
Si Si1 0.221910 0.982405 0.294740
Si Si2 0.805523 0.106981 0.935396
Si Si3 0.569826 0.306768 0.114861
Si Si4 0.578242 0.972365 0.958028
Si Si5 0.073351 0.142310 0.333582
Si Si6 0.620145 0.620587 0.358001
Si Si7 0.665309 0.219543 0.497920
Si Si8 0.019080 0.149118 0.683806
O O1 0.281252 0.851661 0.301942
O O2 0.276489 0.915377 0.407309
O O3 0.365205 0.123149 0.412894
O O4 0.000855 0.024790 0.091457
O O5 0.866196 0.279918 0.003059
O O6 0.647241 0.107472 0.742835
O O7 0.721908 0.022304 0.917976
O O8 0.550244 0.132595 0.115923
O O9 0.571892 0.917222 0.882968
O O10 0.795029 0.934487 0.173683
O O11 0.544979 0.151240 0.924911
O O12 0.232253 0.239323 0.509836
O O13 0.095391 0.201076 0.286409
O O14 0.861593 0.196940 0.158872
O O15 0.071953 0.968743 0.351251
O O16 0.447746 0.667109 0.161207
#
# Coordination Sequence:
#
# PCOD9245532 Si02
#       8
#     4   4   4   4   4   4   4   4
#     4  11  24  45  66  90 127 172 221 267 308 375
#     4  12  22  42  66  95 125 167 215 266 318 380
#     4  11  25  43  67  93 126 172 220 264 314 371
#     4  10  24  42  61  98 132 164 209 262 327 381
#     4  10  22  38  58  92 134 165 204 255 324 383
#     4  11  24  38  63 100 129 166 210 258 325 390
#     4  11  23  40  65  91 128 168 208 261 318 379
#     4  10  21  38  62  91 128 170 201 262 320 384
#
# _framework density 22.831786000000001
#
# number of rings (size 3 to 8) (size 9 to 14) (size 15 to 20)
#    0.000    1.250    3.750    2.625    5.250    0.500 
#    0.000    0.000    0.000    2.250    0.000    0.000 
#    0.000    0.000    0.000    0.000    0.000    0.000 
#
# Total GULP energy -178951.663491 kJ/mol
# GULP energy per Si atom -5592.239484 kJ/mol
# Density = 2.277982 g / cm^3
# Si number density = 22.831786 Si / 1000 Ang^3
#
#
#
# Elastic Constant Matrix: (Units=GPa)
#
#
# Indices 1 2 3 4 5 6 
#
# 1 16.9354 -12.5581 0.6888 0.0000 0.3959 0.0000
# 2 -12.5581 82.2816 14.1094 0.0000 1.3711 0.0000
# 3 0.6888 14.1094 79.5207 0.0000 4.7453 0.0000
# 4 0.0000 0.0000 0.0000 31.6201 0.0000 3.3093
# 5 0.3959 1.3711 4.7453 0.0000 23.9909 0.0000
# 6 0.0000 0.0000 0.0000 3.3093 0.0000 22.3912
#
#
#
# Elastic Compliance Matrix: (Units=1/GPa)
#
#
# Indices 1 2 3 4 5 6 
#
# 1 0.067088 0.010672 -0.002400 0.000000 -0.001242 0.000000
# 2 0.010672 0.014234 -0.002590 0.000000 -0.000477 0.000000
# 3 -0.002400 -0.002590 0.013200 0.000000 -0.002423 0.000000
# 4 0.000000 0.000000 0.000000 0.032122 0.000000 -0.004747
# 5 -0.001242 -0.000477 -0.002423 0.000000 0.042210 0.000000
# 6 0.000000 0.000000 0.000000 -0.004747 0.000000 0.045362
#
#
# Mechanical properties :
#
#
# Convention : Reuss Voigt Hill
#
# Bulk Modulus (GPa) = 9.44417 20.35753 14.90085
# Shear Modulus (GPa) = 20.99531 27.36693 24.18112
#
# Velocity S-wave (km/s) = 3.03572 3.46588 3.25791
# Velocity P-wave (km/s) = 4.05375 4.99521 4.54890
#
# Compressibility (1/GPa) = 0.10588545
#
# Stress axis : x y z
#
# Youngs Moduli (GPa) = 14.90579 70.25376 75.75637
#
# Poissons Ratio (x) = -0.74971 0.18185
# Poissons Ratio (y) = -0.15907 0.19617
# Poissons Ratio (z) = 0.03578 0.18192
#
# Static dielectric constant tensor:
#      x y z
#    x 1.900860 0.000000 0.004500 
#    y 0.000000 1.895650 0.000000 
#    z 0.004500 0.000000 1.851370 
# 
# From -- ./inp_files/74936.got.cif
#   From: 2010.05.17/outbox.cif.g08.bks.cpg/sg14_38_cif.got.tgz:74936.got - 2010.06.03 17:49:19.
