data_PCOD9245376
_publ_section_title
;
Structure prediction by ZEFSAII (Michael W. Deem and Ramdas Pophale) SiO2 
 PCOD9245376
Probable space group: P 21/C
;
_chemical_formula_sum "Si O2"
_cell_formula_units_Z 32
_cell_length_a 10.933569
_cell_length_b 12.354828
_cell_length_c 11.556476
_cell_angle_alpha 90.000000
_cell_angle_beta 73.246319
_cell_angle_gamma 90.000000
_cell_volume 1494.812861
_symmetry_space_group_name_H-M "P 21/C"
_symmetry_group_IT_number 14
_symmetry_cell_setting 'monoclinic'
loop_
_space_group_symop_operation_xyz
x,y,z
-x,1/2+y,1/2-z
-x,-y,-z
x,1/2-y,1/2+z
loop_
_atom_site_type_symbol
_atom_site_label
_atom_site_fract_x
_atom_site_fract_y
_atom_site_fract_z
Si Si1 0.545781 0.157982 0.541916
Si Si2 0.161318 0.663803 0.239129
Si Si3 0.616887 0.020923 0.308055
Si Si4 0.990660 0.694954 0.082184
Si Si5 0.068444 0.397984 0.536376
Si Si6 0.779201 0.567175 0.287176
Si Si7 0.784648 0.140069 0.637699
Si Si8 0.494703 0.907228 0.902330
O O1 0.545772 0.105636 0.414047
O O2 0.675291 0.120177 0.572634
O O3 0.546422 0.288226 0.541619
O O4 0.431059 0.097943 0.642088
O O5 0.235976 0.551373 0.206284
O O6 0.109033 0.718201 0.136997
O O7 0.035180 0.645765 0.345855
O O8 0.243087 0.745154 0.294232
O O9 0.586839 0.047035 0.183182
O O10 0.885676 0.624248 0.177379
O O11 0.919094 0.802344 0.059028
O O12 0.072251 0.640045 0.956044
O O13 0.000000 0.500000 0.500000
O O14 0.186280 0.425792 0.586349
O O15 0.776965 0.445910 0.241500
O O16 0.637208 0.611576 0.313613
O O17 0.500000 0.000000 0.000000
#
# Coordination Sequence:
#
# PCOD9245376 Si02
#       8
#     4   4   4   4   4   4   4   4
#     4  11  25  43  70 102 138 186 235 289 350 422
#     4  10  21  37  69  96 129 172 227 273 331 411
#     4  11  24  45  67 102 137 182 238 286 349 410
#     4  10  22  42  65  96 130 176 222 282 344 407
#     4  10  23  40  64  97 130 172 218 278 344 410
#     4  11  25  43  63  99 134 174 222 285 353 406
#     4  11  20  40  69  96 129 174 230 281 334 421
#     4  12  29  44  71 104 144 187 231 288 354 417
#
# _framework density 21.407361999999999
#
# number of rings (size 3 to 8) (size 9 to 14) (size 15 to 20)
#    0.000    1.250    3.750    1.125    5.250    2.000 
#    0.000    1.250    0.000    0.000    0.000    0.000 
#    0.000    0.000    0.000    0.000    0.000    0.000 
#
# Total GULP energy -178504.364139 kJ/mol
# GULP energy per Si atom -5578.261379 kJ/mol
# Density = 2.135864 g / cm^3
# Si number density = 21.407362 Si / 1000 Ang^3
#
#
#
# Elastic Constant Matrix: (Units=GPa)
#
#
# Indices 1 2 3 4 5 6 
#
# 1 58.3032 4.0889 6.1649 0.0000 5.5925 0.0000
# 2 4.0889 87.9027 24.7371 0.0000 15.4520 0.0000
# 3 6.1649 24.7371 64.7358 0.0000 19.5963 0.0000
# 4 0.0000 0.0000 0.0000 24.9254 0.0000 1.6849
# 5 5.5925 15.4520 19.5963 0.0000 35.8565 0.0000
# 6 0.0000 0.0000 0.0000 1.6849 0.0000 28.2503
#
#
#
# Elastic Compliance Matrix: (Units=1/GPa)
#
#
# Indices 1 2 3 4 5 6 
#
# 1 0.017469 -0.000170 -0.000954 0.000000 -0.002130 0.000000
# 2 -0.000170 0.013103 -0.003941 0.000000 -0.003466 0.000000
# 3 -0.000954 -0.003941 0.019753 0.000000 -0.008948 0.000000
# 4 0.000000 0.000000 0.000000 0.040282 0.000000 -0.002402
# 5 -0.002130 -0.003466 -0.008948 0.000000 0.034605 0.000000
# 6 0.000000 0.000000 0.000000 -0.002402 0.000000 0.035541
#
#
# Mechanical properties :
#
#
# Convention : Reuss Voigt Hill
#
# Bulk Modulus (GPa) = 24.87919 31.21372 28.04645
# Shear Modulus (GPa) = 27.13245 29.53647 28.33446
#
# Velocity S-wave (km/s) = 3.56397 3.71851 3.64206
# Velocity P-wave (km/s) = 5.34629 5.74882 5.55120
#
# Compressibility (1/GPa) = 0.04019424
#
# Stress axis : x y z
#
# Youngs Moduli (GPa) = 57.24488 76.32103 50.62495
#
# Poissons Ratio (x) = 0.01295 0.04829
# Poissons Ratio (y) = 0.00971 0.19954
# Poissons Ratio (z) = 0.05461 0.30082
#
# Static dielectric constant tensor:
#      x y z
#    x 1.722980 0.000000 0.080440 
#    y 0.000000 1.803640 0.000000 
#    z 0.080440 0.000000 1.804610 
# 
# From -- ./inp_files/29086.got.cif
#   From: 2010.05.17/outbox.cif.g08.bks.cpg/sg14_15_cif.got.tgz:29086.got - 2010.06.03 17:49:19.
