data_PCOD9245537
_publ_section_title
;
Structure prediction by ZEFSAII (Michael W. Deem and Ramdas Pophale) SiO2 
 PCOD9245537
Probable space group: P 21/C
;
_chemical_formula_sum "Si O2"
_cell_formula_units_Z 28
_cell_length_a 17.053255
_cell_length_b 8.122743
_cell_length_c 15.289041
_cell_angle_alpha 90.000000
_cell_angle_beta 145.331443
_cell_angle_gamma 90.000000
_cell_volume 1204.679187
_symmetry_space_group_name_H-M "P 21/C"
_symmetry_group_IT_number 14
_symmetry_cell_setting 'monoclinic'
loop_
_space_group_symop_operation_xyz
x,y,z
-x,1/2+y,1/2-z
-x,-y,-z
x,1/2-y,1/2+z
loop_
_atom_site_type_symbol
_atom_site_label
_atom_site_fract_x
_atom_site_fract_y
_atom_site_fract_z
Si Si1 0.922433 0.121969 0.862647
Si Si2 0.506448 0.686333 0.972373
Si Si3 0.799507 0.675610 0.166529
Si Si4 0.082906 0.845050 0.484330
Si Si5 0.363660 0.699879 0.175309
Si Si6 0.836557 0.796792 0.494945
Si Si7 0.456890 0.332248 0.317959
O O1 0.879019 0.271823 0.885357
O O2 0.810871 0.011284 0.712423
O O3 0.038973 0.171029 0.900322
O O4 0.000000 0.000000 0.000000
O O5 0.655837 0.738770 0.071752
O O6 0.477500 0.807514 0.026881
O O7 0.500000 0.500000 0.000000
O O8 0.408276 0.693910 0.799232
O O9 0.931090 0.781104 0.320190
O O10 0.802637 0.673323 0.064898
O O11 0.198502 0.785410 0.520811
O O12 0.105520 0.040072 0.499785
O O13 0.413803 0.515850 0.248343
O O14 0.442256 0.756400 0.161436
O O15 0.693206 0.742293 0.319104
#
# Coordination Sequence:
#
# PCOD9245537 Si02
#       7
#     4   4   4   4   4   4   4
#     4  10  21  38  62  92 128 170 215 266 332 394
#     4  12  25  45  71  99 137 182 226 281 340 409
#     4  11  23  43  66 101 133 175 229 274 342 400
#     4  10  23  42  65  96 135 172 225 279 337 398
#     4  11  24  45  66 102 133 178 228 279 342 408
#     4  11  22  42  68  99 134 175 225 283 335 405
#     4  11  24  43  72  95 138 176 229 283 341 406
#
# _framework density 23.242704
#
# number of rings (size 3 to 8) (size 9 to 14) (size 15 to 20)
#    0.000    1.143    1.429    5.143    2.000    4.571 
#    5.143    0.000    0.000    0.000    0.000    0.000 
#    0.000    0.000    0.000    0.000    0.000    0.000 
#
# Total GULP energy -156627.098569 kJ/mol
# GULP energy per Si atom -5593.824949 kJ/mol
# Density = 2.318980 g / cm^3
# Si number density = 23.242704 Si / 1000 Ang^3
#
#
#
# Elastic Constant Matrix: (Units=GPa)
#
#
# Indices 1 2 3 4 5 6 
#
# 1 130.3797 31.2496 15.8110 0.0000 -2.5758 0.0000
# 2 31.2496 46.3353 -1.5447 0.0000 -0.8448 0.0000
# 3 15.8110 -1.5447 53.7064 0.0000 13.0909 0.0000
# 4 0.0000 0.0000 0.0000 29.7574 0.0000 -0.7264
# 5 -2.5758 -0.8448 13.0909 0.0000 52.8472 0.0000
# 6 0.0000 0.0000 0.0000 -0.7264 0.0000 16.7278
#
#
#
# Elastic Compliance Matrix: (Units=1/GPa)
#
#
# Indices 1 2 3 4 5 6 
#
# 1 0.009684 -0.006621 -0.003332 0.000000 0.001192 0.000000
# 2 -0.006621 0.026131 0.002850 0.000000 -0.000611 0.000000
# 3 -0.003332 0.002850 0.020978 0.000000 -0.005313 0.000000
# 4 0.000000 0.000000 0.000000 0.033641 0.000000 0.001461
# 5 0.001192 -0.000611 -0.005313 0.000000 0.020287 0.000000
# 6 0.000000 0.000000 0.000000 0.001461 0.000000 0.059844
#
#
# Mechanical properties :
#
#
# Convention : Reuss Voigt Hill
#
# Bulk Modulus (GPa) = 23.48139 35.71700 29.59920
# Shear Modulus (GPa) = 25.12988 32.19352 28.66170
#
# Velocity S-wave (km/s) = 3.29172 3.72573 3.51543
# Velocity P-wave (km/s) = 4.95700 5.82310 5.40742
#
# Compressibility (1/GPa) = 0.04258691
#
# Stress axis : x y z
#
# Youngs Moduli (GPa) = 103.25926 38.26897 47.66957
#
# Poissons Ratio (x) = 0.25337 0.15883
# Poissons Ratio (y) = 0.68365 -0.13584
# Poissons Ratio (z) = 0.34405 -0.10905
#
# Static dielectric constant tensor:
#      x y z
#    x 1.847250 0.000000 0.021540 
#    y 0.000000 1.895940 0.000000 
#    z 0.021540 0.000000 1.900100 
# 
# From -- ./inp_files/46758.got.cif
#   From: 2010.05.17/outbox.cif.g08.bks.cpg/sg14_24_cif.got.tgz:46758.got - 2010.06.03 17:49:19.
