data_PCOD9245007
_publ_section_title
;
Structure prediction by ZEFSAII (Michael W. Deem and Ramdas Pophale) SiO2 
 PCOD9245007
Probable space group: P 21/C
;
_chemical_formula_sum "Si O2"
_cell_formula_units_Z 24
_cell_length_a 8.062811
_cell_length_b 7.996363
_cell_length_c 16.575428
_cell_angle_alpha 90.000000
_cell_angle_beta 128.034528
_cell_angle_gamma 90.000000
_cell_volume 841.727028
_symmetry_space_group_name_H-M "P 21/C"
_symmetry_group_IT_number 14
_symmetry_cell_setting 'monoclinic'
loop_
_space_group_symop_operation_xyz
x,y,z
-x,1/2+y,1/2-z
-x,-y,-z
x,1/2-y,1/2+z
loop_
_atom_site_type_symbol
_atom_site_label
_atom_site_fract_x
_atom_site_fract_y
_atom_site_fract_z
Si Si1 0.830959 0.432196 0.556446
Si Si2 0.417577 0.589654 0.846913
Si Si3 0.218376 0.046222 0.422038
Si Si4 0.551378 0.786861 0.751610
Si Si5 0.661440 0.889756 0.138139
Si Si6 0.931837 0.257254 0.944363
O O1 0.584563 0.425265 0.455683
O O2 0.806866 0.465388 0.644552
O O3 0.939772 0.277526 0.543073
O O4 0.950817 0.594367 0.557225
O O5 0.227383 0.592936 0.854014
O O6 0.528067 0.749307 0.839025
O O7 0.369536 0.463556 0.758919
O O8 0.597698 0.513117 0.957796
O O9 0.273138 0.218805 0.389276
O O10 0.031095 0.090011 0.425726
O O11 0.675083 0.648149 0.736714
O O12 0.311199 0.769792 0.650906
#
# Coordination Sequence:
#
# PCOD9245007 Si02
#       6
#     4   4   4   4   4   4
#     4   8  14  26  51  83 114 147 182 228 282 338
#     4  10  22  39  59  80 113 156 194 233 289 356
#     4   9  19  38  58  79 112 156 193 228 287 359
#     4  10  21  36  56  83 114 149 195 244 284 333
#     4   8  15  30  52  80 112 147 188 226 280 351
#     4   9  17  31  54  86 115 141 188 241 284 337
#
# _framework density 28.512810000000002
#
# number of rings (size 3 to 8) (size 9 to 14) (size 15 to 20)
#    0.000    3.000    0.000    0.000    0.000    8.667 
#    0.000    6.667    0.000    4.000    0.000    0.000 
#    0.000    0.000    0.000    0.000    0.000    0.000 
#
# Total GULP energy -134176.384087 kJ/mol
# GULP energy per Si atom -5590.682670 kJ/mol
# Density = 2.844791 g / cm^3
# Si number density = 28.512810 Si / 1000 Ang^3
#
#
#
# Elastic Constant Matrix: (Units=GPa)
#
#
# Indices 1 2 3 4 5 6 
#
# 1 201.1163 59.9447 52.9946 0.0000 -59.9347 0.0000
# 2 59.9447 139.7389 29.7644 0.0000 -25.6655 0.0000
# 3 52.9946 29.7644 79.3969 0.0000 -22.9017 0.0000
# 4 0.0000 0.0000 0.0000 38.8752 0.0000 -12.5234
# 5 -59.9347 -25.6655 -22.9017 0.0000 53.7595 0.0000
# 6 0.0000 0.0000 0.0000 -12.5234 0.0000 50.9243
#
#
#
# Elastic Compliance Matrix: (Units=1/GPa)
#
#
# Indices 1 2 3 4 5 6 
#
# 1 0.008418 -0.001644 -0.002875 0.000000 0.007375 0.000000
# 2 -0.001644 0.008491 -0.001648 0.000000 0.001519 0.000000
# 3 -0.002875 -0.001648 0.015939 0.000000 0.002798 0.000000
# 4 0.000000 0.000000 0.000000 0.027937 0.000000 0.006870
# 5 0.007375 0.001519 0.002798 0.000000 0.028741 0.000000
# 6 0.000000 0.000000 0.000000 0.006870 0.000000 0.021327
#
#
# Mechanical properties :
#
#
# Convention : Reuss Voigt Hill
#
# Bulk Modulus (GPa) = 48.74645 78.40661 63.57653
# Shear Modulus (GPa) = 38.45476 47.21504 42.83490
#
# Velocity S-wave (km/s) = 3.67643 4.07372 3.88016
# Velocity P-wave (km/s) = 5.92916 7.04878 6.51307
#
# Compressibility (1/GPa) = 0.02051431
#
# Stress axis : x y z
#
# Youngs Moduli (GPa) = 118.79852 117.76557 62.74055
#
# Poissons Ratio (x) = 0.19362 0.18037
# Poissons Ratio (y) = 0.19531 0.10338
# Poissons Ratio (z) = 0.34153 0.19405
#
# Static dielectric constant tensor:
#      x y z
#    x 2.325750 0.000000 -0.005290 
#    y 0.000000 2.340780 0.000000 
#    z -0.005290 0.000000 2.176420 
# 
# From -- ./inp_files/55253.got.cif
#   From: 2010.05.17/outbox.cif.g08.bks.cpg/sg14_28_cif.got.tgz:55253.got - 2010.06.03 17:49:19.
