data_PCOD9245718
_publ_section_title
;
Structure prediction by ZEFSAII (Michael W. Deem and Ramdas Pophale) SiO2 
 PCOD9245718
Probable space group: P 21/C
;
_chemical_formula_sum "Si O2"
_cell_formula_units_Z 20
_cell_length_a 5.102555
_cell_length_b 10.624108
_cell_length_c 18.460444
_cell_angle_alpha 90.000000
_cell_angle_beta 108.083498
_cell_angle_gamma 90.000000
_cell_volume 951.310930
_symmetry_space_group_name_H-M "P 21/C"
_symmetry_group_IT_number 14
_symmetry_cell_setting 'monoclinic'
loop_
_space_group_symop_operation_xyz
x,y,z
-x,1/2+y,1/2-z
-x,-y,-z
x,1/2-y,1/2+z
loop_
_atom_site_type_symbol
_atom_site_label
_atom_site_fract_x
_atom_site_fract_y
_atom_site_fract_z
Si Si1 0.151985 0.948629 0.162098
Si Si2 0.391049 0.900395 0.879016
Si Si3 0.615222 0.123374 0.665002
Si Si4 0.013523 0.099515 0.566011
Si Si5 0.891217 0.641591 0.509899
O O1 0.430281 0.993378 0.146175
O O2 0.920970 0.057367 0.140021
O O3 0.224666 0.920391 0.250524
O O4 0.004130 0.840969 0.100913
O O5 0.399773 0.774265 0.833611
O O6 0.562593 0.869564 0.967310
O O7 0.301640 0.078235 0.632399
O O8 0.771436 0.089272 0.603907
O O9 0.018236 0.240250 0.531288
O O10 0.000000 0.000000 0.500000
O O11 0.000000 0.500000 0.500000
#
# Coordination Sequence:
#
# PCOD9245718 Si02
#       5
#     4   4   4   4   4
#     4  11  22  36  62  91 117 155 207 254 301 358
#     4  10  21  39  59  88 123 158 200 255 306 356
#     4  11  23  41  61  89 125 160 198 257 308 351
#     4  11  24  43  63  88 126 167 201 243 304 370
#     4   9  20  39  63  88 118 160 206 247 297 361
#
# _framework density 21.023619
#
# number of rings (size 3 to 8) (size 9 to 14) (size 15 to 20)
#    0.000    1.600    0.000    6.000    0.000    8.000 
#    0.000    2.000    0.000    0.000    0.000    0.000 
#    0.000    0.000    0.000    0.000    0.000    0.000 
#
# Total GULP energy -111629.372210 kJ/mol
# GULP energy per Si atom -5581.468611 kJ/mol
# Density = 2.097577 g / cm^3
# Si number density = 21.023619 Si / 1000 Ang^3
#
#
#
# Elastic Constant Matrix: (Units=GPa)
#
#
# Indices 1 2 3 4 5 6 
#
# 1 45.1599 12.2792 -1.4226 0.0000 7.2975 0.0000
# 2 12.2792 61.6145 41.4381 0.0000 6.3903 0.0000
# 3 -1.4226 41.4381 127.2444 0.0000 8.6122 0.0000
# 4 0.0000 0.0000 0.0000 25.9105 0.0000 0.4719
# 5 7.2975 6.3903 8.6122 0.0000 32.8593 0.0000
# 6 0.0000 0.0000 0.0000 0.4719 0.0000 16.1692
#
#
#
# Elastic Compliance Matrix: (Units=1/GPa)
#
#
# Indices 1 2 3 4 5 6 
#
# 1 0.024708 -0.006172 0.002623 0.000000 -0.004974 0.000000
# 2 -0.006172 0.022497 -0.007322 0.000000 -0.001085 0.000000
# 3 0.002623 -0.007322 0.010400 0.000000 -0.001884 0.000000
# 4 0.000000 0.000000 0.000000 0.038615 0.000000 -0.001127
# 5 -0.004974 -0.001085 -0.001884 0.000000 0.032242 0.000000
# 6 0.000000 0.000000 0.000000 -0.001127 0.000000 0.061879
#
#
# Mechanical properties :
#
#
# Convention : Reuss Voigt Hill
#
# Bulk Modulus (GPa) = 27.88390 37.62313 32.75352
# Shear Modulus (GPa) = 22.31763 27.10273 24.71018
#
# Velocity S-wave (km/s) = 3.26168 3.59438 3.43206
# Velocity P-wave (km/s) = 5.24182 5.92963 5.59630
#
# Compressibility (1/GPa) = 0.03586299
#
# Stress axis : x y z
#
# Youngs Moduli (GPa) = 40.47234 44.45085 96.15243
#
# Poissons Ratio (x) = 0.27436 -0.25220
# Poissons Ratio (y) = 0.24981 0.70401
# Poissons Ratio (z) = -0.10616 0.32546
#
# Static dielectric constant tensor:
#      x y z
#    x 1.770870 0.000000 -0.023750 
#    y 0.000000 1.761950 0.000000 
#    z -0.023750 0.000000 1.805860 
# 
# From -- ./inp_files/37028.got.cif
#   From: 2010.05.17/outbox.cif.g08.bks.cpg/sg14_19_cif.got.tgz:37028.got - 2010.06.03 17:49:19.
