data_PCOD9245068
_publ_section_title
;
Structure prediction by ZEFSAII (Michael W. Deem and Ramdas Pophale) SiO2 
 PCOD9245068
Probable space group: P 21/C
;
_chemical_formula_sum "Si O2"
_cell_formula_units_Z 24
_cell_length_a 10.180040
_cell_length_b 19.161648
_cell_length_c 5.611313
_cell_angle_alpha 90.000000
_cell_angle_beta 102.383544
_cell_angle_gamma 90.000000
_cell_volume 1069.111752
_symmetry_space_group_name_H-M "P 21/C"
_symmetry_group_IT_number 14
_symmetry_cell_setting 'monoclinic'
loop_
_space_group_symop_operation_xyz
x,y,z
-x,1/2+y,1/2-z
-x,-y,-z
x,1/2-y,1/2+z
loop_
_atom_site_type_symbol
_atom_site_label
_atom_site_fract_x
_atom_site_fract_y
_atom_site_fract_z
Si Si1 0.694409 0.729923 0.887448
Si Si2 0.771702 0.912016 0.259919
Si Si3 0.553520 0.945439 0.823467
Si Si4 0.298126 0.545258 0.990473
Si Si5 0.999049 0.218995 0.090135
Si Si6 0.961050 0.422248 0.395475
O O1 0.626408 0.744583 0.604181
O O2 0.722511 0.647005 0.921546
O O3 0.841142 0.765012 0.887528
O O4 0.922948 0.898913 0.241981
O O5 0.765508 0.991709 0.343674
O O6 0.670354 0.903199 0.998163
O O7 0.419026 0.911532 0.659915
O O8 0.626367 0.992086 0.656031
O O9 0.500000 0.000000 0.000000
O O10 0.181091 0.579472 0.792585
O O11 0.945690 0.254773 0.311044
O O12 0.970428 0.136538 0.100952
O O13 0.000000 0.500000 0.500000
#
# Coordination Sequence:
#
# PCOD9245068 Si02
#       6
#     4   4   4   4   4   4
#     4  10  21  36  59  86 124 168 205 250 319 379
#     4  11  21  36  63  89 124 158 209 261 314 378
#     4   9  20  40  55  84 119 168 195 254 322 380
#     4  10  22  36  59  87 128 157 200 259 323 368
#     4  10  22  40  58  85 134 175 198 246 332 387
#     4  12  23  35  62 102 125 155 213 273 310 376
#
# _framework density 22.448542
#
# number of rings (size 3 to 8) (size 9 to 14) (size 15 to 20)
#    0.000    1.667    5.000    0.500    7.000    1.333 
#    0.000    0.000    0.000    2.000    0.000    0.000 
#    0.000    0.000    0.000    0.000    0.000    0.000 
#
# Total GULP energy -133854.922174 kJ/mol
# GULP energy per Si atom -5577.288424 kJ/mol
# Density = 2.239745 g / cm^3
# Si number density = 22.448542 Si / 1000 Ang^3
#
#
#
# Elastic Constant Matrix: (Units=GPa)
#
#
# Indices 1 2 3 4 5 6 
#
# 1 66.9951 -11.3080 19.2948 0.0000 25.5152 0.0000
# 2 -11.3080 74.4794 13.0715 0.0000 2.6761 0.0000
# 3 19.2948 13.0715 103.1921 0.0000 1.7284 0.0000
# 4 0.0000 0.0000 0.0000 35.1014 0.0000 -1.5983
# 5 25.5152 2.6761 1.7284 0.0000 41.4127 0.0000
# 6 0.0000 0.0000 0.0000 -1.5983 0.0000 -0.2876
#
#
#
# Elastic Compliance Matrix: (Units=1/GPa)
#
#
# Indices 1 2 3 4 5 6 
#
# 1 0.022295 0.004678 -0.004529 0.000000 -0.013850 0.000000
# 2 0.004678 0.014741 -0.002679 0.000000 -0.003723 0.000000
# 3 -0.004529 -0.002679 0.010835 0.000000 0.002512 0.000000
# 4 0.000000 0.000000 0.000000 0.022735 0.000000 -0.126363
# 5 -0.013850 -0.003723 0.002512 0.000000 0.032816 0.000000
# 6 0.000000 0.000000 0.000000 -0.126363 0.000000 -2.775222
#
#
# Mechanical properties :
#
#
# Convention : Reuss Voigt Hill
#
# Bulk Modulus (GPa) = 23.35997 31.86481 27.61239
# Shear Modulus (GPa) = -1.88504 30.15255 14.13375
#
# Velocity S-wave (km/s) = -0.91735 3.66892 2.51192
# Velocity P-wave (km/s) = 3.05066 5.67216 4.55412
#
# Compressibility (1/GPa) = 0.04280827
#
# Stress axis : x y z
#
# Youngs Moduli (GPa) = 44.85288 67.83932 92.29441
#
# Poissons Ratio (x) = -0.31732 0.41803
# Poissons Ratio (y) = -0.20980 0.24730
# Poissons Ratio (z) = 0.20315 0.18177
#
# Static dielectric constant tensor:
#      x y z
#    x 1.854070 0.000000 -0.036340 
#    y 0.000000 2.000810 0.000000 
#    z -0.036340 0.000000 2.018960 
# 
# From -- ./inp_files/2720.got.cif
#   From: 2010.05.17/outbox.cif.g08.bks.cpg/sg14_2_cif.got.tgz:2720.got - 2010.06.03 17:49:19.
