data_PCOD9245026
_publ_section_title
;
Structure prediction by ZEFSAII (Michael W. Deem and Ramdas Pophale) SiO2 
 PCOD9245026
Probable space group: P 21/C
;
_chemical_formula_sum "Si O2"
_cell_formula_units_Z 28
_cell_length_a 9.461572
_cell_length_b 14.159282
_cell_length_c 19.030716
_cell_angle_alpha 90.000000
_cell_angle_beta 32.834759
_cell_angle_gamma 90.000000
_cell_volume 1382.399688
_symmetry_space_group_name_H-M "P 21/C"
_symmetry_group_IT_number 14
_symmetry_cell_setting 'monoclinic'
loop_
_space_group_symop_operation_xyz
x,y,z
-x,1/2+y,1/2-z
-x,-y,-z
x,1/2-y,1/2+z
loop_
_atom_site_type_symbol
_atom_site_label
_atom_site_fract_x
_atom_site_fract_y
_atom_site_fract_z
Si Si1 0.197875 0.381175 0.201992
Si Si2 0.786705 0.391138 0.797395
Si Si3 0.172243 0.321708 0.915358
Si Si4 0.889985 0.630787 0.606614
Si Si5 0.185171 0.882944 0.561405
Si Si6 0.168617 0.389070 0.063064
Si Si7 0.280917 0.915438 0.826602
O O1 0.186460 0.495388 0.207282
O O2 0.071735 0.348240 0.327085
O O3 0.077557 0.352476 0.177219
O O4 0.507458 0.359803 0.073989
O O5 0.905149 0.354955 0.821559
O O6 0.857703 0.373382 0.686218
O O7 0.479053 0.368237 0.930593
O O8 0.267499 0.214557 0.864803
O O9 0.417217 0.390279 0.803392
O O10 0.968905 0.338783 0.938377
O O11 0.053552 0.343269 0.041287
O O12 0.755459 0.528455 0.658988
O O13 0.151091 0.622681 0.451527
O O14 0.150007 0.996928 0.568824
#
# Coordination Sequence:
#
# PCOD9245026 Si02
#       7
#     4   4   4   4   4   4   4
#     4   8  15  31  55  74 104 142 178 206 269 334
#     4   7  13  30  55  75 102 146 169 204 272 331
#     4  11  21  32  56  86 105 135 185 234 267 305
#     4  10  21  36  57  77 108 153 179 213 270 338
#     4   9  16  29  55  86 106 127 174 235 271 298
#     4   8  15  30  51  80 107 134 170 224 273 312
#     4   9  20  40  56  74 113 150 180 209 271 339
#
# _framework density 20.254633999999999
#
# number of rings (size 3 to 8) (size 9 to 14) (size 15 to 20)
#    0.000    3.143    0.000    3.000    2.000    0.000 
#    2.571    0.000    0.000   17.143    0.000    0.000 
#    0.000    0.000    0.000    0.000    0.000    0.000 
#
# Total GULP energy -155906.429136 kJ/mol
# GULP energy per Si atom -5568.086755 kJ/mol
# Density = 2.020853 g / cm^3
# Si number density = 20.254634 Si / 1000 Ang^3
#
#
#
# Elastic Constant Matrix: (Units=GPa)
#
#
# Indices 1 2 3 4 5 6 
#
# 1 137.2983 30.6594 52.7171 0.0000 46.6571 0.0000
# 2 30.6594 38.7511 19.9970 0.0000 19.7040 0.0000
# 3 52.7171 19.9970 84.3085 0.0000 46.9288 0.0000
# 4 0.0000 0.0000 0.0000 6.6350 0.0000 10.7145
# 5 46.6571 19.7040 46.9288 0.0000 42.4420 0.0000
# 6 0.0000 0.0000 0.0000 10.7145 0.0000 12.5333
#
#
#
# Elastic Compliance Matrix: (Units=1/GPa)
#
#
# Indices 1 2 3 4 5 6 
#
# 1 0.012021 -0.003692 -0.000622 0.000000 -0.010814 0.000000
# 2 -0.003692 0.035027 0.002063 0.000000 -0.014484 0.000000
# 3 -0.000622 0.002063 0.030982 0.000000 -0.034531 0.000000
# 4 0.000000 0.000000 0.000000 -0.396086 0.000000 0.338608
# 5 -0.010814 -0.014484 -0.034531 0.000000 0.080355 0.000000
# 6 0.000000 0.000000 0.000000 0.338608 0.000000 -0.209684
#
#
# Mechanical properties :
#
#
# Convention : Reuss Voigt Hill
#
# Bulk Modulus (GPa) = 13.60028 51.90056 32.75042
# Shear Modulus (GPa) = -11.95105 22.78767 5.41831
#
# Velocity S-wave (km/s) = -2.43171 3.35783 1.63735
# Velocity P-wave (km/s) = 1.07474 6.38068 4.44736
#
# Compressibility (1/GPa) = 0.07352790
#
# Stress axis : x y z
#
# Youngs Moduli (GPa) = 83.18568 28.54948 32.27677
#
# Poissons Ratio (x) = 0.10540 0.02008
# Poissons Ratio (y) = 0.30710 -0.06657
# Poissons Ratio (z) = 0.05174 -0.05888
#
# Static dielectric constant tensor:
#      x y z
#    x 1.752800 0.000000 0.056550 
#    y 0.000000 1.781460 0.000000 
#    z 0.056550 0.000000 1.737920 
# 
# From -- ./inp_files/25438.got.cif
#   From: 2010.05.17/outbox.cif.g08.bks.cpg/sg14_13_cif.got.tgz:25438.got - 2010.06.03 17:49:19.
