data_PCOD9245451
_publ_section_title
;
Structure prediction by ZEFSAII (Michael W. Deem and Ramdas Pophale) SiO2 
 PCOD9245451
Probable space group: P 21/C
;
_chemical_formula_sum "Si O2"
_cell_formula_units_Z 24
_cell_length_a 7.659875
_cell_length_b 12.622034
_cell_length_c 10.888415
_cell_angle_alpha 90.000000
_cell_angle_beta 61.513367
_cell_angle_gamma 90.000000
_cell_volume 925.271522
_symmetry_space_group_name_H-M "P 21/C"
_symmetry_group_IT_number 14
_symmetry_cell_setting 'monoclinic'
loop_
_space_group_symop_operation_xyz
x,y,z
-x,1/2+y,1/2-z
-x,-y,-z
x,1/2-y,1/2+z
loop_
_atom_site_type_symbol
_atom_site_label
_atom_site_fract_x
_atom_site_fract_y
_atom_site_fract_z
Si Si1 0.713000 0.194560 0.265145
Si Si2 0.826899 0.048351 0.424991
Si Si3 0.968148 0.667616 0.934373
Si Si4 0.254543 0.412635 0.663344
Si Si5 0.684014 0.714359 0.713260
Si Si6 0.347921 0.501513 0.365822
O O1 0.680905 0.121013 0.394753
O O2 0.519187 0.258144 0.290569
O O3 0.902863 0.271452 0.210816
O O4 0.753041 0.110124 0.142241
O O5 0.866575 0.104911 0.540998
O O6 0.037014 0.061030 0.283203
O O7 0.811803 0.923131 0.449440
O O8 0.859641 0.746188 0.064728
O O9 0.302102 0.288536 0.671359
O O10 0.276267 0.453888 0.518551
O O11 0.421593 0.470539 0.689498
O O12 0.688095 0.588554 0.722972
#
# Coordination Sequence:
#
# PCOD9245451 Si02
#       6
#     4   4   4   4   4   4
#     4  11  24  39  65  94 117 161 209 247 299 363
#     4  10  22  40  62  87 122 161 201 251 303 358
#     4  10  23  42  60  87 125 159 199 251 307 359
#     4   9  20  38  58  84 120 160 195 251 308 351
#     4  10  22  39  59  87 121 159 201 248 304 363
#     4  10  21  38  60  87 121 158 205 251 301 362
#
# _framework density 25.938331999999999
#
# number of rings (size 3 to 8) (size 9 to 14) (size 15 to 20)
#    0.000    2.000    0.000    2.000    0.000   14.000 
#    0.000    0.000    0.000    0.000    0.000    0.000 
#    0.000    0.000    0.000    0.000    0.000    0.000 
#
# Total GULP energy -134443.235677 kJ/mol
# GULP energy per Si atom -5601.801487 kJ/mol
# Density = 2.587929 g / cm^3
# Si number density = 25.938332 Si / 1000 Ang^3
#
#
#
# Elastic Constant Matrix: (Units=GPa)
#
#
# Indices 1 2 3 4 5 6 
#
# 1 73.6739 6.3191 12.0643 0.0000 -1.0032 0.0000
# 2 6.3191 115.0785 9.9716 0.0000 -11.8210 0.0000
# 3 12.0643 9.9716 51.0511 0.0000 2.9076 0.0000
# 4 0.0000 0.0000 0.0000 26.0535 0.0000 7.8333
# 5 -1.0032 -11.8210 2.9076 0.0000 31.3820 0.0000
# 6 0.0000 0.0000 0.0000 7.8333 0.0000 29.2817
#
#
#
# Elastic Compliance Matrix: (Units=1/GPa)
#
#
# Indices 1 2 3 4 5 6 
#
# 1 0.014158 -0.000431 -0.003296 0.000000 0.000596 0.000000
# 2 -0.000431 0.009254 -0.001914 0.000000 0.003649 0.000000
# 3 -0.003296 -0.001914 0.020898 0.000000 -0.002762 0.000000
# 4 0.000000 0.000000 0.000000 0.041740 0.000000 -0.011166
# 5 0.000596 0.003649 -0.002762 0.000000 0.033515 0.000000
# 6 0.000000 0.000000 0.000000 -0.011166 0.000000 0.037138
#
#
# Mechanical properties :
#
#
# Convention : Reuss Voigt Hill
#
# Bulk Modulus (GPa) = 30.27512 32.94592 31.61052
# Shear Modulus (GPa) = 27.93402 31.44000 29.68701
#
# Velocity S-wave (km/s) = 3.28524 3.48531 3.38675
# Velocity P-wave (km/s) = 5.10761 5.37826 5.24468
#
# Compressibility (1/GPa) = 0.03303043
#
# Stress axis : x y z
#
# Youngs Moduli (GPa) = 70.63123 108.06077 47.85120
#
# Poissons Ratio (x) = 0.04654 0.15770
# Poissons Ratio (y) = 0.03042 0.09157
# Poissons Ratio (z) = 0.23277 0.20679
#
# Static dielectric constant tensor:
#      x y z
#    x 2.023350 0.000000 0.063470 
#    y 0.000000 2.037020 0.000000 
#    z 0.063470 0.000000 2.029490 
# 
# From -- ./inp_files/24116.got.cif
#   From: 2010.05.17/outbox.cif.g08.bks.cpg/sg14_13_cif.got.tgz:24116.got - 2010.06.03 17:49:19.
