data_PCOD9245188
_publ_section_title
;
Structure prediction by ZEFSAII (Michael W. Deem and Ramdas Pophale) SiO2 
 PCOD9245188
Probable space group: P 21/C
;
_chemical_formula_sum "Si O2"
_cell_formula_units_Z 24
_cell_length_a 17.419319
_cell_length_b 4.846422
_cell_length_c 10.862089
_cell_angle_alpha 90.000000
_cell_angle_beta 90.673689
_cell_angle_gamma 90.000000
_cell_volume 916.929056
_symmetry_space_group_name_H-M "P 21/C"
_symmetry_group_IT_number 14
_symmetry_cell_setting 'monoclinic'
loop_
_space_group_symop_operation_xyz
x,y,z
-x,1/2+y,1/2-z
-x,-y,-z
x,1/2-y,1/2+z
loop_
_atom_site_type_symbol
_atom_site_label
_atom_site_fract_x
_atom_site_fract_y
_atom_site_fract_z
Si Si1 0.217143 0.525302 0.935509
Si Si2 0.639127 0.130679 0.410171
Si Si3 0.011201 0.737623 0.673326
Si Si4 0.330289 0.370188 0.758790
Si Si5 0.514964 0.719144 0.663994
Si Si6 0.876043 0.532880 0.498015
O O1 0.295028 0.663967 0.988571
O O2 0.246288 0.364277 0.815423
O O3 0.183361 0.282917 0.020768
O O4 0.158965 0.778895 0.923920
O O5 0.659395 0.327178 0.295305
O O6 0.551204 0.216203 0.436166
O O7 0.650026 0.828528 0.353999
O O8 0.945560 0.674832 0.572869
O O9 0.988591 0.556561 0.791926
O O10 0.090087 0.616913 0.621311
O O11 0.396573 0.290382 0.859869
O O12 0.506011 0.416792 0.719950
#
# Coordination Sequence:
#
# PCOD9245188 Si02
#       6
#     4   4   4   4   4   4
#     4  12  24  38  60  90 124 154 186 240 296 344
#     4  10  21  37  57  83 117 158 200 242 290 338
#     4  11  24  45  70  88 114 157 190 229 290 344
#     4  10  21  37  57  83 117 158 200 242 290 338
#     4   8  16  33  54  77 110 152 202 247 276 329
#     4  11  26  42  60  95 122 142 196 241 274 356
#
# _framework density 26.174327000000002
#
# number of rings (size 3 to 8) (size 9 to 14) (size 15 to 20)
#    0.000    1.667    0.000    4.000    0.000   11.333 
#    0.000    0.000    0.000   14.000    0.000    0.000 
#    0.000    0.000    0.000    0.000    0.000    0.000 
#
# Total GULP energy -134359.983990 kJ/mol
# GULP energy per Si atom -5598.332666 kJ/mol
# Density = 2.611475 g / cm^3
# Si number density = 26.174327 Si / 1000 Ang^3
#
#
#
# Elastic Constant Matrix: (Units=GPa)
#
#
# Indices 1 2 3 4 5 6 
#
# 1 55.2622 16.2639 9.9743 0.0000 -12.2317 0.0000
# 2 16.2639 94.5396 5.6012 0.0000 -9.4599 0.0000
# 3 9.9743 5.6012 49.3716 0.0000 -2.5613 0.0000
# 4 0.0000 0.0000 0.0000 33.1356 0.0000 -2.3485
# 5 -12.2317 -9.4599 -2.5613 0.0000 35.4853 0.0000
# 6 0.0000 0.0000 0.0000 -2.3485 0.0000 20.3217
#
#
#
# Elastic Compliance Matrix: (Units=1/GPa)
#
#
# Indices 1 2 3 4 5 6 
#
# 1 0.020935 -0.002766 -0.003593 0.000000 0.006219 0.000000
# 2 -0.002766 0.011291 -0.000618 0.000000 0.002012 0.000000
# 3 -0.003593 -0.000618 0.021057 0.000000 0.000117 0.000000
# 4 0.000000 0.000000 0.000000 0.030428 0.000000 0.003516
# 5 0.006219 0.002012 0.000117 0.000000 0.030869 0.000000
# 6 0.000000 0.000000 0.000000 0.003516 0.000000 0.049615
#
#
# Mechanical properties :
#
#
# Convention : Reuss Voigt Hill
#
# Bulk Modulus (GPa) = 25.42660 29.20579 27.31619
# Shear Modulus (GPa) = 26.14263 28.94413 27.54338
#
# Velocity S-wave (km/s) = 3.16379 3.32900 3.24744
# Velocity P-wave (km/s) = 4.80432 5.09497 4.95178
#
# Compressibility (1/GPa) = 0.03932890
#
# Stress axis : x y z
#
# Youngs Moduli (GPa) = 47.76747 88.56302 47.49116
#
# Poissons Ratio (x) = 0.24499 0.17063
# Poissons Ratio (y) = 0.13214 0.02934
# Poissons Ratio (z) = 0.17162 0.05471
#
# Static dielectric constant tensor:
#      x y z
#    x 2.100030 0.000000 0.020350 
#    y 0.000000 1.945010 0.000000 
#    z 0.020350 0.000000 2.063850 
# 
# From -- ./inp_files/33369.got.cif
#   From: 2010.05.17/outbox.cif.g08.bks.cpg/sg14_17_cif.got.tgz:33369.got - 2010.06.03 17:49:19.
