data_PCOD9245463
_publ_section_title
;
Structure prediction by ZEFSAII (Michael W. Deem and Ramdas Pophale) SiO2 
 PCOD9245463
Probable space group: P 21/C
;
_chemical_formula_sum "Si O2"
_cell_formula_units_Z 32
_cell_length_a 9.170328
_cell_length_b 10.925909
_cell_length_c 30.759126
_cell_angle_alpha 90.000000
_cell_angle_beta 149.891397
_cell_angle_gamma 90.000000
_cell_volume 1545.998785
_symmetry_space_group_name_H-M "P 21/C"
_symmetry_group_IT_number 14
_symmetry_cell_setting 'monoclinic'
loop_
_space_group_symop_operation_xyz
x,y,z
-x,1/2+y,1/2-z
-x,-y,-z
x,1/2-y,1/2+z
loop_
_atom_site_type_symbol
_atom_site_label
_atom_site_fract_x
_atom_site_fract_y
_atom_site_fract_z
Si Si1 0.678991 0.989230 0.204935
Si Si2 0.973351 0.812515 0.347494
Si Si3 0.085397 0.492631 0.095442
Si Si4 0.247706 0.151548 0.553891
Si Si5 0.638589 0.331123 0.618258
Si Si6 0.616445 0.592080 0.289261
Si Si7 0.165239 0.873896 0.029558
Si Si8 0.229933 0.003646 0.962826
O O1 0.764691 0.066179 0.183854
O O2 0.495034 0.078750 0.189702
O O3 0.899342 0.916488 0.292487
O O4 0.463130 0.883493 0.132411
O O5 0.066962 0.889876 0.413863
O O6 0.712344 0.727022 0.298698
O O7 0.173499 0.715609 0.373625
O O8 0.236903 0.439357 0.091393
O O9 0.345297 0.549567 0.190641
O O10 0.852676 0.587100 0.016413
O O11 0.554394 0.215392 0.625601
O O12 0.014734 0.255352 0.506161
O O13 0.334757 0.383853 0.520239
O O14 0.902283 0.502460 0.359786
O O15 0.228536 0.887459 0.994804
O O16 0.000000 0.000000 0.000000
O O17 0.500000 0.000000 0.000000
#
# Coordination Sequence:
#
# PCOD9245463 Si02
#       8
#     4   4   4   4   4   4   4   4
#     4  10  21  38  60  91 119 162 215 256 308 375
#     4  11  23  38  62  90 129 161 208 263 313 372
#     4  10  25  39  64  91 120 168 211 256 311 379
#     4  11  21  42  62  89 125 164 208 254 320 372
#     4  11  22  38  62  86 129 166 200 258 320 368
#     4  11  20  39  63  89 124 157 216 260 310 374
#     4  11  18  35  65  86 111 160 208 251 305 370
#     4  11  20  34  60  93 118 153 203 259 310 363
#
# _framework density 20.698594
#
# number of rings (size 3 to 8) (size 9 to 14) (size 15 to 20)
#    0.000    1.250    5.000    2.250    0.000    2.500 
#    0.000    0.000    0.000    0.000    0.000    0.000 
#    0.000    0.000    0.000    0.000    0.000    0.000 
#
# Total GULP energy -178331.427966 kJ/mol
# GULP energy per Si atom -5572.857124 kJ/mol
# Density = 2.065148 g / cm^3
# Si number density = 20.698594 Si / 1000 Ang^3
#
#
#
# Elastic Constant Matrix: (Units=GPa)
#
#
# Indices 1 2 3 4 5 6 
#
# 1 102.2507 26.0707 11.7675 0.0000 -7.0889 0.0000
# 2 26.0707 78.9497 13.0225 0.0000 -6.9841 0.0000
# 3 11.7675 13.0225 52.0563 0.0000 -24.9940 0.0000
# 4 0.0000 0.0000 0.0000 25.6044 0.0000 -8.5539
# 5 -7.0889 -6.9841 -24.9940 0.0000 23.5239 0.0000
# 6 0.0000 0.0000 0.0000 -8.5539 0.0000 33.9695
#
#
#
# Elastic Compliance Matrix: (Units=1/GPa)
#
#
# Indices 1 2 3 4 5 6 
#
# 1 0.010823 -0.003296 -0.001074 0.000000 0.001142 0.000000
# 2 -0.003296 0.014223 -0.002577 0.000000 0.000491 0.000000
# 3 -0.001074 -0.002577 0.039960 0.000000 0.041368 0.000000
# 4 0.000000 0.000000 0.000000 0.042643 0.000000 0.010738
# 5 0.001142 0.000491 0.041368 0.000000 0.086953 0.000000
# 6 0.000000 0.000000 0.000000 0.010738 0.000000 0.032142
#
#
# Mechanical properties :
#
#
# Convention : Reuss Voigt Hill
#
# Bulk Modulus (GPa) = 19.56471 37.21982 28.39227
# Shear Modulus (GPa) = 19.40428 28.77929 24.09178
#
# Velocity S-wave (km/s) = 3.06513 3.73285 3.41535
# Velocity P-wave (km/s) = 4.69035 6.04977 5.41291
#
# Compressibility (1/GPa) = 0.05111243
#
# Stress axis : x y z
#
# Youngs Moduli (GPa) = 92.39616 70.30769 25.02531
#
# Poissons Ratio (x) = 0.23172 0.02687
# Poissons Ratio (y) = 0.30452 0.06449
# Poissons Ratio (z) = 0.09920 0.18120
#
# Static dielectric constant tensor:
#      x y z
#    x 1.805120 0.000000 -0.023880 
#    y 0.000000 1.783450 0.000000 
#    z -0.023880 0.000000 1.779930 
# 
# From -- ./inp_files/79650.got.cif
#   From: 2010.05.17/outbox.cif.g08.bks.cpg/sg14_40_cif.got.tgz:79650.got - 2010.06.03 17:49:19.
