data_PCOD9245960
_publ_section_title
;
Structure prediction by ZEFSAII (Michael W. Deem and Ramdas Pophale) SiO2 
 PCOD9245960
Probable space group: P 21/C
;
_chemical_formula_sum "Si O2"
_cell_formula_units_Z 20
_cell_length_a 11.262563
_cell_length_b 5.289870
_cell_length_c 24.405602
_cell_angle_alpha 90.000000
_cell_angle_beta 148.062824
_cell_angle_gamma 90.000000
_cell_volume 769.163131
_symmetry_space_group_name_H-M "P 21/C"
_symmetry_group_IT_number 14
_symmetry_cell_setting 'monoclinic'
loop_
_space_group_symop_operation_xyz
x,y,z
-x,1/2+y,1/2-z
-x,-y,-z
x,1/2-y,1/2+z
loop_
_atom_site_type_symbol
_atom_site_label
_atom_site_fract_x
_atom_site_fract_y
_atom_site_fract_z
Si Si1 0.178478 0.746277 0.538527
Si Si2 0.410799 0.893952 0.326551
Si Si3 0.705584 0.620493 0.512589
Si Si4 0.982100 0.129432 0.207285
Si Si5 0.122385 0.877944 0.633759
O O1 0.265665 0.536252 0.531903
O O2 0.142704 0.695531 0.588490
O O3 0.373653 0.959996 0.611658
O O4 0.950784 0.862551 0.423264
O O5 0.480761 0.775025 0.412704
O O6 0.333824 0.677983 0.254052
O O7 0.200769 0.080074 0.254331
O O8 0.762697 0.436368 0.584778
O O9 0.912239 0.815952 0.590863
O O10 0.997835 0.904835 0.258473
#
# Coordination Sequence:
#
# PCOD9245960 Si02
#       5
#     4   4   4   4   4
#     4  10  21  39  66  93 138 175 217 274 332 413
#     4  10  24  40  65 101 128 174 227 277 334 414
#     4  10  23  41  68  95 132 170 228 280 336 410
#     4  11  28  48  71  95 134 180 232 295 348 390
#     4   9  21  40  60  99 137 176 214 266 342 404
#
# _framework density 26.002285000000001
#
# number of rings (size 3 to 8) (size 9 to 14) (size 15 to 20)
#    0.000    2.000    0.000    0.600   14.000    3.200 
#    3.600    0.000    0.000    0.000    0.000    0.000 
#    0.000    0.000    0.000    0.000    0.000    0.000 
#
# Total GULP energy -111865.606823 kJ/mol
# GULP energy per Si atom -5593.280341 kJ/mol
# Density = 2.594310 g / cm^3
# Si number density = 26.002285 Si / 1000 Ang^3
#
#
#
# Elastic Constant Matrix: (Units=GPa)
#
#
# Indices 1 2 3 4 5 6 
#
# 1 85.3023 12.9719 23.4887 0.0000 -14.2778 0.0000
# 2 12.9719 71.8358 26.5002 0.0000 -4.1464 0.0000
# 3 23.4887 26.5002 139.1270 0.0000 -21.7652 0.0000
# 4 0.0000 0.0000 0.0000 20.6040 0.0000 -3.0899
# 5 -14.2778 -4.1464 -21.7652 0.0000 35.1604 0.0000
# 6 0.0000 0.0000 0.0000 -3.0899 0.0000 50.4947
#
#
#
# Elastic Compliance Matrix: (Units=1/GPa)
#
#
# Indices 1 2 3 4 5 6 
#
# 1 0.013035 -0.001659 -0.001204 0.000000 0.004352 0.000000
# 2 -0.001659 0.015184 -0.002699 0.000000 -0.000553 0.000000
# 3 -0.001204 -0.002699 0.008613 0.000000 0.004524 0.000000
# 4 0.000000 0.000000 0.000000 0.048984 0.000000 0.002997
# 5 0.004352 -0.000553 0.004524 0.000000 0.032944 0.000000
# 6 0.000000 0.000000 0.000000 0.002997 0.000000 0.019987
#
#
# Mechanical properties :
#
#
# Convention : Reuss Voigt Hill
#
# Bulk Modulus (GPa) = 38.89616 46.90964 42.90290
# Shear Modulus (GPa) = 31.55786 36.80544 34.18165
#
# Velocity S-wave (km/s) = 3.48754 3.76635 3.62962
# Velocity P-wave (km/s) = 5.58645 6.08224 5.83961
#
# Compressibility (1/GPa) = 0.02570948
#
# Stress axis : x y z
#
# Youngs Moduli (GPa) = 76.71512 65.85999 116.10675
#
# Poissons Ratio (x) = 0.10923 0.13978
# Poissons Ratio (y) = 0.12723 0.31334
# Poissons Ratio (z) = 0.09236 0.17774
#
# Static dielectric constant tensor:
#      x y z
#    x 2.036690 0.000000 0.005520 
#    y 0.000000 2.137500 0.000000 
#    z 0.005520 0.000000 2.036350 
# 
# From -- ./inp_files/27383.got.cif
#   From: 2010.05.17/outbox.cif.g08.bks.cpg/sg14_14_cif.got.tgz:27383.got - 2010.06.03 17:49:19.
