data_PCOD9245236
_publ_section_title
;
Structure prediction by ZEFSAII (Michael W. Deem and Ramdas Pophale) SiO2 
 PCOD9245236
Probable space group: P 21/C
;
_chemical_formula_sum "Si O2"
_cell_formula_units_Z 24
_cell_length_a 9.312281
_cell_length_b 7.734364
_cell_length_c 33.543751
_cell_angle_alpha 90.000000
_cell_angle_beta 153.689398
_cell_angle_gamma 90.000000
_cell_volume 1070.849355
_symmetry_space_group_name_H-M "P 21/C"
_symmetry_group_IT_number 14
_symmetry_cell_setting 'monoclinic'
loop_
_space_group_symop_operation_xyz
x,y,z
-x,1/2+y,1/2-z
-x,-y,-z
x,1/2-y,1/2+z
loop_
_atom_site_type_symbol
_atom_site_label
_atom_site_fract_x
_atom_site_fract_y
_atom_site_fract_z
Si Si1 0.184060 0.285696 0.675242
Si Si2 0.044026 0.224556 0.988662
Si Si3 0.129690 0.804469 0.252361
Si Si4 0.724228 0.385088 0.630078
Si Si5 0.316315 0.972311 0.649810
Si Si6 0.646330 0.935694 0.860431
O O1 0.503688 0.318389 0.781369
O O2 0.205156 0.430129 0.646089
O O3 0.881266 0.318626 0.628392
O O4 0.202809 0.109264 0.654910
O O5 0.965322 0.405219 0.948885
O O6 0.341533 0.141372 0.038212
O O7 0.158511 0.200227 0.062446
O O8 0.721770 0.111434 0.901815
O O9 0.134542 0.737351 0.298914
O O10 0.276495 0.633246 0.266914
O O11 0.400891 0.946139 0.307312
O O12 0.817378 0.913614 0.161529
#
# Coordination Sequence:
#
# PCOD9245236 Si02
#       6
#     4   4   4   4   4   4
#     4  10  21  37  59  86 119 158 203 245 295 355
#     4  10  21  38  62  88 119 156 200 248 300 351
#     4   9  21  38  58  82 117 160 197 233 294 366
#     4  10  22  38  59  91 121 152 200 255 301 343
#     4  10  21  38  60  85 119 162 202 240 292 366
#     4   9  20  39  60  82 115 159 198 235 296 368
#
# _framework density 22.412116999999999
#
# number of rings (size 3 to 8) (size 9 to 14) (size 15 to 20)
#    0.000    2.333    0.000    1.000    0.000   19.333 
#    0.000    0.000    0.000    0.000    0.000    0.000 
#    0.000    0.000    0.000    0.000    0.000    0.000 
#
# Total GULP energy -133738.142678 kJ/mol
# GULP energy per Si atom -5572.422612 kJ/mol
# Density = 2.236111 g / cm^3
# Si number density = 22.412117 Si / 1000 Ang^3
#
#
#
# Elastic Constant Matrix: (Units=GPa)
#
#
# Indices 1 2 3 4 5 6 
#
# 1 155.8296 6.9531 9.6242 0.0001 -6.7026 -0.0002
# 2 6.9531 66.7985 12.0581 0.0002 1.5583 -0.0006
# 3 9.6242 12.0581 48.2859 0.0007 -6.9644 -0.0015
# 4 0.0001 0.0002 0.0007 52.3594 0.0000 -6.1717
# 5 -6.7026 1.5583 -6.9644 0.0000 36.6710 0.0003
# 6 -0.0002 -0.0006 -0.0015 -6.1717 0.0003 4.1525
#
#
#
# Elastic Compliance Matrix: (Units=1/GPa)
#
#
# Indices 1 2 3 4 5 6 
#
# 1 0.006548 -0.000520 -0.001028 0.000000 0.001024 0.000000
# 2 -0.000520 0.015794 -0.004062 0.000000 -0.001538 0.000001
# 3 -0.001028 -0.004062 0.022545 0.000001 0.004266 0.000008
# 4 0.000000 0.000000 0.000001 0.023155 0.000000 0.034415
# 5 0.001024 -0.001538 0.004266 0.000000 0.028332 -0.000001
# 6 0.000000 0.000001 0.000008 0.034415 -0.000001 0.291967
#
#
# Mechanical properties :
#
#
# Convention : Reuss Voigt Hill
#
# Bulk Modulus (GPa) = 29.70296 36.46499 33.08397
# Shear Modulus (GPa) = 12.17190 34.78849 23.48020
#
# Velocity S-wave (km/s) = 2.33297 3.94409 3.24026
# Velocity P-wave (km/s) = 4.53198 6.08660 5.36589
#
# Compressibility (1/GPa) = 0.03366668
#
# Stress axis : x y z
#
# Youngs Moduli (GPa) = 152.71912 63.31654 44.35659
#
# Poissons Ratio (x) = 0.03292 0.04558
# Poissons Ratio (y) = 0.07941 0.18018
# Poissons Ratio (z) = 0.15694 0.25720
#
# Static dielectric constant tensor:
#      x y z
#    x 1.816060 0.000000 0.006500 
#    y 0.000000 1.933720 0.000000 
#    z 0.006500 0.000000 1.849160 
# 
# From -- ./inp_files/54499.got.cif
#   From: 2010.05.17/outbox.cif.g08.bks.cpg/sg14_28_cif.got.tgz:54499.got - 2010.06.03 17:49:19.
