data_PCOD9245075
_publ_section_title
;
Structure prediction by ZEFSAII (Michael W. Deem and Ramdas Pophale) SiO2 
 PCOD9245075
Probable space group: P 21/C
;
_chemical_formula_sum "Si O2"
_cell_formula_units_Z 20
_cell_length_a 4.956935
_cell_length_b 8.361186
_cell_length_c 19.981743
_cell_angle_alpha 90.000000
_cell_angle_beta 71.748318
_cell_angle_gamma 90.000000
_cell_volume 786.495626
_symmetry_space_group_name_H-M "P 21/C"
_symmetry_group_IT_number 14
_symmetry_cell_setting 'monoclinic'
loop_
_space_group_symop_operation_xyz
x,y,z
-x,1/2+y,1/2-z
-x,-y,-z
x,1/2-y,1/2+z
loop_
_atom_site_type_symbol
_atom_site_label
_atom_site_fract_x
_atom_site_fract_y
_atom_site_fract_z
Si Si1 0.600547 0.836137 0.309079
Si Si2 0.265779 0.387489 0.984176
Si Si3 0.841616 0.015030 0.758050
Si Si4 0.435716 0.685323 0.450636
Si Si5 0.362896 0.842288 0.098277
O O1 0.401407 0.901232 0.266495
O O2 0.749721 0.666074 0.280283
O O3 0.410347 0.798640 0.389014
O O4 0.855963 0.961021 0.300509
O O5 0.416977 0.303856 0.908733
O O6 0.500000 0.500000 0.000000
O O7 0.262796 0.240403 0.038082
O O8 0.000000 0.500000 0.000000
O O9 0.853307 0.113750 0.827159
O O10 0.457802 0.505604 0.423799
O O11 0.240658 0.689663 0.532538
#
# Coordination Sequence:
#
# PCOD9245075 Si02
#       5
#     4   4   4   4   4
#     4  11  24  43  67  95 131 174 217 269 326 388
#     4  10  21  36  59  92 122 152 200 262 315 356
#     4  11  24  43  67  95 131 174 217 269 326 388
#     4   8  19  43  65  89 126 172 216 259 318 394
#     4   8  19  43  65  89 126 172 216 259 318 394
#
# _framework density 25.429255999999999
#
# number of rings (size 3 to 8) (size 9 to 14) (size 15 to 20)
#    1.200    1.200    0.000    1.200    0.000    8.000 
#    0.000    8.000    0.000    0.000    0.000    0.000 
#    0.000    0.000    0.000    0.000    0.000    0.000 
#
# Total GULP energy -111620.160873 kJ/mol
# GULP energy per Si atom -5581.008044 kJ/mol
# Density = 2.537138 g / cm^3
# Si number density = 25.429256 Si / 1000 Ang^3
#
#
#
# Elastic Constant Matrix: (Units=GPa)
#
#
# Indices 1 2 3 4 5 6 
#
# 1 92.3012 36.1531 19.7574 0.0000 -17.2517 0.0000
# 2 36.1531 114.2215 27.8623 0.0000 -13.8167 0.0000
# 3 19.7574 27.8623 73.7282 0.0000 -10.1699 0.0000
# 4 0.0000 0.0000 0.0000 41.8739 0.0000 -5.9800
# 5 -17.2517 -13.8167 -10.1699 0.0000 27.9189 0.0000
# 6 0.0000 0.0000 0.0000 -5.9800 0.0000 31.7306
#
#
#
# Elastic Compliance Matrix: (Units=1/GPa)
#
#
# Indices 1 2 3 4 5 6 
#
# 1 0.013577 -0.003155 -0.001584 0.000000 0.006251 0.000000
# 2 -0.003155 0.010739 -0.002894 0.000000 0.002311 0.000000
# 3 -0.001584 -0.002894 0.015529 0.000000 0.003246 0.000000
# 4 0.000000 0.000000 0.000000 0.024542 0.000000 0.004625
# 5 0.006251 0.002311 0.003246 0.000000 0.042007 0.000000
# 6 0.000000 0.000000 0.000000 0.004625 0.000000 0.032387
#
#
# Mechanical properties :
#
#
# Convention : Reuss Voigt Hill
#
# Bulk Modulus (GPa) = 40.68385 49.75518 45.21951
# Shear Modulus (GPa) = 30.81850 33.40320 32.11085
#
# Velocity S-wave (km/s) = 3.48506 3.62826 3.55738
# Velocity P-wave (km/s) = 5.67695 6.09598 5.89019
#
# Compressibility (1/GPa) = 0.02457978
#
# Stress axis : x y z
#
# Youngs Moduli (GPa) = 73.65238 93.11846 64.39483
#
# Poissons Ratio (x) = 0.29378 0.10199
# Poissons Ratio (y) = 0.23237 0.18637
# Poissons Ratio (z) = 0.11665 0.26950
#
# Static dielectric constant tensor:
#      x y z
#    x 1.989710 0.000000 -0.004910 
#    y 0.000000 2.083200 0.000000 
#    z -0.004910 0.000000 2.053990 
# 
# From -- ./inp_files/62991.got.cif
#   From: 2010.05.17/outbox.cif.g08.bks.cpg/sg14_32_cif.got.tgz:62991.got - 2010.06.03 17:49:19.
