data_PCOD9245698
_publ_section_title
;
Structure prediction by ZEFSAII (Michael W. Deem and Ramdas Pophale) SiO2 
 PCOD9245698
Probable space group: P 21/C
;
_chemical_formula_sum "Si O2"
_cell_formula_units_Z 16
_cell_length_a 7.121832
_cell_length_b 13.776705
_cell_length_c 9.588568
_cell_angle_alpha 90.000000
_cell_angle_beta 47.294409
_cell_angle_gamma 90.000000
_cell_volume 691.335086
_symmetry_space_group_name_H-M "P 21/C"
_symmetry_group_IT_number 14
_symmetry_cell_setting 'monoclinic'
loop_
_space_group_symop_operation_xyz
x,y,z
-x,1/2+y,1/2-z
-x,-y,-z
x,1/2-y,1/2+z
loop_
_atom_site_type_symbol
_atom_site_label
_atom_site_fract_x
_atom_site_fract_y
_atom_site_fract_z
Si Si1 0.662943 0.455399 0.093038
Si Si2 0.870361 0.657432 0.638728
Si Si3 0.312670 0.622028 0.220582
Si Si4 0.062563 0.682321 0.852648
O O1 0.397961 0.395116 0.239342
O O2 0.570041 0.566313 0.133993
O O3 0.837019 0.416407 0.129604
O O4 0.765995 0.423535 0.889095
O O5 0.100191 0.602085 0.444686
O O6 0.939725 0.670558 0.764446
O O7 0.884655 0.760399 0.552107
O O8 0.296541 0.738824 0.215282
#
# Coordination Sequence:
#
# PCOD9245698 Si02
#       4
#     4   4   4   4
#     4  11  21  40  63  80 121 153 180 248 285 325
#     4  10  22  38  57  85 115 154 188 237 280 342
#     4   9  21  40  57  89 116 146 196 233 284 343
#     4  10  21  39  57  88 113 148 200 224 281 353
#
# _framework density 23.143625
#
# number of rings (size 3 to 8) (size 9 to 14) (size 15 to 20)
#    1.500    0.500    2.500    0.750    3.500    1.000 
#    0.000    7.500    0.000    0.000    0.000    0.000 
#    0.000    0.000    0.000    0.000    0.000    0.000 
#
# Total GULP energy -89369.449030 kJ/mol
# GULP energy per Si atom -5585.590564 kJ/mol
# Density = 2.309095 g / cm^3
# Si number density = 23.143625 Si / 1000 Ang^3
#
#
#
# Elastic Constant Matrix: (Units=GPa)
#
#
# Indices 1 2 3 4 5 6 
#
# 1 89.7306 17.0645 62.3941 0.0000 13.3653 0.0000
# 2 17.0645 106.5532 36.2073 0.0000 -3.9076 0.0000
# 3 62.3941 36.2073 138.5015 0.0000 29.1104 0.0000
# 4 0.0000 0.0000 0.0000 33.9093 0.0000 -4.2451
# 5 13.3653 -3.9076 29.1104 0.0000 24.3114 0.0000
# 6 0.0000 0.0000 0.0000 -4.2451 0.0000 40.4261
#
#
#
# Elastic Compliance Matrix: (Units=1/GPa)
#
#
# Indices 1 2 3 4 5 6 
#
# 1 0.016231 -0.000165 -0.007200 0.000000 -0.000329 0.000000
# 2 -0.000165 0.011138 -0.004320 0.000000 0.007054 0.000000
# 3 -0.007200 -0.004320 0.014575 0.000000 -0.014188 0.000000
# 4 0.000000 0.000000 0.000000 0.029883 0.000000 0.003138
# 5 -0.000329 0.007054 -0.014188 0.000000 0.059436 0.000000
# 6 0.000000 0.000000 0.000000 0.003138 0.000000 0.025066
#
#
# Mechanical properties :
#
#
# Convention : Reuss Voigt Hill
#
# Bulk Modulus (GPa) = 53.83640 62.90191 58.36915
# Shear Modulus (GPa) = 26.89748 34.33735 30.61741
#
# Velocity S-wave (km/s) = 3.41280 3.85601 3.64116
# Velocity P-wave (km/s) = 6.23233 6.86025 6.55382
#
# Compressibility (1/GPa) = 0.01857479
#
# Stress axis : x y z
#
# Youngs Moduli (GPa) = 61.60971 89.78263 68.61014
#
# Poissons Ratio (x) = 0.01481 0.49399
# Poissons Ratio (y) = 0.01016 0.29639
# Poissons Ratio (z) = 0.44358 0.38786
#
# Static dielectric constant tensor:
#      x y z
#    x 1.829970 0.000000 -0.051080 
#    y 0.000000 1.943380 0.000000 
#    z -0.051080 0.000000 1.820890 
# 
# From -- ./inp_files/5085.got.cif
#   From: 2010.05.17/outbox.cif.g08.bks.cpg/sg14_3_cif.got.tgz:5085.got - 2010.06.03 17:49:19.
