data_PCOD9245226
_publ_section_title
;
Structure prediction by ZEFSAII (Michael W. Deem and Ramdas Pophale) SiO2 
 PCOD9245226
Probable space group: P 21/C
;
_chemical_formula_sum "Si O2"
_cell_formula_units_Z 32
_cell_length_a 14.130313
_cell_length_b 5.107957
_cell_length_c 18.465550
_cell_angle_alpha 90.000000
_cell_angle_beta 73.928274
_cell_angle_gamma 90.000000
_cell_volume 1280.697716
_symmetry_space_group_name_H-M "P 21/C"
_symmetry_group_IT_number 14
_symmetry_cell_setting 'monoclinic'
loop_
_space_group_symop_operation_xyz
x,y,z
-x,1/2+y,1/2-z
-x,-y,-z
x,1/2-y,1/2+z
loop_
_atom_site_type_symbol
_atom_site_label
_atom_site_fract_x
_atom_site_fract_y
_atom_site_fract_z
Si Si1 0.641893 0.311628 0.583849
Si Si2 0.880012 0.967039 0.260671
Si Si3 0.526057 0.017765 0.356933
Si Si4 0.367694 0.312828 0.293508
Si Si5 0.257234 0.320908 0.538134
Si Si6 0.044666 0.539298 0.831813
Si Si7 0.288291 0.693271 0.125315
Si Si8 0.812658 0.916490 0.579678
O O1 0.548531 0.146566 0.578307
O O2 0.625261 0.404386 0.669650
O O3 0.655599 0.563085 0.530502
O O4 0.745119 0.156012 0.565254
O O5 0.932383 0.161445 0.193403
O O6 0.773892 0.094580 0.292793
O O7 0.933212 0.000402 0.327922
O O8 0.896297 0.671318 0.231321
O O9 0.599985 0.829326 0.296129
O O10 0.451172 0.146787 0.316320
O O11 0.597781 0.225572 0.378627
O O12 0.261208 0.209887 0.343684
O O13 0.241367 0.549338 0.599759
O O14 0.175605 0.263998 0.493760
O O15 0.283561 0.054644 0.572612
O O16 0.086299 0.486056 0.902398
#
# Coordination Sequence:
#
# PCOD9245226 Si02
#       8
#     4   4   4   4   4   4   4   4
#     4  10  22  42  60  87 123 168 212 266 296 373
#     4  10  23  43  64 106 129 156 199 267 315 394
#     4  11  23  36  62  92 124 166 205 271 325 370
#     4  10  21  37  58  94 126 147 218 259 320 375
#     4  11  25  45  60  90 128 173 226 251 291 381
#     4  10  22  41  73  97 130 156 204 255 335 377
#     4  12  26  41  66  89 133 171 208 258 317 365
#     4  10  22  41  68  88 121 175 207 261 309 368
#
# _framework density 24.986377999999998
#
# number of rings (size 3 to 8) (size 9 to 14) (size 15 to 20)
#    0.000    1.500    2.500    1.500    7.000    1.000 
#    0.000    1.250    0.000    0.000    0.000    0.000 
#    0.000    0.000    0.000    0.000    0.000    0.000 
#
# Total GULP energy -178770.144327 kJ/mol
# GULP energy per Si atom -5586.567010 kJ/mol
# Density = 2.492951 g / cm^3
# Si number density = 24.986378 Si / 1000 Ang^3
#
#
#
# Elastic Constant Matrix: (Units=GPa)
#
#
# Indices 1 2 3 4 5 6 
#
# 1 84.9777 -4.9957 -9.6693 0.0000 20.8370 0.0000
# 2 -4.9957 87.4973 7.1555 0.0000 6.0592 0.0000
# 3 -9.6693 7.1555 33.4151 0.0000 7.4569 0.0000
# 4 0.0000 0.0000 0.0000 38.7512 0.0000 -4.0041
# 5 20.8370 6.0592 7.4569 0.0000 20.5182 0.0000
# 6 0.0000 0.0000 0.0000 -4.0041 0.0000 11.2298
#
#
#
# Elastic Compliance Matrix: (Units=1/GPa)
#
#
# Indices 1 2 3 4 5 6 
#
# 1 0.018758 0.001849 0.010235 0.000000 -0.023315 0.000000
# 2 0.001849 0.011960 -0.000891 0.000000 -0.005085 0.000000
# 3 0.010235 -0.000891 0.038459 0.000000 -0.024108 0.000000
# 4 0.000000 0.000000 0.000000 0.026793 0.000000 0.009553
# 5 -0.023315 -0.005085 -0.024108 0.000000 0.082678 0.000000
# 6 0.000000 0.000000 0.000000 0.009553 0.000000 0.092455
#
#
# Mechanical properties :
#
#
# Convention : Reuss Voigt Hill
#
# Bulk Modulus (GPa) = 10.92165 21.20792 16.06478
# Shear Modulus (GPa) = 17.90587 28.32647 23.11617
#
# Velocity S-wave (km/s) = 2.67989 3.37066 3.04493
# Velocity P-wave (km/s) = 3.73581 4.86361 4.33653
#
# Compressibility (1/GPa) = 0.09156124
#
# Stress axis : x y z
#
# Youngs Moduli (GPa) = 53.31044 83.61549 26.00168
#
# Poissons Ratio (x) = -0.15457 -0.26613
# Poissons Ratio (y) = -0.09855 0.02318
# Poissons Ratio (z) = -0.54564 0.07453
#
# Static dielectric constant tensor:
#      x y z
#    x 1.965570 0.000000 0.000360 
#    y 0.000000 2.009740 0.000000 
#    z 0.000360 0.000000 2.041410 
# 
# From -- ./inp_files/67720.got.cif
#   From: 2010.05.17/outbox.cif.g08.bks.cpg/sg14_34_cif.got.tgz:67720.got - 2010.06.03 17:49:19.
