data_PCOD9245748
_publ_section_title
;
Structure prediction by ZEFSAII (Michael W. Deem and Ramdas Pophale) SiO2 
 PCOD9245748
Probable space group: P 21/C
;
_chemical_formula_sum "Si O2"
_cell_formula_units_Z 28
_cell_length_a 12.818081
_cell_length_b 7.355859
_cell_length_c 17.816435
_cell_angle_alpha 90.000000
_cell_angle_beta 40.571116
_cell_angle_gamma 90.000000
_cell_volume 1092.576828
_symmetry_space_group_name_H-M "P 21/C"
_symmetry_group_IT_number 14
_symmetry_cell_setting 'monoclinic'
loop_
_space_group_symop_operation_xyz
x,y,z
-x,1/2+y,1/2-z
-x,-y,-z
x,1/2-y,1/2+z
loop_
_atom_site_type_symbol
_atom_site_label
_atom_site_fract_x
_atom_site_fract_y
_atom_site_fract_z
Si Si1 0.994899 0.676813 0.360692
Si Si2 0.872211 0.826759 0.126814
Si Si3 0.271774 0.838185 0.594598
Si Si4 0.605449 0.664993 0.873062
Si Si5 0.858264 0.053561 0.493476
Si Si6 0.478243 0.413145 0.805222
Si Si7 0.686563 0.561274 0.577245
O O1 0.950442 0.871691 0.418805
O O2 0.820746 0.578449 0.439410
O O3 0.079693 0.520711 0.363916
O O4 0.123706 0.720872 0.226196
O O5 0.789129 0.874349 0.094224
O O6 0.024988 0.698214 0.033029
O O7 0.752455 0.733194 0.252818
O O8 0.324671 0.035463 0.599721
O O9 0.444565 0.738686 0.491299
O O10 0.201982 0.857349 0.550379
O O11 0.549478 0.535664 0.833431
O O12 0.694817 0.994718 0.623780
O O13 0.587637 0.399488 0.670715
O O14 0.443445 0.219279 0.861325
#
# Coordination Sequence:
#
# PCOD9245748 Si02
#       7
#     4   4   4   4   4   4   4
#     4  10  22  36  59  89 116 153 194 241 295 347
#     4  10  21  39  61  86 119 156 194 244 293 354
#     4   9  18  36  60  82 118 153 193 240 289 347
#     4   8  17  37  59  81 114 157 189 238 298 338
#     4  10  22  38  59  90 118 154 198 243 295 347
#     4   9  20  37  59  84 117 154 196 241 293 347
#     4  10  21  40  58  88 118 155 199 241 295 352
#
# _framework density 25.627488
#
# number of rings (size 3 to 8) (size 9 to 14) (size 15 to 20)
#    0.000    2.571    0.000    0.429    6.000    2.286 
#    7.714    0.714    0.000    0.000    0.000    0.000 
#    0.000    0.000    0.000    0.000    0.000    0.000 
#
# Total GULP energy -156329.306929 kJ/mol
# GULP energy per Si atom -5583.189533 kJ/mol
# Density = 2.556916 g / cm^3
# Si number density = 25.627488 Si / 1000 Ang^3
#
#
#
# Elastic Constant Matrix: (Units=GPa)
#
#
# Indices 1 2 3 4 5 6 
#
# 1 30.7508 -1.3603 27.9613 0.0000 -4.6369 0.0000
# 2 -1.3603 68.1673 18.6005 0.0000 -4.4741 0.0000
# 3 27.9613 18.6005 179.1321 0.0000 1.8082 0.0000
# 4 0.0000 0.0000 0.0000 37.7471 0.0000 -5.0327
# 5 -4.6369 -4.4741 1.8082 0.0000 23.4486 0.0000
# 6 0.0000 0.0000 0.0000 -5.0327 0.0000 11.5651
#
#
#
# Elastic Compliance Matrix: (Units=1/GPa)
#
#
# Indices 1 2 3 4 5 6 
#
# 1 0.040108 0.003220 -0.006686 0.000000 0.009061 0.000000
# 2 0.003220 0.015570 -0.002157 0.000000 0.003774 0.000000
# 3 -0.006686 -0.002157 0.006873 0.000000 -0.002264 0.000000
# 4 0.000000 0.000000 0.000000 0.028124 0.000000 0.012238
# 5 0.009061 0.003774 -0.002264 0.000000 0.045333 0.000000
# 6 0.000000 0.000000 0.000000 0.012238 0.000000 0.091792
#
#
# Mechanical properties :
#
#
# Convention : Reuss Voigt Hill
#
# Bulk Modulus (GPa) = 19.49205 40.93927 30.21566
# Shear Modulus (GPa) = 19.51980 30.07541 24.79761
#
# Velocity S-wave (km/s) = 2.76284 3.42944 3.11403
# Velocity P-wave (km/s) = 4.21902 5.62946 4.97449
#
# Compressibility (1/GPa) = 0.05130298
#
# Stress axis : x y z
#
# Youngs Moduli (GPa) = 24.93268 64.22436 145.49610
#
# Poissons Ratio (x) = -0.20677 0.97284
# Poissons Ratio (y) = -0.08027 0.31390
# Poissons Ratio (z) = 0.16671 0.13856
#
# Static dielectric constant tensor:
#      x y z
#    x 2.005690 0.000000 -0.019740 
#    y 0.000000 2.092910 0.000000 
#    z -0.019740 0.000000 2.209190 
# 
# From -- ./inp_files/73643.got.cif
#   From: 2010.05.17/outbox.cif.g08.bks.cpg/sg14_37_cif.got.tgz:73643.got - 2010.06.03 17:49:19.
