data_PCOD9245187
_publ_section_title
;
Structure prediction by ZEFSAII (Michael W. Deem and Ramdas Pophale) SiO2 
 PCOD9245187
Probable space group: P 21/C
;
_chemical_formula_sum "Si O2"
_cell_formula_units_Z 16
_cell_length_a 8.393665
_cell_length_b 4.785517
_cell_length_c 14.598271
_cell_angle_alpha 90.000000
_cell_angle_beta 72.232843
_cell_angle_gamma 90.000000
_cell_volume 558.415852
_symmetry_space_group_name_H-M "P 21/C"
_symmetry_group_IT_number 14
_symmetry_cell_setting 'monoclinic'
loop_
_space_group_symop_operation_xyz
x,y,z
-x,1/2+y,1/2-z
-x,-y,-z
x,1/2-y,1/2+z
loop_
_atom_site_type_symbol
_atom_site_label
_atom_site_fract_x
_atom_site_fract_y
_atom_site_fract_z
Si Si1 0.209776 0.344152 0.728722
Si Si2 0.304026 0.747102 0.967262
Si Si3 0.066629 0.672282 0.358274
Si Si4 0.475156 0.755183 0.615290
O O1 0.090097 0.518799 0.815250
O O2 0.377414 0.529295 0.694565
O O3 0.119017 0.384612 0.645832
O O4 0.195211 0.039260 0.779859
O O5 0.125015 0.790873 0.952292
O O6 0.416105 0.533125 0.885381
O O7 0.385282 0.051836 0.950819
O O8 0.339273 0.641563 0.063684
#
# Coordination Sequence:
#
# PCOD9245187 Si02
#       4
#     4   4   4   4
#     4  10  21  37  57  83 115 151 194 241 288 345
#     4  10  21  37  57  83 115 150 192 240 288 344
#     4  10  21  37  57  83 115 151 194 241 288 345
#     4  10  21  37  57  83 115 150 192 240 288 344
#
# _framework density 28.652483
#
# number of rings (size 3 to 8) (size 9 to 14) (size 15 to 20)
#    0.000    2.000    0.000    3.000    0.000    5.000 
#    0.000    0.000    0.000   18.000    0.000    0.000 
#    0.000    0.000    0.000    0.000    0.000    0.000 
#
# Total GULP energy -89240.971355 kJ/mol
# GULP energy per Si atom -5577.560710 kJ/mol
# Density = 2.858727 g / cm^3
# Si number density = 28.652483 Si / 1000 Ang^3
#
#
#
# Elastic Constant Matrix: (Units=GPa)
#
#
# Indices 1 2 3 4 5 6 
#
# 1 85.3882 43.4614 35.3094 0.0000 11.8821 0.0000
# 2 43.4614 183.5438 0.9925 0.0000 -2.9168 0.0000
# 3 35.3094 0.9925 89.6791 0.0000 26.4342 0.0000
# 4 0.0000 0.0000 0.0000 25.6727 0.0000 -15.7063
# 5 11.8821 -2.9168 26.4342 0.0000 42.5252 0.0000
# 6 0.0000 0.0000 0.0000 -15.7063 0.0000 58.8209
#
#
#
# Elastic Compliance Matrix: (Units=1/GPa)
#
#
# Indices 1 2 3 4 5 6 
#
# 1 0.016330 -0.003851 -0.006078 0.000000 -0.001049 0.000000
# 2 -0.003851 0.006365 0.001224 0.000000 0.000752 0.000000
# 3 -0.006078 0.001224 0.015923 0.000000 -0.008115 0.000000
# 4 0.000000 0.000000 0.000000 0.046557 0.000000 0.012432
# 5 -0.001049 0.000752 -0.008115 0.000000 0.028905 0.000000
# 6 0.000000 0.000000 0.000000 0.012432 0.000000 0.020320
#
#
# Mechanical properties :
#
#
# Convention : Reuss Voigt Hill
#
# Bulk Modulus (GPa) = 47.14908 57.57086 52.35997
# Shear Modulus (GPa) = 31.47034 43.99363 37.73198
#
# Velocity S-wave (km/s) = 3.31773 3.92270 3.63283
# Velocity P-wave (km/s) = 5.58280 6.37598 5.99253
#
# Compressibility (1/GPa) = 0.02120932
#
# Stress axis : x y z
#
# Youngs Moduli (GPa) = 61.23517 157.09878 62.80403
#
# Poissons Ratio (x) = 0.60494 0.38172
# Poissons Ratio (y) = 0.23580 -0.07688
# Poissons Ratio (z) = 0.37219 -0.19231
#
# Static dielectric constant tensor:
#      x y z
#    x 2.342510 0.000000 0.006890 
#    y 0.000000 2.142710 0.000000 
#    z 0.006890 0.000000 2.363070 
# 
# From -- ./inp_files/53796.got.cif
#   From: 2010.05.17/outbox.cif.g08.bks.cpg/sg14_27_cif.got.tgz:53796.got - 2010.06.03 17:49:19.
