data_PCOD9245866
_publ_section_title
;
Structure prediction by ZEFSAII (Michael W. Deem and Ramdas Pophale) SiO2 
 PCOD9245866
Probable space group: P 21/C
;
_chemical_formula_sum "Si O2"
_cell_formula_units_Z 28
_cell_length_a 5.880982
_cell_length_b 9.011542
_cell_length_c 25.370750
_cell_angle_alpha 90.000000
_cell_angle_beta 63.844459
_cell_angle_gamma 90.000000
_cell_volume 1206.883762
_symmetry_space_group_name_H-M "P 21/C"
_symmetry_group_IT_number 14
_symmetry_cell_setting 'monoclinic'
loop_
_space_group_symop_operation_xyz
x,y,z
-x,1/2+y,1/2-z
-x,-y,-z
x,1/2-y,1/2+z
loop_
_atom_site_type_symbol
_atom_site_label
_atom_site_fract_x
_atom_site_fract_y
_atom_site_fract_z
Si Si1 0.790055 0.653632 0.068164
Si Si2 0.496928 0.668562 0.674889
Si Si3 0.668748 0.646766 0.479345
Si Si4 0.184063 0.617459 0.366583
Si Si5 0.973074 0.982546 0.775678
Si Si6 0.629112 0.706832 0.783103
Si Si7 0.334851 0.616153 0.983552
O O1 0.620041 0.689406 0.135504
O O2 0.764975 0.482441 0.053949
O O3 0.687652 0.762256 0.032162
O O4 0.092615 0.677093 0.040670
O O5 0.663071 0.531669 0.636678
O O6 0.211919 0.620624 0.691247
O O7 0.530966 0.679078 0.733916
O O8 0.500000 0.500000 0.500000
O O9 0.520527 0.749900 0.452796
O O10 0.953017 0.629050 0.430025
O O11 0.385034 0.750705 0.342468
O O12 0.075936 0.591101 0.318617
O O13 0.804388 0.855795 0.765526
O O14 0.200472 0.062813 0.720926
O O15 0.500000 0.500000 0.000000
#
# Coordination Sequence:
#
# PCOD9245866 Si02
#       7
#     4   4   4   4   4   4   4
#     4  10  21  41  62  86 123 161 200 252 307 365
#     4  10  21  39  64  89 119 161 205 250 308 374
#     4  11  22  38  65  94 122 162 207 257 314 369
#     4  10  22  39  60  93 125 154 209 261 304 375
#     4  10  21  42  63  85 122 161 202 257 314 368
#     4  10  22  41  63  90 123 161 209 259 311 376
#     4   9  21  40  57  84 121 156 199 243 297 368
#
# _framework density 23.200243
#
# number of rings (size 3 to 8) (size 9 to 14) (size 15 to 20)
#    0.000    2.000    0.000    2.571    0.000    8.000 
#    0.000   34.286    0.000    0.000    0.000    0.000 
#    0.000    0.000    0.000    0.000    0.000    0.000 
#
# Total GULP energy -156503.112392 kJ/mol
# GULP energy per Si atom -5589.396871 kJ/mol
# Density = 2.314744 g / cm^3
# Si number density = 23.200243 Si / 1000 Ang^3
#
#
#
# Elastic Constant Matrix: (Units=GPa)
#
#
# Indices 1 2 3 4 5 6 
#
# 1 84.7563 21.5648 27.7307 0.0000 -25.2754 0.0000
# 2 21.5648 77.6798 42.2661 0.0000 -16.7008 0.0000
# 3 27.7307 42.2661 72.9264 0.0000 -27.6272 0.0000
# 4 0.0000 0.0000 0.0000 38.0557 0.0000 -14.4515
# 5 -25.2754 -16.7008 -27.6272 0.0000 32.6376 0.0000
# 6 0.0000 0.0000 0.0000 -14.4515 0.0000 49.0428
#
#
#
# Elastic Compliance Matrix: (Units=1/GPa)
#
#
# Indices 1 2 3 4 5 6 
#
# 1 0.015651 -0.001482 -0.001160 0.000000 0.010380 0.000000
# 2 -0.001482 0.018951 -0.010571 0.000000 -0.000398 0.000000
# 3 -0.001160 -0.010571 0.026336 0.000000 0.015986 0.000000
# 4 0.000000 0.000000 0.000000 0.029588 0.000000 0.008719
# 5 0.010380 -0.000398 0.015986 0.000000 0.052006 0.000000
# 6 0.000000 0.000000 0.000000 0.008719 0.000000 0.022960
#
#
# Mechanical properties :
#
#
# Convention : Reuss Voigt Hill
#
# Bulk Modulus (GPa) = 28.97551 46.49839 37.73695
# Shear Modulus (GPa) = 24.57968 33.53396 29.05682
#
# Velocity S-wave (km/s) = 3.25846 3.80598 3.54282
# Velocity P-wave (km/s) = 5.16461 6.27692 5.74774
#
# Compressibility (1/GPa) = 0.03451190
#
# Stress axis : x y z
#
# Youngs Moduli (GPa) = 63.89552 52.76852 37.97083
#
# Poissons Ratio (x) = 0.07820 0.04405
# Poissons Ratio (y) = 0.09469 0.40138
# Poissons Ratio (z) = 0.07412 0.55780
#
# Static dielectric constant tensor:
#      x y z
#    x 1.885010 0.000000 -0.013060 
#    y 0.000000 1.896190 0.000000 
#    z -0.013060 0.000000 1.864990 
# 
# From -- ./inp_files/78763.got.cif
#   From: 2010.05.17/outbox.cif.g08.bks.cpg/sg14_40_cif.got.tgz:78763.got - 2010.06.03 17:49:19.
