data_PCOD9245623
_publ_section_title
;
Structure prediction by ZEFSAII (Michael W. Deem and Ramdas Pophale) SiO2 
 PCOD9245623
Probable space group: P 21/C
;
_chemical_formula_sum "Si O2"
_cell_formula_units_Z 32
_cell_length_a 14.732721
_cell_length_b 7.411685
_cell_length_c 14.639568
_cell_angle_alpha 90.000000
_cell_angle_beta 70.925248
_cell_angle_gamma 90.000000
_cell_volume 1510.785233
_symmetry_space_group_name_H-M "P 21/C"
_symmetry_group_IT_number 14
_symmetry_cell_setting 'monoclinic'
loop_
_space_group_symop_operation_xyz
x,y,z
-x,1/2+y,1/2-z
-x,-y,-z
x,1/2-y,1/2+z
loop_
_atom_site_type_symbol
_atom_site_label
_atom_site_fract_x
_atom_site_fract_y
_atom_site_fract_z
Si Si1 0.900077 0.667203 0.347949
Si Si2 0.180562 0.141769 0.925648
Si Si3 0.599655 0.860932 0.382344
Si Si4 0.565651 0.238396 0.949990
Si Si5 0.625245 0.795834 0.062207
Si Si6 0.116171 0.531679 0.260669
Si Si7 0.246947 0.634273 0.672304
Si Si8 0.312335 0.393345 0.799352
O O1 0.881819 0.665180 0.463196
O O2 0.508634 0.206209 0.559715
O O3 0.711211 0.588097 0.576557
O O4 0.829468 0.516934 0.329326
O O5 0.990395 0.113044 0.207816
O O6 0.207311 0.333699 0.870448
O O7 0.139137 0.021435 0.858293
O O8 0.654346 0.789969 0.455506
O O9 0.648444 0.761406 0.282402
O O10 0.593465 0.076177 0.388399
O O11 0.879359 0.856385 0.305296
O O12 0.482582 0.135249 0.919511
O O13 0.664761 0.136980 0.927638
O O14 0.620703 0.627240 0.134648
O O15 0.192040 0.678976 0.201288
O O16 0.300032 0.575197 0.748296
#
# Coordination Sequence:
#
# PCOD9245623 Si02
#       8
#     4   4   4   4   4   4   4   4
#     4  12  25  50  73 104 138 181 236 293 365 412
#     4  10  23  43  74  99 143 180 225 292 339 422
#     4   9  18  41  62  89 149 177 230 275 324 404
#     4   9  21  37  65 101 134 189 229 279 334 410
#     4   8  19  38  64  97 133 186 212 273 343 388
#     4  12  26  50  74 102 139 177 233 302 354 419
#     4  12  25  43  72 104 134 187 239 279 359 421
#     4  10  21  38  65  96 136 186 217 282 336 405
#
# _framework density 21.181038999999998
#
# number of rings (size 3 to 8) (size 9 to 14) (size 15 to 20)
#    1.500    0.250    2.500    1.875    1.750    1.500 
#    4.500    1.250    0.000    0.000    0.000    0.000 
#    0.000    0.000    0.000    0.000    0.000    0.000 
#
# Total GULP energy -178342.595535 kJ/mol
# GULP energy per Si atom -5573.206110 kJ/mol
# Density = 2.113283 g / cm^3
# Si number density = 21.181039 Si / 1000 Ang^3
#
#
#
# Elastic Constant Matrix: (Units=GPa)
#
#
# Indices 1 2 3 4 5 6 
#
# 1 97.5263 32.2534 39.3458 0.0000 -16.5480 0.0000
# 2 32.2534 95.5632 29.9015 0.0000 -0.6183 0.0000
# 3 39.3458 29.9015 110.1366 0.0000 -0.2512 0.0000
# 4 0.0000 0.0000 0.0000 19.8452 0.0000 -3.8629
# 5 -16.5480 -0.6183 -0.2512 0.0000 38.2014 0.0000
# 6 0.0000 0.0000 0.0000 -3.8629 0.0000 33.1356
#
#
#
# Elastic Compliance Matrix: (Units=1/GPa)
#
#
# Indices 1 2 3 4 5 6 
#
# 1 0.014050 -0.003428 -0.004075 0.000000 0.006004 0.000000
# 2 -0.003428 0.012273 -0.002110 0.000000 -0.001300 0.000000
# 3 -0.004075 -0.002110 0.011104 0.000000 -0.001726 0.000000
# 4 0.000000 0.000000 0.000000 0.051560 0.000000 0.006011
# 5 0.006004 -0.001300 -0.001726 0.000000 0.028745 0.000000
# 6 0.000000 0.000000 0.000000 0.006011 0.000000 0.030880
#
#
# Mechanical properties :
#
#
# Convention : Reuss Voigt Hill
#
# Bulk Modulus (GPa) = 54.94263 56.24753 55.59508
# Shear Modulus (GPa) = 28.75102 31.68478 30.21790
#
# Velocity S-wave (km/s) = 3.68828 3.87189 3.78120
# Velocity P-wave (km/s) = 6.64332 6.82656 6.73556
#
# Compressibility (1/GPa) = 0.01820080
#
# Stress axis : x y z
#
# Youngs Moduli (GPa) = 71.17394 81.47811 90.05439
#
# Poissons Ratio (x) = 0.27932 0.36696
# Poissons Ratio (y) = 0.24400 0.19005
# Poissons Ratio (z) = 0.29003 0.17195
#
# Static dielectric constant tensor:
#      x y z
#    x 1.786820 0.000000 -0.006190 
#    y 0.000000 1.783020 0.000000 
#    z -0.006190 0.000000 1.768660 
# 
# From -- ./inp_files/46484.got.cif
#   From: 2010.05.17/outbox.cif.g08.bks.cpg/sg14_24_cif.got.tgz:46484.got - 2010.06.03 17:49:19.
