data_PCOD9245854
_publ_section_title
;
Structure prediction by ZEFSAII (Michael W. Deem and Ramdas Pophale) SiO2 
 PCOD9245854
Probable space group: P 21/C
;
_chemical_formula_sum "Si O2"
_cell_formula_units_Z 30
_cell_length_a 8.711438
_cell_length_b 7.957361
_cell_length_c 27.175933
_cell_angle_alpha 90.000000
_cell_angle_beta 40.480517
_cell_angle_gamma 90.000000
_cell_volume 1222.967234
_symmetry_space_group_name_H-M "P 21/C"
_symmetry_group_IT_number 14
_symmetry_cell_setting 'monoclinic'
loop_
_space_group_symop_operation_xyz
x,y,z
-x,1/2+y,1/2-z
-x,-y,-z
x,1/2-y,1/2+z
loop_
_atom_site_type_symbol
_atom_site_label
_atom_site_fract_x
_atom_site_fract_y
_atom_site_fract_z
Si Si1 0.354494 0.775960 0.344898
Si Si2 0.024453 0.781172 0.263059
Si Si3 0.553479 0.588690 0.634502
Si Si4 0.034323 0.107287 0.129613
Si Si5 0.000000 0.000000 0.500000
Si Si6 0.359754 0.209086 0.481031
Si Si7 0.118161 0.910191 0.646885
Si Si8 0.198315 0.279472 0.332476
O O1 0.417430 0.606627 0.360353
O O2 0.588222 0.829592 0.256812
O O3 0.181552 0.703186 0.344612
O O4 0.219614 0.903404 0.414130
O O5 0.286147 0.853290 0.206627
O O6 0.006186 0.723851 0.212227
O O7 0.987706 0.621259 0.306861
O O8 0.861941 0.921835 0.326283
O O9 0.625574 0.639424 0.562278
O O10 0.706348 0.700345 0.635553
O O11 0.254217 0.208583 0.055377
O O12 0.011214 0.915641 0.119640
O O13 0.193637 0.074981 0.493478
O O14 0.618227 0.140596 0.429928
O O15 0.923873 0.898039 0.650994
#
# Coordination Sequence:
#
# PCOD9245854 Si02
#       8
#     4   4   4   4   2   4   4   4
#     4  10  21  39  64 102 125 171 223 277 328 392
#     4  11  22  41  63  96 125 173 217 279 320 404
#     4  10  22  41  69  92 132 165 223 272 329 397
#     4  10  23  41  63  92 136 169 222 270 330 394
#     4  10  24  38  64  92 136 170 220 264 326 390
#     4  10  25  45  63  98 134 180 217 277 333 407
#     4  11  25  40  68  97 133 171 225 271 347 381
#     4  11  22  39  68  99 125 174 221 281 323 396
#
# _framework density 24.530501999999998
#
# number of rings (size 3 to 8) (size 9 to 14) (size 15 to 20)
#    0.000    1.600    2.667    0.800    5.600    8.000 
#    0.000    0.000    0.000    0.000    0.000    0.000 
#    0.000    0.000    0.000    0.000    0.000    0.000 
#
# Total GULP energy -167329.845992 kJ/mol
# GULP energy per Si atom -5577.661533 kJ/mol
# Density = 2.447467 g / cm^3
# Si number density = 24.530502 Si / 1000 Ang^3
#
#
#
# Elastic Constant Matrix: (Units=GPa)
#
#
# Indices 1 2 3 4 5 6 
#
# 1 49.6060 -0.0557 29.2202 0.0000 -3.9837 0.0000
# 2 -0.0557 57.1226 5.9746 0.0000 12.5490 0.0000
# 3 29.2202 5.9746 93.2772 0.0000 10.5021 0.0000
# 4 0.0000 0.0000 0.0000 34.5424 0.0000 5.7439
# 5 -3.9837 12.5490 10.5021 0.0000 33.3287 0.0000
# 6 0.0000 0.0000 0.0000 5.7439 0.0000 30.2965
#
#
#
# Elastic Compliance Matrix: (Units=1/GPa)
#
#
# Indices 1 2 3 4 5 6 
#
# 1 0.025776 -0.000374 -0.008723 0.000000 0.005971 0.000000
# 2 -0.000374 0.019107 -0.000302 0.000000 -0.007144 0.000000
# 3 -0.008723 -0.000302 0.014077 0.000000 -0.005364 0.000000
# 4 0.000000 0.000000 0.000000 0.029892 0.000000 -0.005667
# 5 0.005971 -0.007144 -0.005364 0.000000 0.035098 0.000000
# 6 0.000000 0.000000 0.000000 -0.005667 0.000000 0.034082
#
#
# Mechanical properties :
#
#
# Convention : Reuss Voigt Hill
#
# Bulk Modulus (GPa) = 24.89991 30.03155 27.46573
# Shear Modulus (GPa) = 26.28574 30.62462 28.45518
#
# Velocity S-wave (km/s) = 3.27701 3.53715 3.40956
# Velocity P-wave (km/s) = 4.94884 5.38061 5.16924
#
# Compressibility (1/GPa) = 0.04016079
#
# Stress axis : x y z
#
# Youngs Moduli (GPa) = 38.79557 52.33734 71.03952
#
# Poissons Ratio (x) = 0.01958 0.61967
# Poissons Ratio (y) = 0.01451 0.02148
# Poissons Ratio (z) = 0.33841 0.01582
#
# Static dielectric constant tensor:
#      x y z
#    x 1.943790 0.000000 0.014620 
#    y 0.000000 2.058160 0.000000 
#    z 0.014620 0.000000 2.015530 
# 
# From -- ./inp_files/76461.got.cif
#   From: 2010.05.17/outbox.cif.g08.bks.cpg/sg14_39_cif.got.tgz:76461.got - 2010.06.03 17:49:19.
