data_PCOD9245758
_publ_section_title
;
Structure prediction by ZEFSAII (Michael W. Deem and Ramdas Pophale) SiO2 
 PCOD9245758
Probable space group: P 21/C
;
_chemical_formula_sum "Si O2"
_cell_formula_units_Z 24
_cell_length_a 21.030706
_cell_length_b 5.058096
_cell_length_c 9.738632
_cell_angle_alpha 90.000000
_cell_angle_beta 50.917929
_cell_angle_gamma 90.000000
_cell_volume 804.149831
_symmetry_space_group_name_H-M "P 21/C"
_symmetry_group_IT_number 14
_symmetry_cell_setting 'monoclinic'
loop_
_space_group_symop_operation_xyz
x,y,z
-x,1/2+y,1/2-z
-x,-y,-z
x,1/2-y,1/2+z
loop_
_atom_site_type_symbol
_atom_site_label
_atom_site_fract_x
_atom_site_fract_y
_atom_site_fract_z
Si Si1 0.347771 0.467719 0.809029
Si Si2 0.850428 0.273213 0.270501
Si Si3 0.817100 0.728342 0.005844
Si Si4 0.982989 0.789125 0.869495
Si Si5 0.479443 0.970994 0.858724
Si Si6 0.685610 0.327481 0.857018
O O1 0.441881 0.387598 0.653081
O O2 0.330231 0.769540 0.783266
O O3 0.278973 0.288023 0.827825
O O4 0.330789 0.466172 0.996283
O O5 0.832991 0.537508 0.378309
O O6 0.947753 0.244997 0.107942
O O7 0.781232 0.244044 0.249441
O O8 0.834697 0.037586 0.399091
O O9 0.886024 0.757215 0.029969
O O10 0.003414 0.557289 0.733146
O O11 0.497153 0.274974 0.800966
O O12 0.385874 0.887756 0.006310
#
# Coordination Sequence:
#
# PCOD9245758 Si02
#       6
#     4   4   4   4   4   4
#     4  10  21  39  61  89 120 156 196 242 292 348
#     4   9  17  32  53  81 113 151 191 236 287 343
#     4   9  17  32  53  81 113 151 191 236 287 343
#     4   8  14  26  49  76 109 146 187 232 283 338
#     4  10  21  40  63  90 119 154 195 242 291 346
#     4  10  21  39  61  89 120 156 196 242 292 348
#
# _framework density 29.845182000000001
#
# number of rings (size 3 to 8) (size 9 to 14) (size 15 to 20)
#    0.000    2.667    0.000    1.500    0.000    0.000 
#    0.000   41.667    0.000    0.000    0.000   45.500 
#    0.000    0.000    0.000    0.000    0.000    0.000 
#
# Total GULP energy -134174.379325 kJ/mol
# GULP energy per Si atom -5590.599139 kJ/mol
# Density = 2.977725 g / cm^3
# Si number density = 29.845182 Si / 1000 Ang^3
#
#
#
# Elastic Constant Matrix: (Units=GPa)
#
#
# Indices 1 2 3 4 5 6 
#
# 1 228.6589 -26.7969 54.4049 0.0000 -50.1041 0.0000
# 2 -26.7969 90.7710 17.2553 0.0000 4.3409 0.0000
# 3 54.4049 17.2553 108.0912 0.0000 -37.5953 0.0000
# 4 0.0000 0.0000 0.0000 19.6783 0.0000 -15.1971
# 5 -50.1041 4.3409 -37.5953 0.0000 65.8729 0.0000
# 6 0.0000 0.0000 0.0000 -15.1971 0.0000 47.1730
#
#
#
# Elastic Compliance Matrix: (Units=1/GPa)
#
#
# Indices 1 2 3 4 5 6 
#
# 1 0.005786 0.001977 -0.002174 0.000000 0.003030 0.000000
# 2 0.001977 0.012304 -0.003391 0.000000 -0.001243 0.000000
# 3 -0.002174 -0.003391 0.012963 0.000000 0.005968 0.000000
# 4 0.000000 0.000000 0.000000 0.067648 0.000000 0.021793
# 5 0.003030 -0.001243 0.005968 0.000000 0.020974 0.000000
# 6 0.000000 0.000000 0.000000 0.021793 0.000000 0.028219
#
#
# Mechanical properties :
#
#
# Convention : Reuss Voigt Hill
#
# Bulk Modulus (GPa) = 41.88355 57.47197 49.67776
# Shear Modulus (GPa) = 30.66913 52.05535 41.36224
#
# Velocity S-wave (km/s) = 3.20911 4.18087 3.72680
# Velocity P-wave (km/s) = 5.27212 6.52723 5.93296
#
# Compressibility (1/GPa) = 0.02387572
#
# Stress axis : x y z
#
# Youngs Moduli (GPa) = 172.82617 81.27196 77.14375
#
# Poissons Ratio (x) = -0.16063 0.16771
# Poissons Ratio (y) = -0.34159 0.26162
# Poissons Ratio (z) = 0.37571 0.27562
#
# Static dielectric constant tensor:
#      x y z
#    x 2.415250 0.000000 -0.000640 
#    y 0.000000 2.428600 0.000000 
#    z -0.000640 0.000000 2.450130 
# 
# From -- ./inp_files/34553.got.cif
#   From: 2010.05.17/outbox.cif.g08.bks.cpg/sg14_18_cif.got.tgz:34553.got - 2010.06.03 17:49:19.
