data_PCOD9245549
_publ_section_title
;
Structure prediction by ZEFSAII (Michael W. Deem and Ramdas Pophale) SiO2 
 PCOD9245549
Probable space group: P 21/C
;
_chemical_formula_sum "Si O2"
_cell_formula_units_Z 20
_cell_length_a 16.850226
_cell_length_b 9.084159
_cell_length_c 7.632843
_cell_angle_alpha 90.000000
_cell_angle_beta 133.293842
_cell_angle_gamma 90.000000
_cell_volume 850.386903
_symmetry_space_group_name_H-M "P 21/C"
_symmetry_group_IT_number 14
_symmetry_cell_setting 'monoclinic'
loop_
_space_group_symop_operation_xyz
x,y,z
-x,1/2+y,1/2-z
-x,-y,-z
x,1/2-y,1/2+z
loop_
_atom_site_type_symbol
_atom_site_label
_atom_site_fract_x
_atom_site_fract_y
_atom_site_fract_z
Si Si1 0.830249 0.385850 0.672681
Si Si2 0.610988 0.489879 0.939504
Si Si3 0.062626 0.612175 0.805467
Si Si4 0.595946 0.330738 0.295656
Si Si5 0.148180 0.081294 0.144007
O O1 0.847228 0.219884 0.637391
O O2 0.706165 0.394944 0.549517
O O3 0.849920 0.474038 0.523741
O O4 0.911115 0.414366 0.954127
O O5 0.601394 0.403601 0.111121
O O6 0.724280 0.583482 0.111958
O O7 0.512052 0.604782 0.777923
O O8 0.600853 0.347187 0.798278
O O9 0.087021 0.468445 0.727932
O O10 0.945844 0.686635 0.580268
#
# Coordination Sequence:
#
# PCOD9245549 Si02
#       5
#     4   4   4   4   4
#     4  11  19  38  61  83 120 156 194 243 307 351
#     4  10  21  40  60  89 120 156 200 249 298 352
#     4  11  20  35  60  86 110 158 195 238 297 359
#     4  10  21  38  63  87 120 158 200 245 297 359
#     4  10  22  37  57  86 119 150 200 245 291 359
#
# _framework density 23.518706999999999
#
# number of rings (size 3 to 8) (size 9 to 14) (size 15 to 20)
#    0.000    1.600    4.000    1.800    0.000    0.800 
#    0.000    8.000    0.000    0.000    0.000    0.000 
#    0.000    0.000    0.000    0.000    0.000    0.000 
#
# Total GULP energy -111341.723994 kJ/mol
# GULP energy per Si atom -5567.086200 kJ/mol
# Density = 2.346518 g / cm^3
# Si number density = 23.518707 Si / 1000 Ang^3
#
#
#
# Elastic Constant Matrix: (Units=GPa)
#
#
# Indices 1 2 3 4 5 6 
#
# 1 90.2615 30.0760 68.9692 0.0000 23.4734 0.0000
# 2 30.0760 21.1821 35.2923 0.0000 7.7556 0.0000
# 3 68.9692 35.2923 128.6927 0.0000 17.0969 0.0000
# 4 0.0000 0.0000 0.0000 14.0628 0.0000 -3.3448
# 5 23.4734 7.7556 17.0969 0.0000 54.2725 0.0000
# 6 0.0000 0.0000 0.0000 -3.3448 0.0000 24.1133
#
#
#
# Elastic Compliance Matrix: (Units=1/GPa)
#
#
# Indices 1 2 3 4 5 6 
#
# 1 0.025026 -0.022805 -0.006422 0.000000 -0.005542 0.000000
# 2 -0.022805 0.109099 -0.017676 0.000000 -0.000159 0.000000
# 3 -0.006422 -0.017676 0.016026 0.000000 0.000255 0.000000
# 4 0.000000 0.000000 0.000000 0.073536 0.000000 0.010200
# 5 -0.005542 -0.000159 0.000255 0.000000 0.020765 0.000000
# 6 0.000000 0.000000 0.000000 0.010200 0.000000 0.042886
#
#
# Mechanical properties :
#
#
# Convention : Reuss Voigt Hill
#
# Bulk Modulus (GPa) = 17.74793 56.53459 37.14126
# Shear Modulus (GPa) = 12.50237 25.54298 19.02268
#
# Velocity S-wave (km/s) = 2.30813 3.29913 2.84708
# Velocity P-wave (km/s) = 3.82962 6.21311 5.16085
#
# Compressibility (1/GPa) = 0.05634460
#
# Stress axis : x y z
#
# Youngs Moduli (GPa) = 39.95868 9.16598 62.40050
#
# Poissons Ratio (x) = 0.20903 0.40071
# Poissons Ratio (y) = 0.91126 1.10300
# Poissons Ratio (z) = 0.25660 0.16202
#
# Static dielectric constant tensor:
#      x y z
#    x 1.979960 0.000000 0.025330 
#    y 0.000000 1.916370 0.000000 
#    z 0.025330 0.000000 1.978220 
# 
# From -- ./inp_files/12038.got.cif
#   From: 2010.05.17/outbox.cif.g08.bks.cpg/sg14_7_cif.got.tgz:12038.got - 2010.06.03 17:49:19.
