data_PCOD9245106
_publ_section_title
;
Structure prediction by ZEFSAII (Michael W. Deem and Ramdas Pophale) SiO2 
 PCOD9245106
Probable space group: P 21/C
;
_chemical_formula_sum "Si O2"
_cell_formula_units_Z 20
_cell_length_a 11.140043
_cell_length_b 9.056321
_cell_length_c 9.187766
_cell_angle_alpha 90.000000
_cell_angle_beta 53.707130
_cell_angle_gamma 90.000000
_cell_volume 747.110245
_symmetry_space_group_name_H-M "P 21/C"
_symmetry_group_IT_number 14
_symmetry_cell_setting 'monoclinic'
loop_
_space_group_symop_operation_xyz
x,y,z
-x,1/2+y,1/2-z
-x,-y,-z
x,1/2-y,1/2+z
loop_
_atom_site_type_symbol
_atom_site_label
_atom_site_fract_x
_atom_site_fract_y
_atom_site_fract_z
Si Si1 0.357995 0.414995 0.809617
Si Si2 0.050822 0.073961 0.654760
Si Si3 0.832269 0.183342 0.589549
Si Si4 0.486526 0.308844 0.026238
Si Si5 0.752986 0.023286 0.236116
O O1 0.446725 0.350949 0.610581
O O2 0.655413 0.134363 0.410696
O O3 0.188403 0.359347 0.960932
O O4 0.437002 0.354733 0.899160
O O5 0.906444 0.150950 0.694120
O O6 0.054327 0.901474 0.600192
O O7 0.117467 0.059400 0.768761
O O8 0.810615 0.356881 0.581438
O O9 0.679787 0.088322 0.688832
O O10 0.626716 0.595244 0.789647
#
# Coordination Sequence:
#
# PCOD9245106 Si02
#       5
#     4   4   4   4   4
#     4   9  20  39  57  86 126 153 196 247 298 354
#     4   8  19  39  55  81 119 151 197 248 288 346
#     4   9  19  40  59  79 118 162 189 247 304 341
#     4  10  22  38  59  91 122 155 195 250 295 361
#     4  10  21  36  61  83 117 156 199 242 299 354
#
# _framework density 26.769812000000002
#
# number of rings (size 3 to 8) (size 9 to 14) (size 15 to 20)
#    1.200    1.600    0.000    0.000    2.800    4.000 
#    3.600    1.000    0.000    0.000    0.000    0.000 
#    0.000    0.000    0.000    0.000    0.000    0.000 
#
# Total GULP energy -111409.604798 kJ/mol
# GULP energy per Si atom -5570.480240 kJ/mol
# Density = 2.670888 g / cm^3
# Si number density = 26.769812 Si / 1000 Ang^3
#
#
#
# Elastic Constant Matrix: (Units=GPa)
#
#
# Indices 1 2 3 4 5 6 
#
# 1 128.0281 19.0173 35.2517 0.0000 -1.5255 0.0000
# 2 19.0173 61.1524 17.2562 0.0000 -12.7173 0.0000
# 3 35.2517 17.2562 62.8410 0.0000 -6.5959 0.0000
# 4 0.0000 0.0000 0.0000 40.4063 0.0000 -10.3390
# 5 -1.5255 -12.7173 -6.5959 0.0000 27.0421 0.0000
# 6 0.0000 0.0000 0.0000 -10.3390 0.0000 30.7296
#
#
#
# Elastic Compliance Matrix: (Units=1/GPa)
#
#
# Indices 1 2 3 4 5 6 
#
# 1 0.009429 -0.001860 -0.004941 0.000000 -0.001548 0.000000
# 2 -0.001860 0.019635 -0.003479 0.000000 0.008280 0.000000
# 3 -0.004941 -0.003479 0.019950 0.000000 0.002951 0.000000
# 4 0.000000 0.000000 0.000000 0.027080 0.000000 0.009111
# 5 -0.001548 0.008280 0.002951 0.000000 0.041506 0.000000
# 6 0.000000 0.000000 0.000000 0.009111 0.000000 0.035607
#
#
# Mechanical properties :
#
#
# Convention : Reuss Voigt Hill
#
# Bulk Modulus (GPa) = 35.14525 43.89690 39.52108
# Shear Modulus (GPa) = 27.28476 31.66867 29.47672
#
# Velocity S-wave (km/s) = 3.19601 3.44321 3.32191
# Velocity P-wave (km/s) = 5.17460 5.67812 5.43220
#
# Compressibility (1/GPa) = 0.02845335
#
# Stress axis : x y z
#
# Youngs Moduli (GPa) = 106.05429 50.93008 50.12486
#
# Poissons Ratio (x) = 0.09472 0.24768
# Poissons Ratio (y) = 0.19725 0.17440
# Poissons Ratio (z) = 0.52403 0.17720
#
# Static dielectric constant tensor:
#      x y z
#    x 2.105120 0.000000 0.005880 
#    y 0.000000 2.166750 0.000000 
#    z 0.005880 0.000000 2.259210 
# 
# From -- ./inp_files/12719.got.cif
#   From: 2010.05.17/outbox.cif.g08.bks.cpg/sg14_7_cif.got.tgz:12719.got - 2010.06.03 17:49:19.
