data_PCOD9245043
_publ_section_title
;
Structure prediction by ZEFSAII (Michael W. Deem and Ramdas Pophale) SiO2 
 PCOD9245043
Probable space group: P 21/C
;
_chemical_formula_sum "Si O2"
_cell_formula_units_Z 32
_cell_length_a 14.815114
_cell_length_b 18.224968
_cell_length_c 5.520531
_cell_angle_alpha 90.000000
_cell_angle_beta 105.803735
_cell_angle_gamma 90.000000
_cell_volume 1434.227637
_symmetry_space_group_name_H-M "P 21/C"
_symmetry_group_IT_number 14
_symmetry_cell_setting 'monoclinic'
loop_
_space_group_symop_operation_xyz
x,y,z
-x,1/2+y,1/2-z
-x,-y,-z
x,1/2-y,1/2+z
loop_
_atom_site_type_symbol
_atom_site_label
_atom_site_fract_x
_atom_site_fract_y
_atom_site_fract_z
Si Si1 0.653138 0.788599 0.610915
Si Si2 0.268813 0.935755 0.325241
Si Si3 0.355851 0.033739 0.762481
Si Si4 0.141404 0.706416 0.733969
Si Si5 0.917776 0.793860 0.070784
Si Si6 0.453366 0.576713 0.687546
Si Si7 0.441505 0.768228 0.960797
Si Si8 0.238963 0.410626 0.566436
O O1 0.682987 0.753801 0.378386
O O2 0.538988 0.779045 0.524289
O O3 0.699580 0.867442 0.688549
O O4 0.198129 0.869142 0.276553
O O5 0.372121 0.907384 0.320078
O O6 0.287398 0.975338 0.592793
O O7 0.233442 0.003764 0.132972
O O8 0.441892 0.057840 0.653566
O O9 0.296649 0.094679 0.857907
O O10 0.411121 0.992417 0.016968
O O11 0.162104 0.749334 0.497776
O O12 0.029313 0.692471 0.652807
O O13 0.895952 0.749619 0.303801
O O14 0.858437 0.868532 0.024894
O O15 0.463517 0.646165 0.515799
O O16 0.391644 0.743535 0.170169
#
# Coordination Sequence:
#
# PCOD9245043 Si02
#       8
#     4   4   4   4   4   4   4   4
#     4  10  21  36  57  90 127 172 210 264 326 394
#     4  11  26  41  69  97 132 185 230 288 348 399
#     4  10  23  42  60  90 133 182 221 285 343 402
#     4  10  25  50  76  99 138 178 231 290 341 413
#     4  10  23  45  74 107 140 184 221 273 347 414
#     4  10  23  41  59  87 130 180 235 276 338 401
#     4  10  22  35  57  84 114 160 217 270 322 375
#     4  11  24  38  67 102 140 174 224 280 348 424
#
# _framework density 22.311658999999999
#
# number of rings (size 3 to 8) (size 9 to 14) (size 15 to 20)
#    0.000    1.750    0.000    2.625   12.250    1.500 
#    0.000    0.625    0.000    0.000    0.000    0.000 
#    0.000    0.000    0.000    0.000    0.000    0.000 
#
# Total GULP energy -178859.989185 kJ/mol
# GULP energy per Si atom -5589.374662 kJ/mol
# Density = 2.226088 g / cm^3
# Si number density = 22.311659 Si / 1000 Ang^3
#
#
#
# Elastic Constant Matrix: (Units=GPa)
#
#
# Indices 1 2 3 4 5 6 
#
# 1 111.9295 79.4502 68.8142 0.0000 12.3840 0.0000
# 2 79.4502 137.6501 49.2313 0.0000 -0.6499 0.0000
# 3 68.8142 49.2313 130.4139 0.0000 -23.0985 0.0000
# 4 0.0000 0.0000 0.0000 43.7508 0.0000 4.6365
# 5 12.3840 -0.6499 -23.0985 0.0000 21.6767 0.0000
# 6 0.0000 0.0000 0.0000 4.6365 0.0000 46.0481
#
#
#
# Elastic Compliance Matrix: (Units=1/GPa)
#
#
# Indices 1 2 3 4 5 6 
#
# 1 0.038685 -0.014150 -0.023495 0.000000 -0.047561 0.000000
# 2 -0.014150 0.013844 0.004617 0.000000 0.013419 0.000000
# 3 -0.023495 0.004617 0.025545 0.000000 0.040782 0.000000
# 4 0.000000 0.000000 0.000000 0.023103 0.000000 -0.002326
# 5 -0.047561 0.013419 0.040782 0.000000 0.117165 0.000000
# 6 0.000000 0.000000 0.000000 -0.002326 0.000000 0.021951
#
#
# Mechanical properties :
#
#
# Convention : Reuss Voigt Hill
#
# Bulk Modulus (GPa) = 83.20234 86.10942 84.65588
# Shear Modulus (GPa) = 16.11055 34.46164 25.28609
#
# Velocity S-wave (km/s) = 2.69005 3.93435 3.37012
# Velocity P-wave (km/s) = 6.85714 7.70172 7.29167
#
# Compressibility (1/GPa) = 0.01201889
#
# Stress axis : x y z
#
# Youngs Moduli (GPa) = 25.84965 72.23244 39.14585
#
# Poissons Ratio (x) = 1.02210 0.91973
# Poissons Ratio (y) = 0.36578 -0.18074
# Poissons Ratio (z) = 0.60733 -0.33350
#
# Static dielectric constant tensor:
#      x y z
#    x 1.826400 0.000000 -0.040670 
#    y 0.000000 1.860900 0.000000 
#    z -0.040670 0.000000 1.870790 
# 
# From -- ./inp_files/3814.got.cif
#   From: 2010.05.17/outbox.cif.g08.bks.cpg/sg14_2_cif.got.tgz:3814.got - 2010.06.03 17:49:19.
