data_PCOD9245130
_publ_section_title
;
Structure prediction by ZEFSAII (Michael W. Deem and Ramdas Pophale) SiO2 
 PCOD9245130
Probable space group: P 21/C
;
_chemical_formula_sum "Si O2"
_cell_formula_units_Z 24
_cell_length_a 7.320974
_cell_length_b 8.978626
_cell_length_c 23.069106
_cell_angle_alpha 90.000000
_cell_angle_beta 135.813282
_cell_angle_gamma 90.000000
_cell_volume 1056.918743
_symmetry_space_group_name_H-M "P 21/C"
_symmetry_group_IT_number 14
_symmetry_cell_setting 'monoclinic'
loop_
_space_group_symop_operation_xyz
x,y,z
-x,1/2+y,1/2-z
-x,-y,-z
x,1/2-y,1/2+z
loop_
_atom_site_type_symbol
_atom_site_label
_atom_site_fract_x
_atom_site_fract_y
_atom_site_fract_z
Si Si1 0.635783 0.270848 0.008873
Si Si2 0.884508 0.909666 0.582054
Si Si3 0.887873 0.208438 0.952498
Si Si4 0.909266 0.661950 0.305510
Si Si5 0.679501 0.904119 0.868758
Si Si6 0.889795 0.520336 0.745540
O O1 0.752408 0.438320 0.029815
O O2 0.823175 0.186838 0.096689
O O3 0.341662 0.285581 0.963811
O O4 0.666793 0.206895 0.951769
O O5 0.100162 0.848356 0.587047
O O6 0.985435 0.947803 0.668601
O O7 0.844772 0.058191 0.906724
O O8 0.158154 0.201017 0.050879
O O9 0.690366 0.655217 0.305656
O O10 0.938329 0.519124 0.271345
O O11 0.869216 0.805570 0.255711
O O12 0.391013 0.941407 0.824235
#
# Coordination Sequence:
#
# PCOD9245130 Si02
#       6
#     4   4   4   4   4   4
#     4   9  20  40  60  90 122 156 208 250 302 369
#     4  10  21  36  63  91 120 162 202 253 307 362
#     4  10  21  39  64  87 118 165 205 251 306 364
#     4  10  24  42  60  90 127 163 206 254 310 368
#     4  10  24  40  60  91 124 160 209 256 305 366
#     4  11  25  39  63  92 126 165 202 259 311 365
#
# _framework density 22.707515000000001
#
# number of rings (size 3 to 8) (size 9 to 14) (size 15 to 20)
#    0.000    2.000    0.000    1.500    7.000    0.000 
#    0.000    8.333    0.000    0.000    0.000    0.000 
#    0.000    0.000    0.000    0.000    0.000    0.000 
#
# Total GULP energy -134203.277767 kJ/mol
# GULP energy per Si atom -5591.803240 kJ/mol
# Density = 2.265583 g / cm^3
# Si number density = 22.707515 Si / 1000 Ang^3
#
#
#
# Elastic Constant Matrix: (Units=GPa)
#
#
# Indices 1 2 3 4 5 6 
#
# 1 48.5516 6.9099 5.4669 0.0000 -16.4000 0.0000
# 2 6.9099 42.2038 6.3371 0.0000 -25.3772 0.0000
# 3 5.4669 6.3371 40.2673 0.0000 -5.3715 0.0000
# 4 0.0000 0.0000 0.0000 13.7274 0.0000 -14.2743
# 5 -16.4000 -25.3772 -5.3715 0.0000 31.7967 0.0000
# 6 0.0000 0.0000 0.0000 -14.2743 0.0000 34.1855
#
#
#
# Elastic Compliance Matrix: (Units=1/GPa)
#
#
# Indices 1 2 3 4 5 6 
#
# 1 0.026261 0.007597 -0.002195 0.000000 0.019237 0.000000
# 2 0.007597 0.047979 -0.003019 0.000000 0.041701 0.000000
# 3 -0.002195 -0.003019 0.025714 0.000000 0.000802 0.000000
# 4 0.000000 0.000000 0.000000 0.128748 0.000000 0.053760
# 5 0.019237 0.041701 0.000802 0.000000 0.074789 0.000000
# 6 0.000000 0.000000 0.000000 0.053760 0.000000 0.051700
#
#
# Mechanical properties :
#
#
# Convention : Reuss Voigt Hill
#
# Bulk Modulus (GPa) = 9.54925 18.71672 14.13298
# Shear Modulus (GPa) = 12.97585 23.42916 18.20251
#
# Velocity S-wave (km/s) = 2.39306 3.21562 2.83434
# Velocity P-wave (km/s) = 3.44240 4.69546 4.11688
#
# Compressibility (1/GPa) = 0.10472027
#
# Stress axis : x y z
#
# Youngs Moduli (GPa) = 38.07986 20.84256 38.88898
#
# Poissons Ratio (x) = -0.15835 0.08535
# Poissons Ratio (y) = -0.28931 0.11742
# Poissons Ratio (z) = 0.08358 0.06293
#
# Static dielectric constant tensor:
#      x y z
#    x 1.814630 0.000000 0.007730 
#    y 0.000000 1.840630 0.000000 
#    z 0.007730 0.000000 1.831590 
# 
# From -- ./inp_files/63391.got.cif
#   From: 2010.05.17/outbox.cif.g08.bks.cpg/sg14_32_cif.got.tgz:63391.got - 2010.06.03 17:49:19.
