data_PCOD9245493
_publ_section_title
;
Structure prediction by ZEFSAII (Michael W. Deem and Ramdas Pophale) SiO2 
 PCOD9245493
Probable space group: P 21/C
;
_chemical_formula_sum "Si O2"
_cell_formula_units_Z 24
_cell_length_a 29.102111
_cell_length_b 9.280684
_cell_length_c 15.113951
_cell_angle_alpha 90.000000
_cell_angle_beta 18.155412
_cell_angle_gamma 90.000000
_cell_volume 1271.960818
_symmetry_space_group_name_H-M "P 21/C"
_symmetry_group_IT_number 14
_symmetry_cell_setting 'monoclinic'
loop_
_space_group_symop_operation_xyz
x,y,z
-x,1/2+y,1/2-z
-x,-y,-z
x,1/2-y,1/2+z
loop_
_atom_site_type_symbol
_atom_site_label
_atom_site_fract_x
_atom_site_fract_y
_atom_site_fract_z
Si Si1 0.434866 0.919253 0.534965
Si Si2 0.813264 0.530823 0.744639
Si Si3 0.263925 0.178173 0.784502
Si Si4 0.385920 0.587669 0.644873
Si Si5 0.869980 0.600954 0.832999
Si Si6 0.506274 0.594829 0.704779
O O1 0.405680 0.756435 0.616368
O O2 0.523308 0.910951 0.279587
O O3 0.500000 0.000000 0.500000
O O4 0.297711 0.020623 0.760843
O O5 0.818811 0.645050 0.655059
O O6 0.814410 0.618734 0.834263
O O7 0.957434 0.431092 0.481211
O O8 0.666344 0.432930 0.001812
O O9 0.414821 0.263935 0.481114
O O10 0.179952 0.273890 0.009634
O O11 0.500000 0.500000 0.500000
O O12 0.417282 0.536622 0.487397
O O13 0.221750 0.539277 0.968804
#
# Coordination Sequence:
#
# PCOD9245493 Si02
#       6
#     4   4   4   4   4   4
#     4  11  22  33  58  93 122 153 203 263 302 349
#     4  10  21  39  64  91 123 163 207 242 318 367
#     4  10  23  38  63  90 123 156 209 260 297 362
#     4  11  21  38  62  87 123 160 208 243 310 369
#     4  10  22  40  66  87 122 171 198 252 309 376
#     4  10  21  38  61  89 120 161 204 256 299 367
#
# _framework density 18.868504999999999
#
# number of rings (size 3 to 8) (size 9 to 14) (size 15 to 20)
#    0.000    1.667    1.667    4.000    2.333    2.667 
#    0.000    0.000    0.000    7.000    0.000    0.000 
#    0.000    0.000    0.000    0.000    0.000    0.000 
#
# Total GULP energy -133836.283559 kJ/mol
# GULP energy per Si atom -5576.511815 kJ/mol
# Density = 1.882556 g / cm^3
# Si number density = 18.868505 Si / 1000 Ang^3
#
#
#
# Elastic Constant Matrix: (Units=GPa)
#
#
# Indices 1 2 3 4 5 6 
#
# 1 137.7516 46.4780 42.3896 0.0000 20.9923 0.0000
# 2 46.4780 130.8197 9.5523 0.0000 14.6033 0.0000
# 3 42.3896 9.5523 57.8690 0.0000 9.0824 0.0000
# 4 0.0000 0.0000 0.0000 14.8333 0.0000 4.5625
# 5 20.9923 14.6033 9.0824 0.0000 26.9192 0.0000
# 6 0.0000 0.0000 0.0000 4.5625 0.0000 24.8792
#
#
#
# Elastic Compliance Matrix: (Units=1/GPa)
#
#
# Indices 1 2 3 4 5 6 
#
# 1 0.011084 -0.002905 -0.006896 0.000000 -0.004741 0.000000
# 2 -0.002905 0.008924 0.001118 0.000000 -0.002953 0.000000
# 3 -0.006896 0.001118 0.022595 0.000000 -0.002853 0.000000
# 4 0.000000 0.000000 0.000000 0.071446 0.000000 -0.013102
# 5 -0.004741 -0.002953 -0.002853 0.000000 0.043410 0.000000
# 6 0.000000 0.000000 0.000000 -0.013102 0.000000 0.042597
#
#
# Mechanical properties :
#
#
# Convention : Reuss Voigt Hill
#
# Bulk Modulus (GPa) = 39.62231 58.14223 48.88227
# Shear Modulus (GPa) = 22.14024 28.52771 25.33397
#
# Velocity S-wave (km/s) = 3.42920 3.89256 3.66821
# Velocity P-wave (km/s) = 6.06003 7.14731 6.62601
#
# Compressibility (1/GPa) = 0.02523831
#
# Stress axis : x y z
#
# Youngs Moduli (GPa) = 90.21908 112.05401 44.25846
#
# Poissons Ratio (x) = 0.32554 0.30519
# Poissons Ratio (y) = 0.26211 -0.04950
# Poissons Ratio (z) = 0.62211 -0.12533
#
# Static dielectric constant tensor:
#      x y z
#    x 1.749280 0.000000 0.019920 
#    y 0.000000 1.656300 0.000000 
#    z 0.019920 0.000000 1.665730 
# 
# From -- ./inp_files/38909.got.cif
#   From: 2010.05.17/outbox.cif.g08.bks.cpg/sg14_20_cif.got.tgz:38909.got - 2010.06.03 17:49:19.
