data_PCOD9245104
_publ_section_title
;
Structure prediction by ZEFSAII (Michael W. Deem and Ramdas Pophale) SiO2 
 PCOD9245104
Probable space group: P 21/C
;
_chemical_formula_sum "Si O2"
_cell_formula_units_Z 32
_cell_length_a 11.739802
_cell_length_b 8.506219
_cell_length_c 18.531002
_cell_angle_alpha 90.000000
_cell_angle_beta 69.596558
_cell_angle_gamma 90.000000
_cell_volume 1734.430106
_symmetry_space_group_name_H-M "P 21/C"
_symmetry_group_IT_number 14
_symmetry_cell_setting 'monoclinic'
loop_
_space_group_symop_operation_xyz
x,y,z
-x,1/2+y,1/2-z
-x,-y,-z
x,1/2-y,1/2+z
loop_
_atom_site_type_symbol
_atom_site_label
_atom_site_fract_x
_atom_site_fract_y
_atom_site_fract_z
Si Si1 0.689013 0.575201 0.903432
Si Si2 0.473544 0.263523 0.656816
Si Si3 0.626081 0.056443 0.732184
Si Si4 0.322606 0.280665 0.452921
Si Si5 0.583773 0.252244 0.868046
Si Si6 0.150397 0.083067 0.404758
Si Si7 0.331499 0.629899 0.506028
Si Si8 0.122024 0.611179 0.058316
O O1 0.651531 0.700574 0.851269
O O2 0.615203 0.420983 0.894521
O O3 0.821595 0.506785 0.893904
O O4 0.655205 0.657018 0.986826
O O5 0.537489 0.131717 0.692049
O O6 0.443045 0.418345 0.709400
O O7 0.571215 0.298208 0.571777
O O8 0.656742 0.195204 0.782508
O O9 0.748423 0.989043 0.670032
O O10 0.443164 0.263082 0.378722
O O11 0.208572 0.233717 0.430550
O O12 0.307021 0.453081 0.487773
O O13 0.608082 0.133245 0.928502
O O14 0.021549 0.126190 0.398494
O O15 0.134010 0.962541 0.475420
O O16 0.209911 0.736555 0.538185
#
# Coordination Sequence:
#
# PCOD9245104 Si02
#       8
#     4   4   4   4   4   4   4   4
#     4  10  21  36  61  83 114 157 201 242 290 357
#     4  12  22  37  57  91 126 155 194 246 316 364
#     4  12  24  36  58  89 129 154 187 255 318 360
#     4  11  19  34  59  88 118 151 197 250 294 355
#     4  11  21  36  57  90 121 156 198 246 308 363
#     4  10  21  39  58  83 117 157 197 244 300 354
#     4  11  21  36  62  89 119 158 207 247 289 368
#     4   9  21  40  62  80 109 159 211 241 283 357
#
# _framework density 18.449864000000002
#
# number of rings (size 3 to 8) (size 9 to 14) (size 15 to 20)
#    0.000    1.250    3.750    3.750    1.750    0.500 
#    0.000    2.500    0.000    0.000    0.000    0.000 
#    0.000    0.000    0.000    0.000    0.000    0.000 
#
# Total GULP energy -178511.892814 kJ/mol
# GULP energy per Si atom -5578.496650 kJ/mol
# Density = 1.840787 g / cm^3
# Si number density = 18.449864 Si / 1000 Ang^3
#
#
#
# Elastic Constant Matrix: (Units=GPa)
#
#
# Indices 1 2 3 4 5 6 
#
# 1 129.3201 38.6433 39.1546 0.0000 2.1229 0.0000
# 2 38.6433 80.7336 21.6107 0.0000 4.9863 0.0000
# 3 39.1546 21.6107 73.4774 0.0000 10.3901 0.0000
# 4 0.0000 0.0000 0.0000 28.1831 0.0000 7.1262
# 5 2.1229 4.9863 10.3901 0.0000 18.9560 0.0000
# 6 0.0000 0.0000 0.0000 7.1262 0.0000 21.5493
#
#
#
# Elastic Compliance Matrix: (Units=1/GPa)
#
#
# Indices 1 2 3 4 5 6 
#
# 1 0.010247 -0.003800 -0.004685 0.000000 0.002420 0.000000
# 2 -0.003800 0.014893 -0.002018 0.000000 -0.002386 0.000000
# 3 -0.004685 -0.002018 0.017941 0.000000 -0.008778 0.000000
# 4 0.000000 0.000000 0.000000 0.038720 0.000000 -0.012804
# 5 0.002420 -0.002386 -0.008778 0.000000 0.057922 0.000000
# 6 0.000000 0.000000 0.000000 -0.012804 0.000000 0.050640
#
#
# Mechanical properties :
#
#
# Convention : Reuss Voigt Hill
#
# Bulk Modulus (GPa) = 45.30010 53.59424 49.44717
# Shear Modulus (GPa) = 22.85962 26.01252 24.43607
#
# Velocity S-wave (km/s) = 3.52378 3.75894 3.64326
# Velocity P-wave (km/s) = 6.41579 6.92468 6.67509
#
# Compressibility (1/GPa) = 0.02207501
#
# Stress axis : x y z
#
# Youngs Moduli (GPa) = 97.58889 67.14631 55.73853
#
# Poissons Ratio (x) = 0.25517 0.26113
# Poissons Ratio (y) = 0.37085 0.11247
# Poissons Ratio (z) = 0.45720 0.13549
#
# Static dielectric constant tensor:
#      x y z
#    x 1.633850 0.000000 0.009250 
#    y 0.000000 1.674220 0.000000 
#    z 0.009250 0.000000 1.637010 
# 
# From -- ./inp_files/57043.got.cif
#   From: 2010.05.17/outbox.cif.g08.bks.cpg/sg14_29_cif.got.tgz:57043.got - 2010.06.03 17:49:19.
