data_PCOD9245800
_publ_section_title
;
Structure prediction by ZEFSAII (Michael W. Deem and Ramdas Pophale) SiO2 
 PCOD9245800
Probable space group: P 21/C
;
_chemical_formula_sum "Si O2"
_cell_formula_units_Z 24
_cell_length_a 15.022752
_cell_length_b 9.073370
_cell_length_c 9.670312
_cell_angle_alpha 90.000000
_cell_angle_beta 81.462339
_cell_angle_gamma 90.000000
_cell_volume 1303.524217
_symmetry_space_group_name_H-M "P 21/C"
_symmetry_group_IT_number 14
_symmetry_cell_setting 'monoclinic'
loop_
_space_group_symop_operation_xyz
x,y,z
-x,1/2+y,1/2-z
-x,-y,-z
x,1/2-y,1/2+z
loop_
_atom_site_type_symbol
_atom_site_label
_atom_site_fract_x
_atom_site_fract_y
_atom_site_fract_z
Si Si1 0.441247 0.574595 0.894907
Si Si2 0.931892 0.599185 0.928895
Si Si3 0.456538 0.926446 0.877041
Si Si4 0.279578 0.102828 0.843439
Si Si5 0.928553 0.597466 0.599487
Si Si6 0.274056 0.403693 0.020078
O O1 0.454844 0.749516 0.882434
O O2 0.478030 0.488896 0.754917
O O3 0.339227 0.530173 0.950122
O O4 0.500000 0.500000 0.000000
O O5 0.951562 0.612654 0.758820
O O6 0.931071 0.751619 0.012796
O O7 0.829080 0.544844 0.963080
O O8 0.000000 0.500000 0.000000
O O9 0.356221 0.990060 0.874739
O O10 0.500000 0.000000 0.000000
O O11 0.176361 0.046879 0.883634
O O12 0.287340 0.255272 0.927116
O O13 0.293916 0.130870 0.676529
O O14 0.000000 0.500000 0.500000
#
# Coordination Sequence:
#
# PCOD9245800 Si02
#       6
#     4   4   4   4   4   4
#     4  12  24  43  63  89 126 162 211 259 310 376
#     4  10  21  39  62  92 125 164 209 258 318 374
#     4  12  26  41  63  93 124 166 208 259 316 367
#     4  10  22  41  63  91 123 160 208 256 314 373
#     4  10  21  39  63  91 125 165 207 259 314 380
#     4  10  22  40  64  90 123 163 205 259 311 373
#
# _framework density 18.411625000000001
#
# number of rings (size 3 to 8) (size 9 to 14) (size 15 to 20)
#    0.000    1.333    1.667    4.000    2.333    2.667 
#    0.000    0.000    0.000    0.000    0.000    0.000 
#    0.000    0.000    0.000    0.000    0.000    0.000 
#
# Total GULP energy -133911.224766 kJ/mol
# GULP energy per Si atom -5579.634365 kJ/mol
# Density = 1.836972 g / cm^3
# Si number density = 18.411625 Si / 1000 Ang^3
#
#
#
# Elastic Constant Matrix: (Units=GPa)
#
#
# Indices 1 2 3 4 5 6 
#
# 1 135.3991 82.0001 88.5422 0.0000 0.9448 0.0000
# 2 82.0001 131.2420 73.9075 0.0000 -7.2757 0.0000
# 3 88.5422 73.9075 190.1454 0.0000 0.0615 0.0000
# 4 0.0000 0.0000 0.0000 28.9559 0.0000 -2.6918
# 5 0.9448 -7.2757 0.0615 0.0000 36.8439 0.0000
# 6 0.0000 0.0000 0.0000 -2.6918 0.0000 40.8419
#
#
#
# Elastic Compliance Matrix: (Units=1/GPa)
#
#
# Indices 1 2 3 4 5 6 
#
# 1 0.013972 -0.006603 -0.003939 0.000000 -0.001656 0.000000
# 2 -0.006603 0.013015 -0.001985 0.000000 0.002743 0.000000
# 3 -0.003939 -0.001985 0.007865 0.000000 -0.000304 0.000000
# 4 0.000000 0.000000 0.000000 0.034748 0.000000 0.002290
# 5 -0.001656 0.002743 -0.000304 0.000000 0.027726 0.000000
# 6 0.000000 0.000000 0.000000 0.002290 0.000000 0.024636
#
#
# Mechanical properties :
#
#
# Convention : Reuss Voigt Hill
#
# Bulk Modulus (GPa) = 102.06422 105.07624 103.57023
# Shear Modulus (GPa) = 33.27075 35.48413 34.37744
#
# Velocity S-wave (km/s) = 4.25555 4.39483 4.32575
# Velocity P-wave (km/s) = 8.92756 9.10753 9.01800
#
# Compressibility (1/GPa) = 0.00979775
#
# Stress axis : x y z
#
# Youngs Moduli (GPa) = 71.57138 76.83392 127.14698
#
# Poissons Ratio (x) = 0.50736 0.50083
# Poissons Ratio (y) = 0.47261 0.25236
# Poissons Ratio (z) = 0.28192 0.15250
#
# Static dielectric constant tensor:
#      x y z
#    x 1.669200 0.000000 -0.004170 
#    y 0.000000 1.626270 0.000000 
#    z -0.004170 0.000000 1.601650 
# 
# From -- ./inp_files/15064.got.cif
#   From: 2010.05.17/outbox.cif.g08.bks.cpg/sg14_8_cif.got.tgz:15064.got - 2010.06.03 17:49:19.
