data_PCOD9245557
_publ_section_title
;
Structure prediction by ZEFSAII (Michael W. Deem and Ramdas Pophale) SiO2 
 PCOD9245557
Probable space group: P 21/C
;
_chemical_formula_sum "Si O2"
_cell_formula_units_Z 32
_cell_length_a 11.233112
_cell_length_b 23.935457
_cell_length_c 7.894668
_cell_angle_alpha 90.000000
_cell_angle_beta 140.062525
_cell_angle_gamma 90.000000
_cell_volume 1362.629369
_symmetry_space_group_name_H-M "P 21/C"
_symmetry_group_IT_number 14
_symmetry_cell_setting 'monoclinic'
loop_
_space_group_symop_operation_xyz
x,y,z
-x,1/2+y,1/2-z
-x,-y,-z
x,1/2-y,1/2+z
loop_
_atom_site_type_symbol
_atom_site_label
_atom_site_fract_x
_atom_site_fract_y
_atom_site_fract_z
Si Si1 0.495987 0.102632 0.283167
Si Si2 0.136676 0.125947 0.021151
Si Si3 0.401127 0.490052 0.213839
Si Si4 0.019580 0.493381 0.317988
Si Si5 0.803464 0.183045 0.536065
Si Si6 0.666700 0.301661 0.508622
Si Si7 0.053945 0.615099 0.322074
Si Si8 0.339014 0.370392 0.235842
O O1 0.514578 0.035727 0.321816
O O2 0.698283 0.129976 0.502790
O O3 0.356793 0.131736 0.261066
O O4 0.411207 0.117178 0.004635
O O5 0.107362 0.067145 0.888880
O O6 0.020382 0.174908 0.806897
O O7 0.048075 0.119312 0.108574
O O8 0.500000 0.500000 0.500000
O O9 0.402126 0.423769 0.190579
O O10 0.183725 0.505136 0.985524
O O11 0.114978 0.550663 0.359415
O O12 0.000000 0.500000 0.500000
O O13 0.715095 0.238698 0.516065
O O14 0.756826 0.184111 0.288187
O O15 0.450494 0.317009 0.289091
O O16 0.775980 0.342995 0.502774
O O17 0.883276 0.631388 0.011996
#
# Coordination Sequence:
#
# PCOD9245557 Si02
#       8
#     4   4   4   4   4   4   4   4
#     4  10  21  38  63  91 123 162 208 259 311 372
#     4  11  22  38  63  92 128 166 205 255 315 373
#     4   9  17  36  60  89 127 163 211 258 308 381
#     4   9  19  37  57  91 133 167 207 255 313 382
#     4  11  24  43  62  93 119 163 214 256 311 371
#     4  11  24  42  67  85 123 166 208 261 308 372
#     4  10  22  40  59  92 127 164 207 254 311 372
#     4   9  21  40  59  91 124 159 209 256 313 367
#
# _framework density 23.484009
#
# number of rings (size 3 to 8) (size 9 to 14) (size 15 to 20)
#    0.000    2.000    1.250    1.500    1.750    3.000 
#    0.000    6.875    0.000    0.000    0.000    0.000 
#    0.000    0.000    0.000    0.000    0.000    0.000 
#
# Total GULP energy -178856.207948 kJ/mol
# GULP energy per Si atom -5589.256498 kJ/mol
# Density = 2.343056 g / cm^3
# Si number density = 23.484009 Si / 1000 Ang^3
#
#
#
# Elastic Constant Matrix: (Units=GPa)
#
#
# Indices 1 2 3 4 5 6 
#
# 1 70.9093 16.5785 -2.0655 0.0000 0.2641 0.0000
# 2 16.5785 87.8645 -12.0906 0.0000 1.4014 0.0000
# 3 -2.0655 -12.0906 55.1033 0.0000 -5.4613 0.0000
# 4 0.0000 0.0000 0.0000 24.2293 0.0000 4.0013
# 5 0.2641 1.4014 -5.4613 0.0000 21.3441 0.0000
# 6 0.0000 0.0000 0.0000 4.0013 0.0000 23.8272
#
#
#
# Elastic Compliance Matrix: (Units=1/GPa)
#
#
# Indices 1 2 3 4 5 6 
#
# 1 0.014754 -0.002792 -0.000061 0.000000 -0.000015 0.000000
# 2 -0.002792 0.012264 0.002575 0.000000 -0.000112 0.000000
# 3 -0.000061 0.002575 0.019180 0.000000 0.004739 0.000000
# 4 0.000000 0.000000 0.000000 0.042450 0.000000 -0.007128
# 5 -0.000015 -0.000112 0.004739 0.000000 0.048071 0.000000
# 6 0.000000 0.000000 0.000000 -0.007128 0.000000 0.043166
#
#
# Mechanical properties :
#
#
# Convention : Reuss Voigt Hill
#
# Bulk Modulus (GPa) = 21.90942 24.30241 23.10591
# Shear Modulus (GPa) = 25.55527 27.97711 26.76619
#
# Velocity S-wave (km/s) = 3.30236 3.45530 3.37970
# Velocity P-wave (km/s) = 4.88780 5.12736 5.00901
#
# Compressibility (1/GPa) = 0.04564247
#
# Stress axis : x y z
#
# Youngs Moduli (GPa) = 67.78039 81.53890 52.13701
#
# Poissons Ratio (x) = 0.22765 0.00318
# Poissons Ratio (y) = 0.18924 -0.13426
# Poissons Ratio (z) = 0.00414 -0.20998
#
# Static dielectric constant tensor:
#      x y z
#    x 1.893050 0.000000 -0.009230 
#    y 0.000000 1.911940 0.000000 
#    z -0.009230 0.000000 1.884220 
# 
# From -- ./inp_files/14560.got.cif
#   From: 2010.05.17/outbox.cif.g08.bks.cpg/sg14_8_cif.got.tgz:14560.got - 2010.06.03 17:49:19.
