data_PCOD9245204
_publ_section_title
;
Structure prediction by ZEFSAII (Michael W. Deem and Ramdas Pophale) SiO2 
 PCOD9245204
Probable space group: P 21/C
;
_chemical_formula_sum "Si O2"
_cell_formula_units_Z 28
_cell_length_a 20.364688
_cell_length_b 4.755494
_cell_length_c 10.673628
_cell_angle_alpha 90.000000
_cell_angle_beta 102.887039
_cell_angle_gamma 90.000000
_cell_volume 1007.641815
_symmetry_space_group_name_H-M "P 21/C"
_symmetry_group_IT_number 14
_symmetry_cell_setting 'monoclinic'
loop_
_space_group_symop_operation_xyz
x,y,z
-x,1/2+y,1/2-z
-x,-y,-z
x,1/2-y,1/2+z
loop_
_atom_site_type_symbol
_atom_site_label
_atom_site_fract_x
_atom_site_fract_y
_atom_site_fract_z
Si Si1 0.350246 0.321261 0.202782
Si Si2 0.957408 0.960309 0.758744
Si Si3 0.839669 0.769169 0.036764
Si Si4 0.371917 0.819056 0.036723
Si Si5 0.856532 0.230899 0.381443
Si Si6 0.489071 0.321167 0.832677
Si Si7 0.259965 0.965191 0.333635
O O1 0.348256 0.631349 0.146909
O O2 0.413468 0.279264 0.324514
O O3 0.367436 0.132037 0.087647
O O4 0.286898 0.186919 0.243175
O O5 0.009599 0.710809 0.809968
O O6 0.898790 0.800279 0.658751
O O7 0.925001 0.133373 0.859006
O O8 0.771904 0.645401 0.066846
O O9 0.858417 0.590940 0.921027
O O10 0.835946 0.091050 0.995616
O O11 0.449806 0.732358 0.046495
O O12 0.320232 0.731723 0.907762
O O13 0.799267 0.286138 0.254621
O O14 0.490025 0.634953 0.780569
#
# Coordination Sequence:
#
# PCOD9245204 Si02
#       7
#     4   4   4   4   4   4   4
#     4  10  21  37  58  84 116 153 197 250 302 352
#     4  11  24  42  68  99 122 153 200 239 286 351
#     4  11  25  43  63  90 126 161 195 241 292 344
#     4  10  21  37  58  84 116 153 197 250 302 352
#     4  11  25  43  63  90 126 161 195 241 292 344
#     4   8  16  33  54  79 112 148 190 245 304 355
#     4  11  24  39  62  87 118 160 206 242 288 355
#
# _framework density 27.787655000000001
#
# number of rings (size 3 to 8) (size 9 to 14) (size 15 to 20)
#    0.000    1.714    0.000    3.429    0.000   10.857 
#    0.000    0.000    0.000   10.286    0.000    0.000 
#    0.000    0.000    0.000    0.000    0.000    0.000 
#
# Total GULP energy -157320.255602 kJ/mol
# GULP energy per Si atom -5618.580557 kJ/mol
# Density = 2.772441 g / cm^3
# Si number density = 27.787655 Si / 1000 Ang^3
#
#
#
# Elastic Constant Matrix: (Units=GPa)
#
#
# Indices 1 2 3 4 5 6 
#
# 1 63.9082 14.2046 15.9569 0.0000 -4.0946 0.0000
# 2 14.2046 107.7401 14.1141 0.0000 -3.2751 0.0000
# 3 15.9569 14.1141 95.1147 0.0000 -3.3116 0.0000
# 4 0.0000 0.0000 0.0000 38.9265 0.0000 0.5017
# 5 -4.0946 -3.2751 -3.3116 0.0000 38.8045 0.0000
# 6 0.0000 0.0000 0.0000 0.5017 0.0000 36.3190
#
#
#
# Elastic Compliance Matrix: (Units=1/GPa)
#
#
# Indices 1 2 3 4 5 6 
#
# 1 0.016769 -0.001842 -0.002491 0.000000 0.001401 0.000000
# 2 -0.001842 0.009686 -0.001110 0.000000 0.000528 0.000000
# 3 -0.002491 -0.001110 0.011117 0.000000 0.000592 0.000000
# 4 0.000000 0.000000 0.000000 0.025694 0.000000 -0.000355
# 5 0.001401 0.000528 0.000592 0.000000 0.026013 0.000000
# 6 0.000000 0.000000 0.000000 -0.000355 0.000000 0.027539
#
#
# Mechanical properties :
#
#
# Convention : Reuss Voigt Hill
#
# Bulk Modulus (GPa) = 37.47328 39.47935 38.47632
# Shear Modulus (GPa) = 36.60372 37.64249 37.12311
#
# Velocity S-wave (km/s) = 3.63335 3.68455 3.65904
# Velocity P-wave (km/s) = 5.57822 5.68679 5.63276
#
# Compressibility (1/GPa) = 0.02668568
#
# Stress axis : x y z
#
# Youngs Moduli (GPa) = 59.63531 103.24295 89.95355
#
# Poissons Ratio (x) = 0.19016 0.22408
# Poissons Ratio (y) = 0.10984 0.09984
# Poissons Ratio (z) = 0.14856 0.11459
#
# Static dielectric constant tensor:
#      x y z
#    x 2.152640 0.000000 0.022230 
#    y 0.000000 2.036520 0.000000 
#    z 0.022230 0.000000 2.142660 
# 
# From -- ./inp_files/34738.got.cif
#   From: 2010.05.17/outbox.cif.g08.bks.cpg/sg14_18_cif.got.tgz:34738.got - 2010.06.03 17:49:19.
