data_PCOD9245131
_publ_section_title
;
Structure prediction by ZEFSAII (Michael W. Deem and Ramdas Pophale) SiO2 
 PCOD9245131
Probable space group: P 21/C
;
_chemical_formula_sum "Si O2"
_cell_formula_units_Z 32
_cell_length_a 8.545735
_cell_length_b 19.249360
_cell_length_c 20.794902
_cell_angle_alpha 90.000000
_cell_angle_beta 149.196668
_cell_angle_gamma 90.000000
_cell_volume 1751.746577
_symmetry_space_group_name_H-M "P 21/C"
_symmetry_group_IT_number 14
_symmetry_cell_setting 'monoclinic'
loop_
_space_group_symop_operation_xyz
x,y,z
-x,1/2+y,1/2-z
-x,-y,-z
x,1/2-y,1/2+z
loop_
_atom_site_type_symbol
_atom_site_label
_atom_site_fract_x
_atom_site_fract_y
_atom_site_fract_z
Si Si1 0.332272 0.554395 0.295783
Si Si2 0.612337 0.887335 0.770487
Si Si3 0.343750 0.455168 0.891723
Si Si4 0.725801 0.173864 0.987822
Si Si5 0.281604 0.837746 0.523531
Si Si6 0.375274 0.400302 0.249097
Si Si7 0.270488 0.965346 0.240431
Si Si8 0.612350 0.578175 0.525531
O O1 0.395155 0.600513 0.255070
O O2 0.355930 0.474671 0.279430
O O3 0.561966 0.582923 0.431141
O O4 0.010476 0.555049 0.218880
O O5 0.401576 0.859891 0.637368
O O6 0.777040 0.962839 0.816282
O O7 0.909675 0.839808 0.884440
O O8 0.485816 0.379629 0.938812
O O9 0.423012 0.499438 0.856034
O O10 0.500000 0.500000 0.000000
O O11 0.687830 0.256342 0.977097
O O12 0.566596 0.146659 0.866162
O O13 0.566403 0.131999 0.991460
O O14 0.949019 0.866993 0.385530
O O15 0.543578 0.416459 0.241354
O O16 0.975313 0.925361 0.162621
O O17 0.500000 0.500000 0.500000
#
# Coordination Sequence:
#
# PCOD9245131 Si02
#       8
#     4   4   4   4   4   4   4   4
#     4  11  21  37  66  94 120 153 209 264 307 351
#     4  10  22  40  63  89 122 162 203 256 306 368
#     4  11  21  37  61  92 122 155 203 254 306 369
#     4  12  23  42  63  86 129 170 206 252 315 377
#     4  11  25  41  61  89 126 171 203 249 321 377
#     4  11  22  38  64  93 118 162 210 257 305 367
#     4  10  21  36  63  92 119 148 207 263 299 349
#     4  12  19  37  64  97 122 156 208 260 304 363
#
# _framework density 18.267482000000001
#
# number of rings (size 3 to 8) (size 9 to 14) (size 15 to 20)
#    0.000    1.000    5.000    2.250    1.750    3.500 
#    0.000    3.750    2.750    0.000    0.000    0.000 
#    0.000    0.000    0.000    0.000    0.000    0.000 
#
# Total GULP energy -178254.054997 kJ/mol
# GULP energy per Si atom -5570.439219 kJ/mol
# Density = 1.822590 g / cm^3
# Si number density = 18.267482 Si / 1000 Ang^3
#
#
#
# Elastic Constant Matrix: (Units=GPa)
#
#
# Indices 1 2 3 4 5 6 
#
# 1 84.4119 55.5125 20.4459 0.0000 -10.4144 0.0000
# 2 55.5125 124.6794 45.8653 0.0000 -10.6975 0.0000
# 3 20.4459 45.8653 94.6370 0.0000 -9.6488 0.0000
# 4 0.0000 0.0000 0.0000 19.6357 0.0000 3.1872
# 5 -10.4144 -10.6975 -9.6488 0.0000 18.7622 0.0000
# 6 0.0000 0.0000 0.0000 3.1872 0.0000 20.5451
#
#
#
# Elastic Compliance Matrix: (Units=1/GPa)
#
#
# Indices 1 2 3 4 5 6 
#
# 1 0.017282 -0.007363 0.000406 0.000000 0.005603 0.000000
# 2 -0.007363 0.013096 -0.004656 0.000000 0.000986 0.000000
# 3 0.000406 -0.004656 0.013179 0.000000 0.004348 0.000000
# 4 0.000000 0.000000 0.000000 0.052243 0.000000 -0.008104
# 5 0.005603 0.000986 0.004348 0.000000 0.059207 0.000000
# 6 0.000000 0.000000 0.000000 -0.008104 0.000000 0.049931
#
#
# Mechanical properties :
#
#
# Convention : Reuss Voigt Hill
#
# Bulk Modulus (GPa) = 49.18551 60.81953 55.00252
# Shear Modulus (GPa) = 21.28198 23.91557 22.59878
#
# Velocity S-wave (km/s) = 3.41694 3.62220 3.52106
# Velocity P-wave (km/s) = 6.52311 7.13161 6.83414
#
# Compressibility (1/GPa) = 0.02033119
#
# Stress axis : x y z
#
# Youngs Moduli (GPa) = 57.86360 76.35753 75.88024
#
# Poissons Ratio (x) = 0.56225 -0.03082
# Poissons Ratio (y) = 0.42607 0.35328
# Poissons Ratio (z) = -0.02350 0.35550
#
# Static dielectric constant tensor:
#      x y z
#    x 1.685250 0.000000 -0.001890 
#    y 0.000000 1.622390 0.000000 
#    z -0.001890 0.000000 1.709490 
# 
# From -- ./inp_files/66040.got.cif
#   From: 2010.05.17/outbox.cif.g08.bks.cpg/sg14_34_cif.got.tgz:66040.got - 2010.06.03 17:49:19.
