data_PCOD9245082
_publ_section_title
;
Structure prediction by ZEFSAII (Michael W. Deem and Ramdas Pophale) SiO2 
 PCOD9245082
Probable space group: P 21/C
;
_chemical_formula_sum "Si O2"
_cell_formula_units_Z 28
_cell_length_a 13.093322
_cell_length_b 8.079892
_cell_length_c 21.207563
_cell_angle_alpha 90.000000
_cell_angle_beta 32.063821
_cell_angle_gamma 90.000000
_cell_volume 1191.047520
_symmetry_space_group_name_H-M "P 21/C"
_symmetry_group_IT_number 14
_symmetry_cell_setting 'monoclinic'
loop_
_space_group_symop_operation_xyz
x,y,z
-x,1/2+y,1/2-z
-x,-y,-z
x,1/2-y,1/2+z
loop_
_atom_site_type_symbol
_atom_site_label
_atom_site_fract_x
_atom_site_fract_y
_atom_site_fract_z
Si Si1 0.093482 0.372055 0.164024
Si Si2 0.147792 0.191109 0.013552
Si Si3 0.287050 0.797328 0.616610
Si Si4 0.487758 0.494330 0.660188
Si Si5 0.260420 0.528504 0.257773
Si Si6 0.458438 0.328613 0.252441
Si Si7 0.312380 0.296227 0.652980
O O1 0.121073 0.342234 0.075441
O O2 0.189638 0.540739 0.136302
O O3 0.193842 0.224275 0.151368
O O4 0.871906 0.344799 0.297488
O O5 0.255216 0.224608 0.891455
O O6 0.942855 0.102150 0.114150
O O7 0.305855 0.071153 0.964186
O O8 0.339587 0.855170 0.660333
O O9 0.528207 0.250496 0.519265
O O10 0.413812 0.614379 0.754997
O O11 0.529065 0.317511 0.671603
O O12 0.342783 0.457780 0.679719
O O13 0.408543 0.488695 0.235945
O O14 0.229786 0.348680 0.241320
#
# Coordination Sequence:
#
# PCOD9245082 Si02
#       7
#     4   4   4   4   4   4   4
#     4  10  21  38  58  85 121 150 192 236 286 350
#     4   9  20  34  57  83 111 148 195 236 287 339
#     4  10  22  37  60  91 115 155 191 233 285 348
#     4   9  21  35  55  83 109 150 187 241 285 341
#     4   9  17  35  57  81 107 151 193 225 279 346
#     4   9  19  36  57  78 110 146 197 240 284 336
#     4  10  21  36  60  86 120 152 188 233 294 345
#
# _framework density 23.50872
#
# number of rings (size 3 to 8) (size 9 to 14) (size 15 to 20)
#    0.857    1.714    0.000    2.143    6.000    4.000 
#    0.000    1.429    0.000    1.714    0.000    0.000 
#    0.000    0.000    0.000    0.000    0.000    0.000 
#
# Total GULP energy -156367.953888 kJ/mol
# GULP energy per Si atom -5584.569782 kJ/mol
# Density = 2.345521 g / cm^3
# Si number density = 23.508720 Si / 1000 Ang^3
#
#
#
# Elastic Constant Matrix: (Units=GPa)
#
#
# Indices 1 2 3 4 5 6 
#
# 1 69.5452 30.2087 26.3557 0.0000 6.1357 0.0000
# 2 30.2087 65.5064 17.6971 0.0000 -1.8772 0.0000
# 3 26.3557 17.6971 76.6172 0.0000 4.9604 0.0000
# 4 0.0000 0.0000 0.0000 24.8289 0.0000 1.0097
# 5 6.1357 -1.8772 4.9604 0.0000 25.4200 0.0000
# 6 0.0000 0.0000 0.0000 1.0097 0.0000 37.7650
#
#
#
# Elastic Compliance Matrix: (Units=1/GPa)
#
#
# Indices 1 2 3 4 5 6 
#
# 1 0.020104 -0.008118 -0.004747 0.000000 -0.004526 0.000000
# 2 -0.008118 0.019657 -0.001994 0.000000 0.003800 0.000000
# 3 -0.004747 -0.001994 0.015274 0.000000 -0.001982 0.000000
# 4 0.000000 0.000000 0.000000 0.040320 0.000000 -0.001078
# 5 -0.004526 0.003800 -0.001982 0.000000 0.041099 0.000000
# 6 0.000000 0.000000 0.000000 -0.001078 0.000000 0.026508
#
#
# Mechanical properties :
#
#
# Convention : Reuss Voigt Hill
#
# Bulk Modulus (GPa) = 39.50097 40.02129 39.76113
# Shear Modulus (GPa) = 24.86092 26.76326 25.81209
#
# Velocity S-wave (km/s) = 3.25548 3.37774 3.31717
# Velocity P-wave (km/s) = 5.56507 5.68094 5.62331
#
# Compressibility (1/GPa) = 0.02531584
#
# Stress axis : x y z
#
# Youngs Moduli (GPa) = 49.74163 50.87252 65.47145
#
# Poissons Ratio (x) = 0.41299 0.31082
# Poissons Ratio (y) = 0.40381 0.13054
# Poissons Ratio (z) = 0.23615 0.10143
#
# Static dielectric constant tensor:
#      x y z
#    x 1.916310 0.000000 0.017000 
#    y 0.000000 1.935920 0.000000 
#    z 0.017000 0.000000 1.819770 
# 
# From -- ./inp_files/73635.got.cif
#   From: 2010.05.17/outbox.cif.g08.bks.cpg/sg14_37_cif.got.tgz:73635.got - 2010.06.03 17:49:19.
