data_PCOD9245472
_publ_section_title
;
Structure prediction by ZEFSAII (Michael W. Deem and Ramdas Pophale) SiO2 
 PCOD9245472
Probable space group: P 21/C
;
_chemical_formula_sum "Si O2"
_cell_formula_units_Z 20
_cell_length_a 9.163181
_cell_length_b 12.253011
_cell_length_c 9.613983
_cell_angle_alpha 90.000000
_cell_angle_beta 47.118174
_cell_angle_gamma 90.000000
_cell_volume 790.958089
_symmetry_space_group_name_H-M "P 21/C"
_symmetry_group_IT_number 14
_symmetry_cell_setting 'monoclinic'
loop_
_space_group_symop_operation_xyz
x,y,z
-x,1/2+y,1/2-z
-x,-y,-z
x,1/2-y,1/2+z
loop_
_atom_site_type_symbol
_atom_site_label
_atom_site_fract_x
_atom_site_fract_y
_atom_site_fract_z
Si Si1 0.280970 0.369999 0.649767
Si Si2 0.730728 0.144118 0.323452
Si Si3 0.039009 0.454597 0.207092
Si Si4 0.842318 0.756588 0.026249
Si Si5 0.656014 0.161564 0.070962
O O1 0.100530 0.455644 0.779687
O O2 0.291764 0.335978 0.481189
O O3 0.489085 0.398495 0.586614
O O4 0.216747 0.260815 0.776649
O O5 0.601148 0.155373 0.268496
O O6 0.666841 0.217263 0.496615
O O7 0.937785 0.198032 0.139107
O O8 0.790786 0.021831 0.323696
O O9 0.869365 0.395632 0.409759
O O10 0.140772 0.365387 0.045012
#
# Coordination Sequence:
#
# PCOD9245472 Si02
#       5
#     4   4   4   4   4
#     4  11  22  38  59  87 116 147 189 241 285 328
#     4  10  21  39  60  83 114 153 191 230 282 344
#     4  10  21  38  61  84 112 154 194 228 277 346
#     4  10  21  39  60  83 114 153 191 230 282 344
#     4  11  22  38  59  87 116 147 189 241 285 328
#
# _framework density 25.285791
#
# number of rings (size 3 to 8) (size 9 to 14) (size 15 to 20)
#    0.000    1.600    0.000    6.600    0.000    3.200 
#    0.000   12.000    0.000    0.000    0.000    0.000 
#    0.000    0.000    0.000    0.000    0.000    0.000 
#
# Total GULP energy -111872.051482 kJ/mol
# GULP energy per Si atom -5593.602574 kJ/mol
# Density = 2.522824 g / cm^3
# Si number density = 25.285791 Si / 1000 Ang^3
#
#
#
# Elastic Constant Matrix: (Units=GPa)
#
#
# Indices 1 2 3 4 5 6 
#
# 1 139.3510 39.7649 9.5617 0.0000 4.1950 0.0000
# 2 39.7649 71.2679 -4.3418 0.0000 8.8284 0.0000
# 3 9.5617 -4.3418 31.6195 0.0000 -5.6993 0.0000
# 4 0.0000 0.0000 0.0000 20.1603 0.0000 5.6564
# 5 4.1950 8.8284 -5.6993 0.0000 38.3077 0.0000
# 6 0.0000 0.0000 0.0000 5.6564 0.0000 37.2260
#
#
#
# Elastic Compliance Matrix: (Units=1/GPa)
#
#
# Indices 1 2 3 4 5 6 
#
# 1 0.008886 -0.005130 -0.003446 0.000000 -0.000303 0.000000
# 2 -0.005130 0.017468 0.003417 0.000000 -0.002956 0.000000
# 3 -0.003446 0.003417 0.033975 0.000000 0.004644 0.000000
# 4 0.000000 0.000000 0.000000 0.051811 0.000000 -0.007873
# 5 -0.000303 -0.002956 0.004644 0.000000 0.027510 0.000000
# 6 0.000000 0.000000 0.000000 -0.007873 0.000000 0.028059
#
#
# Mechanical properties :
#
#
# Convention : Reuss Voigt Hill
#
# Bulk Modulus (GPa) = 19.99584 36.91198 28.45391
# Shear Modulus (GPa) = 25.68089 32.28903 28.98496
#
# Velocity S-wave (km/s) = 3.19034 3.57734 3.38937
# Velocity P-wave (km/s) = 4.63640 5.62963 5.15698
#
# Compressibility (1/GPa) = 0.05001041
#
# Stress axis : x y z
#
# Youngs Moduli (GPa) = 112.54071 57.24636 29.43376
#
# Poissons Ratio (x) = 0.29369 0.10143
# Poissons Ratio (y) = 0.57736 -0.10058
# Poissons Ratio (z) = 0.38783 -0.19563
#
# Static dielectric constant tensor:
#      x y z
#    x 2.059700 0.000000 0.007030 
#    y 0.000000 2.002350 0.000000 
#    z 0.007030 0.000000 1.971570 
# 
# From -- ./inp_files/24010.got.cif
#   From: 2010.05.17/outbox.cif.g08.bks.cpg/sg14_13_cif.got.tgz:24010.got - 2010.06.03 17:49:19.
