data_PCOD9245335
_publ_section_title
;
Structure prediction by ZEFSAII (Michael W. Deem and Ramdas Pophale) SiO2 
 PCOD9245335
Probable space group: P 21/C
;
_chemical_formula_sum "Si O2"
_cell_formula_units_Z 20
_cell_length_a 5.298104
_cell_length_b 16.114493
_cell_length_c 9.885548
_cell_angle_alpha 90.000000
_cell_angle_beta 95.829679
_cell_angle_gamma 90.000000
_cell_volume 839.626185
_symmetry_space_group_name_H-M "P 21/C"
_symmetry_group_IT_number 14
_symmetry_cell_setting 'monoclinic'
loop_
_space_group_symop_operation_xyz
x,y,z
-x,1/2+y,1/2-z
-x,-y,-z
x,1/2-y,1/2+z
loop_
_atom_site_type_symbol
_atom_site_label
_atom_site_fract_x
_atom_site_fract_y
_atom_site_fract_z
Si Si1 0.536915 0.342818 0.513164
Si Si2 0.876923 0.433474 0.889449
Si Si3 0.625986 0.655269 0.025486
Si Si4 0.959147 0.902423 0.982116
Si Si5 0.280558 0.411553 0.268947
O O1 0.457613 0.250488 0.471143
O O2 0.820953 0.351493 0.577485
O O3 0.524227 0.401579 0.378789
O O4 0.316488 0.380888 0.593944
O O5 0.798938 0.494158 0.763413
O O6 0.616788 0.396402 0.934818
O O7 0.000000 0.500000 0.000000
O O8 0.107276 0.368191 0.888216
O O9 0.674217 0.633456 0.869671
O O10 0.922673 0.872360 0.137573
O O11 0.000000 0.000000 0.000000
#
# Coordination Sequence:
#
# PCOD9245335 Si02
#       5
#     4   4   4   4   4
#     4  10  23  40  60  89 127 157 198 255 298 353
#     4  10  21  37  64  88 117 159 206 249 294 362
#     4  11  22  40  61  92 122 156 206 255 301 348
#     4  10  22  42  61  86 123 162 198 239 303 365
#     4   9  23  38  64  85 126 159 202 245 302 355
#
# _framework density 23.820124
#
# number of rings (size 3 to 8) (size 9 to 14) (size 15 to 20)
#    1.200    0.800    0.000    4.200    8.400    0.000 
#    7.200    0.000    0.000    0.000    0.000    0.000 
#    0.000    0.000    0.000    0.000    0.000    0.000 
#
# Total GULP energy -111505.594268 kJ/mol
# GULP energy per Si atom -5575.279713 kJ/mol
# Density = 2.376591 g / cm^3
# Si number density = 23.820124 Si / 1000 Ang^3
#
#
#
# Elastic Constant Matrix: (Units=GPa)
#
#
# Indices 1 2 3 4 5 6 
#
# 1 186.3011 49.4695 25.5596 0.0000 -27.7056 0.0000
# 2 49.4695 118.3043 9.1478 0.0000 -6.2326 0.0000
# 3 25.5596 9.1478 87.0451 0.0000 -1.6323 0.0000
# 4 0.0000 0.0000 0.0000 22.6391 0.0000 1.4158
# 5 -27.7056 -6.2326 -1.6323 0.0000 24.6254 0.0000
# 6 0.0000 0.0000 0.0000 1.4158 0.0000 43.2305
#
#
#
# Elastic Compliance Matrix: (Units=1/GPa)
#
#
# Indices 1 2 3 4 5 6 
#
# 1 0.007419 -0.002566 -0.001767 0.000000 0.007580 0.000000
# 2 -0.002566 0.009520 -0.000256 0.000000 -0.000495 0.000000
# 3 -0.001767 -0.000256 0.012010 0.000000 -0.001256 0.000000
# 4 0.000000 0.000000 0.000000 0.044262 0.000000 -0.001450
# 5 0.007580 -0.000495 -0.001256 0.000000 0.048928 0.000000
# 6 0.000000 0.000000 0.000000 -0.001450 0.000000 0.023179
#
#
# Mechanical properties :
#
#
# Convention : Reuss Voigt Hill
#
# Bulk Modulus (GPa) = 50.57978 62.22268 56.40123
# Shear Modulus (GPa) = 31.03926 38.59724 34.81825
#
# Velocity S-wave (km/s) = 3.61372 4.02974 3.82739
# Velocity P-wave (km/s) = 6.22030 6.91595 6.57733
#
# Compressibility (1/GPa) = 0.01977075
#
# Stress axis : x y z
#
# Youngs Moduli (GPa) = 134.79447 105.04644 83.26122
#
# Poissons Ratio (x) = 0.26957 0.14709
# Poissons Ratio (y) = 0.34591 0.02133
# Poissons Ratio (z) = 0.23812 0.02691
#
# Static dielectric constant tensor:
#      x y z
#    x 2.059910 0.000000 0.020480 
#    y 0.000000 1.880690 0.000000 
#    z 0.020480 0.000000 1.975140 
# 
# From -- ./inp_files/20750.got.cif
#   From: 2010.05.17/outbox.cif.g08.bks.cpg/sg14_11_cif.got.tgz:20750.got - 2010.06.03 17:49:19.
