data_PCOD9245118
_publ_section_title
;
Structure prediction by ZEFSAII (Michael W. Deem and Ramdas Pophale) SiO2 
 PCOD9245118
Probable space group: P 21/C
;
_chemical_formula_sum "Si O2"
_cell_formula_units_Z 20
_cell_length_a 16.156968
_cell_length_b 5.396131
_cell_length_c 9.722803
_cell_angle_alpha 90.000000
_cell_angle_beta 113.293327
_cell_angle_gamma 90.000000
_cell_volume 778.591078
_symmetry_space_group_name_H-M "P 21/C"
_symmetry_group_IT_number 14
_symmetry_cell_setting 'monoclinic'
loop_
_space_group_symop_operation_xyz
x,y,z
-x,1/2+y,1/2-z
-x,-y,-z
x,1/2-y,1/2+z
loop_
_atom_site_type_symbol
_atom_site_label
_atom_site_fract_x
_atom_site_fract_y
_atom_site_fract_z
Si Si1 0.065051 0.102501 0.425205
Si Si2 0.264713 0.926724 0.773700
Si Si3 0.105107 0.607482 0.365279
Si Si4 0.646642 0.919612 0.727195
Si Si5 0.578805 0.613382 0.460012
O O1 0.106868 0.374676 0.469222
O O2 0.999154 0.138275 0.249636
O O3 0.132712 0.876883 0.440054
O O4 0.000000 0.000000 0.500000
O O5 0.165814 0.943981 0.772208
O O6 0.294681 0.666630 0.730665
O O7 0.293280 0.172016 0.708974
O O8 0.330772 0.957970 0.949111
O O9 0.603591 0.874988 0.547947
O O10 0.569061 0.904714 0.791344
O O11 0.500000 0.500000 0.500000
#
# Coordination Sequence:
#
# PCOD9245118 Si02
#       5
#     4   4   4   4   4
#     4  10  21  36  62  88 125 165 210 259 315 380
#     4  10  24  40  66  93 133 170 221 270 329 389
#     4  10  21  39  58  92 123 163 213 257 318 379
#     4  10  25  43  67  97 129 176 217 271 329 389
#     4  10  26  44  70  95 136 170 223 272 329 396
#
# _framework density 25.687425999999999
#
# number of rings (size 3 to 8) (size 9 to 14) (size 15 to 20)
#    1.200    0.800    0.000    1.800    5.600    4.000 
#    0.000    0.000    0.000    0.000    0.000    0.000 
#    0.000    0.000    0.000    0.000    0.000    0.000 
#
# Total GULP energy -111670.862204 kJ/mol
# GULP energy per Si atom -5583.543110 kJ/mol
# Density = 2.562896 g / cm^3
# Si number density = 25.687426 Si / 1000 Ang^3
#
#
#
# Elastic Constant Matrix: (Units=GPa)
#
#
# Indices 1 2 3 4 5 6 
#
# 1 70.4798 16.0749 5.3709 0.0000 -10.7733 0.0000
# 2 16.0749 156.7479 3.4984 0.0000 -0.4834 0.0000
# 3 5.3709 3.4984 63.5090 0.0000 -17.7450 0.0000
# 4 0.0000 0.0000 0.0000 25.0416 0.0000 -7.6396
# 5 -10.7733 -0.4834 -17.7450 0.0000 46.5982 0.0000
# 6 0.0000 0.0000 0.0000 -7.6396 0.0000 43.6473
#
#
#
# Elastic Compliance Matrix: (Units=1/GPa)
#
#
# Indices 1 2 3 4 5 6 
#
# 1 0.015072 -0.001530 -0.000248 0.000000 0.003374 0.000000
# 2 -0.001530 0.006543 -0.000348 0.000000 -0.000418 0.000000
# 3 -0.000248 -0.000348 0.017647 0.000000 0.006659 0.000000
# 4 0.000000 0.000000 0.000000 0.042186 0.000000 0.007384
# 5 0.003374 -0.000418 0.006659 0.000000 0.024772 0.000000
# 6 0.000000 0.000000 0.000000 0.007384 0.000000 0.024203
#
#
# Mechanical properties :
#
#
# Convention : Reuss Voigt Hill
#
# Bulk Modulus (GPa) = 28.56229 37.84724 33.20476
# Shear Modulus (GPa) = 34.16615 40.77691 37.47153
#
# Velocity S-wave (km/s) = 3.65097 3.98857 3.82350
# Velocity P-wave (km/s) = 5.37737 5.99812 5.69620
#
# Compressibility (1/GPa) = 0.03501120
#
# Stress axis : x y z
#
# Youngs Moduli (GPa) = 66.34807 152.83447 56.66838
#
# Poissons Ratio (x) = 0.23380 0.01403
# Poissons Ratio (y) = 0.10150 0.01972
# Poissons Ratio (z) = 0.01642 0.05317
#
# Static dielectric constant tensor:
#      x y z
#    x 2.065690 0.000000 0.050110 
#    y 0.000000 2.058680 0.000000 
#    z 0.050110 0.000000 2.126580 
# 
# From -- ./inp_files/31112.got.cif
#   From: 2010.05.17/outbox.cif.g08.bks.cpg/sg14_16_cif.got.tgz:31112.got - 2010.06.03 17:49:19.
