data_PCOD9245894
_publ_section_title
;
Structure prediction by ZEFSAII (Michael W. Deem and Ramdas Pophale) SiO2 
 PCOD9245894
Probable space group: P 21/C
;
_chemical_formula_sum "Si O2"
_cell_formula_units_Z 32
_cell_length_a 29.632899
_cell_length_b 10.989569
_cell_length_c 13.648264
_cell_angle_alpha 90.000000
_cell_angle_beta 163.206591
_cell_angle_gamma 90.000000
_cell_volume 1284.139876
_symmetry_space_group_name_H-M "P 21/C"
_symmetry_group_IT_number 14
_symmetry_cell_setting 'monoclinic'
loop_
_space_group_symop_operation_xyz
x,y,z
-x,1/2+y,1/2-z
-x,-y,-z
x,1/2-y,1/2+z
loop_
_atom_site_type_symbol
_atom_site_label
_atom_site_fract_x
_atom_site_fract_y
_atom_site_fract_z
Si Si1 0.930527 0.376490 0.899339
Si Si2 0.206907 0.976750 0.689384
Si Si3 0.478494 0.357804 0.963789
Si Si4 0.245470 0.227622 0.131295
Si Si5 0.552124 0.975653 0.951132
Si Si6 0.059170 0.840788 0.194109
Si Si7 0.769694 0.758961 0.193298
Si Si8 0.315691 0.624091 0.092594
O O1 0.829578 0.412688 0.784044
O O2 0.873115 0.296223 0.686786
O O3 0.000000 0.500000 0.000000
O O4 0.067835 0.291742 0.230106
O O5 0.121057 0.910778 0.419316
O O6 0.388122 0.974616 0.029130
O O7 0.155146 0.116562 0.604991
O O8 0.346970 0.352971 0.772425
O O9 0.389400 0.303699 0.684405
O O10 0.500000 0.500000 0.000000
O O11 0.615203 0.261022 0.269106
O O12 0.329021 0.359349 0.292791
O O13 0.261278 0.182787 0.274827
O O14 0.596426 0.066113 0.131065
O O15 0.378989 0.933460 0.622838
O O16 0.136458 0.898926 0.255640
O O17 0.878995 0.811916 0.844749
#
# Coordination Sequence:
#
# PCOD9245894 Si02
#       8
#     4   4   4   4   4   4   4   4
#     4  12  22  36  69 102 139 180 233 293 356 417
#     4  10  21  39  64  94 134 186 227 287 352 426
#     4  11  24  42  69 103 138 185 234 285 370 428
#     4  10  21  41  67  95 134 185 233 284 352 424
#     4   8  18  41  63  84 131 186 219 284 351 401
#     4  11  22  38  67 102 135 180 235 292 350 413
#     4  11  22  43  68  94 140 189 227 291 360 412
#     4   9  20  39  66  95 135 176 236 286 342 436
#
# _framework density 24.919404
#
# number of rings (size 3 to 8) (size 9 to 14) (size 15 to 20)
#    0.000    1.750    3.750    0.000    3.500    0.000 
#    6.750    8.125    0.000    0.000    0.000    0.000 
#    0.000    0.000    0.000    0.000    0.000    0.000 
#
# Total GULP energy -178323.700535 kJ/mol
# GULP energy per Si atom -5572.615642 kJ/mol
# Density = 2.486269 g / cm^3
# Si number density = 24.919404 Si / 1000 Ang^3
#
#
#
# Elastic Constant Matrix: (Units=GPa)
#
#
# Indices 1 2 3 4 5 6 
#
# 1 158.3706 24.2719 28.5469 0.0000 29.1735 0.0000
# 2 24.2719 81.4919 19.3786 0.0000 2.2915 0.0000
# 3 28.5469 19.3786 47.1314 0.0000 7.1840 0.0000
# 4 0.0000 0.0000 0.0000 26.0228 0.0000 -3.7758
# 5 29.1735 2.2915 7.1840 0.0000 39.6721 0.0000
# 6 0.0000 0.0000 0.0000 -3.7758 0.0000 39.6702
#
#
#
# Elastic Compliance Matrix: (Units=1/GPa)
#
#
# Indices 1 2 3 4 5 6 
#
# 1 0.008142 -0.001435 -0.003539 0.000000 -0.005263 0.000000
# 2 -0.001435 0.013856 -0.005005 0.000000 0.001162 0.000000
# 3 -0.003539 -0.005005 0.025687 0.000000 -0.001760 0.000000
# 4 0.000000 0.000000 0.000000 0.038966 0.000000 0.003709
# 5 -0.005263 0.001162 -0.001760 0.000000 0.029329 0.000000
# 6 0.000000 0.000000 0.000000 0.003709 0.000000 0.025561
#
#
# Mechanical properties :
#
#
# Convention : Reuss Voigt Hill
#
# Bulk Modulus (GPa) = 36.06648 47.93208 41.99928
# Shear Modulus (GPa) = 29.28418 35.39279 32.33848
#
# Velocity S-wave (km/s) = 3.43177 3.77276 3.60630
# Velocity P-wave (km/s) = 5.49613 6.18506 5.85074
#
# Compressibility (1/GPa) = 0.02772658
#
# Stress axis : x y z
#
# Youngs Moduli (GPa) = 122.82324 72.17016 38.93055
#
# Poissons Ratio (x) = 0.10360 0.13777
# Poissons Ratio (y) = 0.17631 0.19484
# Poissons Ratio (z) = 0.43466 0.36119
#
# Static dielectric constant tensor:
#      x y z
#    x 2.012820 0.000000 -0.001490 
#    y 0.000000 2.076000 0.000000 
#    z -0.001490 0.000000 2.127730 
# 
# From -- ./inp_files/52323.got.cif
#   From: 2010.05.17/outbox.cif.g08.bks.cpg/sg14_27_cif.got.tgz:52323.got - 2010.06.03 17:49:19.
