data_PCOD9245145
_publ_section_title
;
Structure prediction by ZEFSAII (Michael W. Deem and Ramdas Pophale) SiO2 
 PCOD9245145
Probable space group: P 21/C
;
_chemical_formula_sum "Si O2"
_cell_formula_units_Z 32
_cell_length_a 9.667124
_cell_length_b 13.746979
_cell_length_c 27.221014
_cell_angle_alpha 90.000000
_cell_angle_beta 151.423799
_cell_angle_gamma 90.000000
_cell_volume 1730.349651
_symmetry_space_group_name_H-M "P 21/C"
_symmetry_group_IT_number 14
_symmetry_cell_setting 'monoclinic'
loop_
_space_group_symop_operation_xyz
x,y,z
-x,1/2+y,1/2-z
-x,-y,-z
x,1/2-y,1/2+z
loop_
_atom_site_type_symbol
_atom_site_label
_atom_site_fract_x
_atom_site_fract_y
_atom_site_fract_z
Si Si1 0.985861 0.812282 0.002603
Si Si2 0.742931 0.143862 0.730866
Si Si3 0.815683 0.868144 0.843084
Si Si4 0.805271 0.024772 0.119429
Si Si5 0.510385 0.664838 0.737530
Si Si6 0.873637 0.589784 0.991672
Si Si7 0.233063 0.531965 0.194202
Si Si8 0.670107 0.359886 0.675871
O O1 0.988985 0.847404 0.947426
O O2 0.679615 0.849802 0.928887
O O3 0.974237 0.694629 0.002131
O O4 0.255510 0.847977 0.118473
O O5 0.632736 0.160048 0.752769
O O6 0.472050 0.091850 0.619846
O O7 0.784271 0.250031 0.719854
O O8 0.017922 0.074250 0.815028
O O9 0.660865 0.768672 0.779213
O O10 0.549155 0.938811 0.772204
O O11 0.009120 0.914289 0.861730
O O12 0.758211 0.088976 0.153243
O O13 0.500000 0.000000 0.000000
O O14 0.755245 0.583733 0.806286
O O15 0.995507 0.578080 0.084453
O O16 0.000000 0.500000 0.000000
O O17 0.220469 0.575115 0.244518
#
# Coordination Sequence:
#
# PCOD9245145 Si02
#       8
#     4   4   4   4   4   4   4   4
#     4  10  21  36  65  93 127 161 211 276 314 370
#     4  11  22  42  65  93 128 173 213 266 327 379
#     4  11  22  40  61 101 121 167 220 266 319 380
#     4  12  27  45  65  92 138 180 213 258 329 396
#     4  12  20  37  66  98 128 156 222 274 320 372
#     4  11  17  35  63  95 122 161 209 272 328 362
#     4  11  21  36  67  96 125 162 221 271 320 379
#     4  10  24  43  61  95 131 172 217 255 329 392
#
# _framework density 18.493371
#
# number of rings (size 3 to 8) (size 9 to 14) (size 15 to 20)
#    0.000    1.000    7.500    0.750    1.750    3.000 
#    0.000    0.625    0.000    0.000    0.000    0.000 
#    0.000    0.000    0.000    0.000    0.000    0.000 
#
# Total GULP energy -178828.897174 kJ/mol
# GULP energy per Si atom -5588.403037 kJ/mol
# Density = 1.845128 g / cm^3
# Si number density = 18.493371 Si / 1000 Ang^3
#
#
#
# Elastic Constant Matrix: (Units=GPa)
#
#
# Indices 1 2 3 4 5 6 
#
# 1 111.5095 49.0864 55.6584 0.0000 -11.8003 0.0000
# 2 49.0864 85.4330 18.6206 0.0000 3.1815 0.0000
# 3 55.6584 18.6206 120.9329 0.0000 -20.6305 0.0000
# 4 0.0000 0.0000 0.0000 32.0215 0.0000 -0.4972
# 5 -11.8003 3.1815 -20.6305 0.0000 17.4992 0.0000
# 6 0.0000 0.0000 0.0000 -0.4972 0.0000 26.6538
#
#
#
# Elastic Compliance Matrix: (Units=1/GPa)
#
#
# Indices 1 2 3 4 5 6 
#
# 1 0.015667 -0.008173 -0.004877 0.000000 0.006301 0.000000
# 2 -0.008173 0.016815 -0.000362 0.000000 -0.008995 0.000000
# 3 -0.004877 -0.000362 0.012542 0.000000 0.011563 0.000000
# 4 0.000000 0.000000 0.000000 0.031238 0.000000 0.000583
# 5 0.006301 -0.008995 0.011563 0.000000 0.076662 0.000000
# 6 0.000000 0.000000 0.000000 0.000583 0.000000 0.037529
#
#
# Mechanical properties :
#
#
# Convention : Reuss Voigt Hill
#
# Bulk Modulus (GPa) = 54.94756 62.73404 58.84080
# Shear Modulus (GPa) = 22.38697 28.20223 25.29460
#
# Velocity S-wave (km/s) = 3.48306 3.90935 3.70234
# Velocity P-wave (km/s) = 6.77880 7.37384 7.08257
#
# Compressibility (1/GPa) = 0.01819917
#
# Stress axis : x y z
#
# Youngs Moduli (GPa) = 63.82921 59.47099 79.73121
#
# Poissons Ratio (x) = 0.48607 0.38887
# Poissons Ratio (y) = 0.52169 0.02886
# Poissons Ratio (z) = 0.31131 0.02153
#
# Static dielectric constant tensor:
#      x y z
#    x 1.602860 0.000000 -0.013900 
#    y 0.000000 1.653650 0.000000 
#    z -0.013900 0.000000 1.641090 
# 
# From -- ./inp_files/65861.got.cif
#   From: 2010.05.17/outbox.cif.g08.bks.cpg/sg14_33_cif.got.tgz:65861.got - 2010.06.03 17:49:19.
