data_PCOD9245031
_publ_section_title
;
Structure prediction by ZEFSAII (Michael W. Deem and Ramdas Pophale) SiO2 
 PCOD9245031
Probable space group: P 21/C
;
_chemical_formula_sum "Si O2"
_cell_formula_units_Z 24
_cell_length_a 7.627943
_cell_length_b 16.184490
_cell_length_c 14.324309
_cell_angle_alpha 90.000000
_cell_angle_beta 142.878380
_cell_angle_gamma 90.000000
_cell_volume 1067.244245
_symmetry_space_group_name_H-M "P 21/C"
_symmetry_group_IT_number 14
_symmetry_cell_setting 'monoclinic'
loop_
_space_group_symop_operation_xyz
x,y,z
-x,1/2+y,1/2-z
-x,-y,-z
x,1/2-y,1/2+z
loop_
_atom_site_type_symbol
_atom_site_label
_atom_site_fract_x
_atom_site_fract_y
_atom_site_fract_z
Si Si1 0.173025 0.438349 0.506433
Si Si2 0.520006 0.616969 0.192875
Si Si3 0.856967 0.081162 0.142014
Si Si4 0.514961 0.745403 0.546376
Si Si5 0.904574 0.164898 0.742352
Si Si6 0.190219 0.512158 0.921461
O O1 0.410678 0.390282 0.668470
O O2 0.269293 0.500515 0.465547
O O3 0.961898 0.372502 0.367603
O O4 0.000000 0.500000 0.500000
O O5 0.833960 0.599717 0.277970
O O6 0.433028 0.703464 0.105629
O O7 0.295148 0.544339 0.066890
O O8 0.642512 0.157323 0.033307
O O9 0.970365 0.059410 0.295215
O O10 0.855631 0.731933 0.681852
O O11 0.408525 0.799787 0.413644
O O12 0.947496 0.091893 0.686349
O O13 0.500000 0.500000 0.000000
#
# Coordination Sequence:
#
# PCOD9245031 Si02
#       6
#     4   4   4   4   4   4
#     4   9  19  37  56  82 112 153 188 228 287 341
#     4   9  17  34  55  80 114 151 181 228 291 337
#     4   9  17  33  57  81 105 151 193 230 267 339
#     4  11  20  36  57  87 117 146 193 238 281 329
#     4  10  21  36  57  84 115 152 189 233 279 340
#     4   8  16  31  55  76 104 146 190 219 269 336
#
# _framework density 22.487821
#
# number of rings (size 3 to 8) (size 9 to 14) (size 15 to 20)
#    0.000    2.667    1.667    1.000    0.000    2.667 
#    6.000    0.000    0.000    5.000    0.000    0.000 
#    0.000    0.000    0.000    0.000    0.000    0.000 
#
# Total GULP energy -133660.248360 kJ/mol
# GULP energy per Si atom -5569.177015 kJ/mol
# Density = 2.243664 g / cm^3
# Si number density = 22.487821 Si / 1000 Ang^3
#
#
#
# Elastic Constant Matrix: (Units=GPa)
#
#
# Indices 1 2 3 4 5 6 
#
# 1 33.1253 4.6978 11.5225 0.0000 9.0991 0.0000
# 2 4.6978 96.6922 52.5589 0.0000 -13.4222 0.0000
# 3 11.5225 52.5589 147.4529 0.0000 -25.5094 0.0000
# 4 0.0000 0.0000 0.0000 63.9799 0.0000 4.1812
# 5 9.0991 -13.4222 -25.5094 0.0000 24.7608 0.0000
# 6 0.0000 0.0000 0.0000 4.1812 0.0000 19.1212
#
#
#
# Elastic Compliance Matrix: (Units=1/GPa)
#
#
# Indices 1 2 3 4 5 6 
#
# 1 0.038366 -0.001470 -0.006147 0.000000 -0.021228 0.000000
# 2 -0.001470 0.013037 -0.003914 0.000000 0.003575 0.000000
# 3 -0.006147 -0.003914 0.010564 0.000000 0.011020 0.000000
# 4 0.000000 0.000000 0.000000 0.015856 0.000000 -0.003467
# 5 -0.021228 0.003575 0.011020 0.000000 0.061478 0.000000
# 6 0.000000 0.000000 0.000000 -0.003467 0.000000 0.053056
#
#
# Mechanical properties :
#
#
# Convention : Reuss Voigt Hill
#
# Bulk Modulus (GPa) = 25.70240 46.09210 35.89725
# Shear Modulus (GPa) = 21.89273 35.47181 28.68227
#
# Velocity S-wave (km/s) = 3.12354 3.97593 3.57523
# Velocity P-wave (km/s) = 4.94600 6.45123 5.74810
#
# Compressibility (1/GPa) = 0.03890687
#
# Stress axis : x y z
#
# Youngs Moduli (GPa) = 26.06487 76.70397 94.66407
#
# Poissons Ratio (x) = 0.11272 0.58186
# Poissons Ratio (y) = 0.03830 0.37049
# Poissons Ratio (z) = 0.16021 0.30020
#
# Static dielectric constant tensor:
#      x y z
#    x 1.870680 0.000000 -0.021840 
#    y 0.000000 1.900480 0.000000 
#    z -0.021840 0.000000 1.880770 
# 
# From -- ./inp_files/9197.got.cif
#   From: 2010.05.17/outbox.cif.g08.bks.cpg/sg14_5_cif.got.tgz:9197.got - 2010.06.03 17:49:19.
