data_PCOD9245836
_publ_section_title
;
Structure prediction by ZEFSAII (Michael W. Deem and Ramdas Pophale) SiO2 
 PCOD9245836
Probable space group: P 21/C
;
_chemical_formula_sum "Si O2"
_cell_formula_units_Z 32
_cell_length_a 12.301311
_cell_length_b 18.816882
_cell_length_c 9.947951
_cell_angle_alpha 90.000000
_cell_angle_beta 128.331855
_cell_angle_gamma 90.000000
_cell_volume 1806.291405
_symmetry_space_group_name_H-M "P 21/C"
_symmetry_group_IT_number 14
_symmetry_cell_setting 'monoclinic'
loop_
_space_group_symop_operation_xyz
x,y,z
-x,1/2+y,1/2-z
-x,-y,-z
x,1/2-y,1/2+z
loop_
_atom_site_type_symbol
_atom_site_label
_atom_site_fract_x
_atom_site_fract_y
_atom_site_fract_z
Si Si1 0.815311 0.814587 0.328769
Si Si2 0.817275 0.676355 0.150647
Si Si3 0.618854 0.467505 0.183241
Si Si4 0.375254 0.968976 0.993960
Si Si5 0.511637 0.313047 0.110021
Si Si6 0.079393 0.035093 0.684881
Si Si7 0.486057 0.686507 0.581766
Si Si8 0.910213 0.520677 0.302845
O O1 0.850769 0.743346 0.272450
O O2 0.841286 0.808730 0.509725
O O3 0.892479 0.882807 0.327877
O O4 0.649811 0.829067 0.183558
O O5 0.895837 0.604414 0.254995
O O6 0.650187 0.666284 0.037756
O O7 0.609100 0.487073 0.334678
O O8 0.602832 0.382831 0.163711
O O9 0.758947 0.494053 0.225002
O O10 0.500000 0.500000 0.000000
O O11 0.227759 0.997783 0.829315
O O12 0.394896 0.884024 0.996961
O O13 0.500000 0.000000 0.000000
O O14 0.522251 0.288401 0.271408
O O15 0.553787 0.249699 0.046226
O O16 0.000000 0.000000 0.500000
O O17 0.980305 0.020822 0.734434
O O18 0.000000 0.500000 0.500000
#
# Coordination Sequence:
#
# PCOD9245836 Si02
#       8
#     4   4   4   4   4   4   4   4
#     4  10  21  39  63  92 123 169 212 262 319 387
#     4  10  21  39  63  91 126 164 216 260 319 386
#     4  11  23  40  65  92 125 163 213 261 316 375
#     4  11  23  40  65  93 123 163 214 263 314 377
#     4   9  19  37  60  90 120 157 203 263 312 368
#     4  12  25  43  65  93 133 171 216 265 322 383
#     4   9  19  37  60  90 123 152 207 262 312 368
#     4  12  25  43  63  95 133 172 215 267 321 388
#
# _framework density 17.715858000000001
#
# number of rings (size 3 to 8) (size 9 to 14) (size 15 to 20)
#    0.000    1.500    5.000    0.000    3.500    1.000 
#    0.000    2.500    0.000    0.000    0.000    0.000 
#    0.000    0.000    0.000    0.000    0.000    0.000 
#
# Total GULP energy -178545.379544 kJ/mol
# GULP energy per Si atom -5579.543111 kJ/mol
# Density = 1.767554 g / cm^3
# Si number density = 17.715858 Si / 1000 Ang^3
#
#
#
# Elastic Constant Matrix: (Units=GPa)
#
#
# Indices 1 2 3 4 5 6 
#
# 1 126.2045 64.6085 70.7474 0.0000 -14.7504 0.0000
# 2 64.6085 129.9821 73.8313 0.0000 -20.5940 0.0000
# 3 70.7474 73.8313 135.9036 0.0000 -11.8315 0.0000
# 4 0.0000 0.0000 0.0000 33.2797 0.0000 -6.2223
# 5 -14.7504 -20.5940 -11.8315 0.0000 29.4654 0.0000
# 6 0.0000 0.0000 0.0000 -6.2223 0.0000 29.3910
#
#
#
# Elastic Compliance Matrix: (Units=1/GPa)
#
#
# Indices 1 2 3 4 5 6 
#
# 1 0.012347 -0.003264 -0.004471 0.000000 0.002104 0.000000
# 2 -0.003264 0.012938 -0.004854 0.000000 0.005460 0.000000
# 3 -0.004471 -0.004854 0.012261 0.000000 -0.000708 0.000000
# 4 0.000000 0.000000 0.000000 0.031287 0.000000 0.006624
# 5 0.002104 0.005460 -0.000708 0.000000 0.038523 0.000000
# 6 0.000000 0.000000 0.000000 0.006624 0.000000 0.035426
#
#
# Mechanical properties :
#
#
# Convention : Reuss Voigt Hill
#
# Bulk Modulus (GPa) = 80.85777 90.05163 85.45470
# Shear Modulus (GPa) = 29.05564 30.62077 29.83820
#
# Velocity S-wave (km/s) = 4.05420 4.16196 4.10843
# Velocity P-wave (km/s) = 8.22532 8.60449 8.41704
#
# Compressibility (1/GPa) = 0.01236740
#
# Stress axis : x y z
#
# Youngs Moduli (GPa) = 80.99157 77.29089 81.55848
#
# Poissons Ratio (x) = 0.25229 0.36464
# Poissons Ratio (y) = 0.26437 0.39591
# Poissons Ratio (z) = 0.36211 0.37519
#
# Static dielectric constant tensor:
#      x y z
#    x 1.567830 0.000000 -0.012140 
#    y 0.000000 1.589190 0.000000 
#    z -0.012140 0.000000 1.553180 
# 
# From -- ./inp_files/13893.got.cif
#   From: 2010.05.17/outbox.cif.g08.bks.cpg/sg14_7_cif.got.tgz:13893.got - 2010.06.03 17:49:19.
