data_PCOD9245153
_publ_section_title
;
Structure prediction by ZEFSAII (Michael W. Deem and Ramdas Pophale) SiO2 
 PCOD9245153
Probable space group: P 21/C
;
_chemical_formula_sum "Si O2"
_cell_formula_units_Z 20
_cell_length_a 5.149690
_cell_length_b 8.597228
_cell_length_c 20.794442
_cell_angle_alpha 90.000000
_cell_angle_beta 60.108954
_cell_angle_gamma 90.000000
_cell_volume 798.165949
_symmetry_space_group_name_H-M "P 21/C"
_symmetry_group_IT_number 14
_symmetry_cell_setting 'monoclinic'
loop_
_space_group_symop_operation_xyz
x,y,z
-x,1/2+y,1/2-z
-x,-y,-z
x,1/2-y,1/2+z
loop_
_atom_site_type_symbol
_atom_site_label
_atom_site_fract_x
_atom_site_fract_y
_atom_site_fract_z
Si Si1 0.711951 0.989033 0.894664
Si Si2 0.564440 0.994097 0.592794
Si Si3 0.444473 0.205333 0.832879
Si Si4 0.340928 0.761212 0.510144
Si Si5 0.106651 0.391615 0.251321
O O1 0.436386 0.067885 0.888363
O O2 0.823993 0.124618 0.929812
O O3 0.610272 0.840514 0.946146
O O4 0.960759 0.964912 0.810063
O O5 0.698247 0.867342 0.625376
O O6 0.446352 0.882318 0.550872
O O7 0.762057 0.131617 0.537113
O O8 0.283468 0.068511 0.665455
O O9 0.337166 0.174896 0.774613
O O10 0.807531 0.211643 0.784172
#
# Coordination Sequence:
#
# PCOD9245153 Si02
#       5
#     4   4   4   4   4
#     4   8  19  38  69  87 130 169 207 257 316 389
#     4  10  21  36  68  93 130 163 214 269 309 382
#     4   9  22  41  66  93 121 165 218 261 312 376
#     4   9  18  39  61  98 131 163 209 259 329 367
#     4  10  22  40  69  87 128 163 220 252 319 371
#
# _framework density 25.057444
#
# number of rings (size 3 to 8) (size 9 to 14) (size 15 to 20)
#    1.200    1.600    0.000    0.000    2.800    3.200 
#    0.000   10.000   13.200    0.000    0.000    0.000 
#    0.000    0.000    0.000    0.000    0.000    0.000 
#
# Total GULP energy -111388.064085 kJ/mol
# GULP energy per Si atom -5569.403204 kJ/mol
# Density = 2.500041 g / cm^3
# Si number density = 25.057444 Si / 1000 Ang^3
#
#
#
# Elastic Constant Matrix: (Units=GPa)
#
#
# Indices 1 2 3 4 5 6 
#
# 1 107.1644 27.6350 1.0373 0.0000 11.9221 0.0000
# 2 27.6350 99.9741 53.5635 0.0000 1.4403 0.0000
# 3 1.0373 53.5635 247.1766 0.0000 30.8817 0.0000
# 4 0.0000 0.0000 0.0000 73.4136 0.0000 -5.5129
# 5 11.9221 1.4403 30.8817 0.0000 32.2373 0.0000
# 6 0.0000 0.0000 0.0000 -5.5129 0.0000 10.3315
#
#
#
# Elastic Compliance Matrix: (Units=1/GPa)
#
#
# Indices 1 2 3 4 5 6 
#
# 1 0.010841 -0.003671 0.001398 0.000000 -0.005184 0.000000
# 2 -0.003671 0.012685 -0.003217 0.000000 0.003873 0.000000
# 3 0.001398 -0.003217 0.005434 0.000000 -0.005579 0.000000
# 4 0.000000 0.000000 0.000000 0.014190 0.000000 0.007572
# 5 -0.005184 0.003873 -0.005579 0.000000 0.038108 0.000000
# 6 0.000000 0.000000 0.000000 0.007572 0.000000 0.100831
#
#
# Mechanical properties :
#
#
# Convention : Reuss Voigt Hill
#
# Bulk Modulus (GPa) = 55.61911 68.75407 62.18659
# Shear Modulus (GPa) = 25.11747 48.00177 36.55962
#
# Velocity S-wave (km/s) = 3.16950 4.38158 3.82387
# Velocity P-wave (km/s) = 5.96985 7.28669 6.66089
#
# Compressibility (1/GPa) = 0.01797943
#
# Stress axis : x y z
#
# Youngs Moduli (GPa) = 92.23955 78.83125 184.02559
#
# Poissons Ratio (x) = 0.28939 -0.25722
# Poissons Ratio (y) = 0.33861 0.59208
# Poissons Ratio (z) = -0.12893 0.25363
#
# Static dielectric constant tensor:
#      x y z
#    x 2.054980 0.000000 -0.014650 
#    y 0.000000 2.026800 0.000000 
#    z -0.014650 0.000000 2.000280 
# 
# From -- ./inp_files/63002.got.cif
#   From: 2010.05.17/outbox.cif.g08.bks.cpg/sg14_32_cif.got.tgz:63002.got - 2010.06.03 17:49:19.
