data_PCOD9245329
_publ_section_title
;
Structure prediction by ZEFSAII (Michael W. Deem and Ramdas Pophale) SiO2 
 PCOD9245329
Probable space group: P 21/C
;
_chemical_formula_sum "Si O2"
_cell_formula_units_Z 32
_cell_length_a 8.339317
_cell_length_b 8.603842
_cell_length_c 27.698904
_cell_angle_alpha 90.000000
_cell_angle_beta 128.227251
_cell_angle_gamma 90.000000
_cell_volume 1561.228015
_symmetry_space_group_name_H-M "P 21/C"
_symmetry_group_IT_number 14
_symmetry_cell_setting 'monoclinic'
loop_
_space_group_symop_operation_xyz
x,y,z
-x,1/2+y,1/2-z
-x,-y,-z
x,1/2-y,1/2+z
loop_
_atom_site_type_symbol
_atom_site_label
_atom_site_fract_x
_atom_site_fract_y
_atom_site_fract_z
Si Si1 0.031659 0.883041 0.549479
Si Si2 0.477326 0.929967 0.258931
Si Si3 0.856373 0.273389 0.754918
Si Si4 0.930994 0.656769 0.876441
Si Si5 0.145188 0.549568 0.829282
Si Si6 0.850886 0.635661 0.456476
Si Si7 0.512017 0.858009 0.647257
Si Si8 0.454099 0.009349 0.839593
O O1 0.270327 0.836376 0.593805
O O2 0.872381 0.750496 0.506207
O O3 0.005405 0.988097 0.591067
O O4 0.000000 0.000000 0.500000
O O5 0.299041 0.806926 0.236649
O O6 0.700076 0.858803 0.313161
O O7 0.454281 0.073022 0.292482
O O8 0.471259 0.977843 0.202320
O O9 0.725511 0.385919 0.695905
O O10 0.017185 0.389089 0.808753
O O11 0.925609 0.134841 0.733034
O O12 0.922827 0.775813 0.920189
O O13 0.086425 0.669067 0.860828
O O14 0.377567 0.489158 0.865098
O O15 0.632092 0.563518 0.404841
O O16 0.000000 0.500000 0.500000
O O17 0.601015 0.685933 0.657076
#
# Coordination Sequence:
#
# PCOD9245329 Si02
#       8
#     4   4   4   4   4   4   4   4
#     4   9  20  40  64  88 116 161 220 259 305 349
#     4  10  21  37  63  96 118 159 210 257 316 353
#     4  11  23  39  59  92 134 165 193 257 311 393
#     4  10  21  40  65  89 120 159 210 263 303 384
#     4  11  24  39  60  94 132 167 199 240 336 382
#     4  11  22  38  63  94 117 159 213 276 301 342
#     4  10  22  38  61  92 127 165 197 258 312 386
#     4  12  21  36  65  91 127 156 213 260 308 370
#
# _framework density 20.496687000000001
#
# number of rings (size 3 to 8) (size 9 to 14) (size 15 to 20)
#    0.000    1.500    3.750    1.500    3.500    1.000 
#    0.000    3.750    0.000    1.500    0.000    0.000 
#    0.000    0.000    0.000    0.000    0.000    0.000 
#
# Total GULP energy -178423.583675 kJ/mol
# GULP energy per Si atom -5575.736990 kJ/mol
# Density = 2.045004 g / cm^3
# Si number density = 20.496687 Si / 1000 Ang^3
#
#
#
# Elastic Constant Matrix: (Units=GPa)
#
#
# Indices 1 2 3 4 5 6 
#
# 1 45.6856 8.8043 14.9549 0.0000 -12.0899 0.0000
# 2 8.8043 80.4448 3.8203 0.0000 3.9332 0.0000
# 3 14.9549 3.8203 56.9012 0.0000 14.2730 0.0000
# 4 0.0000 0.0000 0.0000 37.0993 0.0000 4.7650
# 5 -12.0899 3.9332 14.2730 0.0000 24.9580 0.0000
# 6 0.0000 0.0000 0.0000 4.7650 0.0000 35.2852
#
#
#
# Elastic Compliance Matrix: (Units=1/GPa)
#
#
# Indices 1 2 3 4 5 6 
#
# 1 0.034768 -0.004360 -0.015460 0.000000 0.026371 0.000000
# 2 -0.004360 0.013082 0.001535 0.000000 -0.005052 0.000000
# 3 -0.015460 0.001535 0.027405 0.000000 -0.023403 0.000000
# 4 0.000000 0.000000 0.000000 0.027430 0.000000 -0.003704
# 5 0.026371 -0.005052 -0.023403 0.000000 0.067021 0.000000
# 6 0.000000 0.000000 0.000000 -0.003704 0.000000 0.028841
#
#
# Mechanical properties :
#
#
# Convention : Reuss Voigt Hill
#
# Bulk Modulus (GPa) = 25.85015 26.46563 26.15789
# Shear Modulus (GPa) = 20.16015 29.83196 24.99606
#
# Velocity S-wave (km/s) = 3.13961 3.81918 3.49595
# Velocity P-wave (km/s) = 5.07761 5.69108 5.39307
#
# Compressibility (1/GPa) = 0.03868449
#
# Stress axis : x y z
#
# Youngs Moduli (GPa) = 28.76179 76.43972 36.48977
#
# Poissons Ratio (x) = 0.33331 0.56413
# Poissons Ratio (y) = 0.12541 -0.05600
# Poissons Ratio (z) = 0.44466 -0.11732
#
# Static dielectric constant tensor:
#      x y z
#    x 1.718550 0.000000 -0.049710 
#    y 0.000000 1.825570 0.000000 
#    z -0.049710 0.000000 1.704720 
# 
# From -- ./inp_files/71960.got.cif
#   From: 2010.05.17/outbox.cif.g08.bks.cpg/sg14_36_cif.got.tgz:71960.got - 2010.06.03 17:49:19.
