data_PCOD9245185
_publ_section_title
;
Structure prediction by ZEFSAII (Michael W. Deem and Ramdas Pophale) SiO2 
 PCOD9245185
Probable space group: P 21/C
;
_chemical_formula_sum "Si O2"
_cell_formula_units_Z 32
_cell_length_a 28.136553
_cell_length_b 5.054621
_cell_length_c 13.223603
_cell_angle_alpha 90.000000
_cell_angle_beta 43.300376
_cell_angle_gamma 90.000000
_cell_volume 1289.797165
_symmetry_space_group_name_H-M "P 21/C"
_symmetry_group_IT_number 14
_symmetry_cell_setting 'monoclinic'
loop_
_space_group_symop_operation_xyz
x,y,z
-x,1/2+y,1/2-z
-x,-y,-z
x,1/2-y,1/2+z
loop_
_atom_site_type_symbol
_atom_site_label
_atom_site_fract_x
_atom_site_fract_y
_atom_site_fract_z
Si Si1 0.231260 0.573288 0.974126
Si Si2 0.112992 0.816551 0.034026
Si Si3 0.793907 0.569122 0.348148
Si Si4 0.347807 0.309489 0.491041
Si Si5 0.975113 0.898302 0.690466
Si Si6 0.626749 0.189850 0.684143
Si Si7 0.932368 0.690908 0.565492
Si Si8 0.486944 0.070180 0.838955
O O1 0.180104 0.656345 0.962682
O O2 0.219633 0.286712 0.041860
O O3 0.213251 0.782007 0.091669
O O4 0.313014 0.626940 0.829000
O O5 0.041527 0.655792 0.156530
O O6 0.095262 0.046856 0.141734
O O7 0.103793 0.956234 0.940194
O O8 0.732042 0.628247 0.364352
O O9 0.867852 0.609734 0.183271
O O10 0.365350 0.514188 0.371600
O O11 0.406457 0.367672 0.483371
O O12 0.355947 0.014131 0.435039
O O13 0.960347 0.659323 0.635877
O O14 0.006215 0.144340 0.581010
O O15 0.546028 0.130806 0.830023
O O16 0.504893 0.276670 0.719247
#
# Coordination Sequence:
#
# PCOD9245185 Si02
#       8
#     4   4   4   4   4   4   4   4
#     4  10  22  36  58  82 115 150 188 236 287 339
#     4  12  24  39  62  83 115 151 193 240 294 347
#     4  10  21  37  57  82 116 149 189 236 288 338
#     4   8  14  25  43  71 103 142 178 224 274 322
#     4  11  25  42  60  87 112 147 197 242 293 345
#     4   8  14  26  42  71 104 141 178 224 274 321
#     4  11  25  41  61  85 114 152 192 242 291 351
#     4   8  12  20  39  65 102 137 176 220 268 318
#
# _framework density 24.810103999999999
#
# number of rings (size 3 to 8) (size 9 to 14) (size 15 to 20)
#    0.000    2.250    2.500    0.375    5.250    0.000 
#    0.000    0.000    0.000    0.000    0.000    0.875 
#    0.000    1.000    0.000    1.250    0.000    0.250 
#
# Total GULP energy -178610.955244 kJ/mol
# GULP energy per Si atom -5581.592351 kJ/mol
# Density = 2.475364 g / cm^3
# Si number density = 24.810104 Si / 1000 Ang^3
#
#
#
# Elastic Constant Matrix: (Units=GPa)
#
#
# Indices 1 2 3 4 5 6 
#
# 1 178.1107 21.3478 57.5074 0.0000 -52.5957 0.0000
# 2 21.3478 109.5878 16.2832 0.0000 5.4300 0.0000
# 3 57.5074 16.2832 43.2273 0.0000 -19.7213 0.0000
# 4 0.0000 0.0000 0.0000 12.0083 0.0000 -3.2823
# 5 -52.5957 5.4300 -19.7213 0.0000 43.2459 0.0000
# 6 0.0000 0.0000 0.0000 -3.2823 0.0000 24.9257
#
#
#
# Elastic Compliance Matrix: (Units=1/GPa)
#
#
# Indices 1 2 3 4 5 6 
#
# 1 0.012440 -0.001209 -0.011519 0.000000 0.010028 0.000000
# 2 -0.001209 0.010257 -0.004437 0.000000 -0.004781 0.000000
# 3 -0.011519 -0.004437 0.042922 0.000000 0.006121 0.000000
# 4 0.000000 0.000000 0.000000 0.086385 0.000000 0.011376
# 5 0.010028 -0.004781 0.006121 0.000000 0.038712 0.000000
# 6 0.000000 0.000000 0.000000 0.011376 0.000000 0.041617
#
#
# Mechanical properties :
#
#
# Convention : Reuss Voigt Hill
#
# Bulk Modulus (GPa) = 31.95990 57.91141 44.93565
# Shear Modulus (GPa) = 18.04460 31.75513 24.89986
#
# Velocity S-wave (km/s) = 2.69979 3.58149 3.17143
# Velocity P-wave (km/s) = 4.75692 6.36359 5.61799
#
# Compressibility (1/GPa) = 0.03128921
#
# Stress axis : x y z
#
# Youngs Moduli (GPa) = 80.38706 97.49701 23.29816
#
# Poissons Ratio (x) = 0.11784 0.26837
# Poissons Ratio (y) = 0.09716 0.10337
# Poissons Ratio (z) = 0.92598 0.43259
#
# Static dielectric constant tensor:
#      x y z
#    x 2.123290 0.000000 0.027100 
#    y 0.000000 1.994450 0.000000 
#    z 0.027100 0.000000 2.068720 
# 
# From -- ./inp_files/52167.got.cif
#   From: 2010.05.17/outbox.cif.g08.bks.cpg/sg14_27_cif.got.tgz:52167.got - 2010.06.03 17:49:19.
