data_PCOD9245019
_publ_section_title
;
Structure prediction by ZEFSAII (Michael W. Deem and Ramdas Pophale) SiO2 
 PCOD9245019
Probable space group: P 21/C
;
_chemical_formula_sum "Si O2"
_cell_formula_units_Z 32
_cell_length_a 12.552937
_cell_length_b 26.639219
_cell_length_c 14.494573
_cell_angle_alpha 90.000000
_cell_angle_beta 160.287777
_cell_angle_gamma 90.000000
_cell_volume 1634.871330
_symmetry_space_group_name_H-M "P 21/C"
_symmetry_group_IT_number 14
_symmetry_cell_setting 'monoclinic'
loop_
_space_group_symop_operation_xyz
x,y,z
-x,1/2+y,1/2-z
-x,-y,-z
x,1/2-y,1/2+z
loop_
_atom_site_type_symbol
_atom_site_label
_atom_site_fract_x
_atom_site_fract_y
_atom_site_fract_z
Si Si1 0.408118 0.724246 0.204655
Si Si2 0.956358 0.463431 0.333541
Si Si3 0.132756 0.374654 0.872085
Si Si4 0.734181 0.862561 0.857356
Si Si5 0.664440 0.724191 0.620247
Si Si6 0.534732 0.671924 0.699184
Si Si7 0.441855 0.832132 0.439656
Si Si8 0.484721 0.524186 0.845026
O O1 0.518060 0.675171 0.238716
O O2 0.544553 0.718432 0.418518
O O3 0.504921 0.774570 0.228000
O O4 0.036805 0.728304 0.914890
O O5 0.729837 0.462938 0.239739
O O6 0.160587 0.412803 0.503590
O O7 0.216179 0.507795 0.554286
O O8 0.715187 0.477552 0.056232
O O9 0.359027 0.342347 0.989372
O O10 0.780939 0.362166 0.550819
O O11 0.183387 0.355651 0.017513
O O12 0.285106 0.429792 0.989430
O O13 0.074697 0.836920 0.118454
O O14 0.564169 0.869435 0.619851
O O15 0.587520 0.683199 0.634775
O O16 0.515506 0.776384 0.533847
#
# Coordination Sequence:
#
# PCOD9245019 Si02
#       8
#     4   4   4   4   4   4   4   4
#     4  12  24  40  59  86 118 160 201 243 288 351
#     4  10  21  36  56  87 119 157 188 246 295 363
#     4  12  23  38  59  90 119 165 194 236 297 359
#     4  12  24  37  60  89 121 165 199 233 301 358
#     4  12  25  41  57  85 124 159 202 248 280 338
#     4  12  24  39  60  87 118 160 204 238 291 353
#     4  12  22  35  59  87 124 158 198 239 282 355
#     4  10  21  36  57  86 123 151 194 240 302 356
#
# _framework density 19.573405000000001
#
# number of rings (size 3 to 8) (size 9 to 14) (size 15 to 20)
#    0.000    0.500    5.000    4.500    5.250    0.000 
#    0.000    0.000    0.000    0.000    0.000   17.500 
#    0.000    0.000    0.000    0.000    0.000    0.000 
#
# Total GULP energy -178743.974456 kJ/mol
# GULP energy per Si atom -5585.749202 kJ/mol
# Density = 1.952885 g / cm^3
# Si number density = 19.573405 Si / 1000 Ang^3
#
#
#
# Elastic Constant Matrix: (Units=GPa)
#
#
# Indices 1 2 3 4 5 6 
#
# 1 58.0674 -4.3280 7.8907 0.0000 -24.5680 0.0000
# 2 -4.3280 59.7090 -13.2577 0.0000 -7.1575 0.0000
# 3 7.8907 -13.2577 25.1328 0.0000 -49.4627 0.0000
# 4 0.0000 0.0000 0.0000 37.6862 0.0000 -1.3548
# 5 -24.5680 -7.1575 -49.4627 0.0000 17.9139 0.0000
# 6 0.0000 0.0000 0.0000 -1.3548 0.0000 9.4003
#
#
#
# Elastic Compliance Matrix: (Units=1/GPa)
#
#
# Indices 1 2 3 4 5 6 
#
# 1 0.017724 -0.000962 -0.009249 0.000000 -0.001614 0.000000
# 2 -0.000962 0.015060 -0.003945 0.000000 -0.006194 0.000000
# 3 -0.009249 -0.003945 -0.002830 0.000000 -0.022073 0.000000
# 4 0.000000 0.000000 0.000000 0.026673 0.000000 0.003844
# 5 -0.001614 -0.006194 -0.022073 0.000000 -0.009813 0.000000
# 6 0.000000 0.000000 0.000000 0.003844 0.000000 0.106933
#
#
# Mechanical properties :
#
#
# Convention : Reuss Voigt Hill
#
# Bulk Modulus (GPa) = 608.81235 13.72436 311.26836
# Shear Modulus (GPa) = 27.38141 23.17369 25.27755
#
# Velocity S-wave (km/s) = 3.74426 3.44457 3.59754
# Velocity P-wave (km/s) = 18.17714 4.77986 13.29014
#
# Compressibility (1/GPa) = 0.00164254
#
# Stress axis : x y z
#
# Youngs Moduli (GPa) = 56.42211 66.40230 -353.39544
#
# Poissons Ratio (x) = 0.06390 -3.26839
# Poissons Ratio (y) = 0.05430 -1.39403
# Poissons Ratio (z) = 0.52182 0.26194
#
# Static dielectric constant tensor:
#      x y z
#    x 1.688470 0.000000 -0.033310 
#    y 0.000000 1.748450 0.000000 
#    z -0.033310 0.000000 1.659330 
# 
# From -- ./inp_files/45584.got.cif
#   From: 2010.05.17/outbox.cif.g08.bks.cpg/sg14_23_cif.got.tgz:45584.got - 2010.06.03 17:49:19.
