data_PCOD9245953
_publ_section_title
;
Structure prediction by ZEFSAII (Michael W. Deem and Ramdas Pophale) SiO2 
 PCOD9245953
Probable space group: P 21/C
;
_chemical_formula_sum "Si O2"
_cell_formula_units_Z 26
_cell_length_a 20.239803
_cell_length_b 7.984563
_cell_length_c 9.224836
_cell_angle_alpha 90.000000
_cell_angle_beta 134.889818
_cell_angle_gamma 90.000000
_cell_volume 1056.172001
_symmetry_space_group_name_H-M "P 21/C"
_symmetry_group_IT_number 14
_symmetry_cell_setting 'monoclinic'
loop_
_space_group_symop_operation_xyz
x,y,z
-x,1/2+y,1/2-z
-x,-y,-z
x,1/2-y,1/2+z
loop_
_atom_site_type_symbol
_atom_site_label
_atom_site_fract_x
_atom_site_fract_y
_atom_site_fract_z
Si Si1 0.569274 0.428333 0.390853
Si Si2 0.270434 0.245396 0.541543
Si Si3 0.204792 0.446559 0.678846
Si Si4 0.528799 0.740964 0.013527
Si Si5 0.000000 0.000000 0.000000
Si Si6 0.152479 0.564316 0.965681
Si Si7 0.230481 0.705076 0.350984
O O1 0.547021 0.294533 0.484307
O O2 0.546594 0.600938 0.434838
O O3 0.674865 0.398907 0.503295
O O4 0.504735 0.399896 0.150130
O O5 0.210795 0.393189 0.521835
O O6 0.254754 0.201172 0.349736
O O7 0.375697 0.281017 0.750523
O O8 0.230369 0.075932 0.554399
O O9 0.252732 0.619314 0.801078
O O10 0.099965 0.461472 0.574470
O O11 0.056584 0.991413 0.245015
O O12 0.186643 0.728764 0.931151
O O13 0.153176 0.611615 0.134331
#
# Coordination Sequence:
#
# PCOD9245953 Si02
#       7
#     4   4   4   4   2   4   4
#     4  11  24  39  63  88 125 164 215 261 308 366
#     4  10  21  41  59  91 126 169 199 264 312 371
#     4  10  23  39  67  89 129 160 209 253 319 370
#     4  11  24  40  61  90 122 168 210 267 305 369
#     4   8  20  40  64  94 114 160 196 254 292 374
#     4  10  21  39  66  89 129 161 208 254 320 367
#     4  10  21  40  60  91 124 171 202 259 312 377
#
# _framework density 24.617204999999998
#
# number of rings (size 3 to 8) (size 9 to 14) (size 15 to 20)
#    0.000    2.154    1.538    1.846    8.615    6.769 
#    5.538    0.000    0.000   14.769    0.000    0.000 
#    0.000    0.000    0.000    0.000    0.000    0.000 
#
# Total GULP energy -145025.920564 kJ/mol
# GULP energy per Si atom -5577.920022 kJ/mol
# Density = 2.456118 g / cm^3
# Si number density = 24.617205 Si / 1000 Ang^3
#
#
#
# Elastic Constant Matrix: (Units=GPa)
#
#
# Indices 1 2 3 4 5 6 
#
# 1 90.7361 4.0754 48.7081 0.0000 6.3663 0.0000
# 2 4.0754 57.2486 30.6937 0.0000 -2.6063 0.0000
# 3 48.7081 30.6937 169.1339 0.0000 12.1924 0.0000
# 4 0.0000 0.0000 0.0000 37.2675 0.0000 -34.4773
# 5 6.3663 -2.6063 12.1924 0.0000 45.2600 0.0000
# 6 0.0000 0.0000 0.0000 -34.4773 0.0000 20.0233
#
#
#
# Elastic Compliance Matrix: (Units=1/GPa)
#
#
# Indices 1 2 3 4 5 6 
#
# 1 0.013134 0.001144 -0.003938 0.000000 -0.000721 0.000000
# 2 0.001144 0.019648 -0.004043 0.000000 0.002060 0.000000
# 3 -0.003938 -0.004043 0.007911 0.000000 -0.001810 0.000000
# 4 0.000000 0.000000 0.000000 -0.045254 0.000000 -0.077921
# 5 -0.000721 0.002060 -0.001810 0.000000 0.022802 0.000000
# 6 0.000000 0.000000 0.000000 -0.077921 0.000000 -0.084227
#
#
# Mechanical properties :
#
#
# Convention : Reuss Voigt Hill
#
# Bulk Modulus (GPa) = 37.01360 53.78588 45.39974
# Shear Modulus (GPa) = -115.46143 36.08625 -39.68759
#
# Velocity S-wave (km/s) = -6.85599 3.83286 -4.01956
# Velocity P-wave (km/s) = 6.89960 6.44081 1.74934
#
# Compressibility (1/GPa) = 0.02701710
#
# Stress axis : x y z
#
# Youngs Moduli (GPa) = 76.13738 50.89603 126.40911
#
# Poissons Ratio (x) = -0.05820 0.49780
# Poissons Ratio (y) = -0.08707 0.51113
# Poissons Ratio (z) = 0.29983 0.20579
#
# Static dielectric constant tensor:
#      x y z
#    x 1.930490 0.000000 -0.078800 
#    y 0.000000 2.053060 0.000000 
#    z -0.078800 0.000000 1.929160 
# 
# From -- ./inp_files/18750.got.cif
#   From: 2010.05.17/outbox.cif.g08.bks.cpg/sg14_10_cif.got.tgz:18750.got - 2010.06.03 17:49:19.
