data_PCOD9245926
_publ_section_title
;
Structure prediction by ZEFSAII (Michael W. Deem and Ramdas Pophale) SiO2 
 PCOD9245926
Probable space group: P 21/C
;
_chemical_formula_sum "Si O2"
_cell_formula_units_Z 24
_cell_length_a 17.803220
_cell_length_b 10.681636
_cell_length_c 11.557989
_cell_angle_alpha 90.000000
_cell_angle_beta 31.188835
_cell_angle_gamma 90.000000
_cell_volume 1138.233186
_symmetry_space_group_name_H-M "P 21/C"
_symmetry_group_IT_number 14
_symmetry_cell_setting 'monoclinic'
loop_
_space_group_symop_operation_xyz
x,y,z
-x,1/2+y,1/2-z
-x,-y,-z
x,1/2-y,1/2+z
loop_
_atom_site_type_symbol
_atom_site_label
_atom_site_fract_x
_atom_site_fract_y
_atom_site_fract_z
Si Si1 0.852543 0.074506 0.259169
Si Si2 0.187364 0.030483 0.141004
Si Si3 0.166191 0.401999 0.421447
Si Si4 0.335179 0.354399 0.668037
Si Si5 0.902049 0.181466 0.575649
Si Si6 0.340351 0.617588 0.785253
O O1 0.917525 0.175425 0.085403
O O2 0.720400 0.128162 0.506164
O O3 0.798834 0.961046 0.250182
O O4 0.993000 0.064783 0.157838
O O5 0.294405 0.085478 0.097377
O O6 0.046801 0.119889 0.336216
O O7 0.138421 0.896221 0.255020
O O8 0.235513 0.035470 0.944684
O O9 0.223220 0.257870 0.344298
O O10 0.335705 0.468409 0.759880
O O11 0.504006 0.319649 0.437138
O O12 0.773436 0.172368 0.654559
#
# Coordination Sequence:
#
# PCOD9245926 Si02
#       6
#     4   4   4   4   4   4
#     4  11  24  39  65 101 127 165 217 273 323 377
#     4  10  21  39  65  93 125 171 214 264 321 382
#     4  11  24  38  67  99 128 163 219 273 319 380
#     4  10  23  44  65  93 129 173 211 263 331 389
#     4  10  21  40  64  92 126 170 214 261 323 386
#     4  10  23  44  66  91 132 172 212 264 328 388
#
# _framework density 21.085308999999999
#
# number of rings (size 3 to 8) (size 9 to 14) (size 15 to 20)
#    0.000    1.667    3.333    0.000    4.667    1.333 
#    6.000    1.667    0.000    0.000    0.000    0.000 
#    0.000    0.000    0.000    0.000    0.000    0.000 
#
# Total GULP energy -133780.338304 kJ/mol
# GULP energy per Si atom -5574.180763 kJ/mol
# Density = 2.103732 g / cm^3
# Si number density = 21.085309 Si / 1000 Ang^3
#
#
#
# Elastic Constant Matrix: (Units=GPa)
#
#
# Indices 1 2 3 4 5 6 
#
# 1 53.4977 11.8285 32.8490 0.0000 -4.8491 0.0000
# 2 11.8285 59.2664 -4.4374 0.0000 4.4115 0.0000
# 3 32.8490 -4.4374 42.5026 0.0000 -2.0229 0.0000
# 4 0.0000 0.0000 0.0000 2.3862 0.0000 -14.2371
# 5 -4.8491 4.4115 -2.0229 0.0000 33.0607 0.0000
# 6 0.0000 0.0000 0.0000 -14.2371 0.0000 18.0143
#
#
#
# Elastic Compliance Matrix: (Units=1/GPa)
#
#
# Indices 1 2 3 4 5 6 
#
# 1 0.042437 -0.011417 -0.033719 0.000000 0.005684 0.000000
# 2 -0.011417 0.020234 0.010760 0.000000 -0.003716 0.000000
# 3 -0.033719 0.010760 0.050556 0.000000 -0.003288 0.000000
# 4 0.000000 0.000000 0.000000 -0.112795 0.000000 -0.089144
# 5 0.005684 -0.003716 -0.003288 0.000000 0.031376 0.000000
# 6 0.000000 0.000000 0.000000 -0.089144 0.000000 -0.014941
#
#
# Mechanical properties :
#
#
# Convention : Reuss Voigt Hill
#
# Bulk Modulus (GPa) = 22.48607 26.19409 24.34008
# Shear Modulus (GPa) = 49.77917 18.36070 34.06994
#
# Velocity S-wave (km/s) = 4.86413 2.95410 4.02408
# Velocity P-wave (km/s) = 6.49875 4.90770 5.75844
#
# Compressibility (1/GPa) = 0.04447197
#
# Stress axis : x y z
#
# Youngs Moduli (GPa) = 23.56453 49.42205 19.78021
#
# Poissons Ratio (x) = 0.56427 0.66698
# Poissons Ratio (y) = 0.26904 -0.21283
# Poissons Ratio (z) = 0.79458 -0.53177
#
# Static dielectric constant tensor:
#      x y z
#    x 1.762710 0.000000 -0.001290 
#    y 0.000000 1.785310 0.000000 
#    z -0.001290 0.000000 1.764490 
# 
# From -- ./inp_files/24254.got.cif
#   From: 2010.05.17/outbox.cif.g08.bks.cpg/sg14_13_cif.got.tgz:24254.got - 2010.06.03 17:49:19.
