data_PCOD9245821
_publ_section_title
;
Structure prediction by ZEFSAII (Michael W. Deem and Ramdas Pophale) SiO2 
 PCOD9245821
Probable space group: P 21/C
;
_chemical_formula_sum "Si O2"
_cell_formula_units_Z 32
_cell_length_a 25.742749
_cell_length_b 5.367482
_cell_length_c 14.579461
_cell_angle_alpha 90.000000
_cell_angle_beta 137.082694
_cell_angle_gamma 90.000000
_cell_volume 1371.756962
_symmetry_space_group_name_H-M "P 21/C"
_symmetry_group_IT_number 14
_symmetry_cell_setting 'monoclinic'
loop_
_space_group_symop_operation_xyz
x,y,z
-x,1/2+y,1/2-z
-x,-y,-z
x,1/2-y,1/2+z
loop_
_atom_site_type_symbol
_atom_site_label
_atom_site_fract_x
_atom_site_fract_y
_atom_site_fract_z
Si Si1 0.369654 0.565400 0.447566
Si Si2 0.765637 0.142573 0.666246
Si Si3 0.130346 0.434600 0.552434
Si Si4 0.981612 0.042535 0.779508
Si Si5 0.481612 0.457465 0.279508
Si Si6 0.319588 0.238743 0.056626
Si Si7 0.180412 0.761257 0.943374
Si Si8 0.265636 0.142573 0.666247
O O1 0.310190 0.793734 0.373524
O O2 0.460047 0.601101 0.561737
O O3 0.355334 0.450445 0.530207
O O4 0.335642 0.392572 0.324855
O O5 0.786625 0.338128 0.612927
O O6 0.835643 0.107427 0.824855
O O7 0.742425 0.897383 0.579836
O O8 0.144666 0.549555 0.469793
O O9 0.189810 0.206266 0.626476
O O10 0.039953 0.398900 0.438263
O O11 0.892039 0.085786 0.677782
O O12 0.005687 0.258697 0.737391
O O13 0.505686 0.241303 0.237391
O O14 0.392039 0.414213 0.177783
O O15 0.286624 0.161872 0.112927
O O16 0.242425 0.602617 0.079837
#
# Coordination Sequence:
#
# PCOD9245821 Si02
#       8
#     4   4   4   4   4   4   4   4
#     4  11  21  38  62  85 125 155 204 249 307 362
#     4  11  21  37  60  89 116 157 207 247 306 357
#     4  11  21  38  62  85 125 155 204 249 307 362
#     4  10  21  39  63  88 124 166 200 250 310 361
#     4  10  21  39  63  88 124 166 200 250 310 361
#     4  10  22  38  59  85 121 158 203 250 299 367
#     4  10  22  38  59  85 121 158 203 250 299 367
#     4  11  21  37  60  89 116 157 207 247 306 357
#
# _framework density 23.327749000000001
#
# number of rings (size 3 to 8) (size 9 to 14) (size 15 to 20)
#    0.000    1.500    5.000    0.750    0.000    1.000 
#    0.000    0.000    0.000    9.000    0.000    0.000 
#    0.000    0.000    0.000    0.000    0.000    0.000 
#
# Total GULP energy -178407.173112 kJ/mol
# GULP energy per Si atom -5575.224160 kJ/mol
# Density = 2.327465 g / cm^3
# Si number density = 23.327749 Si / 1000 Ang^3
#
#
#
# Elastic Constant Matrix: (Units=GPa)
#
#
# Indices 1 2 3 4 5 6 
#
# 1 58.0733 1.8522 27.0112 0.0000 -0.6912 0.0000
# 2 1.8522 39.2501 -2.9949 0.0000 -7.3633 0.0000
# 3 27.0112 -2.9949 173.7255 0.0000 22.4351 0.0000
# 4 0.0000 0.0000 0.0000 26.0466 0.0000 8.1319
# 5 -0.6912 -7.3633 22.4351 0.0000 36.9924 0.0000
# 6 0.0000 0.0000 0.0000 8.1319 0.0000 28.5469
#
#
#
# Elastic Compliance Matrix: (Units=1/GPa)
#
#
# Indices 1 2 3 4 5 6 
#
# 1 0.018760 -0.000726 -0.003207 0.000000 0.002151 0.000000
# 2 -0.000726 0.026504 -0.000119 0.000000 0.005334 0.000000
# 3 -0.003207 -0.000119 0.006796 0.000000 -0.004205 0.000000
# 4 0.000000 0.000000 0.000000 0.042141 0.000000 -0.012004
# 5 0.002151 0.005334 -0.004205 0.000000 0.030685 0.000000
# 6 0.000000 0.000000 0.000000 -0.012004 0.000000 0.038450
#
#
# Mechanical properties :
#
#
# Convention : Reuss Voigt Hill
#
# Bulk Modulus (GPa) = 22.75095 35.86510 29.30802
# Shear Modulus (GPa) = 26.86856 34.66254 30.76555
#
# Velocity S-wave (km/s) = 3.39748 3.85891 3.63552
# Velocity P-wave (km/s) = 5.01641 5.93824 5.49669
#
# Compressibility (1/GPa) = 0.04395421
#
# Stress axis : x y z
#
# Youngs Moduli (GPa) = 53.30454 37.73086 147.14814
#
# Poissons Ratio (x) = 0.02741 0.47193
# Poissons Ratio (y) = 0.03873 0.01751
# Poissons Ratio (z) = 0.17096 0.00449
#
# Static dielectric constant tensor:
#      x y z
#    x 1.967100 0.000000 0.055190 
#    y 0.000000 1.982010 0.000000 
#    z 0.055190 0.000000 1.930790 
# 
# From -- ./inp_files/48150.got.cif
#   From: 2010.05.17/outbox.cif.g08.bks.cpg/sg14_25_cif.got.tgz:48150.got - 2010.06.03 17:49:19.
