data_PCOD9245141
_publ_section_title
;
Structure prediction by ZEFSAII (Michael W. Deem and Ramdas Pophale) SiO2 
 PCOD9245141
Probable space group: P 21/C
;
_chemical_formula_sum "Si O2"
_cell_formula_units_Z 24
_cell_length_a 7.744347
_cell_length_b 11.384187
_cell_length_c 18.584945
_cell_angle_alpha 90.000000
_cell_angle_beta 140.415135
_cell_angle_gamma 90.000000
_cell_volume 1044.089668
_symmetry_space_group_name_H-M "P 21/C"
_symmetry_group_IT_number 14
_symmetry_cell_setting 'monoclinic'
loop_
_space_group_symop_operation_xyz
x,y,z
-x,1/2+y,1/2-z
-x,-y,-z
x,1/2-y,1/2+z
loop_
_atom_site_type_symbol
_atom_site_label
_atom_site_fract_x
_atom_site_fract_y
_atom_site_fract_z
Si Si1 0.619238 0.041353 0.440665
Si Si2 0.750109 0.777882 0.747299
Si Si3 0.757981 0.948015 0.326793
Si Si4 0.244251 0.836094 0.317174
Si Si5 0.063637 0.499254 0.381590
Si Si6 0.454968 0.584605 0.376359
O O1 0.675454 0.988714 0.378981
O O2 0.414001 0.943530 0.406260
O O3 0.463094 0.163864 0.376385
O O4 0.914886 0.056452 0.568460
O O5 0.643206 0.678434 0.766103
O O6 0.987666 0.714018 0.778656
O O7 0.879634 0.886229 0.832610
O O8 0.654187 0.038080 0.233848
O O9 0.439782 0.724935 0.372358
O O10 0.115403 0.890810 0.203585
O O11 0.253871 0.534719 0.374214
O O12 0.252743 0.464617 0.508100
#
# Coordination Sequence:
#
# PCOD9245141 Si02
#       6
#     4   4   4   4   4   4
#     4  10  26  44  63  97 137 163 225 265 312 411
#     4  10  22  42  67  91 130 172 212 275 322 369
#     4  11  24  43  64  95 129 182 209 259 341 374
#     4  10  21  41  64  94 128 168 215 274 318 374
#     4   9  20  40  57  98 122 158 223 268 304 386
#     4  10  21  36  64  89 126 167 215 261 326 372
#
# _framework density 22.986532
#
# number of rings (size 3 to 8) (size 9 to 14) (size 15 to 20)
#    0.000    2.000    1.667    0.000    7.000    2.000 
#    0.000    3.333    0.000    0.000    0.000    0.000 
#    0.000    0.000    0.000    0.000    0.000    0.000 
#
# Total GULP energy -134252.826224 kJ/mol
# GULP energy per Si atom -5593.867759 kJ/mol
# Density = 2.293421 g / cm^3
# Si number density = 22.986532 Si / 1000 Ang^3
#
#
#
# Elastic Constant Matrix: (Units=GPa)
#
#
# Indices 1 2 3 4 5 6 
#
# 1 64.2045 21.1122 6.1600 0.0000 9.3741 0.0000
# 2 21.1122 115.3714 49.0585 0.0000 -5.2928 0.0000
# 3 6.1600 49.0585 132.5141 0.0000 15.4316 0.0000
# 4 0.0000 0.0000 0.0000 23.8703 0.0000 12.2392
# 5 9.3741 -5.2928 15.4316 0.0000 28.2650 0.0000
# 6 0.0000 0.0000 0.0000 12.2392 0.0000 18.6965
#
#
#
# Elastic Compliance Matrix: (Units=1/GPa)
#
#
# Indices 1 2 3 4 5 6 
#
# 1 0.017968 -0.004351 0.001671 0.000000 -0.007686 0.000000
# 2 -0.004351 0.011849 -0.004924 0.000000 0.006350 0.000000
# 3 0.001671 -0.004924 0.010106 0.000000 -0.006994 0.000000
# 4 0.000000 0.000000 0.000000 0.063059 0.000000 -0.041280
# 5 -0.007686 0.006350 -0.006994 0.000000 0.042936 0.000000
# 6 0.000000 0.000000 0.000000 -0.041280 0.000000 0.080509
#
#
# Mechanical properties :
#
#
# Convention : Reuss Voigt Hill
#
# Bulk Modulus (GPa) = 40.46248 51.63906 46.05077
# Shear Modulus (GPa) = 20.01018 29.88363 24.94690
#
# Velocity S-wave (km/s) = 2.95365 3.60953 3.29794
# Velocity P-wave (km/s) = 5.41045 6.31548 5.88040
#
# Compressibility (1/GPa) = 0.02471426
#
# Stress axis : x y z
#
# Youngs Moduli (GPa) = 55.65509 84.39601 98.95108
#
# Poissons Ratio (x) = 0.36720 -0.16530
# Poissons Ratio (y) = 0.24215 0.48722
# Poissons Ratio (z) = -0.09298 0.41555
#
# Static dielectric constant tensor:
#      x y z
#    x 1.944270 0.000000 -0.000920 
#    y 0.000000 1.828990 0.000000 
#    z -0.000920 0.000000 1.825880 
# 
# From -- ./inp_files/65479.got.cif
#   From: 2010.05.17/outbox.cif.g08.bks.cpg/sg14_33_cif.got.tgz:65479.got - 2010.06.03 17:49:19.
