data_PCOD9245510
_publ_section_title
;
Structure prediction by ZEFSAII (Michael W. Deem and Ramdas Pophale) SiO2 
 PCOD9245510
Probable space group: P 21/C
;
_chemical_formula_sum "Si O2"
_cell_formula_units_Z 20
_cell_length_a 29.342115
_cell_length_b 7.152350
_cell_length_c 5.387517
_cell_angle_alpha 90.000000
_cell_angle_beta 123.093540
_cell_angle_gamma 90.000000
_cell_volume 947.237673
_symmetry_space_group_name_H-M "P 21/C"
_symmetry_group_IT_number 14
_symmetry_cell_setting 'monoclinic'
loop_
_space_group_symop_operation_xyz
x,y,z
-x,1/2+y,1/2-z
-x,-y,-z
x,1/2-y,1/2+z
loop_
_atom_site_type_symbol
_atom_site_label
_atom_site_fract_x
_atom_site_fract_y
_atom_site_fract_z
Si Si1 0.277170 0.627428 0.839354
Si Si2 0.389099 0.045992 0.670961
Si Si3 0.435773 0.029240 0.309755
Si Si4 0.050593 0.366760 0.198610
Si Si5 0.172448 0.374195 0.510878
O O1 0.283334 0.748541 0.108861
O O2 0.324223 0.468877 0.977602
O O3 0.218602 0.529851 0.662604
O O4 0.411374 0.952622 0.489800
O O5 0.415079 0.254057 0.748466
O O6 0.411145 0.952650 0.984367
O O7 0.500000 0.000000 0.500000
O O8 0.047762 0.287869 0.470395
O O9 0.110885 0.452844 0.343032
O O10 0.000000 0.500000 0.000000
O O11 0.178249 0.262262 0.267813
#
# Coordination Sequence:
#
# PCOD9245510 Si02
#       5
#     4   4   4   4   4
#     4  12  26  44  64  97 132 169 216 268 329 387
#     4  10  23  41  63  91 121 157 202 258 316 374
#     4  10  21  42  66  90 115 155 208 249 312 384
#     4  10  21  38  61  97 133 176 222 271 327 384
#     4  10  23  41  68  94 129 176 227 272 319 382
#
# _framework density 21.114025000000002
#
# number of rings (size 3 to 8) (size 9 to 14) (size 15 to 20)
#    0.000    1.600    0.000    3.600    5.600    1.600 
#   21.600    0.000    0.000    0.000    0.000    0.000 
#    0.000    0.000    0.000    0.000    0.000    0.000 
#
# Total GULP energy -111683.261391 kJ/mol
# GULP energy per Si atom -5584.163070 kJ/mol
# Density = 2.106597 g / cm^3
# Si number density = 21.114025 Si / 1000 Ang^3
#
#
#
# Elastic Constant Matrix: (Units=GPa)
#
#
# Indices 1 2 3 4 5 6 
#
# 1 131.8497 39.6276 70.8143 0.0000 12.8308 0.0000
# 2 39.6276 90.0723 27.6235 0.0000 21.4931 0.0000
# 3 70.8143 27.6235 147.4815 0.0000 -4.7240 0.0000
# 4 0.0000 0.0000 0.0000 19.9531 0.0000 28.8614
# 5 12.8308 21.4931 -4.7240 0.0000 78.3394 0.0000
# 6 0.0000 0.0000 0.0000 28.8614 0.0000 24.7797
#
#
#
# Elastic Compliance Matrix: (Units=1/GPa)
#
#
# Indices 1 2 3 4 5 6 
#
# 1 0.011269 -0.003164 -0.004859 0.000000 -0.001270 0.000000
# 2 -0.003164 0.013629 -0.001139 0.000000 -0.003289 0.000000
# 3 -0.004859 -0.001139 0.009380 0.000000 0.001674 0.000000
# 4 0.000000 0.000000 0.000000 -0.073194 0.000000 0.085251
# 5 -0.001270 -0.003289 0.001674 0.000000 0.013976 0.000000
# 6 0.000000 0.000000 0.000000 0.085251 0.000000 -0.058938
#
#
# Mechanical properties :
#
#
# Convention : Reuss Voigt Hill
#
# Bulk Modulus (GPa) = 62.68013 71.72605 67.20309
# Shear Modulus (GPa) = -83.00653 40.03698 -21.48478
#
# Velocity S-wave (km/s) = -6.27685 4.35929 -3.19338
# Velocity P-wave (km/s) = 4.77292 7.70600 4.27795
#
# Compressibility (1/GPa) = 0.01595402
#
# Stress axis : x y z
#
# Youngs Moduli (GPa) = 88.74193 73.37560 106.60613
#
# Poissons Ratio (x) = 0.23219 0.51797
# Poissons Ratio (y) = 0.28082 0.12138
# Poissons Ratio (z) = 0.43117 0.08354
#
# Static dielectric constant tensor:
#      x y z
#    x 1.756930 0.000000 -0.023530 
#    y 0.000000 1.728430 0.000000 
#    z -0.023530 0.000000 1.768670 
# 
# From -- ./inp_files/4551.got.cif
#   From: 2010.05.17/outbox.cif.g08.bks.cpg/sg14_3_cif.got.tgz:4551.got - 2010.06.03 17:49:19.
