data_PCOD9245865
_publ_section_title
;
Structure prediction by ZEFSAII (Michael W. Deem and Ramdas Pophale) SiO2 
 PCOD9245865
Probable space group: P 21/C
;
_chemical_formula_sum "Si O2"
_cell_formula_units_Z 24
_cell_length_a 22.733584
_cell_length_b 10.163378
_cell_length_c 11.515217
_cell_angle_alpha 90.000000
_cell_angle_beta 157.477853
_cell_angle_gamma 90.000000
_cell_volume 1019.114146
_symmetry_space_group_name_H-M "P 21/C"
_symmetry_group_IT_number 14
_symmetry_cell_setting 'monoclinic'
loop_
_space_group_symop_operation_xyz
x,y,z
-x,1/2+y,1/2-z
-x,-y,-z
x,1/2-y,1/2+z
loop_
_atom_site_type_symbol
_atom_site_label
_atom_site_fract_x
_atom_site_fract_y
_atom_site_fract_z
Si Si1 0.906960 0.788348 0.814106
Si Si2 0.982007 0.503440 0.629918
Si Si3 0.699690 0.362215 0.764397
Si Si4 0.868521 0.101823 0.149463
Si Si5 0.428166 0.284309 0.855506
Si Si6 0.401933 0.970160 0.169175
O O1 0.022901 0.859682 0.936773
O O2 0.746239 0.759511 0.462295
O O3 0.989808 0.664517 0.022780
O O4 0.886073 0.893237 0.880383
O O5 0.930388 0.499786 0.667927
O O6 0.160616 0.544532 0.942159
O O7 0.549798 0.334365 0.569536
O O8 0.640691 0.420748 0.535467
O O9 0.784193 0.219762 0.924743
O O10 0.745128 0.050333 0.015531
O O11 0.447969 0.378334 0.776750
O O12 0.469471 0.376543 0.039472
#
# Coordination Sequence:
#
# PCOD9245865 Si02
#       6
#     4   4   4   4   4   4
#     4  10  22  39  60  90 122 154 198 246 293 351
#     4  10  22  39  61  89 120 157 198 242 296 350
#     4  10  22  39  58  84 118 155 195 242 298 352
#     4  10  21  39  64  89 116 153 197 247 296 349
#     4  10  23  38  58  86 117 157 195 240 297 348
#     4  10  22  40  59  86 119 152 199 247 292 353
#
# _framework density 23.549863999999999
#
# number of rings (size 3 to 8) (size 9 to 14) (size 15 to 20)
#    0.000    2.000    0.000    2.000    0.000   14.000 
#    0.000    0.000    0.000    0.000    0.000    0.000 
#    0.000    0.000    0.000    0.000    0.000    0.000 
#
# Total GULP energy -134254.146240 kJ/mol
# GULP energy per Si atom -5593.922760 kJ/mol
# Density = 2.349626 g / cm^3
# Si number density = 23.549864 Si / 1000 Ang^3
#
#
#
# Elastic Constant Matrix: (Units=GPa)
#
#
# Indices 1 2 3 4 5 6 
#
# 1 37.6563 3.0911 -8.3426 0.0000 2.8097 0.0000
# 2 3.0911 53.9375 14.0935 0.0000 2.0095 0.0000
# 3 -8.3426 14.0935 99.7990 0.0000 0.2323 0.0000
# 4 0.0000 0.0000 0.0000 42.7906 0.0000 -12.9401
# 5 2.8097 2.0095 0.2323 0.0000 26.4467 0.0000
# 6 0.0000 0.0000 0.0000 -12.9401 0.0000 21.0797
#
#
#
# Elastic Compliance Matrix: (Units=1/GPa)
#
#
# Indices 1 2 3 4 5 6 
#
# 1 0.027519 -0.002156 0.002611 0.000000 -0.002783 0.000000
# 2 -0.002156 0.019474 -0.002927 0.000000 -0.001225 0.000000
# 3 0.002611 -0.002927 0.010652 0.000000 -0.000149 0.000000
# 4 0.000000 0.000000 0.000000 0.028697 0.000000 0.017616
# 5 -0.002783 -0.001225 -0.000149 0.000000 0.038202 0.000000
# 6 0.000000 0.000000 0.000000 0.017616 0.000000 0.058253
#
#
# Mechanical properties :
#
#
# Convention : Reuss Voigt Hill
#
# Bulk Modulus (GPa) = 18.97475 23.23078 21.10277
# Shear Modulus (GPa) = 24.35364 30.23343 27.29353
#
# Velocity S-wave (km/s) = 3.21928 3.58691 3.40805
# Velocity P-wave (km/s) = 4.67901 5.20005 4.94639
#
# Compressibility (1/GPa) = 0.05270161
#
# Stress axis : x y z
#
# Youngs Moduli (GPa) = 36.33840 51.35032 93.87734
#
# Poissons Ratio (x) = 0.11070 -0.24515
# Poissons Ratio (y) = 0.07834 0.27482
# Poissons Ratio (z) = -0.09489 0.15033
#
# Static dielectric constant tensor:
#      x y z
#    x 1.857840 0.000000 0.003450 
#    y 0.000000 1.954110 0.000000 
#    z 0.003450 0.000000 1.880730 
# 
# From -- ./inp_files/35943.got.cif
#   From: 2010.05.17/outbox.cif.g08.bks.cpg/sg14_18_cif.got.tgz:35943.got - 2010.06.03 17:49:19.
