data_PCOD9245654
_publ_section_title
;
Structure prediction by ZEFSAII (Michael W. Deem and Ramdas Pophale) SiO2 
 PCOD9245654
Probable space group: P 21/C
;
_chemical_formula_sum "Si O2"
_cell_formula_units_Z 20
_cell_length_a 8.015718
_cell_length_b 4.737330
_cell_length_c 28.935695
_cell_angle_alpha 90.000000
_cell_angle_beta 139.348814
_cell_angle_gamma 90.000000
_cell_volume 715.801466
_symmetry_space_group_name_H-M "P 21/C"
_symmetry_group_IT_number 14
_symmetry_cell_setting 'monoclinic'
loop_
_space_group_symop_operation_xyz
x,y,z
-x,1/2+y,1/2-z
-x,-y,-z
x,1/2-y,1/2+z
loop_
_atom_site_type_symbol
_atom_site_label
_atom_site_fract_x
_atom_site_fract_y
_atom_site_fract_z
Si Si1 0.964636 0.168189 0.711989
Si Si2 0.662738 0.834648 0.572445
Si Si3 0.237691 0.795614 0.040511
Si Si4 0.907590 0.436921 0.902931
Si Si5 0.673776 0.895088 0.788947
O O1 0.149153 0.341997 0.717348
O O2 0.110355 0.904225 0.766374
O O3 0.754315 0.028960 0.634459
O O4 0.479600 0.609350 0.559977
O O5 0.921011 0.758030 0.598142
O O6 0.500000 0.000000 0.500000
O O7 0.299925 0.695903 0.105547
O O8 0.121380 0.546912 0.984589
O O9 0.000000 0.000000 0.000000
O O10 0.799360 0.721671 0.857139
O O11 0.586193 0.215433 0.775737
#
# Coordination Sequence:
#
# PCOD9245654 Si02
#       5
#     4   4   4   4   4
#     4  11  25  46  69 103 137 182 234 285 347 415
#     4   9  21  45  63  94 136 177 222 283 344 408
#     4  10  21  38  67  92 125 168 224 276 335 402
#     4   9  22  41  58  93 129 169 219 272 340 401
#     4  11  25  42  68  96 136 178 223 280 341 408
#
# _framework density 27.940708000000001
#
# number of rings (size 3 to 8) (size 9 to 14) (size 15 to 20)
#    0.000    2.000    0.000    1.200    8.400    0.800 
#   18.000    0.000    0.000    0.000    0.000    0.000 
#    0.000    0.000    0.000    0.000    0.000    0.000 
#
# Total GULP energy -111918.199394 kJ/mol
# GULP energy per Si atom -5595.909970 kJ/mol
# Density = 2.787711 g / cm^3
# Si number density = 27.940708 Si / 1000 Ang^3
#
#
#
# Elastic Constant Matrix: (Units=GPa)
#
#
# Indices 1 2 3 4 5 6 
#
# 1 198.4980 21.0262 19.2926 0.0000 -21.5337 0.0000
# 2 21.0262 112.5600 9.8232 0.0000 -16.9125 0.0000
# 3 19.2926 9.8232 132.2403 0.0000 -23.8898 0.0000
# 4 0.0000 0.0000 0.0000 36.5045 0.0000 -1.5286
# 5 -21.5337 -16.9125 -23.8898 0.0000 47.8830 0.0000
# 6 0.0000 0.0000 0.0000 -1.5286 0.0000 45.1212
#
#
#
# Elastic Compliance Matrix: (Units=1/GPa)
#
#
# Indices 1 2 3 4 5 6 
#
# 1 0.005361 -0.000670 -0.000373 0.000000 0.001988 0.000000
# 2 -0.000670 0.009467 -0.000061 0.000000 0.003012 0.000000
# 3 -0.000373 -0.000061 0.008338 0.000000 0.003971 0.000000
# 4 0.000000 0.000000 0.000000 0.027433 0.000000 0.000929
# 5 0.001988 0.003012 0.003971 0.000000 0.024823 0.000000
# 6 0.000000 0.000000 0.000000 0.000929 0.000000 0.022194
#
#
# Mechanical properties :
#
#
# Convention : Reuss Voigt Hill
#
# Bulk Modulus (GPa) = 47.71692 60.39802 54.05747
# Shear Modulus (GPa) = 46.81156 52.11215 49.46185
#
# Velocity S-wave (km/s) = 4.09759 4.32336 4.21199
# Velocity P-wave (km/s) = 6.28506 6.82535 6.56077
#
# Compressibility (1/GPa) = 0.02095693
#
# Stress axis : x y z
#
# Youngs Moduli (GPa) = 186.54118 105.62748 119.92841
#
# Poissons Ratio (x) = 0.07078 0.04475
# Poissons Ratio (y) = 0.12501 0.00736
# Poissons Ratio (z) = 0.06961 0.00648
#
# Static dielectric constant tensor:
#      x y z
#    x 2.280790 0.000000 -0.120670 
#    y 0.000000 2.176390 0.000000 
#    z -0.120670 0.000000 2.616470 
# 
# From -- ./inp_files/75910.got.cif
#   From: 2010.05.17/outbox.cif.g08.bks.cpg/sg14_38_cif.got.tgz:75910.got - 2010.06.03 17:49:19.
