data_PCOD9245810
_publ_section_title
;
Structure prediction by ZEFSAII (Michael W. Deem and Ramdas Pophale) SiO2 
 PCOD9245810
Probable space group: P 21/C
;
_chemical_formula_sum "Si O2"
_cell_formula_units_Z 22
_cell_length_a 26.040618
_cell_length_b 4.856427
_cell_length_c 15.778830
_cell_angle_alpha 90.000000
_cell_angle_beta 155.245431
_cell_angle_gamma 90.000000
_cell_volume 835.563117
_symmetry_space_group_name_H-M "P 21/C"
_symmetry_group_IT_number 14
_symmetry_cell_setting 'monoclinic'
loop_
_space_group_symop_operation_xyz
x,y,z
-x,1/2+y,1/2-z
-x,-y,-z
x,1/2-y,1/2+z
loop_
_atom_site_type_symbol
_atom_site_label
_atom_site_fract_x
_atom_site_fract_y
_atom_site_fract_z
Si Si1 0.894442 0.306409 0.760793
Si Si2 0.500000 0.500000 0.500000
Si Si3 0.051098 0.783251 0.962814
Si Si4 0.378653 0.362233 0.506377
Si Si5 0.647206 0.509561 0.874750
Si Si6 0.692509 0.138531 0.708284
O O1 0.765633 0.176962 0.542869
O O2 0.935118 0.585260 0.775516
O O3 0.898690 0.321578 0.870085
O O4 0.001181 0.088964 0.898867
O O5 0.591716 0.645123 0.707925
O O6 0.602332 0.253428 0.643229
O O7 0.163818 0.793193 0.066916
O O8 0.525973 0.340876 0.724156
O O9 0.346230 0.669487 0.430553
O O10 0.326467 0.237966 0.513670
O O11 0.331670 0.172864 0.357611
#
# Coordination Sequence:
#
# PCOD9245810 Si02
#       6
#     4   2   4   4   4   4
#     4  10  22  36  65  94 128 161 218 268 321 380
#     4  10  26  42  66  92 138 168 218 260 342 382
#     4  10  21  39  62  97 124 165 213 274 317 382
#     4  11  24  39  69  92 130 166 221 271 329 374
#     4  11  23  42  63 101 127 175 214 275 323 401
#     4  11  23  45  65  98 129 172 212 277 323 400
#
# _framework density 26.329550999999999
#
# number of rings (size 3 to 8) (size 9 to 14) (size 15 to 20)
#    0.000    1.455    1.818    3.273    5.091    5.818 
#    0.000    1.818    0.000    0.000    0.000    0.000 
#    0.000    0.000    0.000    0.000    0.000    0.000 
#
# Total GULP energy -122709.139189 kJ/mol
# GULP energy per Si atom -5577.688145 kJ/mol
# Density = 2.626962 g / cm^3
# Si number density = 26.329551 Si / 1000 Ang^3
#
#
#
# Elastic Constant Matrix: (Units=GPa)
#
#
# Indices 1 2 3 4 5 6 
#
# 1 54.0547 11.6528 20.9631 0.0000 4.0326 0.0000
# 2 11.6528 71.9163 -11.1699 0.0000 3.3261 0.0000
# 3 20.9631 -11.1699 95.3311 0.0000 19.7766 0.0000
# 4 0.0000 0.0000 0.0000 40.5654 0.0000 4.0415
# 5 4.0326 3.3261 19.7766 0.0000 45.3896 0.0000
# 6 0.0000 0.0000 0.0000 4.0415 0.0000 13.2669
#
#
#
# Elastic Compliance Matrix: (Units=1/GPa)
#
#
# Indices 1 2 3 4 5 6 
#
# 1 0.021471 -0.004351 -0.005389 0.000000 0.000759 0.000000
# 2 -0.004351 0.015201 0.003176 0.000000 -0.002111 0.000000
# 3 -0.005389 0.003176 0.013188 0.000000 -0.005500 0.000000
# 4 0.000000 0.000000 0.000000 0.025423 0.000000 -0.007745
# 5 0.000759 -0.002111 -0.005500 0.000000 0.024515 0.000000
# 6 0.000000 0.000000 0.000000 -0.007745 0.000000 0.077735
#
#
# Mechanical properties :
#
#
# Convention : Reuss Voigt Hill
#
# Bulk Modulus (GPa) = 27.22437 29.35490 28.28963
# Shear Modulus (GPa) = 24.64215 33.16812 28.90514
#
# Velocity S-wave (km/s) = 3.06259 3.55312 3.31693
# Velocity P-wave (km/s) = 4.78207 5.29208 5.04353
#
# Compressibility (1/GPa) = 0.03673180
#
# Stress axis : x y z
#
# Youngs Moduli (GPa) = 46.57458 65.78527 75.82765
#
# Poissons Ratio (x) = 0.28624 0.40861
# Poissons Ratio (y) = 0.20265 -0.24081
# Poissons Ratio (z) = 0.25098 -0.20892
#
# Static dielectric constant tensor:
#      x y z
#    x 0.702310 0.000000 -0.488000 
#    y 0.000000 2.092980 0.000000 
#    z -0.488000 0.000000 1.885970 
# 
# From -- ./inp_files/62477.got.cif
#   From: 2010.05.17/outbox.cif.g08.bks.cpg/sg14_32_cif.got.tgz:62477.got - 2010.06.03 17:49:19.
