data_PCOD9245097
_publ_section_title
;
Structure prediction by ZEFSAII (Michael W. Deem and Ramdas Pophale) SiO2 
 PCOD9245097
Probable space group: P 21/C
;
_chemical_formula_sum "Si O2"
_cell_formula_units_Z 28
_cell_length_a 23.832276
_cell_length_b 12.035218
_cell_length_c 23.394300
_cell_angle_alpha 90.000000
_cell_angle_beta 12.311446
_cell_angle_gamma 90.000000
_cell_volume 1430.766666
_symmetry_space_group_name_H-M "P 21/C"
_symmetry_group_IT_number 14
_symmetry_cell_setting 'monoclinic'
loop_
_space_group_symop_operation_xyz
x,y,z
-x,1/2+y,1/2-z
-x,-y,-z
x,1/2-y,1/2+z
loop_
_atom_site_type_symbol
_atom_site_label
_atom_site_fract_x
_atom_site_fract_y
_atom_site_fract_z
Si Si1 0.330373 0.899651 0.474061
Si Si2 0.848515 0.001110 0.822191
Si Si3 0.853817 0.287665 0.255994
Si Si4 0.764351 0.297607 0.050292
Si Si5 0.320862 0.359131 0.722765
Si Si6 0.466114 0.594561 0.610597
Si Si7 0.807528 0.040800 0.985762
O O1 0.208354 0.817058 0.642491
O O2 0.383466 0.831121 0.361962
O O3 0.100203 0.990463 0.693722
O O4 0.597534 0.962343 0.226768
O O5 0.980398 0.116114 0.671140
O O6 0.699693 0.035676 0.027783
O O7 0.005585 0.889469 0.679561
O O8 0.679128 0.968439 0.936675
O O9 0.571400 0.319332 0.510237
O O10 0.067668 0.287697 0.992516
O O11 0.824081 0.168002 0.987672
O O12 0.645322 0.321520 0.231404
O O13 0.278863 0.492773 0.775807
O O14 0.404814 0.351281 0.573186
#
# Coordination Sequence:
#
# PCOD9245097 Si02
#       7
#     4   4   4   4   4   4   4
#     4  11  24  40  61  89 126 167 203 250 310 375
#     4  10  21  36  60  92 124 156 196 255 311 366
#     4  11  21  41  61  89 126 160 202 252 306 373
#     4  11  22  38  62  90 127 161 202 259 308 373
#     4  10  23  36  65  91 125 160 202 256 314 361
#     4  10  21  37  60  95 126 154 205 258 314 361
#     4  11  24  38  59  92 124 164 201 244 315 373
#
# _framework density 19.569927
#
# number of rings (size 3 to 8) (size 9 to 14) (size 15 to 20)
#    0.000    1.429    4.286    0.857    4.000    1.714 
#    0.000    0.000    0.000    5.143    0.000    0.000 
#    0.000    0.000    0.000    0.000    0.000    0.000 
#
# Total GULP energy -155899.358306 kJ/mol
# GULP energy per Si atom -5567.834225 kJ/mol
# Density = 1.952539 g / cm^3
# Si number density = 19.569927 Si / 1000 Ang^3
#
#
#
# Elastic Constant Matrix: (Units=GPa)
#
#
# Indices 1 2 3 4 5 6 
#
# 1 100.6796 46.3914 4.6617 0.0000 35.8388 0.0000
# 2 46.3914 94.1599 9.1315 0.0000 28.2875 0.0000
# 3 4.6617 9.1315 45.0680 0.0000 24.0170 0.0000
# 4 0.0000 0.0000 0.0000 20.8666 0.0000 1.7160
# 5 35.8388 28.2875 24.0170 0.0000 36.2902 0.0000
# 6 0.0000 0.0000 0.0000 1.7160 0.0000 21.3840
#
#
#
# Elastic Compliance Matrix: (Units=1/GPa)
#
#
# Indices 1 2 3 4 5 6 
#
# 1 0.019731 -0.003488 0.011742 0.000000 -0.024537 0.000000
# 2 -0.003488 0.015118 0.002691 0.000000 -0.010120 0.000000
# 3 0.011742 0.002691 0.042832 0.000000 -0.042040 0.000000
# 4 0.000000 0.000000 0.000000 0.048242 0.000000 -0.003871
# 5 -0.024537 -0.010120 -0.042040 0.000000 0.087498 0.000000
# 6 0.000000 0.000000 0.000000 -0.003871 0.000000 0.047075
#
#
# Mechanical properties :
#
#
# Convention : Reuss Voigt Hill
#
# Bulk Modulus (GPa) = 10.04326 40.03073 25.03699
# Shear Modulus (GPa) = 18.39609 27.68967 23.04288
#
# Velocity S-wave (km/s) = 3.06930 3.76561 3.43514
# Velocity P-wave (km/s) = 4.20760 6.27742 5.34369
#
# Compressibility (1/GPa) = 0.09956929
#
# Stress axis : x y z
#
# Youngs Moduli (GPa) = 50.68291 66.14511 23.34693
#
# Poissons Ratio (x) = 0.23074 -0.27413
# Poissons Ratio (y) = 0.17680 -0.06282
# Poissons Ratio (z) = -0.59510 -0.17798
#
# Static dielectric constant tensor:
#      x y z
#    x 1.724190 0.000000 0.009470 
#    y 0.000000 1.712130 0.000000 
#    z 0.009470 0.000000 1.782210 
# 
# From -- ./inp_files/63369.got.cif
#   From: 2010.05.17/outbox.cif.g08.bks.cpg/sg14_32_cif.got.tgz:63369.got - 2010.06.03 17:49:19.
