data_PCOD9245292
_publ_section_title
;
Structure prediction by ZEFSAII (Michael W. Deem and Ramdas Pophale) SiO2 
 PCOD9245292
Probable space group: P 21/C
;
_chemical_formula_sum "Si O2"
_cell_formula_units_Z 30
_cell_length_a 9.485153
_cell_length_b 9.323625
_cell_length_c 13.367431
_cell_angle_alpha 90.000000
_cell_angle_beta 73.212125
_cell_angle_gamma 90.000000
_cell_volume 1131.779260
_symmetry_space_group_name_H-M "P 21/C"
_symmetry_group_IT_number 14
_symmetry_cell_setting 'monoclinic'
loop_
_space_group_symop_operation_xyz
x,y,z
-x,1/2+y,1/2-z
-x,-y,-z
x,1/2-y,1/2+z
loop_
_atom_site_type_symbol
_atom_site_label
_atom_site_fract_x
_atom_site_fract_y
_atom_site_fract_z
Si Si1 0.647153 0.182936 0.413531
Si Si2 0.322351 0.527901 0.680216
Si Si3 0.898070 0.672307 0.168105
Si Si4 0.349211 0.496359 0.387085
Si Si5 0.229744 0.079462 0.713503
Si Si6 0.000000 0.500000 0.000000
Si Si7 0.745821 0.191158 0.609062
Si Si8 0.303995 0.287831 0.984612
O O1 0.699371 0.347665 0.396173
O O2 0.663627 0.137792 0.525463
O O3 0.473137 0.178101 0.422782
O O4 0.735718 0.085319 0.318398
O O5 0.198618 0.413222 0.732049
O O6 0.482379 0.459012 0.630672
O O7 0.332332 0.624038 0.779291
O O8 0.908731 0.832972 0.208910
O O9 0.814033 0.653119 0.073941
O O10 0.035590 0.581868 0.103481
O O11 0.336795 0.400966 0.288117
O O12 0.254834 0.637948 0.393831
O O13 0.294245 0.384262 0.480977
O O14 0.270408 0.154080 0.600840
O O15 0.090959 0.627970 0.923803
#
# Coordination Sequence:
#
# PCOD9245292 Si02
#       8
#     4   4   4   4   4   2   4   4
#     4  11  22  36  65 101 138 175 221 286 356 419
#     4  10  21  37  61  99 134 176 219 282 347 425
#     4  10  23  41  67  87 136 182 224 287 343 409
#     4  10  22  36  64 104 139 177 217 286 358 414
#     4  11  20  37  61  96 129 177 231 272 337 417
#     4  10  24  50  66  86 130 192 228 282 342 408
#     4  11  23  43  68  94 140 185 231 284 349 415
#     4  10  22  37  63 103 141 173 221 287 359 419
#
# _framework density 26.506934999999999
#
# number of rings (size 3 to 8) (size 9 to 14) (size 15 to 20)
#    0.000    1.600    1.333    3.600    7.467    1.067 
#    0.000    8.000    0.000    0.000    0.000    0.000 
#    0.000    0.000    0.000    0.000    0.000    0.000 
#
# Total GULP energy -167313.937486 kJ/mol
# GULP energy per Si atom -5577.131250 kJ/mol
# Density = 2.644660 g / cm^3
# Si number density = 26.506935 Si / 1000 Ang^3
#
#
#
# Elastic Constant Matrix: (Units=GPa)
#
#
# Indices 1 2 3 4 5 6 
#
# 1 63.8330 12.4522 21.9928 0.0000 3.5932 0.0000
# 2 12.4522 137.8391 23.0119 0.0000 -9.7607 0.0000
# 3 21.9928 23.0119 113.9019 0.0000 10.6911 0.0000
# 4 0.0000 0.0000 0.0000 55.1488 0.0000 6.6907
# 5 3.5932 -9.7607 10.6911 0.0000 37.2627 0.0000
# 6 0.0000 0.0000 0.0000 6.6907 0.0000 -7.1136
#
#
#
# Elastic Compliance Matrix: (Units=1/GPa)
#
#
# Indices 1 2 3 4 5 6 
#
# 1 0.016960 -0.001117 -0.002948 0.000000 -0.001082 0.000000
# 2 -0.001117 0.007809 -0.001607 0.000000 0.002614 0.000000
# 3 -0.002948 -0.001607 0.009954 0.000000 -0.002993 0.000000
# 4 0.000000 0.000000 0.000000 0.016276 0.000000 0.015308
# 5 -0.001082 0.002614 -0.002993 0.000000 0.028484 0.000000
# 6 0.000000 0.000000 0.000000 0.015308 0.000000 -0.126177
#
#
# Mechanical properties :
#
#
# Convention : Reuss Voigt Hill
#
# Bulk Modulus (GPa) = 42.77132 47.83199 45.30166
# Shear Modulus (GPa) = -181.44300 34.26737 -73.58781
#
# Velocity S-wave (km/s) = -8.28250 3.59941 -5.27466
# Velocity P-wave (km/s) = 8.67729 5.94631 4.46860
#
# Compressibility (1/GPa) = 0.02338015
#
# Stress axis : x y z
#
# Youngs Moduli (GPa) = 58.96161 128.05374 100.45914
#
# Poissons Ratio (x) = 0.14300 0.29611
# Poissons Ratio (y) = 0.06584 0.16149
# Poissons Ratio (z) = 0.17379 0.20585
#
# Static dielectric constant tensor:
#      x y z
#    x 1.471390 0.000000 0.340810 
#    y 0.000000 1.913380 0.000000 
#    z 0.340810 0.000000 2.027470 
# 
# From -- ./inp_files/43712.got.cif
#   From: 2010.05.17/outbox.cif.g08.bks.cpg/sg14_22_cif.got.tgz:43712.got - 2010.06.03 17:49:19.
