data_PCOD9245264
_publ_section_title
;
Structure prediction by ZEFSAII (Michael W. Deem and Ramdas Pophale) SiO2 
 PCOD9245264
Probable space group: P 21/C
;
_chemical_formula_sum "Si O2"
_cell_formula_units_Z 32
_cell_length_a 12.529493
_cell_length_b 6.513708
_cell_length_c 18.621277
_cell_angle_alpha 90.000000
_cell_angle_beta 87.805372
_cell_angle_gamma 90.000000
_cell_volume 1518.632106
_symmetry_space_group_name_H-M "P 21/C"
_symmetry_group_IT_number 14
_symmetry_cell_setting 'monoclinic'
loop_
_space_group_symop_operation_xyz
x,y,z
-x,1/2+y,1/2-z
-x,-y,-z
x,1/2-y,1/2+z
loop_
_atom_site_type_symbol
_atom_site_label
_atom_site_fract_x
_atom_site_fract_y
_atom_site_fract_z
Si Si1 0.863472 0.379644 0.038574
Si Si2 0.769394 0.787983 0.307012
Si Si3 0.733641 0.997624 0.020173
Si Si4 0.584605 0.959413 0.895971
Si Si5 0.250240 0.177686 0.358785
Si Si6 0.570938 0.143221 0.664479
Si Si7 0.089691 0.236520 0.569086
Si Si8 0.621585 0.353697 0.804543
O O1 0.843340 0.543860 0.102294
O O2 0.964999 0.239979 0.056057
O O3 0.762409 0.234059 0.029780
O O4 0.883972 0.514630 0.967141
O O5 0.679608 0.646169 0.346929
O O6 0.770326 0.732179 0.223304
O O7 0.877748 0.758106 0.348565
O O8 0.727296 0.020070 0.320467
O O9 0.731749 0.881352 0.095486
O O10 0.628156 0.960832 0.975715
O O11 0.832044 0.895528 0.972974
O O12 0.481165 0.817682 0.884524
O O13 0.581830 0.188858 0.863965
O O14 0.353877 0.034145 0.367230
O O15 0.634524 0.246442 0.727829
O O16 0.470536 0.023946 0.701924
#
# Coordination Sequence:
#
# PCOD9245264 Si02
#       8
#     4   4   4   4   4   4   4   4
#     4  10  21  41  64  86 119 159 191 248 302 355
#     4  10  21  37  60  89 118 151 197 249 291 351
#     4  10  22  39  62  89 118 156 199 240 297 355
#     4  10  21  37  61  88 111 158 210 236 281 357
#     4  11  24  38  55  88 129 154 189 249 306 344
#     4  11  21  35  57  85 119 156 197 245 292 346
#     4   9  20  42  66  88 112 153 207 241 290 365
#     4  11  19  35  61  84 112 157 201 240 288 348
#
# _framework density 21.071594000000001
#
# number of rings (size 3 to 8) (size 9 to 14) (size 15 to 20)
#    0.000    1.750    2.500    1.875    1.750    1.500 
#    2.250    1.250    0.000    0.000    0.000    0.000 
#    0.000    0.000    0.000    0.000    0.000    0.000 
#
# Total GULP energy -178754.413531 kJ/mol
# GULP energy per Si atom -5586.075423 kJ/mol
# Density = 2.102363 g / cm^3
# Si number density = 21.071594 Si / 1000 Ang^3
#
#
#
# Elastic Constant Matrix: (Units=GPa)
#
#
# Indices 1 2 3 4 5 6 
#
# 1 47.6169 1.9943 21.3992 0.0000 14.2300 0.0000
# 2 1.9943 70.4539 23.8846 0.0000 12.1517 0.0000
# 3 21.3992 23.8846 128.9980 0.0000 22.1604 0.0000
# 4 0.0000 0.0000 0.0000 20.3888 0.0000 -3.6445
# 5 14.2300 12.1517 22.1604 0.0000 25.7548 0.0000
# 6 0.0000 0.0000 0.0000 -3.6445 0.0000 33.8680
#
#
#
# Elastic Compliance Matrix: (Units=1/GPa)
#
#
# Indices 1 2 3 4 5 6 
#
# 1 0.026007 0.002407 -0.002460 0.000000 -0.013388 0.000000
# 2 0.002407 0.016076 -0.002164 0.000000 -0.007053 0.000000
# 3 -0.002460 -0.002164 0.009566 0.000000 -0.005851 0.000000
# 4 0.000000 0.000000 0.000000 0.050009 0.000000 0.005381
# 5 -0.013388 -0.007053 -0.005851 0.000000 0.054587 0.000000
# 6 0.000000 0.000000 0.000000 0.005381 0.000000 0.030105
#
#
# Mechanical properties :
#
#
# Convention : Reuss Voigt Hill
#
# Bulk Modulus (GPa) = 21.18023 37.95832 29.56927
# Shear Modulus (GPa) = 24.21061 29.32169 26.76615
#
# Velocity S-wave (km/s) = 3.39332 3.73436 3.56792
# Velocity P-wave (km/s) = 5.04244 6.05368 5.57105
#
# Compressibility (1/GPa) = 0.04721383
#
# Stress axis : x y z
#
# Youngs Moduli (GPa) = 38.45175 62.20588 104.53791
#
# Poissons Ratio (x) = -0.14973 0.25715
# Poissons Ratio (y) = -0.09255 0.22624
# Poissons Ratio (z) = 0.09459 0.13463
#
# Static dielectric constant tensor:
#      x y z
#    x 1.762250 0.000000 -0.022760 
#    y 0.000000 1.775700 0.000000 
#    z -0.022760 0.000000 1.745890 
# 
# From -- ./inp_files/58615.got.cif
#   From: 2010.05.17/outbox.cif.g08.bks.cpg/sg14_30_cif.got.tgz:58615.got - 2010.06.03 17:49:19.
