data_PCOD9245113
_publ_section_title
;
Structure prediction by ZEFSAII (Michael W. Deem and Ramdas Pophale) SiO2 
 PCOD9245113
Probable space group: P 21/C
;
_chemical_formula_sum "Si O2"
_cell_formula_units_Z 30
_cell_length_a 15.173358
_cell_length_b 4.846622
_cell_length_c 16.107084
_cell_angle_alpha 90.000000
_cell_angle_beta 101.918159
_cell_angle_gamma 90.000000
_cell_volume 1158.973663
_symmetry_space_group_name_H-M "P 21/C"
_symmetry_group_IT_number 14
_symmetry_cell_setting 'monoclinic'
loop_
_space_group_symop_operation_xyz
x,y,z
-x,1/2+y,1/2-z
-x,-y,-z
x,1/2-y,1/2+z
loop_
_atom_site_type_symbol
_atom_site_label
_atom_site_fract_x
_atom_site_fract_y
_atom_site_fract_z
Si Si1 0.025404 0.136772 0.858664
Si Si2 0.572927 0.677629 0.621359
Si Si3 0.861795 0.897901 0.742102
Si Si4 0.704835 0.182213 0.457753
Si Si5 0.687658 0.327447 0.152251
Si Si6 0.000000 0.500000 0.500000
Si Si7 0.881806 0.538685 0.908421
Si Si8 0.589693 0.812009 0.926946
O O1 0.959487 0.293762 0.914916
O O2 0.115050 0.254002 0.839832
O O3 0.951706 0.081928 0.774056
O O4 0.040586 0.870689 0.917511
O O5 0.601782 0.978388 0.657301
O O6 0.488466 0.490627 0.631451
O O7 0.562865 0.710115 0.519330
O O8 0.659594 0.487501 0.656927
O O9 0.773130 0.077202 0.720924
O O10 0.862561 0.670826 0.814576
O O11 0.708159 0.132608 0.557892
O O12 0.794663 0.103518 0.428514
O O13 0.622154 0.990359 0.408163
O O14 0.677722 0.497245 0.439489
O O15 0.909528 0.704917 0.470502
#
# Coordination Sequence:
#
# PCOD9245113 Si02
#       8
#     4   4   4   4   4   2   4   4
#     4  11  23  44  62  91 123 174 216 268 321 388
#     4   9  18  35  60  93 126 158 206 255 331 369
#     4  11  24  40  62  88 125 173 219 259 325 383
#     4  10  21  37  61  95 127 160 214 261 327 370
#     4  10  21  36  61  95 125 163 208 268 310 393
#     4  10  24  40  66  90 122 164 216 274 320 376
#     4  11  24  42  61  90 124 172 210 270 321 385
#     4   9  18  35  61  92 126 161 199 268 315 391
#
# _framework density 25.884972000000001
#
# number of rings (size 3 to 8) (size 9 to 14) (size 15 to 20)
#    0.000    1.867    1.333    2.000    5.600    3.200 
#    7.200    0.000    0.000    3.200    0.000    0.000 
#    0.000    0.000    0.000    0.000    0.000    0.000 
#
# Total GULP energy -167487.754995 kJ/mol
# GULP energy per Si atom -5582.925166 kJ/mol
# Density = 2.582606 g / cm^3
# Si number density = 25.884972 Si / 1000 Ang^3
#
#
#
# Elastic Constant Matrix: (Units=GPa)
#
#
# Indices 1 2 3 4 5 6 
#
# 1 71.2693 20.2978 17.3419 0.0000 3.3760 0.0000
# 2 20.2978 111.2247 6.5008 0.0000 4.2063 0.0000
# 3 17.3419 6.5008 56.8883 0.0000 -1.6012 0.0000
# 4 0.0000 0.0000 0.0000 27.4137 0.0000 5.9819
# 5 3.3760 4.2063 -1.6012 0.0000 18.1400 0.0000
# 6 0.0000 0.0000 0.0000 5.9819 0.0000 37.2578
#
#
#
# Elastic Compliance Matrix: (Units=1/GPa)
#
#
# Indices 1 2 3 4 5 6 
#
# 1 0.016026 -0.002545 -0.004674 0.000000 -0.002805 0.000000
# 2 -0.002545 0.009544 -0.000364 0.000000 -0.001771 0.000000
# 3 -0.004674 -0.000364 0.019119 0.000000 0.002642 0.000000
# 4 0.000000 0.000000 0.000000 0.037802 0.000000 -0.006069
# 5 -0.002805 -0.001771 0.002642 0.000000 0.056293 0.000000
# 6 0.000000 0.000000 0.000000 -0.006069 0.000000 0.027814
#
#
# Mechanical properties :
#
#
# Convention : Reuss Voigt Hill
#
# Bulk Modulus (GPa) = 33.87307 36.40702 35.14004
# Shear Modulus (GPa) = 26.09519 29.57845 27.83682
#
# Velocity S-wave (km/s) = 3.17854 3.38403 3.28289
# Velocity P-wave (km/s) = 5.15608 5.41889 5.28912
#
# Compressibility (1/GPa) = 0.02952198
#
# Stress axis : x y z
#
# Youngs Moduli (GPa) = 62.39740 104.78190 52.30403
#
# Poissons Ratio (x) = 0.26672 0.24444
# Poissons Ratio (y) = 0.15883 0.01906
# Poissons Ratio (z) = 0.29162 0.03819
#
# Static dielectric constant tensor:
#      x y z
#    x 2.012890 0.000000 0.030320 
#    y 0.000000 2.357920 0.000000 
#    z 0.030320 0.000000 2.547770 
# 
# From -- ./inp_files/58622.got.cif
#   From: 2010.05.17/outbox.cif.g08.bks.cpg/sg14_30_cif.got.tgz:58622.got - 2010.06.03 17:49:19.
