data_PCOD9245049
_publ_section_title
;
Structure prediction by ZEFSAII (Michael W. Deem and Ramdas Pophale) SiO2 
 PCOD9245049
Probable space group: P 21/C
;
_chemical_formula_sum "Si O2"
_cell_formula_units_Z 24
_cell_length_a 7.176516
_cell_length_b 8.382374
_cell_length_c 23.412174
_cell_angle_alpha 90.000000
_cell_angle_beta 37.661428
_cell_angle_gamma 90.000000
_cell_volume 860.517195
_symmetry_space_group_name_H-M "P 21/C"
_symmetry_group_IT_number 14
_symmetry_cell_setting 'monoclinic'
loop_
_space_group_symop_operation_xyz
x,y,z
-x,1/2+y,1/2-z
-x,-y,-z
x,1/2-y,1/2+z
loop_
_atom_site_type_symbol
_atom_site_label
_atom_site_fract_x
_atom_site_fract_y
_atom_site_fract_z
Si Si1 0.876246 0.796679 0.614468
Si Si2 0.688879 0.104546 0.386051
Si Si3 0.110146 0.187076 0.728814
Si Si4 0.202399 0.309294 0.542250
Si Si5 0.598185 0.126649 0.061157
Si Si6 0.319396 0.987473 0.780857
O O1 0.633002 0.937514 0.675354
O O2 0.688201 0.633450 0.672722
O O3 0.097347 0.838458 0.614204
O O4 0.117901 0.749728 0.507119
O O5 0.340211 0.143648 0.485646
O O6 0.792160 0.222177 0.309416
O O7 0.785682 0.926674 0.347637
O O8 0.365833 0.326875 0.667758
O O9 0.119451 0.066324 0.779227
O O10 0.277768 0.448722 0.478001
O O11 0.405555 0.348280 0.549254
O O12 0.860002 0.340645 0.646388
#
# Coordination Sequence:
#
# PCOD9245049 Si02
#       6
#     4   4   4   4   4   4
#     4   9  21  37  54  78 110 149 183 219 275 340
#     4  10  21  36  58  84 110 145 188 232 276 331
#     4  11  21  34  58  87 112 140 185 242 279 314
#     4   9  18  37  59  78 110 153 187 220 275 340
#     4   9  18  35  56  80 111 144 183 228 275 327
#     4  10  21  37  57  80 111 148 184 228 278 330
#
# _framework density 27.890201999999999
#
# number of rings (size 3 to 8) (size 9 to 14) (size 15 to 20)
#    0.000    2.333    0.000    5.000    0.000    7.333 
#    0.000    1.667    0.000   11.000    0.000    0.000 
#    0.000    0.000    0.000    0.000    0.000    0.000 
#
# Total GULP energy -134277.725222 kJ/mol
# GULP energy per Si atom -5594.905218 kJ/mol
# Density = 2.782672 g / cm^3
# Si number density = 27.890202 Si / 1000 Ang^3
#
#
#
# Elastic Constant Matrix: (Units=GPa)
#
#
# Indices 1 2 3 4 5 6 
#
# 1 67.9569 16.1035 -0.2373 0.0000 -6.6513 0.0000
# 2 16.1035 94.1119 45.1612 0.0000 3.6644 0.0000
# 3 -0.2373 45.1612 159.4792 0.0000 4.1011 0.0000
# 4 0.0000 0.0000 0.0000 46.2536 0.0000 15.2638
# 5 -6.6513 3.6644 4.1011 0.0000 24.7286 0.0000
# 6 0.0000 0.0000 0.0000 15.2638 0.0000 17.9444
#
#
#
# Elastic Compliance Matrix: (Units=1/GPa)
#
#
# Indices 1 2 3 4 5 6 
#
# 1 0.015959 -0.003316 0.000843 0.000000 0.004644 0.000000
# 2 -0.003316 0.013024 -0.003636 0.000000 -0.002219 0.000000
# 3 0.000843 -0.003636 0.007313 0.000000 -0.000447 0.000000
# 4 0.000000 0.000000 0.000000 0.030057 0.000000 -0.025567
# 5 0.004644 -0.002219 -0.000447 0.000000 0.042091 0.000000
# 6 0.000000 0.000000 0.000000 -0.025567 0.000000 0.077476
#
#
# Mechanical properties :
#
#
# Convention : Reuss Voigt Hill
#
# Bulk Modulus (GPa) = 41.53190 49.28922 45.41056
# Shear Modulus (GPa) = 24.25259 35.15335 29.70297
#
# Velocity S-wave (km/s) = 2.95205 3.55409 3.26697
# Velocity P-wave (km/s) = 5.15199 5.87818 5.52703
#
# Compressibility (1/GPa) = 0.02407788
#
# Stress axis : x y z
#
# Youngs Moduli (GPa) = 62.66249 76.77940 136.74596
#
# Poissons Ratio (x) = 0.25462 -0.11533
# Poissons Ratio (y) = 0.20780 0.49722
# Poissons Ratio (z) = -0.05285 0.27918
#
# Static dielectric constant tensor:
#      x y z
#    x 2.245620 0.000000 0.076250 
#    y 0.000000 2.158190 0.000000 
#    z 0.076250 0.000000 2.143340 
# 
# From -- ./inp_files/61765.got.cif
#   From: 2010.05.17/outbox.cif.g08.bks.cpg/sg14_31_cif.got.tgz:61765.got - 2010.06.03 17:49:19.
