data_PCOD9245446
_publ_section_title
;
Structure prediction by ZEFSAII (Michael W. Deem and Ramdas Pophale) SiO2 
 PCOD9245446
Probable space group: P 21/C
;
_chemical_formula_sum "Si O2"
_cell_formula_units_Z 24
_cell_length_a 8.805195
_cell_length_b 16.340925
_cell_length_c 14.233865
_cell_angle_alpha 90.000000
_cell_angle_beta 148.922743
_cell_angle_gamma 90.000000
_cell_volume 1057.184790
_symmetry_space_group_name_H-M "P 21/C"
_symmetry_group_IT_number 14
_symmetry_cell_setting 'monoclinic'
loop_
_space_group_symop_operation_xyz
x,y,z
-x,1/2+y,1/2-z
-x,-y,-z
x,1/2-y,1/2+z
loop_
_atom_site_type_symbol
_atom_site_label
_atom_site_fract_x
_atom_site_fract_y
_atom_site_fract_z
Si Si1 0.033854 0.791916 0.510745
Si Si2 0.882895 0.286410 0.726004
Si Si3 0.984004 0.620200 0.376279
Si Si4 0.352828 0.062927 0.774011
Si Si5 0.456180 0.090335 0.214042
Si Si6 0.238441 0.135528 0.897986
O O1 0.011627 0.788405 0.611251
O O2 0.001853 0.704242 0.446016
O O3 0.801147 0.857357 0.349817
O O4 0.356673 0.829138 0.662712
O O5 0.055893 0.349988 0.751431
O O6 0.963613 0.195181 0.735045
O O7 0.539818 0.311808 0.540291
O O8 0.735925 0.568336 0.297322
O O9 0.298112 0.577291 0.546539
O O10 0.249297 0.062976 0.827671
O O11 0.314829 0.978976 0.697877
O O12 0.262219 0.107055 0.018027
#
# Coordination Sequence:
#
# PCOD9245446 Si02
#       6
#     4   4   4   4   4   4
#     4  11  22  39  61  87 115 156 198 241 287 347
#     4  10  22  36  59  88 113 148 202 244 282 342
#     4  11  22  39  61  87 115 156 198 241 287 347
#     4  11  23  39  60  89 122 155 193 241 297 347
#     4  11  23  39  60  89 122 155 193 241 297 347
#     4  10  21  38  60  86 119 154 194 240 293 342
#
# _framework density 22.701803000000002
#
# number of rings (size 3 to 8) (size 9 to 14) (size 15 to 20)
#    0.000    1.333    3.333    2.500    4.667    0.000 
#    0.000    0.833    0.000    0.000    0.000    0.000 
#    0.000    0.000    0.000    0.000    0.000    0.000 
#
# Total GULP energy -134194.806506 kJ/mol
# GULP energy per Si atom -5591.450271 kJ/mol
# Density = 2.265013 g / cm^3
# Si number density = 22.701803 Si / 1000 Ang^3
#
#
#
# Elastic Constant Matrix: (Units=GPa)
#
#
# Indices 1 2 3 4 5 6 
#
# 1 98.5253 -12.1259 9.8445 0.0000 -0.2704 0.0000
# 2 -12.1259 52.9561 2.0884 0.0000 0.1799 0.0000
# 3 9.8445 2.0884 25.0373 0.0000 -7.2684 0.0000
# 4 0.0000 0.0000 0.0000 31.3631 0.0000 1.9415
# 5 -0.2704 0.1799 -7.2684 0.0000 16.9635 0.0000
# 6 0.0000 0.0000 0.0000 1.9415 0.0000 26.9702
#
#
#
# Elastic Compliance Matrix: (Units=1/GPa)
#
#
# Indices 1 2 3 4 5 6 
#
# 1 0.010994 0.002727 -0.005148 0.000000 -0.002060 0.000000
# 2 0.002727 0.019637 -0.003150 0.000000 -0.001514 0.000000
# 3 -0.005148 -0.003150 0.048210 0.000000 0.020608 0.000000
# 4 0.000000 0.000000 0.000000 0.032027 0.000000 -0.002306
# 5 -0.002060 -0.001514 0.020608 0.000000 0.067764 0.000000
# 6 0.000000 0.000000 0.000000 -0.002306 0.000000 0.037244
#
#
# Mechanical properties :
#
#
# Convention : Reuss Voigt Hill
#
# Bulk Modulus (GPa) = 14.77104 19.57030 17.17067
# Shear Modulus (GPa) = 20.03326 26.84013 23.43669
#
# Velocity S-wave (km/s) = 2.97383 3.44218 3.21654
# Velocity P-wave (km/s) = 4.27928 4.94342 4.62329
#
# Compressibility (1/GPa) = 0.06770003
#
# Stress axis : x y z
#
# Youngs Moduli (GPa) = 90.95785 50.92302 20.74253
#
# Poissons Ratio (x) = -0.13889 0.10679
# Poissons Ratio (y) = -0.24808 0.06534
# Poissons Ratio (z) = 0.46827 0.16041
#
# Static dielectric constant tensor:
#      x y z
#    x 1.889450 0.000000 -0.003810 
#    y 0.000000 1.879700 0.000000 
#    z -0.003810 0.000000 1.832150 
# 
# From -- ./inp_files/16612.got.cif
#   From: 2010.05.17/outbox.cif.g08.bks.cpg/sg14_9_cif.got.tgz:16612.got - 2010.06.03 17:49:19.
