data_PCOD9245288
_publ_section_title
;
Structure prediction by ZEFSAII (Michael W. Deem and Ramdas Pophale) SiO2 
 PCOD9245288
Probable space group: P 21/C
;
_chemical_formula_sum "Si O2"
_cell_formula_units_Z 28
_cell_length_a 20.339308
_cell_length_b 4.959582
_cell_length_c 10.288804
_cell_angle_alpha 90.000000
_cell_angle_beta 109.587345
_cell_angle_gamma 90.000000
_cell_volume 977.817210
_symmetry_space_group_name_H-M "P 21/C"
_symmetry_group_IT_number 14
_symmetry_cell_setting 'monoclinic'
loop_
_space_group_symop_operation_xyz
x,y,z
-x,1/2+y,1/2-z
-x,-y,-z
x,1/2-y,1/2+z
loop_
_atom_site_type_symbol
_atom_site_label
_atom_site_fract_x
_atom_site_fract_y
_atom_site_fract_z
Si Si1 0.416095 0.801595 0.522564
Si Si2 0.039249 0.046683 0.817320
Si Si3 0.723404 0.333509 0.443841
Si Si4 0.134270 0.766459 0.551930
Si Si5 0.836610 0.769519 0.760097
Si Si6 0.446581 0.501735 0.312073
Si Si7 0.305896 0.166849 0.756198
O O1 0.334919 0.721316 0.486348
O O2 0.435525 0.783396 0.382891
O O3 0.475356 0.593894 0.614932
O O4 0.426858 0.013835 0.647111
O O5 0.108068 0.197993 0.811736
O O6 0.987877 0.304030 0.795389
O O7 0.062659 0.861922 0.953446
O O8 0.805225 0.273335 0.517333
O O9 0.711111 0.618306 0.367389
O O10 0.705373 0.119924 0.317971
O O11 0.156589 0.570578 0.683877
O O12 0.139386 0.068921 0.606814
O O13 0.755130 0.711923 0.679116
O O14 0.387209 0.319919 0.345061
#
# Coordination Sequence:
#
# PCOD9245288 Si02
#       7
#     4   4   4   4   4   4   4
#     4  10  21  37  61  94 134 177 224 277 330 388
#     4  12  26  40  62  94 123 160 209 260 324 388
#     4   9  19  38  62  90 122 164 213 259 316 382
#     4  10  22  41  64  89 124 166 209 258 317 381
#     4  10  22  41  64  89 124 166 209 258 317 381
#     4  10  21  37  61  94 134 177 224 277 330 388
#     4   9  19  38  62  90 122 164 213 259 316 382
#
# _framework density 28.635207000000001
#
# number of rings (size 3 to 8) (size 9 to 14) (size 15 to 20)
#    0.000    2.000    0.000    2.571    2.000    4.000 
#    0.000    8.571    3.143    0.000    0.000    0.000 
#    0.000    0.000    0.000    0.000    0.000    0.000 
#
# Total GULP energy -156674.447998 kJ/mol
# GULP energy per Si atom -5595.516000 kJ/mol
# Density = 2.857003 g / cm^3
# Si number density = 28.635207 Si / 1000 Ang^3
#
#
#
# Elastic Constant Matrix: (Units=GPa)
#
#
# Indices 1 2 3 4 5 6 
#
# 1 122.6571 25.2254 20.2237 0.0000 -4.7312 0.0000
# 2 25.2254 106.4539 29.7557 0.0000 6.4625 0.0000
# 3 20.2237 29.7557 85.2402 0.0000 6.6533 0.0000
# 4 0.0000 0.0000 0.0000 24.0827 0.0000 5.3951
# 5 -4.7312 6.4625 6.6533 0.0000 40.9492 0.0000
# 6 0.0000 0.0000 0.0000 5.3951 0.0000 37.5644
#
#
#
# Elastic Compliance Matrix: (Units=1/GPa)
#
#
# Indices 1 2 3 4 5 6 
#
# 1 0.008836 -0.001738 -0.001611 0.000000 0.001557 0.000000
# 2 -0.001738 0.010797 -0.003249 0.000000 -0.001377 0.000000
# 3 -0.001611 -0.003249 0.013392 0.000000 -0.001849 0.000000
# 4 0.000000 0.000000 0.000000 0.042904 0.000000 -0.006162
# 5 0.001557 -0.001377 -0.001849 0.000000 0.025118 0.000000
# 6 0.000000 0.000000 0.000000 -0.006162 0.000000 0.027506
#
#
# Mechanical properties :
#
#
# Convention : Reuss Voigt Hill
#
# Bulk Modulus (GPa) = 50.43173 51.64008 51.03591
# Shear Modulus (GPa) = 33.70172 36.46237 35.08205
#
# Velocity S-wave (km/s) = 3.43437 3.57226 3.50399
# Velocity P-wave (km/s) = 5.77724 5.92348 5.85082
#
# Compressibility (1/GPa) = 0.01982878
#
# Stress axis : x y z
#
# Youngs Moduli (GPa) = 113.17412 92.61497 74.66884
#
# Poissons Ratio (x) = 0.16096 0.12031
# Poissons Ratio (y) = 0.19669 0.24263
# Poissons Ratio (z) = 0.18235 0.30094
#
# Static dielectric constant tensor:
#      x y z
#    x 2.312780 0.000000 -0.009670 
#    y 0.000000 2.229180 0.000000 
#    z -0.009670 0.000000 2.279850 
# 
# From -- ./inp_files/34596.got.cif
#   From: 2010.05.17/outbox.cif.g08.bks.cpg/sg14_18_cif.got.tgz:34596.got - 2010.06.03 17:49:19.
