data_PCOD9245637
_publ_section_title
;
Structure prediction by ZEFSAII (Michael W. Deem and Ramdas Pophale) SiO2 
 PCOD9245637
Probable space group: P 21/C
;
_chemical_formula_sum "Si O2"
_cell_formula_units_Z 24
_cell_length_a 10.935867
_cell_length_b 8.195899
_cell_length_c 17.976162
_cell_angle_alpha 90.000000
_cell_angle_beta 142.600910
_cell_angle_gamma 90.000000
_cell_volume 978.577625
_symmetry_space_group_name_H-M "P 21/C"
_symmetry_group_IT_number 14
_symmetry_cell_setting 'monoclinic'
loop_
_space_group_symop_operation_xyz
x,y,z
-x,1/2+y,1/2-z
-x,-y,-z
x,1/2-y,1/2+z
loop_
_atom_site_type_symbol
_atom_site_label
_atom_site_fract_x
_atom_site_fract_y
_atom_site_fract_z
Si Si1 0.457822 0.752500 0.697597
Si Si2 0.739884 0.935916 0.063202
Si Si3 0.794073 0.924443 0.925933
Si Si4 0.381872 0.520969 0.021298
Si Si5 0.931444 0.223624 0.703116
Si Si6 0.378296 0.711030 0.321185
O O1 0.366951 0.572780 0.651212
O O2 0.348246 0.825977 0.719614
O O3 0.693741 0.782942 0.828711
O O4 0.424431 0.838024 0.602311
O O5 0.833717 0.812490 0.169507
O O6 0.851035 0.109804 0.127098
O O7 0.499358 0.922165 0.930489
O O8 0.820570 0.873484 0.022978
O O9 0.000000 0.000000 0.000000
O O10 0.465566 0.362646 0.103449
O O11 0.500000 0.500000 0.000000
O O12 0.158213 0.569268 0.885937
O O13 0.814182 0.233920 0.725419
#
# Coordination Sequence:
#
# PCOD9245637 Si02
#       6
#     4   4   4   4   4   4
#     4  11  21  43  68  99 139 181 231 296 344 418
#     4  11  23  39  64  93 133 174 222 282 340 418
#     4  11  24  43  70 100 137 188 238 285 353 413
#     4  10  21  38  66  92 131 179 226 279 356 400
#     4  11  22  41  62  95 133 173 224 278 347 407
#     4  10  22  40  65  91 131 174 220 282 341 410
#
# _framework density 24.525393000000001
#
# number of rings (size 3 to 8) (size 9 to 14) (size 15 to 20)
#    0.000    1.333    3.333    2.500    2.333    0.000 
#    0.000    0.833    0.000    0.000    0.000    0.000 
#    0.000    0.000    0.000    0.000    0.000    0.000 
#
# Total GULP energy -133731.743966 kJ/mol
# GULP energy per Si atom -5572.155999 kJ/mol
# Density = 2.446957 g / cm^3
# Si number density = 24.525393 Si / 1000 Ang^3
#
#
#
# Elastic Constant Matrix: (Units=GPa)
#
#
# Indices 1 2 3 4 5 6 
#
# 1 45.8369 -0.7962 23.6585 0.0000 -4.6914 0.0000
# 2 -0.7962 93.7939 29.7347 0.0000 7.4367 0.0000
# 3 23.6585 29.7347 145.1617 0.0000 -5.3561 0.0000
# 4 0.0000 0.0000 0.0000 46.6508 0.0000 2.3305
# 5 -4.6914 7.4367 -5.3561 0.0000 42.7287 0.0000
# 6 0.0000 0.0000 0.0000 2.3305 0.0000 30.2231
#
#
#
# Elastic Compliance Matrix: (Units=1/GPa)
#
#
# Indices 1 2 3 4 5 6 
#
# 1 0.024177 0.001371 -0.004151 0.000000 0.001896 0.000000
# 2 0.001371 0.011707 -0.002704 0.000000 -0.002226 0.000000
# 3 -0.004151 -0.002704 0.008158 0.000000 0.001037 0.000000
# 4 0.000000 0.000000 0.000000 0.021519 0.000000 -0.001659
# 5 0.001896 -0.002226 0.001037 0.000000 0.024129 0.000000
# 6 0.000000 0.000000 0.000000 -0.001659 0.000000 0.033215
#
#
# Mechanical properties :
#
#
# Convention : Reuss Voigt Hill
#
# Bulk Modulus (GPa) = 30.23557 43.33184 36.78371
# Shear Modulus (GPa) = 34.50736 39.40022 36.95379
#
# Velocity S-wave (km/s) = 3.75508 4.01247 3.88591
# Velocity P-wave (km/s) = 5.58174 6.25884 5.92996
#
# Compressibility (1/GPa) = 0.03307362
#
# Stress axis : x y z
#
# Youngs Moduli (GPa) = 41.36173 85.41971 122.58629
#
# Poissons Ratio (x) = -0.11711 0.50889
# Poissons Ratio (y) = -0.05671 0.33142
# Poissons Ratio (z) = 0.17170 0.23094
#
# Static dielectric constant tensor:
#      x y z
#    x 1.978930 0.000000 -0.006080 
#    y 0.000000 2.124850 0.000000 
#    z -0.006080 0.000000 2.039150 
# 
# From -- ./inp_files/57187.got.cif
#   From: 2010.05.17/outbox.cif.g08.bks.cpg/sg14_29_cif.got.tgz:57187.got - 2010.06.03 17:49:19.
