data_PCOD9245708
_publ_section_title
;
Structure prediction by ZEFSAII (Michael W. Deem and Ramdas Pophale) SiO2 
 PCOD9245708
Probable space group: P 21/C
;
_chemical_formula_sum "Si O2"
_cell_formula_units_Z 28
_cell_length_a 20.888473
_cell_length_b 10.016534
_cell_length_c 16.013242
_cell_angle_alpha 90.000000
_cell_angle_beta 162.075900
_cell_angle_gamma 90.000000
_cell_volume 1031.124638
_symmetry_space_group_name_H-M "P 21/C"
_symmetry_group_IT_number 14
_symmetry_cell_setting 'monoclinic'
loop_
_space_group_symop_operation_xyz
x,y,z
-x,1/2+y,1/2-z
-x,-y,-z
x,1/2-y,1/2+z
loop_
_atom_site_type_symbol
_atom_site_label
_atom_site_fract_x
_atom_site_fract_y
_atom_site_fract_z
Si Si1 0.541622 0.137919 0.597195
Si Si2 0.159013 0.461843 0.447164
Si Si3 0.111412 0.474938 0.725849
Si Si4 0.736354 0.789092 0.138391
Si Si5 0.432691 0.299131 0.323533
Si Si6 0.934621 0.912875 0.531837
Si Si7 0.330881 0.726095 0.031064
O O1 0.323082 0.189318 0.358727
O O2 0.599323 0.248440 0.600052
O O3 0.500000 0.000000 0.500000
O O4 0.697217 0.094196 0.862710
O O5 0.290523 0.328993 0.623444
O O6 0.058846 0.466812 0.230974
O O7 0.000907 0.482081 0.327678
O O8 0.149010 0.316234 0.778713
O O9 0.000000 0.500000 0.500000
O O10 0.301290 0.578583 0.954500
O O11 0.852697 0.903000 0.334981
O O12 0.503883 0.811571 0.815356
O O13 0.555499 0.328687 0.391857
O O14 0.272834 0.400110 0.167635
O O15 0.099028 0.789948 0.748947
#
# Coordination Sequence:
#
# PCOD9245708 Si02
#       7
#     4   4   4   4   4   4   4
#     4   9  17  32  57  86 114 149 194 255 310 358
#     4  11  20  37  63  90 130 163 202 272 320 376
#     4  12  21  39  70 100 125 167 222 270 321 377
#     4  11  23  40  61  95 127 163 216 266 315 394
#     4  10  21  39  58  90 122 162 210 252 320 385
#     4  11  23  42  61  94 128 164 214 260 324 386
#     4  12  23  40  65  91 131 167 211 271 326 372
#
# _framework density 27.154817000000001
#
# number of rings (size 3 to 8) (size 9 to 14) (size 15 to 20)
#    0.000    1.143    4.286    5.143    0.000    0.000 
#    0.000    1.429    0.000    0.000    0.000    0.000 
#    0.000    0.000    0.000    0.000    0.000    0.000 
#
# Total GULP energy -156339.881634 kJ/mol
# GULP energy per Si atom -5583.567201 kJ/mol
# Density = 2.709301 g / cm^3
# Si number density = 27.154817 Si / 1000 Ang^3
#
#
#
# Elastic Constant Matrix: (Units=GPa)
#
#
# Indices 1 2 3 4 5 6 
#
# 1 84.8949 1.2201 31.9571 0.0000 3.6982 0.0000
# 2 1.2201 45.4721 15.9431 0.0000 -6.5304 0.0000
# 3 31.9571 15.9431 142.7124 0.0000 -36.5184 0.0000
# 4 0.0000 0.0000 0.0000 24.9218 0.0000 -4.2379
# 5 3.6982 -6.5304 -36.5184 0.0000 48.7831 0.0000
# 6 0.0000 0.0000 0.0000 -4.2379 0.0000 10.6151
#
#
#
# Elastic Compliance Matrix: (Units=1/GPa)
#
#
# Indices 1 2 3 4 5 6 
#
# 1 0.013495 0.000500 -0.004109 0.000000 -0.004032 0.000000
# 2 0.000500 0.022987 -0.002353 0.000000 0.001278 0.000000
# 3 -0.004109 -0.002353 0.010130 0.000000 0.007580 0.000000
# 4 0.000000 0.000000 0.000000 0.043048 0.000000 0.017186
# 5 -0.004032 0.001278 0.007580 0.000000 0.026650 0.000000
# 6 0.000000 0.000000 0.000000 0.017186 0.000000 0.101066
#
#
# Mechanical properties :
#
#
# Convention : Reuss Voigt Hill
#
# Bulk Modulus (GPa) = 28.83042 41.25780 35.04411
# Shear Modulus (GPa) = 20.75875 31.79460 26.27668
#
# Velocity S-wave (km/s) = 2.76789 3.42550 3.11410
# Velocity P-wave (km/s) = 4.56673 5.55625 5.08562
#
# Compressibility (1/GPa) = 0.03468559
#
# Stress axis : x y z
#
# Youngs Moduli (GPa) = 74.10320 43.50371 98.71984
#
# Poissons Ratio (x) = -0.02174 0.40569
# Poissons Ratio (y) = -0.03702 0.23227
# Poissons Ratio (z) = 0.30453 0.10236
#
# Static dielectric constant tensor:
#      x y z
#    x 2.304500 0.000000 -0.038090 
#    y 0.000000 2.573340 0.000000 
#    z -0.038090 0.000000 2.166770 
# 
# From -- ./inp_files/50586.got.cif
#   From: 2010.05.17/outbox.cif.g08.bks.cpg/sg14_26_cif.got.tgz:50586.got - 2010.06.03 17:49:19.
