data_PCOD9245938
_publ_section_title
;
Structure prediction by ZEFSAII (Michael W. Deem and Ramdas Pophale) SiO2 
 PCOD9245938
Probable space group: P 21/C
;
_chemical_formula_sum "Si O2"
_cell_formula_units_Z 32
_cell_length_a 11.367334
_cell_length_b 8.715709
_cell_length_c 13.993895
_cell_angle_alpha 90.000000
_cell_angle_beta 115.653906
_cell_angle_gamma 90.000000
_cell_volume 1249.769275
_symmetry_space_group_name_H-M "P 21/C"
_symmetry_group_IT_number 14
_symmetry_cell_setting 'monoclinic'
loop_
_space_group_symop_operation_xyz
x,y,z
-x,1/2+y,1/2-z
-x,-y,-z
x,1/2-y,1/2+z
loop_
_atom_site_type_symbol
_atom_site_label
_atom_site_fract_x
_atom_site_fract_y
_atom_site_fract_z
Si Si1 0.885900 0.803570 0.321315
Si Si2 0.845635 0.610086 0.010681
Si Si3 0.982135 0.521631 0.258568
Si Si4 0.357931 0.188601 0.987442
Si Si5 0.238247 0.655054 0.705562
Si Si6 0.385342 0.360940 0.812474
Si Si7 0.364559 0.871095 0.879656
Si Si8 0.320037 0.696571 0.060018
O O1 0.920553 0.868590 0.437160
O O2 0.988270 0.671159 0.326639
O O3 0.738666 0.736137 0.270570
O O4 0.898947 0.924387 0.239717
O O5 0.746019 0.469238 0.960300
O O6 0.916642 0.576143 0.135600
O O7 0.769250 0.770894 0.998660
O O8 0.888503 0.410546 0.287048
O O9 0.375265 0.334448 0.923288
O O10 0.358632 0.041033 0.919350
O O11 0.485403 0.162171 0.095900
O O12 0.351985 0.533789 0.771520
O O13 0.272748 0.819748 0.762228
O O14 0.236645 0.682960 0.592741
O O15 0.533194 0.311019 0.844699
O O16 0.331907 0.759315 0.956996
#
# Coordination Sequence:
#
# PCOD9245938 Si02
#       8
#     4   4   4   4   4   4   4   4
#     4  11  27  46  74 100 137 191 242 298 346 423
#     4  12  24  47  73 104 144 190 238 292 367 424
#     4  11  26  52  71 101 141 187 245 299 356 413
#     4  10  21  39  65  96 146 180 227 284 360 423
#     4  11  23  42  67  97 139 184 239 287 354 420
#     4  10  23  44  66 102 143 185 225 301 363 417
#     4  10  22  38  61 103 141 185 225 285 348 438
#     4  11  25  38  70 107 141 186 234 281 369 440
#
# _framework density 25.604727
#
# number of rings (size 3 to 8) (size 9 to 14) (size 15 to 20)
#    0.000    1.250    3.750    1.125   10.500    3.000 
#    0.000    0.625    0.000    0.000    0.000    0.000 
#    0.000    0.000    0.000    0.000    0.000    0.000 
#
# Total GULP energy -179166.708286 kJ/mol
# GULP energy per Si atom -5598.959634 kJ/mol
# Density = 2.554645 g / cm^3
# Si number density = 25.604727 Si / 1000 Ang^3
#
#
#
# Elastic Constant Matrix: (Units=GPa)
#
#
# Indices 1 2 3 4 5 6 
#
# 1 79.4056 30.6066 34.4297 0.0000 -13.0548 0.0000
# 2 30.6066 85.9946 4.2040 0.0000 2.7990 0.0000
# 3 34.4297 4.2040 71.2359 0.0000 -14.7824 0.0000
# 4 0.0000 0.0000 0.0000 39.7055 0.0000 -6.8207
# 5 -13.0548 2.7990 -14.7824 0.0000 34.8540 0.0000
# 6 0.0000 0.0000 0.0000 -6.8207 0.0000 37.4627
#
#
#
# Elastic Compliance Matrix: (Units=1/GPa)
#
#
# Indices 1 2 3 4 5 6 
#
# 1 0.019367 -0.006641 -0.008062 0.000000 0.004368 0.000000
# 2 -0.006641 0.013997 0.001792 0.000000 -0.002852 0.000000
# 3 -0.008062 0.001792 0.018829 0.000000 0.004822 0.000000
# 4 0.000000 0.000000 0.000000 0.025999 0.000000 0.004733
# 5 0.004368 -0.002852 0.004822 0.000000 0.032601 0.000000
# 6 0.000000 0.000000 0.000000 0.004733 0.000000 0.027555
#
#
# Mechanical properties :
#
#
# Convention : Reuss Voigt Hill
#
# Bulk Modulus (GPa) = 37.91970 41.67962 39.79966
# Shear Modulus (GPa) = 28.90807 33.56418 31.23612
#
# Velocity S-wave (km/s) = 3.36372 3.62451 3.49655
# Velocity P-wave (km/s) = 5.47065 5.81631 5.64613
#
# Compressibility (1/GPa) = 0.02637152
#
# Stress axis : x y z
#
# Youngs Moduli (GPa) = 51.63377 71.44144 53.10841
#
# Poissons Ratio (x) = 0.47445 0.42817
# Poissons Ratio (y) = 0.34290 -0.09517
# Poissons Ratio (z) = 0.41628 -0.12802
#
# Static dielectric constant tensor:
#      x y z
#    x 2.068830 0.000000 0.041290 
#    y 0.000000 2.028800 0.000000 
#    z 0.041290 0.000000 1.974940 
# 
# From -- ./inp_files/43789.got.cif
#   From: 2010.05.17/outbox.cif.g08.bks.cpg/sg14_22_cif.got.tgz:43789.got - 2010.06.03 17:49:19.
