data_PCOD9245339
_publ_section_title
;
Structure prediction by ZEFSAII (Michael W. Deem and Ramdas Pophale) SiO2 
 PCOD9245339
Probable space group: P 21/C
;
_chemical_formula_sum "Si O2"
_cell_formula_units_Z 32
_cell_length_a 11.711416
_cell_length_b 9.672531
_cell_length_c 14.529564
_cell_angle_alpha 90.000000
_cell_angle_beta 110.786035
_cell_angle_gamma 90.000000
_cell_volume 1538.767297
_symmetry_space_group_name_H-M "P 21/C"
_symmetry_group_IT_number 14
_symmetry_cell_setting 'monoclinic'
loop_
_space_group_symop_operation_xyz
x,y,z
-x,1/2+y,1/2-z
-x,-y,-z
x,1/2-y,1/2+z
loop_
_atom_site_type_symbol
_atom_site_label
_atom_site_fract_x
_atom_site_fract_y
_atom_site_fract_z
Si Si1 0.929291 0.987194 0.577002
Si Si2 0.313428 0.015404 0.592956
Si Si3 0.853780 0.316620 0.837760
Si Si4 0.870758 0.068092 0.984242
Si Si5 0.508184 0.764337 0.333978
Si Si6 0.838846 0.244252 0.131594
Si Si7 0.571080 0.217884 0.478908
Si Si8 0.595761 0.043564 0.847708
O O1 0.789865 0.949930 0.513273
O O2 0.928212 0.131587 0.630194
O O3 0.000000 0.000000 0.500000
O O4 0.013303 0.876998 0.650983
O O5 0.241060 0.927613 0.648867
O O6 0.423704 0.921773 0.581219
O O7 0.365979 0.154898 0.649800
O O8 0.871557 0.208637 0.924501
O O9 0.808915 0.257488 0.729224
O O10 0.737133 0.008634 0.916603
O O11 0.877211 0.101780 0.094847
O O12 0.000000 0.000000 0.000000
O O13 0.490907 0.782253 0.439302
O O14 0.414846 0.855197 0.244602
O O15 0.523004 0.601036 0.317691
O O16 0.713826 0.271233 0.042263
O O17 0.541078 0.354713 0.411303
#
# Coordination Sequence:
#
# PCOD9245339 Si02
#       8
#     4   4   4   4   4   4   4   4
#     4   9  18  38  61  86 122 169 213 264 322 389
#     4  10  21  41  66  94 128 178 215 274 331 388
#     4  11  21  39  65  88 135 170 220 264 334 388
#     4  11  24  42  66  93 135 166 213 276 328 387
#     4  12  25  40  72  94 136 168 230 270 326 403
#     4  10  21  37  64  91 122 172 210 266 330 385
#     4  10  21  44  65  90 131 171 220 272 336 384
#     4  11  25  44  66 103 128 177 221 271 338 388
#
# _framework density 20.795867999999999
#
# number of rings (size 3 to 8) (size 9 to 14) (size 15 to 20)
#    0.000    1.500    5.000    2.250    5.250    0.000 
#    0.000    0.000    2.750    0.000    0.000    0.000 
#    0.000    0.000    0.000    0.000    0.000    0.000 
#
# Total GULP energy -178233.420195 kJ/mol
# GULP energy per Si atom -5569.794381 kJ/mol
# Density = 2.074854 g / cm^3
# Si number density = 20.795868 Si / 1000 Ang^3
#
#
#
# Elastic Constant Matrix: (Units=GPa)
#
#
# Indices 1 2 3 4 5 6 
#
# 1 68.4071 31.8073 24.2284 0.0000 -7.1806 0.0000
# 2 31.8073 104.0597 35.5540 0.0000 -6.2822 0.0000
# 3 24.2284 35.5540 98.4504 0.0000 -18.5711 0.0000
# 4 0.0000 0.0000 0.0000 21.8155 0.0000 5.2411
# 5 -7.1806 -6.2822 -18.5711 0.0000 30.6932 0.0000
# 6 0.0000 0.0000 0.0000 5.2411 0.0000 31.5351
#
#
#
# Elastic Compliance Matrix: (Units=1/GPa)
#
#
# Indices 1 2 3 4 5 6 
#
# 1 0.017748 -0.004494 -0.002410 0.000000 0.001774 0.000000
# 2 -0.004494 0.012101 -0.003381 0.000000 -0.000620 0.000000
# 3 -0.002410 -0.003381 0.013247 0.000000 0.006759 0.000000
# 4 0.000000 0.000000 0.000000 0.047745 0.000000 -0.007935
# 5 0.001774 -0.000620 0.006759 0.000000 0.036958 0.000000
# 6 0.000000 0.000000 0.000000 -0.007935 0.000000 0.033029
#
#
# Mechanical properties :
#
#
# Convention : Reuss Voigt Hill
#
# Bulk Modulus (GPa) = 44.39573 50.45518 47.42546
# Shear Modulus (GPa) = 26.46784 28.76392 27.61588
#
# Velocity S-wave (km/s) = 3.57143 3.72311 3.64806
# Velocity P-wave (km/s) = 6.19689 6.54193 6.37175
#
# Compressibility (1/GPa) = 0.02252469
#
# Stress axis : x y z
#
# Youngs Moduli (GPa) = 56.34464 82.63463 75.49120
#
# Poissons Ratio (x) = 0.37139 0.18193
# Poissons Ratio (y) = 0.25323 0.25525
# Poissons Ratio (z) = 0.13579 0.27941
#
# Static dielectric constant tensor:
#      x y z
#    x 1.787900 0.000000 0.022030 
#    y 0.000000 1.818060 0.000000 
#    z 0.022030 0.000000 1.837510 
# 
# From -- ./inp_files/43795.got.cif
#   From: 2010.05.17/outbox.cif.g08.bks.cpg/sg14_22_cif.got.tgz:43795.got - 2010.06.03 17:49:19.
