data_PCOD9245231
_publ_section_title
;
Structure prediction by ZEFSAII (Michael W. Deem and Ramdas Pophale) SiO2 
 PCOD9245231
Probable space group: P 21/C
;
_chemical_formula_sum "Si O2"
_cell_formula_units_Z 30
_cell_length_a 6.956690
_cell_length_b 7.275030
_cell_length_c 33.327096
_cell_angle_alpha 90.000000
_cell_angle_beta 52.287143
_cell_angle_gamma 90.000000
_cell_volume 1334.316231
_symmetry_space_group_name_H-M "P 21/C"
_symmetry_group_IT_number 14
_symmetry_cell_setting 'monoclinic'
loop_
_space_group_symop_operation_xyz
x,y,z
-x,1/2+y,1/2-z
-x,-y,-z
x,1/2-y,1/2+z
loop_
_atom_site_type_symbol
_atom_site_label
_atom_site_fract_x
_atom_site_fract_y
_atom_site_fract_z
Si Si1 0.279586 0.751225 0.457316
Si Si2 0.334141 0.139229 0.747450
Si Si3 0.500000 0.500000 0.000000
Si Si4 0.395058 0.576240 0.563924
Si Si5 0.797969 0.774698 0.967623
Si Si6 0.204876 0.713094 0.760005
Si Si7 0.661778 0.630500 0.842955
Si Si8 0.182961 0.774849 0.172161
O O1 0.366412 0.550968 0.461725
O O2 0.016671 0.738158 0.470206
O O3 0.317469 0.899340 0.487224
O O4 0.471972 0.790726 0.397823
O O5 0.237130 0.932305 0.755520
O O6 0.398980 0.197966 0.694179
O O7 0.567090 0.137659 0.745368
O O8 0.107847 0.255264 0.793553
O O9 0.751609 0.596756 0.946502
O O10 0.220200 0.456000 0.557660
O O11 0.522909 0.751469 0.524743
O O12 0.274849 0.618644 0.621396
O O13 0.207995 0.641193 0.713672
O O14 0.943871 0.679589 0.812880
O O15 0.661533 0.410442 0.846056
#
# Coordination Sequence:
#
# PCOD9245231 Si02
#       8
#     4   4   2   4   4   4   4   4
#     4  11  22  39  62  87 117 158 198 247 305 359
#     4  10  21  37  59  84 115 155 195 240 297 356
#     4  10  22  38  60  86 116 152 194 244 292 352
#     4  10  22  39  60  87 118 154 198 248 300 359
#     4  10  22  41  61  87 120 155 200 247 299 359
#     4  10  21  38  58  85 117 152 195 243 292 354
#     4  10  22  38  58  85 117 151 196 244 293 355
#     4  10  21  38  57  83 117 152 192 244 297 350
#
# _framework density 22.483426999999999
#
# number of rings (size 3 to 8) (size 9 to 14) (size 15 to 20)
#    0.000    1.867    0.000    3.200    0.000    7.467 
#    0.000    5.333    0.000    0.000    0.000    0.000 
#    0.000    0.000    0.000    0.000    0.000    0.000 
#
# Total GULP energy -167172.841359 kJ/mol
# GULP energy per Si atom -5572.428045 kJ/mol
# Density = 2.243225 g / cm^3
# Si number density = 22.483427 Si / 1000 Ang^3
#
#
#
# Elastic Constant Matrix: (Units=GPa)
#
#
# Indices 1 2 3 4 5 6 
#
# 1 201.6469 31.7023 45.6112 0.0000 5.7982 0.0000
# 2 31.7023 66.4055 29.0410 0.0000 6.2759 0.0000
# 3 45.6112 29.0410 131.6756 0.0000 -5.6498 0.0000
# 4 0.0000 0.0000 0.0000 20.7009 0.0000 2.7078
# 5 5.7982 6.2759 -5.6498 0.0000 3.8357 0.0000
# 6 0.0000 0.0000 0.0000 2.7078 0.0000 31.4724
#
#
#
# Elastic Compliance Matrix: (Units=1/GPa)
#
#
# Indices 1 2 3 4 5 6 
#
# 1 0.005937 -0.000726 -0.002381 0.000000 -0.011294 0.000000
# 2 -0.000726 0.022685 -0.006722 0.000000 -0.045921 0.000000
# 3 -0.002381 -0.006722 0.011238 0.000000 0.031151 0.000000
# 4 0.000000 0.000000 0.000000 0.048857 0.000000 -0.004204
# 5 -0.011294 -0.045921 0.031151 0.000000 0.398796 0.000000
# 6 0.000000 0.000000 0.000000 -0.004204 0.000000 0.032136
#
#
# Mechanical properties :
#
#
# Convention : Reuss Voigt Hill
#
# Bulk Modulus (GPa) = 49.49843 68.04857 58.77350
# Shear Modulus (GPa) = 9.15684 30.76003 19.95844
#
# Velocity S-wave (km/s) = 2.02028 3.70282 2.98265
# Velocity P-wave (km/s) = 5.24456 6.97230 6.16921
#
# Compressibility (1/GPa) = 0.02020266
#
# Stress axis : x y z
#
# Youngs Moduli (GPa) = 168.44897 44.08159 88.98111
#
# Poissons Ratio (x) = 0.03198 0.21186
# Poissons Ratio (y) = 0.12222 0.59815
# Poissons Ratio (z) = 0.40106 0.29633
#
# Static dielectric constant tensor:
#      x y z
#    x 1.995090 0.000000 0.161580 
#    y 0.000000 4.112070 0.000000 
#    z 0.161580 0.000000 1.929460 
# 
# From -- ./inp_files/78772.got.cif
#   From: 2010.05.17/outbox.cif.g08.bks.cpg/sg14_40_cif.got.tgz:78772.got - 2010.06.03 17:49:19.
