data_PCOD9245431
_publ_section_title
;
Structure prediction by ZEFSAII (Michael W. Deem and Ramdas Pophale) SiO2 
 PCOD9245431
Probable space group: P 21/C
;
_chemical_formula_sum "Si O2"
_cell_formula_units_Z 32
_cell_length_a 11.835065
_cell_length_b 5.564541
_cell_length_c 25.087597
_cell_angle_alpha 90.000000
_cell_angle_beta 69.249657
_cell_angle_gamma 90.000000
_cell_volume 1545.014228
_symmetry_space_group_name_H-M "P 21/C"
_symmetry_group_IT_number 14
_symmetry_cell_setting 'monoclinic'
loop_
_space_group_symop_operation_xyz
x,y,z
-x,1/2+y,1/2-z
-x,-y,-z
x,1/2-y,1/2+z
loop_
_atom_site_type_symbol
_atom_site_label
_atom_site_fract_x
_atom_site_fract_y
_atom_site_fract_z
Si Si1 0.666747 0.643188 0.253592
Si Si2 0.347944 0.038331 0.364754
Si Si3 0.118209 0.228502 0.957691
Si Si4 0.823536 0.162361 0.135324
Si Si5 0.852043 0.376162 0.837186
Si Si6 0.945533 0.559697 0.926395
Si Si7 0.605645 0.347227 0.821748
Si Si8 0.096989 0.349837 0.279187
O O1 0.645486 0.664065 0.194166
O O2 0.608066 0.397454 0.285923
O O3 0.812475 0.622066 0.237686
O O4 0.628339 0.894750 0.287924
O O5 0.308492 0.770893 0.353069
O O6 0.235046 0.119237 0.419277
O O7 0.475041 0.103012 0.369378
O O8 0.994256 0.337213 0.953683
O O9 0.141750 0.982251 0.923598
O O10 0.106022 0.249549 0.022894
O O11 0.929926 0.357298 0.121886
O O12 0.838471 0.011798 0.186513
O O13 0.855525 0.498194 0.894218
O O14 0.717261 0.307579 0.843221
O O15 0.898147 0.540808 0.780386
O O16 0.959857 0.181876 0.820795
#
# Coordination Sequence:
#
# PCOD9245431 Si02
#       8
#     4   4   4   4   4   4   4   4
#     4  11  22  40  60  93 125 168 208 264 312 370
#     4  11  22  38  60  89 121 166 214 262 307 374
#     4  10  21  38  62  88 118 161 211 269 312 361
#     4  11  20  37  65  92 121 159 209 270 315 373
#     4  11  21  37  57  92 128 163 200 254 319 396
#     4  10  21  38  59  92 124 155 210 264 322 368
#     4  11  26  38  62  90 133 169 208 250 321 384
#     4  11  20  36  63  96 125 167 203 261 330 385
#
# _framework density 20.711781999999999
#
# number of rings (size 3 to 8) (size 9 to 14) (size 15 to 20)
#    0.000    1.250    2.500    4.875    1.750    1.000 
#    0.000    0.625    0.000    0.750    0.000    0.000 
#    0.000    0.000    0.000    0.000    0.000    0.000 
#
# Total GULP energy -178456.310719 kJ/mol
# GULP energy per Si atom -5576.759710 kJ/mol
# Density = 2.066464 g / cm^3
# Si number density = 20.711782 Si / 1000 Ang^3
#
#
#
# Elastic Constant Matrix: (Units=GPa)
#
#
# Indices 1 2 3 4 5 6 
#
# 1 100.8612 15.9990 28.9283 0.0000 -3.0038 0.0000
# 2 15.9990 66.6797 17.7961 0.0000 -3.8933 0.0000
# 3 28.9283 17.7961 90.3908 0.0000 5.5016 0.0000
# 4 0.0000 0.0000 0.0000 25.1456 0.0000 -9.5058
# 5 -3.0038 -3.8933 5.5016 0.0000 22.8455 0.0000
# 6 0.0000 0.0000 0.0000 -9.5058 0.0000 22.3142
#
#
#
# Elastic Compliance Matrix: (Units=1/GPa)
#
#
# Indices 1 2 3 4 5 6 
#
# 1 0.011209 -0.001670 -0.003380 0.000000 0.002003 0.000000
# 2 -0.001670 0.016358 -0.002885 0.000000 0.003263 0.000000
# 3 -0.003380 -0.002885 0.012960 0.000000 -0.004057 0.000000
# 4 0.000000 0.000000 0.000000 0.047402 0.000000 0.020193
# 5 0.002003 0.003263 -0.004057 0.000000 0.045569 0.000000
# 6 0.000000 0.000000 0.000000 0.020193 0.000000 0.053417
#
#
# Mechanical properties :
#
#
# Convention : Reuss Voigt Hill
#
# Bulk Modulus (GPa) = 40.55759 42.59761 41.57760
# Shear Modulus (GPa) = 23.69630 27.07495 25.38563
#
# Velocity S-wave (km/s) = 3.38612 3.61948 3.50474
# Velocity P-wave (km/s) = 5.90865 6.17082 6.04116
#
# Compressibility (1/GPa) = 0.02465630
#
# Stress axis : x y z
#
# Youngs Moduli (GPa) = 89.21625 61.13136 77.16208
#
# Poissons Ratio (x) = 0.10211 0.26083
# Poissons Ratio (y) = 0.14902 0.22259
# Poissons Ratio (z) = 0.30157 0.17634
#
# Static dielectric constant tensor:
#      x y z
#    x 1.801560 0.000000 -0.022940 
#    y 0.000000 1.886490 0.000000 
#    z -0.022940 0.000000 1.732010 
# 
# From -- ./inp_files/72831.got.cif
#   From: 2010.05.17/outbox.cif.g08.bks.cpg/sg14_37_cif.got.tgz:72831.got - 2010.06.03 17:49:19.
