data_PCOD9245205
_publ_section_title
;
Structure prediction by ZEFSAII (Michael W. Deem and Ramdas Pophale) SiO2 
 PCOD9245205
Probable space group: P 21/C
;
_chemical_formula_sum "Si O2"
_cell_formula_units_Z 20
_cell_length_a 7.671886
_cell_length_b 11.925167
_cell_length_c 11.651427
_cell_angle_alpha 90.000000
_cell_angle_beta 127.738555
_cell_angle_gamma 90.000000
_cell_volume 842.983157
_symmetry_space_group_name_H-M "P 21/C"
_symmetry_group_IT_number 14
_symmetry_cell_setting 'monoclinic'
loop_
_space_group_symop_operation_xyz
x,y,z
-x,1/2+y,1/2-z
-x,-y,-z
x,1/2-y,1/2+z
loop_
_atom_site_type_symbol
_atom_site_label
_atom_site_fract_x
_atom_site_fract_y
_atom_site_fract_z
Si Si1 0.448638 0.113622 0.336604
Si Si2 0.840582 0.970773 0.187910
Si Si3 0.223991 0.306996 0.527979
Si Si4 0.583334 0.336055 0.493202
Si Si5 0.793857 0.561244 0.020127
O O1 0.272189 0.133429 0.166234
O O2 0.588256 0.227722 0.415518
O O3 0.319032 0.089608 0.401927
O O4 0.614379 0.012115 0.382034
O O5 0.794113 0.090202 0.108116
O O6 0.000074 0.986728 0.358126
O O7 0.912326 0.881375 0.118744
O O8 0.602855 0.921623 0.129370
O O9 0.467536 0.299676 0.566297
O O10 0.142080 0.180758 0.506169
#
# Coordination Sequence:
#
# PCOD9245205 Si02
#       5
#     4   4   4   4   4
#     4  10  21  37  58  84 119 146 188 236 284 336
#     4   9  19  38  59  78 114 149 191 233 283 330
#     4   9  20  37  57  83 114 145 192 226 287 338
#     4   8  19  37  58  77 117 147 182 242 281 322
#     4  10  22  37  60  85 114 150 189 235 282 335
#
# _framework density 23.725266999999999
#
# number of rings (size 3 to 8) (size 9 to 14) (size 15 to 20)
#    1.200    1.600    0.000    0.000    5.600    0.800 
#    0.000    6.000    0.000    0.000    0.000    0.000 
#    0.000    0.000    0.000    0.000    0.000    0.000 
#
# Total GULP energy -111641.850465 kJ/mol
# GULP energy per Si atom -5582.092523 kJ/mol
# Density = 2.367127 g / cm^3
# Si number density = 23.725267 Si / 1000 Ang^3
#
#
#
# Elastic Constant Matrix: (Units=GPa)
#
#
# Indices 1 2 3 4 5 6 
#
# 1 39.8122 21.5262 19.5112 0.0000 -3.1208 0.0000
# 2 21.5262 102.0420 32.9263 0.0000 -6.3091 0.0000
# 3 19.5112 32.9263 83.9539 0.0000 -9.4391 0.0000
# 4 0.0000 0.0000 0.0000 34.1669 0.0000 -6.1616
# 5 -3.1208 -6.3091 -9.4391 0.0000 24.2116 0.0000
# 6 0.0000 0.0000 0.0000 -6.1616 0.0000 12.3044
#
#
#
# Elastic Compliance Matrix: (Units=1/GPa)
#
#
# Indices 1 2 3 4 5 6 
#
# 1 0.030206 -0.004682 -0.005107 0.000000 0.000682 0.000000
# 2 -0.004682 0.011983 -0.003481 0.000000 0.001162 0.000000
# 3 -0.005107 -0.003481 0.014942 0.000000 0.004260 0.000000
# 4 0.000000 0.000000 0.000000 0.032174 0.000000 0.016111
# 5 0.000682 0.001162 0.004260 0.000000 0.043354 0.000000
# 6 0.000000 0.000000 0.000000 0.016111 0.000000 0.089340
#
#
# Mechanical properties :
#
#
# Convention : Reuss Voigt Hill
#
# Bulk Modulus (GPa) = 32.68912 41.52617 37.10765
# Shear Modulus (GPa) = 19.32483 24.25955 21.79219
#
# Velocity S-wave (km/s) = 2.85709 3.20116 3.03400
# Velocity P-wave (km/s) = 4.96911 5.58606 5.28659
#
# Compressibility (1/GPa) = 0.03059122
#
# Stress axis : x y z
#
# Youngs Moduli (GPa) = 33.10630 83.45461 66.92424
#
# Poissons Ratio (x) = 0.39073 0.34178
# Poissons Ratio (y) = 0.15500 0.23295
# Poissons Ratio (z) = 0.16907 0.29049
#
# Static dielectric constant tensor:
#      x y z
#    x 1.950990 0.000000 -0.021280 
#    y 0.000000 1.928730 0.000000 
#    z -0.021280 0.000000 1.895340 
# 
# From -- ./inp_files/39200.got.cif
#   From: 2010.05.17/outbox.cif.g08.bks.cpg/sg14_20_cif.got.tgz:39200.got - 2010.06.03 17:49:19.
