data_PCOD9245316
_publ_section_title
;
Structure prediction by ZEFSAII (Michael W. Deem and Ramdas Pophale) SiO2 
 PCOD9245316
Probable space group: P 21/C
;
_chemical_formula_sum "Si O2"
_cell_formula_units_Z 32
_cell_length_a 7.505802
_cell_length_b 15.161092
_cell_length_c 12.554065
_cell_angle_alpha 90.000000
_cell_angle_beta 67.600748
_cell_angle_gamma 90.000000
_cell_volume 1320.817567
_symmetry_space_group_name_H-M "P 21/C"
_symmetry_group_IT_number 14
_symmetry_cell_setting 'monoclinic'
loop_
_space_group_symop_operation_xyz
x,y,z
-x,1/2+y,1/2-z
-x,-y,-z
x,1/2-y,1/2+z
loop_
_atom_site_type_symbol
_atom_site_label
_atom_site_fract_x
_atom_site_fract_y
_atom_site_fract_z
Si Si1 0.089544 0.537531 0.815783
Si Si2 0.441524 0.785596 0.450521
Si Si3 0.543881 0.414995 0.874418
Si Si4 0.932920 0.664870 0.546498
Si Si5 0.268416 0.846804 0.129024
Si Si6 0.808699 0.295204 0.681406
Si Si7 0.711939 0.905302 0.275898
Si Si8 0.102834 0.127063 0.440889
O O1 0.909743 0.563033 0.783565
O O2 0.276847 0.572137 0.709193
O O3 0.085889 0.434672 0.841901
O O4 0.043257 0.588675 0.936673
O O5 0.370956 0.868592 0.538668
O O6 0.446364 0.704008 0.533227
O O7 0.296865 0.757809 0.389974
O O8 0.634799 0.816265 0.348336
O O9 0.657186 0.367648 0.753790
O O10 0.568142 0.517471 0.844439
O O11 0.319857 0.391478 0.931651
O O12 0.757023 0.614020 0.641916
O O13 0.912140 0.769316 0.574259
O O14 0.123735 0.631525 0.565798
O O15 0.995477 0.662934 0.409156
O O16 0.167714 0.772316 0.226780
#
# Coordination Sequence:
#
# PCOD9245316 Si02
#       8
#     4   4   4   4   4   4   4   4
#     4  10  22  36  60  91 124 159 209 258 307 363
#     4  10  21  37  63  87 126 154 203 256 307 361
#     4  11  24  38  61  97 124 160 206 261 313 364
#     4  10  22  40  62  87 124 167 208 256 303 379
#     4   9  20  37  60  90 119 162 204 252 316 366
#     4  10  21  38  64  89 121 165 205 252 316 368
#     4  11  23  39  61  93 126 161 209 254 309 369
#     4  11  22  37  61  92 126 159 210 261 306 361
#
# _framework density 24.227419999999999
#
# number of rings (size 3 to 8) (size 9 to 14) (size 15 to 20)
#    0.000    1.750    2.500    1.125    7.000    0.500 
#    0.000    0.000    0.000    7.500    0.000    0.000 
#    0.000    0.000    0.000    0.000    0.000    0.000 
#
# Total GULP energy -178690.460178 kJ/mol
# GULP energy per Si atom -5584.076881 kJ/mol
# Density = 2.417228 g / cm^3
# Si number density = 24.227420 Si / 1000 Ang^3
#
#
#
# Elastic Constant Matrix: (Units=GPa)
#
#
# Indices 1 2 3 4 5 6 
#
# 1 38.4363 8.2686 11.7026 0.0000 -2.1064 0.0000
# 2 8.2686 54.6626 7.7223 0.0000 -12.5523 0.0000
# 3 11.7026 7.7223 100.4177 0.0000 -11.4165 0.0000
# 4 0.0000 0.0000 0.0000 43.9876 0.0000 -1.0427
# 5 -2.1064 -12.5523 -11.4165 0.0000 20.4929 0.0000
# 6 0.0000 0.0000 0.0000 -1.0427 0.0000 22.7558
#
#
#
# Elastic Compliance Matrix: (Units=1/GPa)
#
#
# Indices 1 2 3 4 5 6 
#
# 1 0.027756 -0.004076 -0.003075 0.000000 -0.001357 0.000000
# 2 -0.004076 0.021889 0.000286 0.000000 0.013148 0.000000
# 3 -0.003075 0.000286 0.010974 0.000000 0.005973 0.000000
# 4 0.000000 0.000000 0.000000 0.022758 0.000000 0.001043
# 5 -0.001357 0.013148 0.005973 0.000000 0.060039 0.000000
# 6 0.000000 0.000000 0.000000 0.001043 0.000000 0.043993
#
#
# Mechanical properties :
#
#
# Convention : Reuss Voigt Hill
#
# Bulk Modulus (GPa) = 21.32655 27.65595 24.49125
# Shear Modulus (GPa) = 23.06612 28.50215 25.78413
#
# Velocity S-wave (km/s) = 3.08891 3.43365 3.26583
# Velocity P-wave (km/s) = 4.64150 5.21151 4.93474
#
# Compressibility (1/GPa) = 0.04688992
#
# Stress axis : x y z
#
# Youngs Moduli (GPa) = 36.02847 45.68431 91.12589
#
# Poissons Ratio (x) = 0.18619 0.28025
# Poissons Ratio (y) = 0.14684 -0.02610
# Poissons Ratio (z) = 0.11080 -0.01309
#
# Static dielectric constant tensor:
#      x y z
#    x 1.996320 0.000000 -0.013000 
#    y 0.000000 1.991180 0.000000 
#    z -0.013000 0.000000 1.978490 
# 
# From -- ./inp_files/41211.got.cif
#   From: 2010.05.17/outbox.cif.g08.bks.cpg/sg14_21_cif.got.tgz:41211.got - 2010.06.03 17:49:19.
