data_PCOD9245191
_publ_section_title
;
Structure prediction by ZEFSAII (Michael W. Deem and Ramdas Pophale) SiO2 
 PCOD9245191
Probable space group: P 21/C
;
_chemical_formula_sum "Si O2"
_cell_formula_units_Z 20
_cell_length_a 16.166572
_cell_length_b 4.742057
_cell_length_c 25.468326
_cell_angle_alpha 90.000000
_cell_angle_beta 157.093546
_cell_angle_gamma 90.000000
_cell_volume 759.956731
_symmetry_space_group_name_H-M "P 21/C"
_symmetry_group_IT_number 14
_symmetry_cell_setting 'monoclinic'
loop_
_space_group_symop_operation_xyz
x,y,z
-x,1/2+y,1/2-z
-x,-y,-z
x,1/2-y,1/2+z
loop_
_atom_site_type_symbol
_atom_site_label
_atom_site_fract_x
_atom_site_fract_y
_atom_site_fract_z
Si Si1 0.150842 0.424018 0.827364
Si Si2 0.255289 0.015439 0.071638
Si Si3 0.726603 0.019539 0.345542
Si Si4 0.829400 0.765299 0.803837
Si Si5 0.611002 0.233098 0.630813
O O1 0.263083 0.583009 0.843740
O O2 0.980013 0.172048 0.719477
O O3 0.357938 0.282707 0.975973
O O4 0.486747 0.967287 0.183995
O O5 0.254693 0.839424 0.125703
O O6 0.246861 0.335569 0.085912
O O7 0.057374 0.902813 0.923161
O O8 0.862229 0.896277 0.377815
O O9 0.712704 0.539324 0.698440
O O10 0.675859 0.034385 0.717241
#
# Coordination Sequence:
#
# PCOD9245191 Si02
#       5
#     4   4   4   4   4
#     4  11  24  47  70  88 126 169 200 255 328 386
#     4  10  21  37  57  84 122 169 212 248 301 366
#     4  10  21  37  57  84 122 169 212 248 301 366
#     4  12  22  38  62  91 128 157 202 268 308 351
#     4  11  26  41  64 101 122 155 216 257 309 392
#
# _framework density 26.317287
#
# number of rings (size 3 to 8) (size 9 to 14) (size 15 to 20)
#    0.000    1.200    0.000    6.000    0.000    8.000 
#    0.000    0.000    0.000    0.000    0.000    0.000 
#    0.000    0.000    0.000    0.000    0.000    0.000 
#
# Total GULP energy -111904.840354 kJ/mol
# GULP energy per Si atom -5595.242018 kJ/mol
# Density = 2.625739 g / cm^3
# Si number density = 26.317287 Si / 1000 Ang^3
#
#
#
# Elastic Constant Matrix: (Units=GPa)
#
#
# Indices 1 2 3 4 5 6 
#
# 1 52.5787 6.6100 15.2535 0.0000 18.3542 0.0000
# 2 6.6100 128.7116 52.6254 0.0000 10.3385 0.0000
# 3 15.2535 52.6254 176.8905 0.0000 39.4426 0.0000
# 4 0.0000 0.0000 0.0000 56.4296 0.0000 0.7729
# 5 18.3542 10.3385 39.4426 0.0000 41.2480 0.0000
# 6 0.0000 0.0000 0.0000 0.7729 0.0000 33.3626
#
#
#
# Elastic Compliance Matrix: (Units=1/GPa)
#
#
# Indices 1 2 3 4 5 6 
#
# 1 0.022569 -0.000542 0.000539 0.000000 -0.010422 0.000000
# 2 -0.000542 0.008863 -0.002731 0.000000 0.000631 0.000000
# 3 0.000539 -0.002731 0.008033 0.000000 -0.007237 0.000000
# 4 0.000000 0.000000 0.000000 0.017727 0.000000 -0.000411
# 5 -0.010422 0.000631 -0.007237 0.000000 0.035643 0.000000
# 6 0.000000 0.000000 0.000000 -0.000411 0.000000 0.029983
#
#
# Mechanical properties :
#
#
# Convention : Reuss Voigt Hill
#
# Bulk Modulus (GPa) = 29.41447 56.35096 42.88271
# Shear Modulus (GPa) = 35.81208 45.12083 40.46645
#
# Velocity S-wave (km/s) = 3.69288 4.14514 3.92553
# Velocity P-wave (km/s) = 5.42073 6.66094 6.07258
#
# Compressibility (1/GPa) = 0.03399688
#
# Stress axis : x y z
#
# Youngs Moduli (GPa) = 44.30843 112.82921 124.49103
#
# Poissons Ratio (x) = 0.06119 -0.06711
# Poissons Ratio (y) = 0.02403 0.33995
# Poissons Ratio (z) = -0.02389 0.30810
#
# Static dielectric constant tensor:
#      x y z
#    x 2.112520 0.000000 -0.046710 
#    y 0.000000 1.986190 0.000000 
#    z -0.046710 0.000000 2.149190 
# 
# From -- ./inp_files/77727.got.cif
#   From: 2010.05.17/outbox.cif.g08.bks.cpg/sg14_39_cif.got.tgz:77727.got - 2010.06.03 17:49:19.
