data_PCOD9245767
_publ_section_title
;
Structure prediction by ZEFSAII (Michael W. Deem and Ramdas Pophale) SiO2 
 PCOD9245767
Probable space group: P 21/C
;
_chemical_formula_sum "Si O2"
_cell_formula_units_Z 28
_cell_length_a 11.353804
_cell_length_b 7.116390
_cell_length_c 25.355871
_cell_angle_alpha 90.000000
_cell_angle_beta 146.268970
_cell_angle_gamma 90.000000
_cell_volume 1137.636091
_symmetry_space_group_name_H-M "P 21/C"
_symmetry_group_IT_number 14
_symmetry_cell_setting 'monoclinic'
loop_
_space_group_symop_operation_xyz
x,y,z
-x,1/2+y,1/2-z
-x,-y,-z
x,1/2-y,1/2+z
loop_
_atom_site_type_symbol
_atom_site_label
_atom_site_fract_x
_atom_site_fract_y
_atom_site_fract_z
Si Si1 0.787524 0.770858 0.727808
Si Si2 0.756922 0.165108 0.856722
Si Si3 0.784784 0.662403 0.493446
Si Si4 0.711439 0.757001 0.581464
Si Si5 0.589270 0.452743 0.717942
Si Si6 0.331231 0.913619 0.573110
Si Si7 0.229315 0.803816 0.419993
O O1 0.771581 0.694382 0.662303
O O2 0.744144 0.614954 0.756464
O O3 0.588745 0.912791 0.661146
O O4 0.032490 0.816775 0.826838
O O5 0.716328 0.278047 0.787757
O O6 0.730426 0.306416 0.896596
O O7 0.569748 0.016268 0.794679
O O8 0.992251 0.083929 0.943432
O O9 0.790345 0.660406 0.558182
O O10 0.572862 0.574510 0.390657
O O11 0.764482 0.878678 0.465870
O O12 0.456864 0.742848 0.483368
O O13 0.783200 0.976837 0.603193
O O14 0.244835 0.806845 0.489205
#
# Coordination Sequence:
#
# PCOD9245767 Si02
#       7
#     4   4   4   4   4   4   4
#     4  10  21  39  61  91 122 157 204 254 300 354
#     4  11  23  41  63  89 123 159 200 254 306 360
#     4  11  22  40  62  88 124 162 199 250 307 361
#     4   9  20  37  59  88 119 159 205 240 295 366
#     4  11  24  40  61  91 120 155 209 253 303 373
#     4   9  20  38  63  91 118 159 205 243 302 370
#     4   9  18  37  61  86 122 161 198 245 298 354
#
# _framework density 24.612437
#
# number of rings (size 3 to 8) (size 9 to 14) (size 15 to 20)
#    0.000    2.000    0.000    4.286    0.000    5.143 
#    0.000   14.286    0.000    0.000    0.000    0.000 
#    0.000    0.000    0.000    0.000    0.000    0.000 
#
# Total GULP energy -156735.736458 kJ/mol
# GULP energy per Si atom -5597.704874 kJ/mol
# Density = 2.455642 g / cm^3
# Si number density = 24.612437 Si / 1000 Ang^3
#
#
#
# Elastic Constant Matrix: (Units=GPa)
#
#
# Indices 1 2 3 4 5 6 
#
# 1 93.1194 10.3599 39.7964 0.0000 3.7907 0.0000
# 2 10.3599 25.3556 11.3030 0.0000 0.7184 0.0000
# 3 39.7964 11.3030 117.5372 0.0000 19.4488 0.0000
# 4 0.0000 0.0000 0.0000 13.9679 0.0000 -8.4291
# 5 3.7907 0.7184 19.4488 0.0000 31.7482 0.0000
# 6 0.0000 0.0000 0.0000 -8.4291 0.0000 21.3351
#
#
#
# Elastic Compliance Matrix: (Units=1/GPa)
#
#
# Indices 1 2 3 4 5 6 
#
# 1 0.012875 -0.003413 -0.004217 0.000000 0.001123 0.000000
# 2 -0.003413 0.042189 -0.003128 0.000000 0.001369 0.000000
# 3 -0.004217 -0.003128 0.011286 0.000000 -0.006339 0.000000
# 4 0.000000 0.000000 0.000000 0.094006 0.000000 0.037140
# 5 0.001123 0.001369 -0.006339 0.000000 0.035216 0.000000
# 6 0.000000 0.000000 0.000000 0.037140 0.000000 0.061544
#
#
# Mechanical properties :
#
#
# Convention : Reuss Voigt Hill
#
# Bulk Modulus (GPa) = 22.30444 39.88119 31.09281
# Shear Modulus (GPa) = 17.03137 25.04711 21.03924
#
# Velocity S-wave (km/s) = 2.63341 3.19354 2.92690
# Velocity P-wave (km/s) = 4.28117 5.46234 4.90742
#
# Compressibility (1/GPa) = 0.04483413
#
# Stress axis : x y z
#
# Youngs Moduli (GPa) = 77.66961 23.70281 88.60907
#
# Poissons Ratio (x) = 0.08089 0.37366
# Poissons Ratio (y) = 0.26505 0.27719
# Poissons Ratio (z) = 0.32753 0.07415
#
# Static dielectric constant tensor:
#      x y z
#    x 1.899110 0.000000 -0.003980 
#    y 0.000000 2.006420 0.000000 
#    z -0.003980 0.000000 1.905120 
# 
# From -- ./inp_files/48589.got.cif
#   From: 2010.05.17/outbox.cif.g08.bks.cpg/sg14_25_cif.got.tgz:48589.got - 2010.06.03 17:49:19.
