data_PCOD9245225
_publ_section_title
;
Structure prediction by ZEFSAII (Michael W. Deem and Ramdas Pophale) SiO2 
 PCOD9245225
Probable space group: P 21/C
;
_chemical_formula_sum "Si O2"
_cell_formula_units_Z 32
_cell_length_a 15.847501
_cell_length_b 19.392940
_cell_length_c 8.942528
_cell_angle_alpha 90.000000
_cell_angle_beta 149.085759
_cell_angle_gamma 90.000000
_cell_volume 1411.953512
_symmetry_space_group_name_H-M "P 21/C"
_symmetry_group_IT_number 14
_symmetry_cell_setting 'monoclinic'
loop_
_space_group_symop_operation_xyz
x,y,z
-x,1/2+y,1/2-z
-x,-y,-z
x,1/2-y,1/2+z
loop_
_atom_site_type_symbol
_atom_site_label
_atom_site_fract_x
_atom_site_fract_y
_atom_site_fract_z
Si Si1 0.182894 0.018763 0.090135
Si Si2 0.519083 0.590505 0.826429
Si Si3 0.610675 0.794001 0.698557
Si Si4 0.251456 0.718512 0.757048
Si Si5 0.986189 0.110542 0.022800
Si Si6 0.174396 0.394939 0.292221
Si Si7 0.816298 0.348850 0.661484
Si Si8 0.315814 0.135410 0.707234
O O1 0.367160 0.030437 0.433608
O O2 0.062435 0.072198 0.995724
O O3 0.178034 0.042534 0.912774
O O4 0.113111 0.945069 0.029183
O O5 0.327117 0.594309 0.566701
O O6 0.556994 0.598732 0.709725
O O7 0.585160 0.659500 0.012299
O O8 0.444340 0.798882 0.543682
O O9 0.637376 0.714912 0.697718
O O10 0.758006 0.828372 0.014408
O O11 0.141174 0.671779 0.699332
O O12 0.228946 0.796875 0.772368
O O13 0.188610 0.697168 0.496630
O O14 0.143358 0.135301 0.355475
O O15 0.289045 0.403043 0.322188
O O16 0.992607 0.380197 0.959058
#
# Coordination Sequence:
#
# PCOD9245225 Si02
#       8
#     4   4   4   4   4   4   4   4
#     4   9  22  43  67  86 122 170 220 255 301 375
#     4   9  20  39  62  84 125 168 198 254 309 371
#     4  10  21  37  58  91 123 163 202 249 320 379
#     4  11  23  38  61  93 125 161 199 259 313 376
#     4  10  21  42  67  90 121 171 216 253 308 373
#     4  11  23  36  60  92 121 161 208 260 311 360
#     4  11  23  39  58  95 130 156 201 262 317 370
#     4  11  19  36  60  88 124 156 204 252 317 365
#
# _framework density 22.663637000000001
#
# number of rings (size 3 to 8) (size 9 to 14) (size 15 to 20)
#    0.000    1.750    2.500    1.500    3.500    1.500 
#    0.000    5.625    0.000    2.250    0.000    0.000 
#    0.000    0.000    0.000    0.000    0.000    0.000 
#
# Total GULP energy -179076.755551 kJ/mol
# GULP energy per Si atom -5596.148611 kJ/mol
# Density = 2.261205 g / cm^3
# Si number density = 22.663637 Si / 1000 Ang^3
#
#
#
# Elastic Constant Matrix: (Units=GPa)
#
#
# Indices 1 2 3 4 5 6 
#
# 1 98.8389 10.0415 41.2506 0.0000 6.9236 0.0000
# 2 10.0415 45.9209 25.8344 0.0000 4.1963 0.0000
# 3 41.2506 25.8344 75.6140 0.0000 -7.8933 0.0000
# 4 0.0000 0.0000 0.0000 11.5692 0.0000 7.3850
# 5 6.9236 4.1963 -7.8933 0.0000 21.0074 0.0000
# 6 0.0000 0.0000 0.0000 7.3850 0.0000 34.1261
#
#
#
# Elastic Compliance Matrix: (Units=1/GPa)
#
#
# Indices 1 2 3 4 5 6 
#
# 1 0.014642 0.003324 -0.010093 0.000000 -0.009282 0.000000
# 2 0.003324 0.029540 -0.013152 0.000000 -0.011938 0.000000
# 3 -0.010093 -0.013152 0.024820 0.000000 0.015279 0.000000
# 4 0.000000 0.000000 0.000000 0.100291 0.000000 -0.021703
# 5 -0.009282 -0.011938 0.015279 0.000000 0.058787 0.000000
# 6 0.000000 0.000000 0.000000 -0.021703 0.000000 0.034000
#
#
# Mechanical properties :
#
#
# Convention : Reuss Voigt Hill
#
# Bulk Modulus (GPa) = 34.29320 41.62519 37.95920
# Shear Modulus (GPa) = 16.04411 22.89033 19.46722
#
# Velocity S-wave (km/s) = 2.66357 3.18150 2.93399
# Velocity P-wave (km/s) = 4.96223 5.64821 5.31630
#
# Compressibility (1/GPa) = 0.02916030
#
# Stress axis : x y z
#
# Youngs Moduli (GPa) = 68.29606 33.85248 40.29051
#
# Poissons Ratio (x) = -0.11254 0.40664
# Poissons Ratio (y) = -0.22704 0.52992
# Poissons Ratio (z) = 0.68929 0.44524
#
# Static dielectric constant tensor:
#      x y z
#    x 1.866200 0.000000 0.003060 
#    y 0.000000 1.802660 0.000000 
#    z 0.003060 0.000000 1.811440 
# 
# From -- ./inp_files/17012.got.cif
#   From: 2010.05.17/outbox.cif.g08.bks.cpg/sg14_9_cif.got.tgz:17012.got - 2010.06.03 17:49:19.
