data_PCOD9245134
_publ_section_title
;
Structure prediction by ZEFSAII (Michael W. Deem and Ramdas Pophale) SiO2 
 PCOD9245134
Probable space group: P 21/C
;
_chemical_formula_sum "Si O2"
_cell_formula_units_Z 24
_cell_length_a 15.507882
_cell_length_b 11.297603
_cell_length_c 21.895975
_cell_angle_alpha 90.000000
_cell_angle_beta 19.503827
_cell_angle_gamma 90.000000
_cell_volume 1280.796848
_symmetry_space_group_name_H-M "P 21/C"
_symmetry_group_IT_number 14
_symmetry_cell_setting 'monoclinic'
loop_
_space_group_symop_operation_xyz
x,y,z
-x,1/2+y,1/2-z
-x,-y,-z
x,1/2-y,1/2+z
loop_
_atom_site_type_symbol
_atom_site_label
_atom_site_fract_x
_atom_site_fract_y
_atom_site_fract_z
Si Si1 0.822904 0.047502 0.845460
Si Si2 0.310424 0.500848 0.303389
Si Si3 0.214424 0.440397 0.498641
Si Si4 0.683179 0.568043 0.830181
Si Si5 0.372745 0.314403 0.577210
Si Si6 0.333469 0.302295 0.978590
O O1 0.099418 0.111922 0.656478
O O2 0.731217 0.015322 0.975603
O O3 0.818361 0.922332 0.812088
O O4 0.611775 0.130606 0.954147
O O5 0.372686 0.457081 0.330148
O O6 0.415872 0.431096 0.173441
O O7 0.445558 0.627483 0.204468
O O8 0.000000 0.500000 0.500000
O O9 0.218734 0.304126 0.515276
O O10 0.935663 0.488286 0.666418
O O11 0.738260 0.702454 0.812638
O O12 0.500000 0.500000 0.000000
O O13 0.454452 0.258223 0.457866
#
# Coordination Sequence:
#
# PCOD9245134 Si02
#       6
#     4   4   4   4   4   4
#     4  10  21  38  62  90 123 162 205 250 305 359
#     4  10  23  38  57  89 122 158 203 249 309 357
#     4  10  22  38  58  91 121 156 201 251 309 358
#     4  11  18  37  62  88 112 156 205 248 296 364
#     4  10  21  36  63  93 122 153 209 258 294 356
#     4  11  21  40  63  86 123 164 202 257 298 365
#
# _framework density 18.738336
#
# number of rings (size 3 to 8) (size 9 to 14) (size 15 to 20)
#    0.000    1.667    3.333    1.000    2.333    2.667 
#    6.000    0.000    0.000    4.000    0.000    0.000 
#    0.000    0.000    0.000    0.000    0.000    0.000 
#
# Total GULP energy -133644.321846 kJ/mol
# GULP energy per Si atom -5568.513410 kJ/mol
# Density = 1.869569 g / cm^3
# Si number density = 18.738336 Si / 1000 Ang^3
#
#
#
# Elastic Constant Matrix: (Units=GPa)
#
#
# Indices 1 2 3 4 5 6 
#
# 1 137.0590 63.0631 43.8438 0.0000 23.7333 0.0000
# 2 63.0631 128.5028 41.0593 0.0000 11.1986 0.0000
# 3 43.8438 41.0593 49.2890 0.0000 11.2237 0.0000
# 4 0.0000 0.0000 0.0000 30.9820 0.0000 1.7884
# 5 23.7333 11.1986 11.2237 0.0000 29.5095 0.0000
# 6 0.0000 0.0000 0.0000 1.7884 0.0000 29.5748
#
#
#
# Elastic Compliance Matrix: (Units=1/GPa)
#
#
# Indices 1 2 3 4 5 6 
#
# 1 0.011892 -0.003232 -0.006555 0.000000 -0.005845 0.000000
# 2 -0.003232 0.011497 -0.006898 0.000000 0.000860 0.000000
# 3 -0.006555 -0.006898 0.032920 0.000000 -0.004631 0.000000
# 4 0.000000 0.000000 0.000000 0.032390 0.000000 -0.001959
# 5 -0.005845 0.000860 -0.004631 0.000000 0.040023 0.000000
# 6 0.000000 0.000000 0.000000 -0.001959 0.000000 0.033931
#
#
# Mechanical properties :
#
#
# Convention : Reuss Voigt Hill
#
# Bulk Modulus (GPa) = 43.59407 67.86481 55.72944
# Shear Modulus (GPa) = 24.54931 29.13890 26.84410
#
# Velocity S-wave (km/s) = 3.62347 3.94768 3.78905
# Velocity P-wave (km/s) = 6.38915 7.55477 6.99628
#
# Compressibility (1/GPa) = 0.02293890
#
# Stress axis : x y z
#
# Youngs Moduli (GPa) = 84.08763 86.97587 30.37636
#
# Poissons Ratio (x) = 0.28114 0.19911
# Poissons Ratio (y) = 0.27181 0.20955
# Poissons Ratio (z) = 0.55118 0.59999
#
# Static dielectric constant tensor:
#      x y z
#    x 1.696560 0.000000 0.008480 
#    y 0.000000 1.653010 0.000000 
#    z 0.008480 0.000000 1.642190 
# 
# From -- ./inp_files/24151.got.cif
#   From: 2010.05.17/outbox.cif.g08.bks.cpg/sg14_13_cif.got.tgz:24151.got - 2010.06.03 17:49:19.
