data_PCOD9245240
_publ_section_title
;
Structure prediction by ZEFSAII (Michael W. Deem and Ramdas Pophale) SiO2 
 PCOD9245240
Probable space group: P 21/C
;
_chemical_formula_sum "Si O2"
_cell_formula_units_Z 32
_cell_length_a 19.471758
_cell_length_b 6.596662
_cell_length_c 19.871790
_cell_angle_alpha 90.000000
_cell_angle_beta 145.981169
_cell_angle_gamma 90.000000
_cell_volume 1428.037383
_symmetry_space_group_name_H-M "P 21/C"
_symmetry_group_IT_number 14
_symmetry_cell_setting 'monoclinic'
loop_
_space_group_symop_operation_xyz
x,y,z
-x,1/2+y,1/2-z
-x,-y,-z
x,1/2-y,1/2+z
loop_
_atom_site_type_symbol
_atom_site_label
_atom_site_fract_x
_atom_site_fract_y
_atom_site_fract_z
Si Si1 0.492992 0.020366 0.350210
Si Si2 0.364093 0.653751 0.166093
Si Si3 0.742968 0.461740 0.123443
Si Si4 0.830583 0.377003 0.792841
Si Si5 0.691045 0.662926 0.773004
Si Si6 0.113704 0.529645 0.899687
Si Si7 0.936149 0.673520 0.534756
Si Si8 0.059578 0.270579 0.673377
O O1 0.558144 0.130579 0.339139
O O2 0.607955 0.974202 0.491740
O O3 0.404996 0.163766 0.322625
O O4 0.415351 0.837641 0.253182
O O5 0.371577 0.446491 0.213989
O O6 0.220014 0.647665 0.028804
O O7 0.828024 0.479487 0.126188
O O8 0.806831 0.629736 0.220901
O O9 0.766049 0.244498 0.178452
O O10 0.727556 0.473697 0.755925
O O11 0.919491 0.568942 0.851746
O O12 0.937781 0.225135 0.903260
O O13 0.815489 0.777678 0.895088
O O14 0.082889 0.319500 0.914259
O O15 0.992659 0.668347 0.800969
O O16 0.963344 0.444489 0.577388
#
# Coordination Sequence:
#
# PCOD9245240 Si02
#       8
#     4   4   4   4   4   4   4   4
#     4  11  22  40  62  90 118 157 208 256 312 365
#     4  10  21  40  61  91 117 148 206 263 310 362
#     4  10  24  38  56  87 128 163 202 250 299 372
#     4  10  23  40  57  92 127 163 207 246 307 381
#     4  11  22  39  66  86 125 166 199 260 314 361
#     4   9  20  36  60  88 117 154 198 255 312 362
#     4   9  20  38  61  93 120 154 206 259 311 363
#     4  10  21  37  59  87 123 157 202 247 306 371
#
# _framework density 22.408377999999999
#
# number of rings (size 3 to 8) (size 9 to 14) (size 15 to 20)
#    0.000    2.000    1.250    1.125    5.250    4.000 
#    0.000    1.250    0.000    0.000    0.000    0.000 
#    0.000    0.000    0.000    0.000    0.000    0.000 
#
# Total GULP energy -178179.971731 kJ/mol
# GULP energy per Si atom -5568.124117 kJ/mol
# Density = 2.235738 g / cm^3
# Si number density = 22.408378 Si / 1000 Ang^3
#
#
#
# Elastic Constant Matrix: (Units=GPa)
#
#
# Indices 1 2 3 4 5 6 
#
# 1 34.0518 -2.8089 9.6614 0.0000 8.4573 0.0000
# 2 -2.8089 56.8664 19.0175 0.0000 3.7387 0.0000
# 3 9.6614 19.0175 50.9746 0.0000 3.6802 0.0000
# 4 0.0000 0.0000 0.0000 31.0046 0.0000 8.1064
# 5 8.4573 3.7387 3.6802 0.0000 24.3383 0.0000
# 6 0.0000 0.0000 0.0000 8.1064 0.0000 21.9635
#
#
#
# Elastic Compliance Matrix: (Units=1/GPa)
#
#
# Indices 1 2 3 4 5 6 
#
# 1 0.034868 0.005051 -0.007646 0.000000 -0.011736 0.000000
# 2 0.005051 0.020918 -0.008495 0.000000 -0.003684 0.000000
# 3 -0.007646 -0.008495 0.024214 0.000000 0.000300 0.000000
# 4 0.000000 0.000000 0.000000 0.035698 0.000000 -0.013176
# 5 -0.011736 -0.003684 0.000300 0.000000 0.045686 0.000000
# 6 0.000000 0.000000 0.000000 -0.013176 0.000000 0.050393
#
#
# Mechanical properties :
#
#
# Convention : Reuss Voigt Hill
#
# Bulk Modulus (GPa) = 17.29518 21.51475 19.40497
# Shear Modulus (GPa) = 19.74483 23.19613 21.47048
#
# Velocity S-wave (km/s) = 2.97161 3.22087 3.09875
# Velocity P-wave (km/s) = 4.41689 4.84294 4.63481
#
# Compressibility (1/GPa) = 0.05781958
#
# Stress axis : x y z
#
# Youngs Moduli (GPa) = 28.67988 47.80624 41.29772
#
# Poissons Ratio (x) = -0.24146 0.31574
# Poissons Ratio (y) = -0.14485 0.35084
# Poissons Ratio (z) = 0.21927 0.40613
#
# Static dielectric constant tensor:
#      x y z
#    x 1.922050 0.000000 -0.032360 
#    y 0.000000 1.818210 0.000000 
#    z -0.032360 0.000000 1.836330 
# 
# From -- ./inp_files/74549.got.cif
#   From: 2010.05.17/outbox.cif.g08.bks.cpg/sg14_38_cif.got.tgz:74549.got - 2010.06.03 17:49:19.
