data_PCOD9245649
_publ_section_title
;
Structure prediction by ZEFSAII (Michael W. Deem and Ramdas Pophale) SiO2 
 PCOD9245649
Probable space group: P 21/C
;
_chemical_formula_sum "Si O2"
_cell_formula_units_Z 32
_cell_length_a 21.857414
_cell_length_b 12.230066
_cell_length_c 10.616380
_cell_angle_alpha 90.000000
_cell_angle_beta 32.755729
_cell_angle_gamma 90.000000
_cell_volume 1535.494658
_symmetry_space_group_name_H-M "P 21/C"
_symmetry_group_IT_number 14
_symmetry_cell_setting 'monoclinic'
loop_
_space_group_symop_operation_xyz
x,y,z
-x,1/2+y,1/2-z
-x,-y,-z
x,1/2-y,1/2+z
loop_
_atom_site_type_symbol
_atom_site_label
_atom_site_fract_x
_atom_site_fract_y
_atom_site_fract_z
Si Si1 0.685374 0.532735 0.537153
Si Si2 0.432454 0.256843 0.145772
Si Si3 0.908854 0.445084 0.750809
Si Si4 0.000846 0.754344 0.278943
Si Si5 0.432055 0.807599 0.842208
Si Si6 0.901650 0.417596 0.200279
Si Si7 0.774820 0.634671 0.121467
Si Si8 0.194195 0.719446 0.261574
O O1 0.612406 0.622234 0.738668
O O2 0.610529 0.431130 0.614391
O O3 0.790657 0.484817 0.438370
O O4 0.737862 0.595463 0.324622
O O5 0.486104 0.203414 0.178958
O O6 0.328790 0.183661 0.276202
O O7 0.515218 0.266669 0.881514
O O8 0.976821 0.371832 0.733149
O O9 0.827889 0.360320 0.816931
O O10 0.000000 0.500000 0.500000
O O11 0.832586 0.533575 0.950821
O O12 0.025590 0.821121 0.361966
O O13 0.875154 0.776508 0.452962
O O14 0.098987 0.811512 0.026311
O O15 0.325570 0.729672 0.063303
O O16 0.840070 0.345670 0.201428
O O17 0.000000 0.500000 0.000000
#
# Coordination Sequence:
#
# PCOD9245649 Si02
#       8
#     4   4   4   4   4   4   4   4
#     4  11  25  47  73 104 139 188 240 297 369 423
#     4  12  28  50  73 106 140 194 243 307 347 429
#     4  11  24  41  65 105 146 182 230 286 371 437
#     4  11  24  41  68 104 142 181 232 291 364 443
#     4  11  27  49  75 100 144 188 251 293 357 425
#     4  10  21  38  66  99 138 177 223 286 358 429
#     4  12  26  44  72 107 145 184 238 299 363 428
#     4  10  24  42  67  99 138 186 231 293 345 440
#
# _framework density 20.840188999999999
#
# number of rings (size 3 to 8) (size 9 to 14) (size 15 to 20)
#    0.000    1.000    3.750    1.875   10.500    1.500 
#    2.250    0.000    0.000    0.000    0.000    0.000 
#    0.000    0.000    0.000    0.000    0.000    0.000 
#
# Total GULP energy -178418.521334 kJ/mol
# GULP energy per Si atom -5575.578792 kJ/mol
# Density = 2.079276 g / cm^3
# Si number density = 20.840189 Si / 1000 Ang^3
#
#
#
# Elastic Constant Matrix: (Units=GPa)
#
#
# Indices 1 2 3 4 5 6 
#
# 1 74.6939 22.8286 37.1728 0.0000 -19.9197 0.0000
# 2 22.8286 70.1415 20.5400 0.0000 -14.3624 0.0000
# 3 37.1728 20.5400 97.5315 0.0000 -8.7405 0.0000
# 4 0.0000 0.0000 0.0000 26.0465 0.0000 -38.0434
# 5 -19.9197 -14.3624 -8.7405 0.0000 36.1115 0.0000
# 6 0.0000 0.0000 0.0000 -38.0434 0.0000 -42.3163
#
#
#
# Elastic Compliance Matrix: (Units=1/GPa)
#
#
# Indices 1 2 3 4 5 6 
#
# 1 0.019462 -0.002892 -0.006082 0.000000 0.008113 0.000000
# 2 -0.002892 0.016722 -0.002010 0.000000 0.004569 0.000000
# 3 -0.006082 -0.002010 0.012902 0.000000 -0.001031 0.000000
# 4 0.000000 0.000000 0.000000 0.016598 0.000000 -0.014922
# 5 0.008113 0.004569 -0.001031 0.000000 0.033735 0.000000
# 6 0.000000 0.000000 0.000000 -0.014922 0.000000 -0.010216
#
#
# Mechanical properties :
#
#
# Convention : Reuss Voigt Hill
#
# Bulk Modulus (GPa) = 36.87418 44.82774 40.85096
# Shear Modulus (GPa) = 41.59388 14.75673 28.17530
#
# Velocity S-wave (km/s) = 4.47234 2.66388 3.68090
# Velocity P-wave (km/s) = 6.66343 5.56944 6.14084
#
# Compressibility (1/GPa) = 0.02711925
#
# Stress axis : x y z
#
# Youngs Moduli (GPa) = 51.38162 59.80037 77.50805
#
# Poissons Ratio (x) = 0.17294 0.47137
# Poissons Ratio (y) = 0.14860 0.15579
# Poissons Ratio (z) = 0.31248 0.12020
#
# Static dielectric constant tensor:
#      x y z
#    x 4.751120 0.000000 1.645100 
#    y 0.000000 1.593040 0.000000 
#    z 1.645100 0.000000 2.726400 
# 
# From -- ./inp_files/35914.got.cif
#   From: 2010.05.17/outbox.cif.g08.bks.cpg/sg14_18_cif.got.tgz:35914.got - 2010.06.03 17:49:19.
