data_PCOD9245119
_publ_section_title
;
Structure prediction by ZEFSAII (Michael W. Deem and Ramdas Pophale) SiO2 
 PCOD9245119
Probable space group: P 21/C
;
_chemical_formula_sum "Si O2"
_cell_formula_units_Z 28
_cell_length_a 18.130577
_cell_length_b 9.704654
_cell_length_c 12.912558
_cell_angle_alpha 90.000000
_cell_angle_beta 27.526431
_cell_angle_gamma 90.000000
_cell_volume 1050.011865
_symmetry_space_group_name_H-M "P 21/C"
_symmetry_group_IT_number 14
_symmetry_cell_setting 'monoclinic'
loop_
_space_group_symop_operation_xyz
x,y,z
-x,1/2+y,1/2-z
-x,-y,-z
x,1/2-y,1/2+z
loop_
_atom_site_type_symbol
_atom_site_label
_atom_site_fract_x
_atom_site_fract_y
_atom_site_fract_z
Si Si1 0.209331 0.030312 0.667358
Si Si2 0.825192 0.695383 0.056155
Si Si3 0.720860 0.503929 0.700959
Si Si4 0.535471 0.168923 0.280957
Si Si5 0.271713 0.907660 0.377526
Si Si6 0.031547 0.224015 0.344670
Si Si7 0.850392 0.064598 0.822472
O O1 0.249117 0.948160 0.722077
O O2 0.365108 0.127684 0.450652
O O3 0.068490 0.139168 0.863390
O O4 0.187703 0.936651 0.593741
O O5 0.885483 0.732611 0.866492
O O6 0.995125 0.654217 0.896300
O O7 0.731106 0.831716 0.204783
O O8 0.717335 0.558099 0.186780
O O9 0.848901 0.464769 0.450049
O O10 0.429040 0.559869 0.171503
O O11 0.575362 0.317609 0.280122
O O12 0.679041 0.135285 0.021011
O O13 0.148146 0.822435 0.459765
O O14 0.127401 0.084727 0.255489
#
# Coordination Sequence:
#
# PCOD9245119 Si02
#       7
#     4   4   4   4   4   4   4
#     4  11  23  36  64  94 120 158 209 245 314 355
#     4   9  16  36  62  82 115 165 195 239 302 354
#     4   9  20  38  62  90 127 159 194 262 301 357
#     4  10  21  36  62  89 128 158 200 244 303 372
#     4  10  21  37  60  87 116 164 210 247 291 366
#     4   9  17  36  56  83 114 156 202 240 290 354
#     4   8  17  32  61  81 122 159 195 238 297 350
#
# _framework density 26.666364000000002
#
# number of rings (size 3 to 8) (size 9 to 14) (size 15 to 20)
#    0.857    1.714    1.429    0.429    2.000    0.000 
#    0.000   21.429    3.143    0.000    0.000    1.000 
#    0.000    0.000    0.000    0.000    0.000    0.000 
#
# Total GULP energy -156356.841479 kJ/mol
# GULP energy per Si atom -5584.172910 kJ/mol
# Density = 2.660567 g / cm^3
# Si number density = 26.666364 Si / 1000 Ang^3
#
#
#
# Elastic Constant Matrix: (Units=GPa)
#
#
# Indices 1 2 3 4 5 6 
#
# 1 64.2258 -0.1326 21.7227 0.0000 -0.5976 0.0000
# 2 -0.1326 132.7762 38.8052 0.0000 -12.8622 0.0000
# 3 21.7227 38.8052 95.4516 0.0000 -23.5192 0.0000
# 4 0.0000 0.0000 0.0000 44.2976 0.0000 -5.0284
# 5 -0.5976 -12.8622 -23.5192 0.0000 44.7644 0.0000
# 6 0.0000 0.0000 0.0000 -5.0284 0.0000 24.3538
#
#
#
# Elastic Compliance Matrix: (Units=1/GPa)
#
#
# Indices 1 2 3 4 5 6 
#
# 1 0.017219 0.001263 -0.004924 0.000000 -0.001994 0.000000
# 2 0.001263 0.008660 -0.003665 0.000000 0.000579 0.000000
# 3 -0.004924 -0.003665 0.014717 0.000000 0.006613 0.000000
# 4 0.000000 0.000000 0.000000 0.023116 0.000000 0.004773
# 5 -0.001994 0.000579 0.006613 0.000000 0.025954 0.000000
# 6 0.000000 0.000000 0.000000 0.004773 0.000000 0.042047
#
#
# Mechanical properties :
#
#
# Convention : Reuss Voigt Hill
#
# Bulk Modulus (GPa) = 38.54422 45.91604 42.23013
# Shear Modulus (GPa) = 32.25540 38.15373 35.20456
#
# Velocity S-wave (km/s) = 3.48169 3.78667 3.63738
# Velocity P-wave (km/s) = 5.53611 6.03113 5.78892
#
# Compressibility (1/GPa) = 0.02594423
#
# Stress axis : x y z
#
# Youngs Moduli (GPa) = 58.07407 115.47214 67.95034
#
# Poissons Ratio (x) = -0.14584 0.33456
# Poissons Ratio (y) = -0.07335 0.24906
# Poissons Ratio (z) = 0.28593 0.42325
#
# Static dielectric constant tensor:
#      x y z
#    x 2.109560 0.000000 0.023880 
#    y 0.000000 2.140990 0.000000 
#    z 0.023880 0.000000 2.150680 
# 
# From -- ./inp_files/61897.got.cif
#   From: 2010.05.17/outbox.cif.g08.bks.cpg/sg14_31_cif.got.tgz:61897.got - 2010.06.03 17:49:19.
