data_PCOD9245768
_publ_section_title
;
Structure prediction by ZEFSAII (Michael W. Deem and Ramdas Pophale) SiO2 
 PCOD9245768
Probable space group: P 21/C
;
_chemical_formula_sum "Si O2"
_cell_formula_units_Z 28
_cell_length_a 11.253556
_cell_length_b 13.373122
_cell_length_c 9.080272
_cell_angle_alpha 90.000000
_cell_angle_beta 116.378428
_cell_angle_gamma 90.000000
_cell_volume 1224.252071
_symmetry_space_group_name_H-M "P 21/C"
_symmetry_group_IT_number 14
_symmetry_cell_setting 'monoclinic'
loop_
_space_group_symop_operation_xyz
x,y,z
-x,1/2+y,1/2-z
-x,-y,-z
x,1/2-y,1/2+z
loop_
_atom_site_type_symbol
_atom_site_label
_atom_site_fract_x
_atom_site_fract_y
_atom_site_fract_z
Si Si1 0.098905 0.619169 0.277239
Si Si2 0.768284 0.469539 0.381568
Si Si3 0.736932 0.465022 0.875262
Si Si4 0.800384 0.875375 0.637268
Si Si5 0.287909 0.688488 0.883327
Si Si6 0.545825 0.892737 0.899840
Si Si7 0.574313 0.747259 0.652158
O O1 0.119942 0.564723 0.444306
O O2 0.146282 0.542018 0.178625
O O3 0.201400 0.711670 0.326721
O O4 0.948735 0.654938 0.176174
O O5 0.810460 0.543174 0.273991
O O6 0.715385 0.370186 0.272125
O O7 0.653601 0.527130 0.406937
O O8 0.599547 0.431108 0.724496
O O9 0.732467 0.569078 0.961100
O O10 0.767495 0.382350 0.018089
O O11 0.707773 0.790479 0.653100
O O12 0.439821 0.706254 0.009832
O O13 0.571233 0.791735 0.815397
O O14 0.562057 0.864344 0.080193
#
# Coordination Sequence:
#
# PCOD9245768 Si02
#       7
#     4   4   4   4   4   4   4
#     4  12  22  38  63  92 124 165 213 255 312 381
#     4  10  23  41  65  90 127 166 211 257 314 380
#     4  10  21  39  61  91 123 163 212 256 317 372
#     4  10  23  43  58  91 128 170 199 260 328 373
#     4  10  21  41  65  88 125 168 207 265 313 371
#     4  10  21  40  65  95 123 168 211 266 312 360
#     4  10  21  40  63  89 126 158 218 258 311 368
#
# _framework density 22.871108
#
# number of rings (size 3 to 8) (size 9 to 14) (size 15 to 20)
#    0.000    1.714    1.429    2.571    2.000    5.143 
#   15.429    0.000    0.000    0.000    0.000    0.000 
#    0.000    0.000    0.000    0.000    0.000    0.000 
#
# Total GULP energy -156580.054900 kJ/mol
# GULP energy per Si atom -5592.144818 kJ/mol
# Density = 2.281905 g / cm^3
# Si number density = 22.871108 Si / 1000 Ang^3
#
#
#
# Elastic Constant Matrix: (Units=GPa)
#
#
# Indices 1 2 3 4 5 6 
#
# 1 84.1706 1.2248 26.0466 0.0000 16.1904 0.0000
# 2 1.2248 40.1557 41.4455 0.0000 -3.2589 0.0000
# 3 26.0466 41.4455 84.0212 0.0000 -8.0370 0.0000
# 4 0.0000 0.0000 0.0000 24.1191 0.0000 -11.4170
# 5 16.1904 -3.2589 -8.0370 0.0000 31.3128 0.0000
# 6 0.0000 0.0000 0.0000 -11.4170 0.0000 27.2480
#
#
#
# Elastic Compliance Matrix: (Units=1/GPa)
#
#
# Indices 1 2 3 4 5 6 
#
# 1 0.017455 0.010683 -0.011726 0.000000 -0.010923 0.000000
# 2 0.010683 0.057312 -0.032334 0.000000 -0.007858 0.000000
# 3 -0.011726 -0.032334 0.032543 0.000000 0.011050 0.000000
# 4 0.000000 0.000000 0.000000 0.051719 0.000000 0.021670
# 5 -0.010923 -0.007858 0.011050 0.000000 0.039602 0.000000
# 6 0.000000 0.000000 0.000000 0.021670 0.000000 0.045780
#
#
# Mechanical properties :
#
#
# Convention : Reuss Voigt Hill
#
# Bulk Modulus (GPa) = 24.65641 38.42016 31.53828
# Shear Modulus (GPa) = 15.39967 25.84470 20.62218
#
# Velocity S-wave (km/s) = 2.59766 3.36522 3.00604
# Velocity P-wave (km/s) = 4.44985 5.65107 5.08605
#
# Compressibility (1/GPa) = 0.04055741
#
# Stress axis : x y z
#
# Youngs Moduli (GPa) = 57.29125 17.44831 30.72826
#
# Poissons Ratio (x) = -0.18641 0.36031
# Poissons Ratio (y) = -0.61206 0.99357
# Poissons Ratio (z) = 0.67177 0.56418
#
# Static dielectric constant tensor:
#      x y z
#    x 1.836760 0.000000 -0.036410 
#    y 0.000000 1.876460 0.000000 
#    z -0.036410 0.000000 1.840810 
# 
# From -- ./inp_files/13144.got.cif
#   From: 2010.05.17/outbox.cif.g08.bks.cpg/sg14_7_cif.got.tgz:13144.got - 2010.06.03 17:49:19.
