data_PCOD9245117
_publ_section_title
;
Structure prediction by ZEFSAII (Michael W. Deem and Ramdas Pophale) SiO2 
 PCOD9245117
Probable space group: P 21/C
;
_chemical_formula_sum "Si O2"
_cell_formula_units_Z 24
_cell_length_a 24.131026
_cell_length_b 5.127971
_cell_length_c 17.063976
_cell_angle_alpha 90.000000
_cell_angle_beta 148.287858
_cell_angle_gamma 90.000000
_cell_volume 1109.940893
_symmetry_space_group_name_H-M "P 21/C"
_symmetry_group_IT_number 14
_symmetry_cell_setting 'monoclinic'
loop_
_space_group_symop_operation_xyz
x,y,z
-x,1/2+y,1/2-z
-x,-y,-z
x,1/2-y,1/2+z
loop_
_atom_site_type_symbol
_atom_site_label
_atom_site_fract_x
_atom_site_fract_y
_atom_site_fract_z
Si Si1 0.607244 0.655951 0.143624
Si Si2 0.727632 0.463422 0.152716
Si Si3 0.869814 0.399200 0.934413
Si Si4 0.427482 0.725997 0.156562
Si Si5 0.074259 0.300894 0.636015
Si Si6 0.684803 0.352760 0.818726
O O1 0.664744 0.674172 0.128696
O O2 0.669223 0.446177 0.272055
O O3 0.606419 0.938621 0.182188
O O4 0.500000 0.500000 0.000000
O O5 0.797370 0.305339 0.299287
O O6 0.816655 0.580412 0.202426
O O7 0.641365 0.292072 0.004894
O O8 0.888355 0.612633 0.889176
O O9 0.799392 0.450865 0.926267
O O10 0.990671 0.315661 0.096702
O O11 0.518004 0.504110 0.263990
O O12 0.348057 0.651354 0.130944
O O13 0.000000 0.500000 0.500000
#
# Coordination Sequence:
#
# PCOD9245117 Si02
#       6
#     4   4   4   4   4   4
#     4  11  21  36  59  88 114 154 209 251 290 353
#     4  10  21  36  62  87 120 162 203 250 307 364
#     4   9  19  35  64  90 116 152 203 258 305 363
#     4  12  27  43  60  88 130 170 202 247 308 367
#     4   9  17  35  61  93 115 148 202 258 313 355
#     4  11  22  39  59  87 120 158 196 253 303 355
#
# _framework density 21.622775000000001
#
# number of rings (size 3 to 8) (size 9 to 14) (size 15 to 20)
#    0.000    1.667    1.667    3.500    2.333    1.333 
#    0.000    0.000   11.000    0.000    0.000    0.000 
#    0.000    0.000    0.000    0.000    0.000    0.000 
#
# Total GULP energy -133719.425506 kJ/mol
# GULP energy per Si atom -5571.642729 kJ/mol
# Density = 2.157356 g / cm^3
# Si number density = 21.622775 Si / 1000 Ang^3
#
#
#
# Elastic Constant Matrix: (Units=GPa)
#
#
# Indices 1 2 3 4 5 6 
#
# 1 120.3760 -7.8828 11.3512 0.0000 16.1335 0.0000
# 2 -7.8828 52.1113 -6.4485 0.0000 -1.8146 0.0000
# 3 11.3512 -6.4485 48.6338 0.0000 16.0339 0.0000
# 4 0.0000 0.0000 0.0000 16.0643 0.0000 7.7399
# 5 16.1335 -1.8146 16.0339 0.0000 26.2675 0.0000
# 6 0.0000 0.0000 0.0000 7.7399 0.0000 30.1920
#
#
#
# Elastic Compliance Matrix: (Units=1/GPa)
#
#
# Indices 1 2 3 4 5 6 
#
# 1 0.009127 0.001168 -0.000193 0.000000 -0.005407 0.000000
# 2 0.001168 0.019661 0.002658 0.000000 -0.000982 0.000000
# 3 -0.000193 0.002658 0.026115 0.000000 -0.015639 0.000000
# 4 0.000000 0.000000 0.000000 0.071022 0.000000 -0.018207
# 5 -0.005407 -0.000982 -0.015639 0.000000 0.050869 0.000000
# 6 0.000000 0.000000 0.000000 -0.018207 0.000000 0.037789
#
#
# Mechanical properties :
#
#
# Convention : Reuss Voigt Hill
#
# Bulk Modulus (GPa) = 16.08471 23.90677 19.99574
# Shear Modulus (GPa) = 21.92609 29.44485 25.68547
#
# Velocity S-wave (km/s) = 3.18783 3.69420 3.45032
# Velocity P-wave (km/s) = 4.58308 5.41077 5.01403
#
# Compressibility (1/GPa) = 0.06217086
#
# Stress axis : x y z
#
# Youngs Moduli (GPa) = 109.56859 50.86169 38.29186
#
# Poissons Ratio (x) = -0.05943 0.00737
# Poissons Ratio (y) = -0.12803 -0.10178
# Poissons Ratio (z) = 0.02109 -0.13519
#
# Static dielectric constant tensor:
#      x y z
#    x 1.929240 0.000000 0.075890 
#    y 0.000000 1.955470 0.000000 
#    z 0.075890 0.000000 1.871650 
# 
# From -- ./inp_files/49730.got.cif
#   From: 2010.05.17/outbox.cif.g08.bks.cpg/sg14_25_cif.got.tgz:49730.got - 2010.06.03 17:49:19.
