data_PCOD9245157
_publ_section_title
;
Structure prediction by ZEFSAII (Michael W. Deem and Ramdas Pophale) SiO2 
 PCOD9245157
Probable space group: P 21/C
;
_chemical_formula_sum "Si O2"
_cell_formula_units_Z 28
_cell_length_a 10.979373
_cell_length_b 15.124720
_cell_length_c 8.833058
_cell_angle_alpha 90.000000
_cell_angle_beta 60.203237
_cell_angle_gamma 90.000000
_cell_volume 1272.894390
_symmetry_space_group_name_H-M "P 21/C"
_symmetry_group_IT_number 14
_symmetry_cell_setting 'monoclinic'
loop_
_space_group_symop_operation_xyz
x,y,z
-x,1/2+y,1/2-z
-x,-y,-z
x,1/2-y,1/2+z
loop_
_atom_site_type_symbol
_atom_site_label
_atom_site_fract_x
_atom_site_fract_y
_atom_site_fract_z
Si Si1 0.063607 0.436421 0.834108
Si Si2 0.592151 0.782406 0.499328
Si Si3 0.978248 0.333566 0.619220
Si Si4 0.585987 0.335847 0.157530
Si Si5 0.209400 0.284804 0.883423
Si Si6 0.651490 0.462369 0.359090
Si Si7 0.188164 0.804442 0.072256
O O1 0.081480 0.341740 0.901741
O O2 0.221248 0.469387 0.703570
O O3 0.978752 0.416694 0.733174
O O4 0.000000 0.500000 0.000000
O O5 0.485529 0.838576 0.463458
O O6 0.515537 0.712218 0.656599
O O7 0.701181 0.832029 0.541051
O O8 0.686251 0.733419 0.317523
O O9 0.904498 0.347714 0.503414
O O10 0.904888 0.250114 0.749727
O O11 0.139197 0.304326 0.490164
O O12 0.633181 0.427746 0.199001
O O13 0.715608 0.270095 0.062422
O O14 0.500000 0.500000 0.500000
O O15 0.708399 0.376636 0.416604
#
# Coordination Sequence:
#
# PCOD9245157 Si02
#       7
#     4   4   4   4   4   4   4
#     4  12  26  44  68 101 148 177 221 299 361 397
#     4  10  21  36  71  95 121 169 243 270 322 403
#     4  12  23  43  74 100 129 188 245 278 335 429
#     4  11  21  42  68  95 130 182 231 271 337 428
#     4  11  21  41  67  99 128 173 235 285 328 414
#     4  12  27  44  66 105 148 176 218 303 365 393
#     4  12  23  44  73  99 134 187 243 278 337 434
#
# _framework density 21.997111
#
# number of rings (size 3 to 8) (size 9 to 14) (size 15 to 20)
#    0.000    0.571    5.714    2.571    4.000    0.571 
#    2.571    0.714    0.000    0.000    0.000    0.000 
#    0.000    0.000    0.000    0.000    0.000    0.000 
#
# Total GULP energy -156445.777608 kJ/mol
# GULP energy per Si atom -5587.349200 kJ/mol
# Density = 2.194704 g / cm^3
# Si number density = 21.997111 Si / 1000 Ang^3
#
#
#
# Elastic Constant Matrix: (Units=GPa)
#
#
# Indices 1 2 3 4 5 6 
#
# 1 114.4048 -8.4358 18.7283 0.0000 17.1297 0.0000
# 2 -8.4358 27.2693 2.1771 0.0000 -11.0595 0.0000
# 3 18.7283 2.1771 95.6529 0.0000 -14.7087 0.0000
# 4 0.0000 0.0000 0.0000 34.4489 0.0000 -2.3868
# 5 17.1297 -11.0595 -14.7087 0.0000 47.8032 0.0000
# 6 0.0000 0.0000 0.0000 -2.3868 0.0000 29.2888
#
#
#
# Elastic Compliance Matrix: (Units=1/GPa)
#
#
# Indices 1 2 3 4 5 6 
#
# 1 0.009877 0.001660 -0.002579 0.000000 -0.003949 0.000000
# 2 0.001660 0.040774 0.000111 0.000000 0.008873 0.000000
# 3 -0.002579 0.000111 0.011654 0.000000 0.004536 0.000000
# 4 0.000000 0.000000 0.000000 0.029193 0.000000 0.002379
# 5 -0.003949 0.008873 0.004536 0.000000 0.025782 0.000000
# 6 0.000000 0.000000 0.000000 0.002379 0.000000 0.034337
#
#
# Mechanical properties :
#
#
# Convention : Reuss Voigt Hill
#
# Bulk Modulus (GPa) = 16.47714 29.14069 22.80891
# Shear Modulus (GPa) = 28.82462 37.29869 33.06165
#
# Velocity S-wave (km/s) = 3.62385 4.12225 3.88106
# Velocity P-wave (km/s) = 5.00165 5.99446 5.52042
#
# Compressibility (1/GPa) = 0.06069013
#
# Stress axis : x y z
#
# Youngs Moduli (GPa) = 101.24887 24.52524 85.80512
#
# Poissons Ratio (x) = -0.04071 0.22127
# Poissons Ratio (y) = -0.16805 -0.00956
# Poissons Ratio (z) = 0.26110 -0.00273
#
# Static dielectric constant tensor:
#      x y z
#    x 1.887120 0.000000 0.017610 
#    y 0.000000 1.851270 0.000000 
#    z 0.017610 0.000000 1.823080 
# 
# From -- ./inp_files/13006.got.cif
#   From: 2010.05.17/outbox.cif.g08.bks.cpg/sg14_7_cif.got.tgz:13006.got - 2010.06.03 17:49:19.
