data_PCOD9245460
_publ_section_title
;
Structure prediction by ZEFSAII (Michael W. Deem and Ramdas Pophale) SiO2 
 PCOD9245460
Probable space group: P 21/C
;
_chemical_formula_sum "Si O2"
_cell_formula_units_Z 18
_cell_length_a 7.080327
_cell_length_b 4.895417
_cell_length_c 19.217119
_cell_angle_alpha 90.000000
_cell_angle_beta 113.678870
_cell_angle_gamma 90.000000
_cell_volume 610.010107
_symmetry_space_group_name_H-M "P 21/C"
_symmetry_group_IT_number 14
_symmetry_cell_setting 'monoclinic'
loop_
_space_group_symop_operation_xyz
x,y,z
-x,1/2+y,1/2-z
-x,-y,-z
x,1/2-y,1/2+z
loop_
_atom_site_type_symbol
_atom_site_label
_atom_site_fract_x
_atom_site_fract_y
_atom_site_fract_z
Si Si1 0.283809 0.629517 0.097533
Si Si2 0.500000 0.000000 0.000000
Si Si3 0.522214 0.386970 0.660754
Si Si4 0.123332 0.253559 0.782439
Si Si5 0.184598 0.031873 0.443230
O O1 0.322081 0.920396 0.136740
O O2 0.056732 0.516493 0.075209
O O3 0.450400 0.422586 0.153927
O O4 0.313935 0.674061 0.015862
O O5 0.597330 0.074862 0.092407
O O6 0.703718 0.799526 0.012426
O O7 0.699632 0.561713 0.725436
O O8 0.184620 0.421827 0.860904
O O9 0.039374 0.508906 0.725119
#
# Coordination Sequence:
#
# PCOD9245460 Si02
#       5
#     4   2   4   4   4
#     4  10  21  38  64  94 122 154 202 271 326 367
#     4   8  18  34  58  88 120 154 196 256 304 360
#     4  10  21  38  60  90 122 158 206 256 318 373
#     4  11  24  41  62  88 124 171 215 254 306 386
#     4   9  21  38  63  93 126 161 207 261 322 373
#
# _framework density 29.507709999999999
#
# number of rings (size 3 to 8) (size 9 to 14) (size 15 to 20)
#    0.000    2.222    0.000    1.333    0.000   23.111 
#    0.000    4.444    0.000    0.000    0.000    0.000 
#    0.000    0.000    0.000    0.000    0.000    0.000 
#
# Total GULP energy -100237.043483 kJ/mol
# GULP energy per Si atom -5568.724638 kJ/mol
# Density = 2.944055 g / cm^3
# Si number density = 29.507710 Si / 1000 Ang^3
#
#
#
# Elastic Constant Matrix: (Units=GPa)
#
#
# Indices 1 2 3 4 5 6 
#
# 1 127.6396 29.2248 59.4070 0.0000 4.5481 0.0000
# 2 29.2248 177.2996 33.6580 0.0000 20.9441 0.0000
# 3 59.4070 33.6580 99.4215 0.0000 1.9518 0.0000
# 4 0.0000 0.0000 0.0000 60.0967 0.0000 40.7121
# 5 4.5481 20.9441 1.9518 0.0000 54.3864 0.0000
# 6 0.0000 0.0000 0.0000 40.7121 0.0000 28.3873
#
#
#
# Elastic Compliance Matrix: (Units=1/GPa)
#
#
# Indices 1 2 3 4 5 6 
#
# 1 0.010924 -0.000542 -0.006335 0.000000 -0.000478 0.000000
# 2 -0.000542 0.006343 -0.001778 0.000000 -0.002333 0.000000
# 3 -0.006335 -0.001778 0.014431 0.000000 0.000696 0.000000
# 4 0.000000 0.000000 0.000000 0.585121 0.000000 -0.839159
# 5 -0.000478 -0.002333 0.000696 0.000000 0.019300 0.000000
# 6 0.000000 0.000000 0.000000 -0.839159 0.000000 1.238717
#
#
# Mechanical properties :
#
#
# Convention : Reuss Voigt Hill
#
# Bulk Modulus (GPa) = 69.49296 72.10447 70.79871
# Shear Modulus (GPa) = 2.63582 47.37883 25.00733
#
# Velocity S-wave (km/s) = 0.94615 4.01139 2.91432
# Velocity P-wave (km/s) = 4.97951 6.77819 5.94724
#
# Compressibility (1/GPa) = 0.01438995
#
# Stress axis : x y z
#
# Youngs Moduli (GPa) = 91.54255 157.66457 69.29329
#
# Poissons Ratio (x) = 0.08540 0.43894
# Poissons Ratio (y) = 0.04959 0.12319
# Poissons Ratio (z) = 0.57988 0.28029
#
# Static dielectric constant tensor:
#      x y z
#    x 2.220530 0.000000 0.118400 
#    y 0.000000 2.149640 0.000000 
#    z 0.118400 0.000000 2.416240 
# 
# From -- ./inp_files/71492.got.cif
#   From: 2010.05.17/outbox.cif.g08.bks.cpg/sg14_36_cif.got.tgz:71492.got - 2010.06.03 17:49:19.
