data_PCOD9245626
_publ_section_title
;
Structure prediction by ZEFSAII (Michael W. Deem and Ramdas Pophale) SiO2 
 PCOD9245626
Probable space group: P 21/C
;
_chemical_formula_sum "Si O2"
_cell_formula_units_Z 32
_cell_length_a 17.243411
_cell_length_b 10.440261
_cell_length_c 14.067667
_cell_angle_alpha 90.000000
_cell_angle_beta 145.735453
_cell_angle_gamma 90.000000
_cell_volume 1425.858428
_symmetry_space_group_name_H-M "P 21/C"
_symmetry_group_IT_number 14
_symmetry_cell_setting 'monoclinic'
loop_
_space_group_symop_operation_xyz
x,y,z
-x,1/2+y,1/2-z
-x,-y,-z
x,1/2-y,1/2+z
loop_
_atom_site_type_symbol
_atom_site_label
_atom_site_fract_x
_atom_site_fract_y
_atom_site_fract_z
Si Si1 0.495323 0.914219 0.399743
Si Si2 0.854828 0.214325 0.173091
Si Si3 0.345820 0.471185 0.374361
Si Si4 0.116098 0.080099 0.501058
Si Si5 0.035905 0.792353 0.414382
Si Si6 0.764784 0.685780 0.062428
Si Si7 0.693470 0.958159 0.950255
Si Si8 0.728130 0.261425 0.220417
O O1 0.635187 0.864503 0.492085
O O2 0.400632 0.800462 0.346082
O O3 0.500000 0.000000 0.500000
O O4 0.414138 0.990703 0.235335
O O5 0.901922 0.288185 0.128266
O O6 0.749785 0.297712 0.131806
O O7 0.991427 0.181165 0.372388
O O8 0.796676 0.077791 0.073918
O O9 0.500000 0.500000 0.500000
O O10 0.242778 0.393311 0.201666
O O11 0.358344 0.429677 0.495467
O O12 0.276851 0.610122 0.299783
O O13 0.181390 0.084351 0.461032
O O14 0.043566 0.942493 0.447611
O O15 0.137116 0.709312 0.582181
O O16 0.886961 0.729506 0.256287
O O17 0.742962 0.815227 0.975991
#
# Coordination Sequence:
#
# PCOD9245626 Si02
#       8
#     4   4   4   4   4   4   4   4
#     4  12  28  47  64 102 142 188 229 279 349 422
#     4  10  21  40  68 101 135 179 228 285 348 398
#     4  10  21  38  65  98 132 176 228 280 338 405
#     4  10  22  40  71 107 133 178 235 288 345 405
#     4  10  21  43  72  98 138 175 236 288 341 411
#     4  11  25  43  72 102 141 182 227 291 343 415
#     4  11  23  42  68  93 138 177 228 285 338 414
#     4  10  23  41  68  95 134 183 222 285 341 412
#
# _framework density 22.442620000000002
#
# number of rings (size 3 to 8) (size 9 to 14) (size 15 to 20)
#    0.000    1.500    2.500    1.500    3.500    6.500 
#    2.250    0.625    0.000    0.000    0.000    0.000 
#    0.000    0.000    0.000    0.000    0.000    0.000 
#
# Total GULP energy -178401.126991 kJ/mol
# GULP energy per Si atom -5575.035218 kJ/mol
# Density = 2.239154 g / cm^3
# Si number density = 22.442620 Si / 1000 Ang^3
#
#
#
# Elastic Constant Matrix: (Units=GPa)
#
#
# Indices 1 2 3 4 5 6 
#
# 1 124.1842 21.4207 56.1610 0.0000 9.6295 0.0000
# 2 21.4207 57.3866 23.5337 0.0000 -2.4386 0.0000
# 3 56.1610 23.5337 124.9144 0.0000 -3.6028 0.0000
# 4 0.0000 0.0000 0.0000 22.5280 0.0000 1.3562
# 5 9.6295 -2.4386 -3.6028 0.0000 34.0753 0.0000
# 6 0.0000 0.0000 0.0000 1.3562 0.0000 29.2978
#
#
#
# Elastic Compliance Matrix: (Units=1/GPa)
#
#
# Indices 1 2 3 4 5 6 
#
# 1 0.010783 -0.002330 -0.004515 0.000000 -0.003691 0.000000
# 2 -0.002330 0.019421 -0.002560 0.000000 0.001778 0.000000
# 3 -0.004515 -0.002560 0.010582 0.000000 0.002212 0.000000
# 4 0.000000 0.000000 0.000000 0.044513 0.000000 -0.002060
# 5 -0.003691 0.001778 0.002212 0.000000 0.030751 0.000000
# 6 0.000000 0.000000 0.000000 -0.002060 0.000000 0.034228
#
#
# Mechanical properties :
#
#
# Convention : Reuss Voigt Hill
#
# Bulk Modulus (GPa) = 45.50755 56.52402 51.01578
# Shear Modulus (GPa) = 28.34267 30.87155 29.60711
#
# Velocity S-wave (km/s) = 3.55758 3.71290 3.63607
# Velocity P-wave (km/s) = 6.09889 6.60466 6.35681
#
# Compressibility (1/GPa) = 0.02197438
#
# Stress axis : x y z
#
# Youngs Moduli (GPa) = 92.74100 51.49123 94.50306
#
# Poissons Ratio (x) = 0.11998 0.42672
# Poissons Ratio (y) = 0.21609 0.24193
# Poissons Ratio (z) = 0.41876 0.13182
#
# Static dielectric constant tensor:
#      x y z
#    x -1.347880 0.000000 -0.446220 
#    y 0.000000 1.930520 0.000000 
#    z -0.446220 0.000000 1.793820 
# 
# From -- ./inp_files/49026.got.cif
#   From: 2010.05.17/outbox.cif.g08.bks.cpg/sg14_25_cif.got.tgz:49026.got - 2010.06.03 17:49:19.
