data_PCOD9245512
_publ_section_title
;
Structure prediction by ZEFSAII (Michael W. Deem and Ramdas Pophale) SiO2 
 PCOD9245512
Probable space group: P 21/C
;
_chemical_formula_sum "Si O2"
_cell_formula_units_Z 32
_cell_length_a 5.602116
_cell_length_b 24.483440
_cell_length_c 11.561929
_cell_angle_alpha 90.000000
_cell_angle_beta 118.666780
_cell_angle_gamma 90.000000
_cell_volume 1391.440258
_symmetry_space_group_name_H-M "P 21/C"
_symmetry_group_IT_number 14
_symmetry_cell_setting 'monoclinic'
loop_
_space_group_symop_operation_xyz
x,y,z
-x,1/2+y,1/2-z
-x,-y,-z
x,1/2-y,1/2+z
loop_
_atom_site_type_symbol
_atom_site_label
_atom_site_fract_x
_atom_site_fract_y
_atom_site_fract_z
Si Si1 0.090460 0.686056 0.777097
Si Si2 0.708860 0.483020 0.154355
Si Si3 0.014233 0.722647 0.994533
Si Si4 0.703646 0.308179 0.738993
Si Si5 0.116091 0.161990 0.014176
Si Si6 0.361352 0.145773 0.489890
Si Si7 0.845968 0.949771 0.399994
Si Si8 0.092033 0.402006 0.728725
O O1 0.186044 0.747965 0.769141
O O2 0.356279 0.653911 0.880667
O O3 0.918805 0.696231 0.852939
O O4 0.941713 0.658333 0.634786
O O5 0.475882 0.464294 0.192272
O O6 0.884633 0.534201 0.240780
O O7 0.946235 0.443432 0.159133
O O8 0.500000 0.500000 0.000000
O O9 0.067797 0.786365 0.990281
O O10 0.786176 0.704380 0.034323
O O11 0.277223 0.697146 0.116949
O O12 0.411285 0.315593 0.615770
O O13 0.866686 0.362051 0.733968
O O14 0.077844 0.111100 0.089715
O O15 0.179236 0.102266 0.521537
O O16 0.354393 0.120021 0.360908
O O17 0.000000 0.000000 0.500000
#
# Coordination Sequence:
#
# PCOD9245512 Si02
#       8
#     4   4   4   4   4   4   4   4
#     4  11  23  38  57  90 129 170 215 266 327 406
#     4  10  21  38  64 100 134 158 224 293 340 391
#     4  10  22  37  58  87 123 168 216 261 320 394
#     4  10  22  37  57  87 124 166 218 261 323 400
#     4  11  23  38  58  89 131 171 215 265 328 406
#     4  11  22  38  65  91 124 168 216 268 344 383
#     4  10  21  38  62 100 132 162 220 296 339 392
#     4  11  22  38  65  92 123 170 211 273 340 385
#
# _framework density 22.997752999999999
#
# number of rings (size 3 to 8) (size 9 to 14) (size 15 to 20)
#    0.000    1.500    5.000    0.750    3.500    3.000 
#    0.000    0.000    0.000    1.500    0.000    0.000 
#    0.000    0.000    0.000    0.000    0.000    0.000 
#
# Total GULP energy -178182.036183 kJ/mol
# GULP energy per Si atom -5568.188631 kJ/mol
# Density = 2.294541 g / cm^3
# Si number density = 22.997753 Si / 1000 Ang^3
#
#
#
# Elastic Constant Matrix: (Units=GPa)
#
#
# Indices 1 2 3 4 5 6 
#
# 1 71.6858 8.4547 2.2785 0.0000 9.5403 0.0000
# 2 8.4547 32.8792 -16.2330 0.0000 6.8999 0.0000
# 3 2.2785 -16.2330 136.7307 0.0000 -1.5489 0.0000
# 4 0.0000 0.0000 0.0000 27.8677 0.0000 -9.2016
# 5 9.5403 6.8999 -1.5489 0.0000 28.0861 0.0000
# 6 0.0000 0.0000 0.0000 -9.2016 0.0000 3.0564
#
#
#
# Elastic Compliance Matrix: (Units=1/GPa)
#
#
# Indices 1 2 3 4 5 6 
#
# 1 0.014931 -0.003275 -0.000686 0.000000 -0.004305 0.000000
# 2 -0.003275 0.034796 0.004104 0.000000 -0.007210 0.000000
# 3 -0.000686 0.004104 0.007808 0.000000 -0.000344 0.000000
# 4 0.000000 0.000000 0.000000 6.058921 0.000000 18.241082
# 5 -0.004305 -0.007210 -0.000344 0.000000 0.038819 0.000000
# 6 0.000000 0.000000 0.000000 18.241082 0.000000 55.244067
#
#
# Mechanical properties :
#
#
# Convention : Reuss Voigt Hill
#
# Bulk Modulus (GPa) = 17.29498 25.58844 21.44171
# Shear Modulus (GPa) = 0.08141 28.25507 14.16824
#
# Velocity S-wave (km/s) = 0.18835 3.50894 2.48477
# Velocity P-wave (km/s) = 2.75389 5.25048 4.19234
#
# Compressibility (1/GPa) = 0.05782026
#
# Stress axis : x y z
#
# Youngs Moduli (GPa) = 66.97588 28.73928 128.06704
#
# Poissons Ratio (x) = 0.09412 0.08790
# Poissons Ratio (y) = 0.21933 -0.52558
# Poissons Ratio (z) = 0.04597 -0.11794
#
# Static dielectric constant tensor:
#      x y z
#    x 2.015750 0.000000 -0.051800 
#    y 0.000000 1.925540 0.000000 
#    z -0.051800 0.000000 1.924840 
# 
# From -- ./inp_files/22302.got.cif
#   From: 2010.05.17/outbox.cif.g08.bks.cpg/sg14_12_cif.got.tgz:22302.got - 2010.06.03 17:49:19.
