data_PCOD9245312
_publ_section_title
;
Structure prediction by ZEFSAII (Michael W. Deem and Ramdas Pophale) SiO2 
 PCOD9245312
Probable space group: P 21/C
;
_chemical_formula_sum "Si O2"
_cell_formula_units_Z 28
_cell_length_a 13.011368
_cell_length_b 5.208184
_cell_length_c 20.768607
_cell_angle_alpha 90.000000
_cell_angle_beta 120.015771
_cell_angle_gamma 90.000000
_cell_volume 1218.647887
_symmetry_space_group_name_H-M "P 21/C"
_symmetry_group_IT_number 14
_symmetry_cell_setting 'monoclinic'
loop_
_space_group_symop_operation_xyz
x,y,z
-x,1/2+y,1/2-z
-x,-y,-z
x,1/2-y,1/2+z
loop_
_atom_site_type_symbol
_atom_site_label
_atom_site_fract_x
_atom_site_fract_y
_atom_site_fract_z
Si Si1 0.988917 0.225604 0.285953
Si Si2 0.278979 0.488950 0.064480
Si Si3 0.737672 0.336419 0.195723
Si Si4 0.510296 0.196337 0.711917
Si Si5 0.799502 0.995459 0.092508
Si Si6 0.366714 0.094732 0.456055
Si Si7 0.866370 0.460616 0.478948
O O1 0.863674 0.339836 0.273000
O O2 0.013217 0.427380 0.234671
O O3 0.106512 0.265118 0.364679
O O4 0.404546 0.416843 0.135208
O O5 0.211934 0.730721 0.075539
O O6 0.198945 0.234435 0.045697
O O7 0.306819 0.547075 0.997976
O O8 0.630125 0.262336 0.208228
O O9 0.684937 0.560087 0.132673
O O10 0.777741 0.146960 0.150847
O O11 0.471806 0.468036 0.730491
O O12 0.668772 0.884296 0.036154
O O13 0.866439 0.119334 0.054023
O O14 0.500000 0.000000 0.500000
O O15 0.000000 0.500000 0.500000
#
# Coordination Sequence:
#
# PCOD9245312 Si02
#       7
#     4   4   4   4   4   4   4
#     4  10  21  37  62  95 134 169 220 275 328 400
#     4  11  24  45  69 101 138 178 231 286 344 414
#     4  11  23  43  68  99 134 179 228 282 344 398
#     4  12  29  47  68  98 139 184 231 279 350 425
#     4  10  23  39  66 102 135 177 230 281 341 404
#     4  11  21  39  70 104 133 173 226 292 343 400
#     4  11  24  43  69 102 139 179 227 282 350 409
#
# _framework density 22.976284
#
# number of rings (size 3 to 8) (size 9 to 14) (size 15 to 20)
#    0.000    1.143    4.286    1.286    2.000    4.000 
#    0.000    2.857    0.000    0.000    0.000    0.000 
#    0.000    0.000    0.000    0.000    0.000    0.000 
#
# Total GULP energy -155939.317104 kJ/mol
# GULP energy per Si atom -5569.261325 kJ/mol
# Density = 2.292399 g / cm^3
# Si number density = 22.976284 Si / 1000 Ang^3
#
#
#
# Elastic Constant Matrix: (Units=GPa)
#
#
# Indices 1 2 3 4 5 6 
#
# 1 199.5275 52.7295 38.6919 0.0000 21.2667 0.0000
# 2 52.7295 89.0052 0.0363 0.0000 0.4287 0.0000
# 3 38.6919 0.0363 40.4756 0.0000 6.5553 0.0000
# 4 0.0000 0.0000 0.0000 26.2143 0.0000 5.1784
# 5 21.2667 0.4287 6.5553 0.0000 34.2786 0.0000
# 6 0.0000 0.0000 0.0000 5.1784 0.0000 26.9653
#
#
#
# Elastic Compliance Matrix: (Units=1/GPa)
#
#
# Indices 1 2 3 4 5 6 
#
# 1 0.008013 -0.004727 -0.007080 0.000000 -0.003558 0.000000
# 2 -0.004727 0.014025 0.004190 0.000000 0.001956 0.000000
# 3 -0.007080 0.004190 0.031751 0.000000 -0.001732 0.000000
# 4 0.000000 0.000000 0.000000 0.039651 0.000000 -0.007615
# 5 -0.003558 0.001956 -0.001732 0.000000 0.031687 0.000000
# 6 0.000000 0.000000 0.000000 -0.007615 0.000000 0.038547
#
#
# Mechanical properties :
#
#
# Convention : Reuss Voigt Hill
#
# Bulk Modulus (GPa) = 25.93763 56.88041 41.40902
# Shear Modulus (GPa) = 26.07426 33.32836 29.70131
#
# Velocity S-wave (km/s) = 3.37238 3.81275 3.59931
# Velocity P-wave (km/s) = 5.14561 6.64775 5.94432
#
# Compressibility (1/GPa) = 0.03855403
#
# Stress axis : x y z
#
# Youngs Moduli (GPa) = 124.79301 71.30248 31.49546
#
# Poissons Ratio (x) = 0.33707 0.22297
# Poissons Ratio (y) = 0.58993 -0.13195
# Poissons Ratio (z) = 0.88348 -0.29873
#
# Static dielectric constant tensor:
#      x y z
#    x 1.850890 0.000000 0.013070 
#    y 0.000000 1.992510 0.000000 
#    z 0.013070 0.000000 2.022110 
# 
# From -- ./inp_files/66568.got.cif
#   From: 2010.05.17/outbox.cif.g08.bks.cpg/sg14_34_cif.got.tgz:66568.got - 2010.06.03 17:49:19.
