data_PCOD9245590
_publ_section_title
;
Structure prediction by ZEFSAII (Michael W. Deem and Ramdas Pophale) SiO2 
 PCOD9245590
Probable space group: P 21/C
;
_chemical_formula_sum "Si O2"
_cell_formula_units_Z 28
_cell_length_a 19.199749
_cell_length_b 12.784646
_cell_length_c 14.371754
_cell_angle_alpha 90.000000
_cell_angle_beta 161.423591
_cell_angle_gamma 90.000000
_cell_volume 1123.822208
_symmetry_space_group_name_H-M "P 21/C"
_symmetry_group_IT_number 14
_symmetry_cell_setting 'monoclinic'
loop_
_space_group_symop_operation_xyz
x,y,z
-x,1/2+y,1/2-z
-x,-y,-z
x,1/2-y,1/2+z
loop_
_atom_site_type_symbol
_atom_site_label
_atom_site_fract_x
_atom_site_fract_y
_atom_site_fract_z
Si Si1 0.314311 0.327740 0.829039
Si Si2 0.826366 0.353110 0.141147
Si Si3 0.254734 0.665244 0.754874
Si Si4 0.647395 0.120569 0.887849
Si Si5 0.736188 0.399671 0.715744
Si Si6 0.272803 0.388873 0.221705
Si Si7 0.021033 0.447303 0.741782
O O1 0.517508 0.339763 0.013903
O O2 0.406828 0.380033 0.039073
O O3 0.085100 0.359836 0.494791
O O4 0.270004 0.205295 0.789692
O O5 0.181801 0.546537 0.935857
O O6 0.709792 0.365761 0.093253
O O7 0.741290 0.241248 0.994776
O O8 0.166752 0.784981 0.644592
O O9 0.072357 0.596244 0.472912
O O10 0.665523 0.096983 0.018919
O O11 0.799319 0.041803 0.021720
O O12 0.521475 0.398552 0.507557
O O13 0.839691 0.508946 0.877876
O O14 0.152762 0.364658 0.972330
#
# Coordination Sequence:
#
# PCOD9245590 Si02
#       7
#     4   4   4   4   4   4   4
#     4  10  22  43  65  90 131 167 213 266 321 380
#     4  11  23  43  64  90 130 173 211 270 323 377
#     4   9  22  42  62  91 127 165 216 262 308 395
#     4  10  23  43  61  96 128 169 218 268 319 390
#     4   9  21  40  61  89 129 163 209 263 319 380
#     4  10  21  38  64  93 123 168 207 265 320 378
#     4  11  23  38  64  94 126 167 219 262 321 382
#
# _framework density 24.914971999999999
#
# number of rings (size 3 to 8) (size 9 to 14) (size 15 to 20)
#    0.000    2.000    1.429    0.429   10.000    2.857 
#    2.571    1.429    0.000    0.000    0.000    0.000 
#    0.000    0.000    0.000    0.000    0.000    0.000 
#
# Total GULP energy -156373.495804 kJ/mol
# GULP energy per Si atom -5584.767707 kJ/mol
# Density = 2.485826 g / cm^3
# Si number density = 24.914972 Si / 1000 Ang^3
#
#
#
# Elastic Constant Matrix: (Units=GPa)
#
#
# Indices 1 2 3 4 5 6 
#
# 1 85.1335 27.5398 4.3993 0.0000 0.3773 0.0000
# 2 27.5398 88.5615 -9.5254 0.0000 1.3287 0.0000
# 3 4.3993 -9.5254 76.8936 0.0000 8.8148 0.0000
# 4 0.0000 0.0000 0.0000 23.7818 0.0000 -4.7849
# 5 0.3773 1.3287 8.8148 0.0000 31.1869 0.0000
# 6 0.0000 0.0000 0.0000 -4.7849 0.0000 23.4405
#
#
#
# Elastic Compliance Matrix: (Units=1/GPa)
#
#
# Indices 1 2 3 4 5 6 
#
# 1 0.013188 -0.004250 -0.001326 0.000000 0.000396 0.000000
# 2 -0.004250 0.012839 0.001954 0.000000 -0.001048 0.000000
# 3 -0.001326 0.001954 0.013777 0.000000 -0.003961 0.000000
# 4 0.000000 0.000000 0.000000 0.043850 0.000000 0.008951
# 5 0.000396 -0.001048 -0.003961 0.000000 0.033224 0.000000
# 6 0.000000 0.000000 0.000000 0.008951 0.000000 0.044488
#
#
# Mechanical properties :
#
#
# Convention : Reuss Voigt Hill
#
# Bulk Modulus (GPa) = 30.71335 32.82401 31.76868
# Shear Modulus (GPa) = 27.86078 30.89350 29.37714
#
# Velocity S-wave (km/s) = 3.34763 3.52512 3.43752
# Velocity P-wave (km/s) = 5.22458 5.45634 5.34172
#
# Compressibility (1/GPa) = 0.03255913
#
# Stress axis : x y z
#
# Youngs Moduli (GPa) = 75.82802 77.88814 72.58483
#
# Poissons Ratio (x) = 0.33099 0.09628
# Poissons Ratio (y) = 0.32224 -0.14181
# Poissons Ratio (z) = 0.10058 -0.15217
#
# Static dielectric constant tensor:
#      x y z
#    x 1.952050 0.000000 0.031670 
#    y 0.000000 2.152210 0.000000 
#    z 0.031670 0.000000 1.974260 
# 
# From -- ./inp_files/50759.got.cif
#   From: 2010.05.17/outbox.cif.g08.bks.cpg/sg14_26_cif.got.tgz:50759.got - 2010.06.03 17:49:19.
