data_PCOD9245244
_publ_section_title
;
Structure prediction by ZEFSAII (Michael W. Deem and Ramdas Pophale) SiO2 
 PCOD9245244
Probable space group: P 21/C
;
_chemical_formula_sum "Si O2"
_cell_formula_units_Z 28
_cell_length_a 22.916486
_cell_length_b 9.396813
_cell_length_c 8.201534
_cell_angle_alpha 90.000000
_cell_angle_beta 43.820574
_cell_angle_gamma 90.000000
_cell_volume 1222.875378
_symmetry_space_group_name_H-M "P 21/C"
_symmetry_group_IT_number 14
_symmetry_cell_setting 'monoclinic'
loop_
_space_group_symop_operation_xyz
x,y,z
-x,1/2+y,1/2-z
-x,-y,-z
x,1/2-y,1/2+z
loop_
_atom_site_type_symbol
_atom_site_label
_atom_site_fract_x
_atom_site_fract_y
_atom_site_fract_z
Si Si1 0.183949 0.326714 0.419950
Si Si2 0.111135 0.098185 0.736125
Si Si3 0.903722 0.044436 0.716789
Si Si4 0.920879 0.325145 0.531500
Si Si5 0.492850 0.611380 0.366947
Si Si6 0.339008 0.525585 0.077465
Si Si7 0.612396 0.192453 0.216022
O O1 0.184509 0.164409 0.477337
O O2 0.117090 0.345488 0.409750
O O3 0.152796 0.406834 0.646980
O O4 0.263633 0.415730 0.200248
O O5 0.022026 0.152593 0.844447
O O6 0.113015 0.929940 0.759208
O O7 0.888784 0.166225 0.617393
O O8 0.894698 0.120044 0.909225
O O9 0.000000 0.000000 0.500000
O O10 0.500000 0.500000 0.500000
O O11 0.420163 0.606056 0.375694
O O12 0.468753 0.757291 0.510326
O O13 0.578805 0.575472 0.100123
O O14 0.333672 0.599758 0.266420
O O15 0.346676 0.659702 0.935585
#
# Coordination Sequence:
#
# PCOD9245244 Si02
#       7
#     4   4   4   4   4   4   4
#     4  11  24  39  58  89 124 156 200 257 308 368
#     4  10  22  39  58  84 115 156 199 250 312 350
#     4  11  23  37  62  88 114 155 210 243 299 368
#     4  10  22  38  63  84 111 156 204 259 293 361
#     4   9  18  35  62  89 113 159 207 243 298 373
#     4  10  21  37  59  90 125 158 204 253 316 364
#     4   9  19  38  63  85 122 160 203 257 296 374
#
# _framework density 22.896856
#
# number of rings (size 3 to 8) (size 9 to 14) (size 15 to 20)
#    0.000    2.000    1.429    1.286    4.000    3.429 
#    0.000    4.286    0.000    0.000    0.000    0.000 
#    0.000    0.000    0.000    0.000    0.000    0.000 
#
# Total GULP energy -156111.306470 kJ/mol
# GULP energy per Si atom -5575.403803 kJ/mol
# Density = 2.284474 g / cm^3
# Si number density = 22.896856 Si / 1000 Ang^3
#
#
#
# Elastic Constant Matrix: (Units=GPa)
#
#
# Indices 1 2 3 4 5 6 
#
# 1 50.8084 6.9527 7.6892 0.0000 23.4193 0.0000
# 2 6.9527 50.5858 12.1499 0.0000 5.5968 0.0000
# 3 7.6892 12.1499 44.5264 0.0000 8.0810 0.0000
# 4 0.0000 0.0000 0.0000 46.5226 0.0000 2.0937
# 5 23.4193 5.5968 8.0810 0.0000 34.8217 0.0000
# 6 0.0000 0.0000 0.0000 2.0937 0.0000 26.9686
#
#
#
# Elastic Compliance Matrix: (Units=1/GPa)
#
#
# Indices 1 2 3 4 5 6 
#
# 1 0.028742 -0.001602 -0.001112 0.000000 -0.018815 0.000000
# 2 -0.001602 0.021400 -0.005360 0.000000 -0.001118 0.000000
# 3 -0.001112 -0.005360 0.024868 0.000000 -0.004162 0.000000
# 4 0.000000 0.000000 0.000000 0.021570 0.000000 -0.001675
# 5 -0.018815 -0.001118 -0.004162 0.000000 0.042517 0.000000
# 6 0.000000 0.000000 0.000000 -0.001675 0.000000 0.037210
#
#
# Mechanical properties :
#
#
# Convention : Reuss Voigt Hill
#
# Bulk Modulus (GPa) = 16.98845 22.16711 19.57778
# Shear Modulus (GPa) = 23.57664 29.60452 26.59058
#
# Velocity S-wave (km/s) = 3.21236 3.59966 3.41151
# Velocity P-wave (km/s) = 4.60377 5.19414 4.90784
#
# Compressibility (1/GPa) = 0.05886353
#
# Stress axis : x y z
#
# Youngs Moduli (GPa) = 34.79286 46.72981 40.21166
#
# Poissons Ratio (x) = 0.07485 0.04470
# Poissons Ratio (y) = 0.05573 0.21552
# Poissons Ratio (z) = 0.03868 0.25046
#
# Static dielectric constant tensor:
#      x y z
#    x 1.896800 0.000000 -0.027050 
#    y 0.000000 1.902750 0.000000 
#    z -0.027050 0.000000 1.910040 
# 
# From -- ./inp_files/19714.got.cif
#   From: 2010.05.17/outbox.cif.g08.bks.cpg/sg14_10_cif.got.tgz:19714.got - 2010.06.03 17:49:19.
