data_PCOD9245069
_publ_section_title
;
Structure prediction by ZEFSAII (Michael W. Deem and Ramdas Pophale) SiO2 
 PCOD9245069
Probable space group: P 21/C
;
_chemical_formula_sum "Si O2"
_cell_formula_units_Z 24
_cell_length_a 7.157850
_cell_length_b 8.002070
_cell_length_c 15.322267
_cell_angle_alpha 90.000000
_cell_angle_beta 94.610432
_cell_angle_gamma 90.000000
_cell_volume 874.783177
_symmetry_space_group_name_H-M "P 21/C"
_symmetry_group_IT_number 14
_symmetry_cell_setting 'monoclinic'
loop_
_space_group_symop_operation_xyz
x,y,z
-x,1/2+y,1/2-z
-x,-y,-z
x,1/2-y,1/2+z
loop_
_atom_site_type_symbol
_atom_site_label
_atom_site_fract_x
_atom_site_fract_y
_atom_site_fract_z
Si Si1 0.435203 0.288383 0.120881
Si Si2 0.570863 0.820554 0.048052
Si Si3 0.007356 0.321413 0.949187
Si Si4 0.985668 0.670965 0.381594
Si Si5 0.907703 0.139114 0.783077
Si Si6 0.499991 0.983924 0.224105
O O1 0.235814 0.193340 0.105700
O O2 0.403984 0.444538 0.181041
O O3 0.554625 0.160328 0.184535
O O4 0.516895 0.305109 0.027862
O O5 0.779055 0.736864 0.060930
O O6 0.525513 0.850619 0.147131
O O7 0.500000 0.000000 0.000000
O O8 0.903881 0.289374 0.853571
O O9 0.924701 0.196098 0.020311
O O10 0.000000 0.500000 0.000000
O O11 0.034445 0.496679 0.338774
O O12 0.026646 0.805187 0.308744
O O13 0.718934 0.033875 0.761944
#
# Coordination Sequence:
#
# PCOD9245069 Si02
#       6
#     4   4   4   4   4   4
#     4   9  20  38  58  83 115 155 203 253 312 383
#     4   9  20  40  62  85 121 169 212 258 325 402
#     4  11  23  40  64  93 127 170 219 275 337 404
#     4  10  22  39  59  87 124 166 212 263 325 399
#     4  11  23  39  61  90 124 166 213 266 329 398
#     4  10  21  36  59  88 117 154 203 257 316 382
#
# _framework density 27.435368
#
# number of rings (size 3 to 8) (size 9 to 14) (size 15 to 20)
#    0.000    2.000    0.000    3.500    0.000    9.333 
#    0.000    1.667    0.000    0.000    0.000    0.000 
#    0.000    0.000    0.000    0.000    0.000    0.000 
#
# Total GULP energy -133939.457467 kJ/mol
# GULP energy per Si atom -5580.810728 kJ/mol
# Density = 2.737292 g / cm^3
# Si number density = 27.435368 Si / 1000 Ang^3
#
#
#
# Elastic Constant Matrix: (Units=GPa)
#
#
# Indices 1 2 3 4 5 6 
#
# 1 77.4615 11.3911 -24.4834 0.0000 1.0891 0.0000
# 2 11.3911 75.2967 -16.7637 0.0000 -4.5659 0.0000
# 3 -24.4834 -16.7637 92.5997 0.0000 -16.0499 0.0000
# 4 0.0000 0.0000 0.0000 47.8763 0.0000 3.5662
# 5 1.0891 -4.5659 -16.0499 0.0000 34.2190 0.0000
# 6 0.0000 0.0000 0.0000 3.5662 0.0000 28.7784
#
#
#
# Elastic Compliance Matrix: (Units=1/GPa)
#
#
# Indices 1 2 3 4 5 6 
#
# 1 0.014260 -0.001256 0.003739 0.000000 0.001132 0.000000
# 2 -0.001256 0.014298 0.002823 0.000000 0.003272 0.000000
# 3 0.003739 0.002823 0.013436 0.000000 0.006560 0.000000
# 4 0.000000 0.000000 0.000000 0.021082 0.000000 -0.002612
# 5 0.001132 0.003272 0.006560 0.000000 0.032701 0.000000
# 6 0.000000 0.000000 0.000000 -0.002612 0.000000 0.035072
#
#
# Mechanical properties :
#
#
# Convention : Reuss Voigt Hill
#
# Bulk Modulus (GPa) = 19.00885 20.62733 19.81809
# Shear Modulus (GPa) = 36.29201 40.52233 38.40717
#
# Velocity S-wave (km/s) = 3.64100 3.84736 3.74560
# Velocity P-wave (km/s) = 4.96180 5.22217 5.09365
#
# Compressibility (1/GPa) = 0.05260708
#
# Stress axis : x y z
#
# Youngs Moduli (GPa) = 70.12459 69.94072 74.42731
#
# Poissons Ratio (x) = 0.08786 -0.27831
# Poissons Ratio (y) = 0.08809 -0.21014
# Poissons Ratio (z) = -0.26222 -0.19747
#
# Static dielectric constant tensor:
#      x y z
#    x 2.108270 0.000000 0.235210 
#    y 0.000000 2.281900 0.000000 
#    z 0.235210 0.000000 2.044470 
# 
# From -- ./inp_files/38999.got.cif
#   From: 2010.05.17/outbox.cif.g08.bks.cpg/sg14_20_cif.got.tgz:38999.got - 2010.06.03 17:49:19.
