data_PCOD9245073
_publ_section_title
;
Structure prediction by ZEFSAII (Michael W. Deem and Ramdas Pophale) SiO2 
 PCOD9245073
Probable space group: P 21/C
;
_chemical_formula_sum "Si O2"
_cell_formula_units_Z 28
_cell_length_a 6.170928
_cell_length_b 14.673605
_cell_length_c 14.569760
_cell_angle_alpha 90.000000
_cell_angle_beta 72.491151
_cell_angle_gamma 90.000000
_cell_volume 1258.166301
_symmetry_space_group_name_H-M "P 21/C"
_symmetry_group_IT_number 14
_symmetry_cell_setting 'monoclinic'
loop_
_space_group_symop_operation_xyz
x,y,z
-x,1/2+y,1/2-z
-x,-y,-z
x,1/2-y,1/2+z
loop_
_atom_site_type_symbol
_atom_site_label
_atom_site_fract_x
_atom_site_fract_y
_atom_site_fract_z
Si Si1 0.539675 0.380685 0.575389
Si Si2 0.067689 0.069358 0.222390
Si Si3 0.252590 0.726883 0.165374
Si Si4 0.703659 0.722144 0.553686
Si Si5 0.283993 0.906500 0.284016
Si Si6 0.240877 0.043794 0.868704
Si Si7 0.839690 0.285225 0.040787
O O1 0.458995 0.339545 0.489214
O O2 0.666208 0.477251 0.562996
O O3 0.711775 0.305323 0.592009
O O4 0.308927 0.389661 0.661951
O O5 0.893405 0.148283 0.269544
O O6 0.956607 0.010967 0.155069
O O7 0.122913 0.993645 0.291974
O O8 0.528475 0.718176 0.134474
O O9 0.213706 0.824186 0.222064
O O10 0.191621 0.713670 0.065103
O O11 0.836917 0.643797 0.591495
O O12 0.890897 0.778300 0.475810
O O13 0.538882 0.936940 0.223443
O O14 0.267080 0.866739 0.388005
#
# Coordination Sequence:
#
# PCOD9245073 Si02
#       7
#     4   4   4   4   4   4   4
#     4  10  21  36  59  91 119 155 206 258 315 370
#     4  11  23  40  64  90 122 164 209 253 303 369
#     4  10  23  41  61  91 124 160 209 255 305 369
#     4  10  21  37  60  88 121 160 204 255 313 369
#     4  10  23  41  61  91 124 163 211 252 307 370
#     4  10  21  37  59  86 121 159 200 261 316 359
#     4  11  23  40  62  87 124 165 200 253 309 362
#
# _framework density 22.25461
#
# number of rings (size 3 to 8) (size 9 to 14) (size 15 to 20)
#    0.000    1.714    0.000    3.857    0.000   13.143 
#    0.000    1.429    0.000    0.000    0.000    0.000 
#    0.000    0.000    0.000    0.000    0.000    0.000 
#
# Total GULP energy -156378.371197 kJ/mol
# GULP energy per Si atom -5584.941828 kJ/mol
# Density = 2.220396 g / cm^3
# Si number density = 22.254610 Si / 1000 Ang^3
#
#
#
# Elastic Constant Matrix: (Units=GPa)
#
#
# Indices 1 2 3 4 5 6 
#
# 1 50.2085 17.7074 23.9774 0.0000 -12.5222 0.0000
# 2 17.7074 65.6463 35.1571 0.0000 -30.0502 0.0000
# 3 23.9774 35.1571 76.3929 0.0000 -10.5273 0.0000
# 4 0.0000 0.0000 0.0000 32.8172 0.0000 -6.8235
# 5 -12.5222 -30.0502 -10.5273 0.0000 36.0773 0.0000
# 6 0.0000 0.0000 0.0000 -6.8235 0.0000 29.9345
#
#
#
# Elastic Compliance Matrix: (Units=1/GPa)
#
#
# Indices 1 2 3 4 5 6 
#
# 1 0.024858 0.000030 -0.006901 0.000000 0.006639 0.000000
# 2 0.000030 0.032135 -0.011574 0.000000 0.023399 0.000000
# 3 -0.006901 -0.011574 0.019717 0.000000 -0.006282 0.000000
# 4 0.000000 0.000000 0.000000 0.031988 0.000000 0.007292
# 5 0.006639 0.023399 -0.006282 0.000000 0.047680 0.000000
# 6 0.000000 0.000000 0.000000 0.007292 0.000000 0.035068
#
#
# Mechanical properties :
#
#
# Convention : Reuss Voigt Hill
#
# Bulk Modulus (GPa) = 25.11311 38.43683 31.77497
# Shear Modulus (GPa) = 20.69464 27.45952 24.07708
#
# Velocity S-wave (km/s) = 3.05274 3.51647 3.29278
# Velocity P-wave (km/s) = 4.87181 5.81346 5.36334
#
# Compressibility (1/GPa) = 0.03981984
#
# Stress axis : x y z
#
# Youngs Moduli (GPa) = 40.22880 31.11896 50.71802
#
# Poissons Ratio (x) = -0.00093 0.35000
# Poissons Ratio (y) = -0.00120 0.58699
# Poissons Ratio (z) = 0.27761 0.36016
#
# Static dielectric constant tensor:
#      x y z
#    x 1.872390 0.000000 0.045970 
#    y 0.000000 1.806320 0.000000 
#    z 0.045970 0.000000 1.843960 
# 
# From -- ./inp_files/53411.got.cif
#   From: 2010.05.17/outbox.cif.g08.bks.cpg/sg14_27_cif.got.tgz:53411.got - 2010.06.03 17:49:19.
