data_PCOD9245074
_publ_section_title
;
Structure prediction by ZEFSAII (Michael W. Deem and Ramdas Pophale) SiO2 
 PCOD9245074
Probable space group: P 21/C
;
_chemical_formula_sum "Si O2"
_cell_formula_units_Z 24
_cell_length_a 16.554352
_cell_length_b 11.740016
_cell_length_c 13.450910
_cell_angle_alpha 90.000000
_cell_angle_beta 24.252876
_cell_angle_gamma 90.000000
_cell_volume 1073.805365
_symmetry_space_group_name_H-M "P 21/C"
_symmetry_group_IT_number 14
_symmetry_cell_setting 'monoclinic'
loop_
_space_group_symop_operation_xyz
x,y,z
-x,1/2+y,1/2-z
-x,-y,-z
x,1/2-y,1/2+z
loop_
_atom_site_type_symbol
_atom_site_label
_atom_site_fract_x
_atom_site_fract_y
_atom_site_fract_z
Si Si1 0.566413 0.606102 0.359779
Si Si2 0.066874 0.346160 0.713439
Si Si3 0.983138 0.069297 0.619411
Si Si4 0.524227 0.784936 0.711712
Si Si5 0.703395 0.286791 0.727991
Si Si6 0.177181 0.817972 0.702780
O O1 0.500000 0.500000 0.500000
O O2 0.521493 0.612288 0.293806
O O3 0.458962 0.710953 0.532676
O O4 0.799470 0.610448 0.100223
O O5 0.092630 0.476414 0.718271
O O6 0.996651 0.353675 0.676997
O O7 0.258038 0.271189 0.528442
O O8 0.882279 0.287383 0.979457
O O9 0.862942 0.182948 0.738942
O O10 0.000000 0.000000 0.500000
O O11 0.424871 0.828907 0.721750
O O12 0.380872 0.683469 0.912872
O O13 0.794417 0.362417 0.716277
#
# Coordination Sequence:
#
# PCOD9245074 Si02
#       6
#     4   4   4   4   4   4
#     4  11  20  38  62  95 125 162 211 267 310 372
#     4  11  21  37  61  95 126 168 208 263 321 378
#     4  12  20  36  65  97 123 158 214 263 312 375
#     4  10  22  36  57  90 130 165 203 261 318 370
#     4  10  21  36  59  91 126 164 204 255 317 379
#     4  10  22  39  56  93 130 162 212 261 314 379
#
# _framework density 22.350418999999999
#
# number of rings (size 3 to 8) (size 9 to 14) (size 15 to 20)
#    0.000    1.333    5.000    2.000    0.000    0.000 
#    0.000    0.000    0.000    5.000    0.000    0.000 
#    0.000    0.000    0.000    0.000    0.000    0.000 
#
# Total GULP energy -133790.337803 kJ/mol
# GULP energy per Si atom -5574.597408 kJ/mol
# Density = 2.229955 g / cm^3
# Si number density = 22.350419 Si / 1000 Ang^3
#
#
#
# Elastic Constant Matrix: (Units=GPa)
#
#
# Indices 1 2 3 4 5 6 
#
# 1 231.6942 25.7211 45.2816 0.0000 6.9398 0.0000
# 2 25.7211 32.6986 16.1109 0.0000 2.0120 0.0000
# 3 45.2816 16.1109 67.0090 0.0000 -17.8592 0.0000
# 4 0.0000 0.0000 0.0000 21.7242 0.0000 5.0898
# 5 6.9398 2.0120 -17.8592 0.0000 40.2908 0.0000
# 6 0.0000 0.0000 0.0000 5.0898 0.0000 29.3689
#
#
#
# Elastic Compliance Matrix: (Units=1/GPa)
#
#
# Indices 1 2 3 4 5 6 
#
# 1 0.005371 -0.002222 -0.003756 0.000000 -0.002479 0.000000
# 2 -0.002222 0.037012 -0.008831 0.000000 -0.005380 0.000000
# 3 -0.003756 -0.008831 0.022537 0.000000 0.011078 0.000000
# 4 0.000000 0.000000 0.000000 0.047980 0.000000 -0.008315
# 5 -0.002479 -0.005380 0.011078 0.000000 0.030426 0.000000
# 6 0.000000 0.000000 0.000000 -0.008315 0.000000 0.035491
#
#
# Mechanical properties :
#
#
# Convention : Reuss Voigt Hill
#
# Bulk Modulus (GPa) = 28.32677 56.18101 42.25389
# Shear Modulus (GPa) = 22.70635 34.56264 28.63449
#
# Velocity S-wave (km/s) = 3.19082 3.93669 3.58321
# Velocity P-wave (km/s) = 5.12606 6.77159 6.00545
#
# Compressibility (1/GPa) = 0.03530229
#
# Stress axis : x y z
#
# Youngs Moduli (GPa) = 186.18534 27.01799 44.37091
#
# Poissons Ratio (x) = 0.06003 0.16666
# Poissons Ratio (y) = 0.41365 0.39186
# Poissons Ratio (z) = 0.69932 0.23861
#
# Static dielectric constant tensor:
#      x y z
#    x 1.969330 0.000000 -0.009100 
#    y 0.000000 1.829750 0.000000 
#    z -0.009100 0.000000 1.899190 
# 
# From -- ./inp_files/32689.got.cif
#   From: 2010.05.17/outbox.cif.g08.bks.cpg/sg14_17_cif.got.tgz:32689.got - 2010.06.03 17:49:19.
