data_PCOD9245525
_publ_section_title
;
Structure prediction by ZEFSAII (Michael W. Deem and Ramdas Pophale) SiO2 
 PCOD9245525
Probable space group: P 21/C
;
_chemical_formula_sum "Si O2"
_cell_formula_units_Z 30
_cell_length_a 11.541737
_cell_length_b 10.173838
_cell_length_c 13.909723
_cell_angle_alpha 90.000000
_cell_angle_beta 136.011877
_cell_angle_gamma 90.000000
_cell_volume 1134.364175
_symmetry_space_group_name_H-M "P 21/C"
_symmetry_group_IT_number 14
_symmetry_cell_setting 'monoclinic'
loop_
_space_group_symop_operation_xyz
x,y,z
-x,1/2+y,1/2-z
-x,-y,-z
x,1/2-y,1/2+z
loop_
_atom_site_type_symbol
_atom_site_label
_atom_site_fract_x
_atom_site_fract_y
_atom_site_fract_z
Si Si1 0.720413 0.983069 0.342892
Si Si2 0.052779 0.951423 0.800320
Si Si3 0.983982 0.312812 0.910233
Si Si4 0.000000 0.000000 0.000000
Si Si5 0.717253 0.478652 0.048544
Si Si6 0.492314 0.796202 0.437852
Si Si7 0.598600 0.416597 0.472249
Si Si8 0.739773 0.359925 0.368223
O O1 0.654153 0.040210 0.403499
O O2 0.560983 0.956448 0.183756
O O3 0.837359 0.859617 0.444256
O O4 0.847529 0.085845 0.371321
O O5 0.040741 0.825460 0.719294
O O6 0.914224 0.040755 0.665919
O O7 0.241655 0.004087 0.904049
O O8 0.997666 0.950711 0.878313
O O9 0.921894 0.176444 0.923130
O O10 0.785975 0.987731 0.884629
O O11 0.627401 0.390055 0.071355
O O12 0.668434 0.630597 0.043315
O O13 0.470028 0.658591 0.476510
O O14 0.407199 0.801911 0.282878
O O15 0.701849 0.327244 0.455486
#
# Coordination Sequence:
#
# PCOD9245525 Si02
#       8
#     4   4   4   2   4   4   4   4
#     4  10  22  42  62  92 124 172 211 261 312 397
#     4  10  21  38  62  90 126 168 202 271 308 384
#     4  10  22  42  66  88 134 169 213 257 333 376
#     4  10  22  38  64  92 130 158 224 256 322 374
#     4  10  21  40  64  87 124 169 212 254 328 372
#     4  11  21  38  65  93 124 167 209 271 315 389
#     4  11  23  38  65  93 129 159 220 263 321 373
#     4  11  21  42  62  98 125 171 208 277 312 388
#
# _framework density 26.446531
#
# number of rings (size 3 to 8) (size 9 to 14) (size 15 to 20)
#    0.000    1.600    4.000    0.800    0.000    2.667 
#    0.000    4.000    0.000    0.000    0.000    0.000 
#    0.000    0.000    0.000    0.000    0.000    0.000 
#
# Total GULP energy -167124.085132 kJ/mol
# GULP energy per Si atom -5570.802838 kJ/mol
# Density = 2.638634 g / cm^3
# Si number density = 26.446531 Si / 1000 Ang^3
#
#
#
# Elastic Constant Matrix: (Units=GPa)
#
#
# Indices 1 2 3 4 5 6 
#
# 1 116.6916 27.5190 48.3108 0.0000 -13.7350 0.0000
# 2 27.5190 51.3520 31.0132 0.0000 3.5775 0.0000
# 3 48.3108 31.0132 175.9145 0.0000 6.6467 0.0000
# 4 0.0000 0.0000 0.0000 26.7000 0.0000 -4.3565
# 5 -13.7350 3.5775 6.6467 0.0000 70.0420 0.0000
# 6 0.0000 0.0000 0.0000 -4.3565 0.0000 28.9031
#
#
#
# Elastic Compliance Matrix: (Units=1/GPa)
#
#
# Indices 1 2 3 4 5 6 
#
# 1 0.010915 -0.004656 -0.002275 0.000000 0.002594 0.000000
# 2 -0.004656 0.023820 -0.002850 0.000000 -0.001859 0.000000
# 3 -0.002275 -0.002850 0.006848 0.000000 -0.000950 0.000000
# 4 0.000000 0.000000 0.000000 0.038398 0.000000 0.005788
# 5 0.002594 -0.001859 -0.000950 0.000000 0.014971 0.000000
# 6 0.000000 0.000000 0.000000 0.005788 0.000000 0.035471
#
#
# Mechanical properties :
#
#
# Convention : Reuss Voigt Hill
#
# Bulk Modulus (GPa) = 45.41379 61.96046 53.68712
# Shear Modulus (GPa) = 31.78172 40.93668 36.35920
#
# Velocity S-wave (km/s) = 3.47037 3.93861 3.71188
# Velocity P-wave (km/s) = 5.76777 6.64552 6.22214
#
# Compressibility (1/GPa) = 0.02201974
#
# Stress axis : x y z
#
# Youngs Moduli (GPa) = 91.62012 41.98233 146.03510
#
# Poissons Ratio (x) = 0.19547 0.33217
# Poissons Ratio (y) = 0.42659 0.41626
# Poissons Ratio (z) = 0.20840 0.11967
#
# Static dielectric constant tensor:
#      x y z
#    x 2.107860 0.000000 0.017010 
#    y 0.000000 2.373820 0.000000 
#    z 0.017010 0.000000 2.199140 
# 
# From -- ./inp_files/44952.got.cif
#   From: 2010.05.17/outbox.cif.g08.bks.cpg/sg14_23_cif.got.tgz:44952.got - 2010.06.03 17:49:19.
