data_PCOD9245385
_publ_section_title
;
Structure prediction by ZEFSAII (Michael W. Deem and Ramdas Pophale) SiO2 
 PCOD9245385
Probable space group: P 21/C
;
_chemical_formula_sum "Si O2"
_cell_formula_units_Z 32
_cell_length_a 23.815121
_cell_length_b 10.169106
_cell_length_c 4.818953
_cell_angle_alpha 90.000000
_cell_angle_beta 86.159372
_cell_angle_gamma 90.000000
_cell_volume 1164.425834
_symmetry_space_group_name_H-M "P 21/C"
_symmetry_group_IT_number 14
_symmetry_cell_setting 'monoclinic'
loop_
_space_group_symop_operation_xyz
x,y,z
-x,1/2+y,1/2-z
-x,-y,-z
x,1/2-y,1/2+z
loop_
_atom_site_type_symbol
_atom_site_label
_atom_site_fract_x
_atom_site_fract_y
_atom_site_fract_z
Si Si1 0.465463 0.336279 0.919332
Si Si2 0.034081 0.151927 0.273962
Si Si3 0.413940 0.661005 0.277127
Si Si4 0.794960 0.160563 0.329595
Si Si5 0.917270 0.345907 0.668605
Si Si6 0.272164 0.448285 0.472136
Si Si7 0.849528 0.659814 0.427459
Si Si8 0.344577 0.052538 0.493154
O O1 0.467874 0.298760 0.240161
O O2 0.524704 0.400543 0.809538
O O3 0.404463 0.391582 0.873339
O O4 0.033510 0.220795 0.570293
O O5 0.093431 0.083320 0.182053
O O6 0.974567 0.081024 0.236858
O O7 0.410076 0.794200 0.094206
O O8 0.366095 0.567483 0.179266
O O9 0.791682 0.205983 0.646783
O O10 0.856017 0.096151 0.252738
O O11 0.748049 0.067103 0.221748
O O12 0.918218 0.285544 0.362903
O O13 0.212303 0.395522 0.600470
O O14 0.308763 0.476777 0.731481
O O15 0.308229 0.363830 0.232854
O O16 0.852641 0.708017 0.740845
#
# Coordination Sequence:
#
# PCOD9245385 Si02
#       8
#     4   4   4   4   4   4   4   4
#     4  10  22  41  65  91 117 147 185 230 282 333
#     4   8  14  27  50  76 100 134 179 227 284 336
#     4  10  22  41  65  91 117 147 185 230 282 333
#     4  10  21  38  57  78 112 150 186 237 285 328
#     4   8  14  27  50  76 100 134 179 227 284 336
#     4  12  26  38  56  86 114 154 200 224 268 340
#     4  10  21  38  57  78 112 150 186 237 285 328
#     4  12  25  40  60  86 119 152 188 234 272 324
#
# _framework density 27.481356999999999
#
# number of rings (size 3 to 8) (size 9 to 14) (size 15 to 20)
#    0.000    2.000    0.000    3.375    0.000    6.000 
#    0.000    5.625    0.000    0.000    0.000   19.250 
#    0.000    0.000    0.000    0.000    0.000    0.000 
#
# Total GULP energy -179187.367962 kJ/mol
# GULP energy per Si atom -5599.605249 kJ/mol
# Density = 2.741881 g / cm^3
# Si number density = 27.481357 Si / 1000 Ang^3
#
#
#
# Elastic Constant Matrix: (Units=GPa)
#
#
# Indices 1 2 3 4 5 6 
#
# 1 265.9641 30.6127 35.7087 0.0000 19.5160 0.0000
# 2 30.6127 52.0559 13.6569 0.0000 2.4217 0.0000
# 3 35.7087 13.6569 124.5762 0.0000 13.1227 0.0000
# 4 0.0000 0.0000 0.0000 17.6703 0.0000 -0.3609
# 5 19.5160 2.4217 13.1227 0.0000 54.5890 0.0000
# 6 0.0000 0.0000 0.0000 -0.3609 0.0000 31.4677
#
#
#
# Elastic Compliance Matrix: (Units=1/GPa)
#
#
# Indices 1 2 3 4 5 6 
#
# 1 0.004215 -0.002202 -0.000840 0.000000 -0.001207 0.000000
# 2 -0.002202 0.020937 -0.001692 0.000000 0.000265 0.000000
# 3 -0.000840 -0.001692 0.008632 0.000000 -0.001700 0.000000
# 4 0.000000 0.000000 0.000000 0.056606 0.000000 0.000649
# 5 -0.001207 0.000265 -0.001700 0.000000 0.019147 0.000000
# 6 0.000000 0.000000 0.000000 0.000649 0.000000 0.031786
#
#
# Mechanical properties :
#
#
# Convention : Reuss Voigt Hill
#
# Bulk Modulus (GPa) = 41.12418 66.95032 54.03725
# Shear Modulus (GPa) = 31.46727 44.91990 38.19358
#
# Velocity S-wave (km/s) = 3.38752 4.04735 3.73205
# Velocity P-wave (km/s) = 5.50429 6.80121 6.18683
#
# Compressibility (1/GPa) = 0.02431659
#
# Stress axis : x y z
#
# Youngs Moduli (GPa) = 237.26617 47.76307 115.84254
#
# Poissons Ratio (x) = 0.10518 0.09725
# Poissons Ratio (y) = 0.52249 0.19600
# Poissons Ratio (z) = 0.19919 0.08081
#
# Static dielectric constant tensor:
#      x y z
#    x 2.216350 0.000000 -0.059000 
#    y 0.000000 2.186670 0.000000 
#    z -0.059000 0.000000 2.026320 
# 
# From -- ./inp_files/4371.got.cif
#   From: 2010.05.17/outbox.cif.g08.bks.cpg/sg14_3_cif.got.tgz:4371.got - 2010.06.03 17:49:19.
