data_PCOD9245298
_publ_section_title
;
Structure prediction by ZEFSAII (Michael W. Deem and Ramdas Pophale) SiO2 
 PCOD9245298
Probable space group: P 21/C
;
_chemical_formula_sum "Si O2"
_cell_formula_units_Z 32
_cell_length_a 8.939431
_cell_length_b 12.484645
_cell_length_c 13.499404
_cell_angle_alpha 90.000000
_cell_angle_beta 100.670732
_cell_angle_gamma 90.000000
_cell_volume 1480.556361
_symmetry_space_group_name_H-M "P 21/C"
_symmetry_group_IT_number 14
_symmetry_cell_setting 'monoclinic'
loop_
_space_group_symop_operation_xyz
x,y,z
-x,1/2+y,1/2-z
-x,-y,-z
x,1/2-y,1/2+z
loop_
_atom_site_type_symbol
_atom_site_label
_atom_site_fract_x
_atom_site_fract_y
_atom_site_fract_z
Si Si1 0.535463 0.730137 0.014916
Si Si2 0.715898 0.333559 0.654366
Si Si3 0.760981 0.627583 0.880812
Si Si4 0.991123 0.319040 0.952172
Si Si5 0.090784 0.404023 0.557921
Si Si6 0.347387 0.445976 0.444118
Si Si7 0.347367 0.606799 0.142460
Si Si8 0.939986 0.711770 0.264398
O O1 0.606513 0.828089 0.088299
O O2 0.477631 0.637393 0.080840
O O3 0.387005 0.777131 0.940360
O O4 0.650159 0.690783 0.943175
O O5 0.737096 0.459868 0.626911
O O6 0.629963 0.336604 0.748916
O O7 0.878416 0.275997 0.690509
O O8 0.675250 0.519349 0.842149
O O9 0.832266 0.696536 0.798746
O O10 0.909219 0.603702 0.966753
O O11 0.816596 0.351218 0.917214
O O12 0.067025 0.306085 0.853135
O O13 0.011759 0.204004 0.007729
O O14 0.253938 0.416952 0.530291
O O15 0.000000 0.500000 0.500000
O O16 0.100263 0.393680 0.676542
O O17 0.500000 0.500000 0.500000
#
# Coordination Sequence:
#
# PCOD9245298 Si02
#       8
#     4   4   4   4   4   4   4   4
#     4  11  22  42  62  89 125 160 207 248 303 362
#     4  10  23  41  63  92 120 161 203 253 306 361
#     4  11  23  40  64  90 124 167 198 255 299 360
#     4  10  23  39  61  93 121 161 199 254 303 359
#     4  11  20  38  65  90 119 154 200 255 303 354
#     4  10  21  37  62  89 120 154 196 253 305 351
#     4  11  25  41  62  87 126 168 202 244 307 364
#     4  10  21  39  63  91 122 156 205 250 303 359
#
# _framework density 21.613496999999999
#
# number of rings (size 3 to 8) (size 9 to 14) (size 15 to 20)
#    0.000    1.500    3.750    2.250    3.500    2.000 
#    0.000    1.250    0.000    0.000    0.000    0.000 
#    0.000    0.000    0.000    0.000    0.000    0.000 
#
# Total GULP energy -178518.297747 kJ/mol
# GULP energy per Si atom -5578.696805 kJ/mol
# Density = 2.156430 g / cm^3
# Si number density = 21.613497 Si / 1000 Ang^3
#
#
#
# Elastic Constant Matrix: (Units=GPa)
#
#
# Indices 1 2 3 4 5 6 
#
# 1 56.2923 10.9177 -6.0668 0.0000 -13.5197 0.0000
# 2 10.9177 73.4968 -8.6305 0.0000 -4.2848 0.0000
# 3 -6.0668 -8.6305 78.2962 0.0000 -11.5473 0.0000
# 4 0.0000 0.0000 0.0000 19.2947 0.0000 -3.2218
# 5 -13.5197 -4.2848 -11.5473 0.0000 29.7144 0.0000
# 6 0.0000 0.0000 0.0000 -3.2218 0.0000 30.1139
#
#
#
# Elastic Compliance Matrix: (Units=1/GPa)
#
#
# Indices 1 2 3 4 5 6 
#
# 1 0.020991 -0.002171 0.002917 0.000000 0.010371 0.000000
# 2 -0.002171 0.014222 0.001651 0.000000 0.001705 0.000000
# 3 0.002917 0.001651 0.014226 0.000000 0.007094 0.000000
# 4 0.000000 0.000000 0.000000 0.052770 0.000000 0.005646
# 5 0.010371 0.001705 0.007094 0.000000 0.041375 0.000000
# 6 0.000000 0.000000 0.000000 0.005646 0.000000 0.033811
#
#
# Mechanical properties :
#
#
# Convention : Reuss Voigt Hill
#
# Bulk Modulus (GPa) = 18.43945 22.28069 20.36007
# Shear Modulus (GPa) = 26.22208 29.94894 28.08551
#
# Velocity S-wave (km/s) = 3.48692 3.72648 3.60869
# Velocity P-wave (km/s) = 4.97609 5.37091 5.17726
#
# Compressibility (1/GPa) = 0.05423155
#
# Stress axis : x y z
#
# Youngs Moduli (GPa) = 47.64041 70.31486 70.29304
#
# Poissons Ratio (x) = 0.15265 -0.20502
# Poissons Ratio (y) = 0.10343 -0.11604
# Poissons Ratio (z) = -0.13895 -0.11608
#
# Static dielectric constant tensor:
#      x y z
#    x 1.808210 0.000000 0.000010 
#    y 0.000000 1.826030 0.000000 
#    z 0.000010 0.000000 1.799090 
# 
# From -- ./inp_files/26478.got.cif
#   From: 2010.05.17/outbox.cif.g08.bks.cpg/sg14_14_cif.got.tgz:26478.got - 2010.06.03 17:49:19.
