data_PCOD9245959
_publ_section_title
;
Structure prediction by ZEFSAII (Michael W. Deem and Ramdas Pophale) SiO2 
 PCOD9245959
Probable space group: P 21/C
;
_chemical_formula_sum "Si O2"
_cell_formula_units_Z 28
_cell_length_a 21.603683
_cell_length_b 7.465456
_cell_length_c 14.628606
_cell_angle_alpha 90.000000
_cell_angle_beta 26.879343
_cell_angle_gamma 90.000000
_cell_volume 1066.680180
_symmetry_space_group_name_H-M "P 21/C"
_symmetry_group_IT_number 14
_symmetry_cell_setting 'monoclinic'
loop_
_space_group_symop_operation_xyz
x,y,z
-x,1/2+y,1/2-z
-x,-y,-z
x,1/2-y,1/2+z
loop_
_atom_site_type_symbol
_atom_site_label
_atom_site_fract_x
_atom_site_fract_y
_atom_site_fract_z
Si Si1 0.797723 0.544711 0.541700
Si Si2 0.975718 0.968792 0.139313
Si Si3 0.380938 0.734308 0.113381
Si Si4 0.404876 0.229039 0.305011
Si Si5 0.210240 0.748534 0.082007
Si Si6 0.889624 0.127355 0.593205
Si Si7 0.498835 0.674012 0.641877
O O1 0.696221 0.436528 0.742930
O O2 0.720986 0.693699 0.585872
O O3 0.859313 0.395205 0.391327
O O4 0.919069 0.601242 0.448008
O O5 0.834421 0.040979 0.366519
O O6 0.020842 0.762556 0.087250
O O7 0.000000 0.000000 0.000000
O O8 0.258962 0.887138 0.265231
O O9 0.493940 0.792556 0.040361
O O10 0.461492 0.672985 0.916713
O O11 0.385063 0.271753 0.438783
O O12 0.456203 0.029511 0.217125
O O13 0.177088 0.784044 0.229571
O O14 0.367243 0.782562 0.851897
O O15 0.000000 0.000000 0.500000
#
# Coordination Sequence:
#
# PCOD9245959 Si02
#       7
#     4   4   4   4   4   4   4
#     4  10  23  39  68  93 126 179 220 270 340 392
#     4   9  21  41  62  93 130 172 216 273 339 395
#     4  10  22  44  65  94 138 171 219 279 327 400
#     4  12  24  43  66  97 136 174 225 273 337 399
#     4  10  21  41  60  89 131 164 221 273 322 400
#     4  10  21  39  66  93 131 172 218 271 336 395
#     4  11  24  41  65  96 129 176 221 272 332 397
#
# _framework density 26.249668
#
# number of rings (size 3 to 8) (size 9 to 14) (size 15 to 20)
#    0.000    1.714    1.429    2.571    0.000    8.000 
#    0.000    0.000    0.000    0.000    0.000    0.000 
#    0.000    0.000    0.000    0.000    0.000    0.000 
#
# Total GULP energy -156125.606012 kJ/mol
# GULP energy per Si atom -5575.914500 kJ/mol
# Density = 2.618992 g / cm^3
# Si number density = 26.249668 Si / 1000 Ang^3
#
#
#
# Elastic Constant Matrix: (Units=GPa)
#
#
# Indices 1 2 3 4 5 6 
#
# 1 150.9629 20.8205 6.9420 0.0000 -12.1760 0.0000
# 2 20.8205 66.0815 1.2706 0.0000 -6.5260 0.0000
# 3 6.9420 1.2706 61.3595 0.0000 0.7867 0.0000
# 4 0.0000 0.0000 0.0000 28.4762 0.0000 0.5340
# 5 -12.1760 -6.5260 0.7867 0.0000 37.0009 0.0000
# 6 0.0000 0.0000 0.0000 0.5340 0.0000 42.8363
#
#
#
# Elastic Compliance Matrix: (Units=1/GPa)
#
#
# Indices 1 2 3 4 5 6 
#
# 1 0.007101 -0.002025 -0.000787 0.000000 0.001996 0.000000
# 2 -0.002025 0.015986 -0.000130 0.000000 0.002156 0.000000
# 3 -0.000787 -0.000130 0.016397 0.000000 -0.000630 0.000000
# 4 0.000000 0.000000 0.000000 0.035125 0.000000 -0.000438
# 5 0.001996 0.002156 -0.000630 0.000000 0.028077 0.000000
# 6 0.000000 0.000000 0.000000 -0.000438 0.000000 0.023350
#
#
# Mechanical properties :
#
#
# Convention : Reuss Voigt Hill
#
# Bulk Modulus (GPa) = 29.76098 37.38555 33.57326
# Shear Modulus (GPa) = 34.93577 38.28741 36.61159
#
# Velocity S-wave (km/s) = 3.65211 3.82329 3.73868
# Velocity P-wave (km/s) = 5.39872 5.81062 5.60845
#
# Compressibility (1/GPa) = 0.03360105
#
# Stress axis : x y z
#
# Youngs Moduli (GPa) = 140.83291 62.55376 60.98600
#
# Poissons Ratio (x) = 0.12667 0.04800
# Poissons Ratio (y) = 0.28518 0.00790
# Poissons Ratio (z) = 0.11084 0.00811
#
# Static dielectric constant tensor:
#      x y z
#    x 2.203580 0.000000 -0.104120 
#    y 0.000000 2.199050 0.000000 
#    z -0.104120 0.000000 2.135550 
# 
# From -- ./inp_files/50035.got.cif
#   From: 2010.05.17/outbox.cif.g08.bks.cpg/sg14_26_cif.got.tgz:50035.got - 2010.06.03 17:49:19.
