data_PCOD9245521
_publ_section_title
;
Structure prediction by ZEFSAII (Michael W. Deem and Ramdas Pophale) SiO2 
 PCOD9245521
Probable space group: P 21/C
;
_chemical_formula_sum "Si O2"
_cell_formula_units_Z 32
_cell_length_a 8.598038
_cell_length_b 20.388242
_cell_length_c 9.681561
_cell_angle_alpha 90.000000
_cell_angle_beta 52.046879
_cell_angle_gamma 90.000000
_cell_volume 1338.240151
_symmetry_space_group_name_H-M "P 21/C"
_symmetry_group_IT_number 14
_symmetry_cell_setting 'monoclinic'
loop_
_space_group_symop_operation_xyz
x,y,z
-x,1/2+y,1/2-z
-x,-y,-z
x,1/2-y,1/2+z
loop_
_atom_site_type_symbol
_atom_site_label
_atom_site_fract_x
_atom_site_fract_y
_atom_site_fract_z
Si Si1 0.203940 0.971861 0.228740
Si Si2 0.453343 0.599528 0.120947
Si Si3 0.183225 0.791865 0.730850
Si Si4 0.179565 0.211952 0.282737
Si Si5 0.555496 0.901356 0.869691
Si Si6 0.074997 0.843429 0.344827
Si Si7 0.081251 0.348891 0.381684
Si Si8 0.191721 0.473278 0.224271
O O1 0.141879 0.913609 0.367106
O O2 0.012213 0.988093 0.242084
O O3 0.291184 0.039025 0.237520
O O4 0.378546 0.934547 0.050355
O O5 0.363315 0.661891 0.091633
O O6 0.479431 0.621212 0.263474
O O7 0.297889 0.540029 0.204850
O O8 0.653903 0.568524 0.953036
O O9 0.226141 0.717430 0.755476
O O10 0.019201 0.787610 0.700712
O O11 0.072392 0.826290 0.919759
O O12 0.334938 0.162443 0.130035
O O13 0.231157 0.287829 0.282011
O O14 0.110355 0.181956 0.466917
O O15 0.016846 0.855243 0.216756
O O16 0.157378 0.422183 0.368708
#
# Coordination Sequence:
#
# PCOD9245521 Si02
#       8
#     4   4   4   4   4   4   4   4
#     4  10  22  39  58  82 115 154 196 243 291 343
#     4  11  23  37  58  88 117 153 199 241 290 350
#     4  10  21  38  62  90 119 153 193 238 291 349
#     4  10  21  38  62  90 119 153 193 238 291 349
#     4  11  23  37  58  88 117 153 199 241 290 350
#     4   9  19  38  62  86 117 155 193 237 291 345
#     4   9  19  38  62  86 117 155 193 237 291 345
#     4  10  22  39  58  82 115 154 196 243 291 343
#
# _framework density 23.912002000000001
#
# number of rings (size 3 to 8) (size 9 to 14) (size 15 to 20)
#    0.000    2.000    0.000    3.750    0.000    9.000 
#    0.000    1.250    0.000    0.000    0.000    0.000 
#    0.000    0.000    0.000    0.000    0.000    0.000 
#
# Total GULP energy -178757.544901 kJ/mol
# GULP energy per Si atom -5586.173278 kJ/mol
# Density = 2.385758 g / cm^3
# Si number density = 23.912002 Si / 1000 Ang^3
#
#
#
# Elastic Constant Matrix: (Units=GPa)
#
#
# Indices 1 2 3 4 5 6 
#
# 1 45.2716 20.7000 3.2481 0.0000 -15.4692 0.0000
# 2 20.7000 122.4463 4.3481 0.0000 -35.2758 0.0000
# 3 3.2481 4.3481 50.9746 0.0000 -6.7590 0.0000
# 4 0.0000 0.0000 0.0000 26.5272 0.0000 3.3268
# 5 -15.4692 -35.2758 -6.7590 0.0000 32.8140 0.0000
# 6 0.0000 0.0000 0.0000 3.3268 0.0000 17.7643
#
#
#
# Elastic Compliance Matrix: (Units=1/GPa)
#
#
# Indices 1 2 3 4 5 6 
#
# 1 0.026467 -0.001278 -0.000108 0.000000 0.011081 0.000000
# 2 -0.001278 0.011917 0.000703 0.000000 0.012353 0.000000
# 3 -0.000108 0.000703 0.020210 0.000000 0.004867 0.000000
# 4 0.000000 0.000000 0.000000 0.038604 0.000000 -0.007229
# 5 0.011081 0.012353 0.004867 0.000000 0.049981 0.000000
# 6 0.000000 0.000000 0.000000 -0.007229 0.000000 0.057647
#
#
# Mechanical properties :
#
#
# Convention : Reuss Voigt Hill
#
# Bulk Modulus (GPa) = 17.47429 30.58723 24.03076
# Shear Modulus (GPa) = 22.19577 28.11419 25.15498
#
# Velocity S-wave (km/s) = 3.04999 3.43262 3.24694
# Velocity P-wave (km/s) = 4.44149 5.34133 4.91206
#
# Compressibility (1/GPa) = 0.05722694
#
# Stress axis : x y z
#
# Youngs Moduli (GPa) = 37.78232 83.91531 49.48062
#
# Poissons Ratio (x) = 0.10727 0.00535
# Poissons Ratio (y) = 0.04830 -0.03478
# Poissons Ratio (z) = 0.00409 -0.05898
#
# Static dielectric constant tensor:
#      x y z
#    x 1.926690 0.000000 -0.047040 
#    y 0.000000 1.965330 0.000000 
#    z -0.047040 0.000000 1.964050 
# 
# From -- ./inp_files/26763.got.cif
#   From: 2010.05.17/outbox.cif.g08.bks.cpg/sg14_14_cif.got.tgz:26763.got - 2010.06.03 17:49:19.
