data_PCOD9245534
_publ_section_title
;
Structure prediction by ZEFSAII (Michael W. Deem and Ramdas Pophale) SiO2 
 PCOD9245534
Probable space group: P 21/C
;
_chemical_formula_sum "Si O2"
_cell_formula_units_Z 28
_cell_length_a 11.190999
_cell_length_b 17.888582
_cell_length_c 14.699920
_cell_angle_alpha 90.000000
_cell_angle_beta 29.478397
_cell_angle_gamma 90.000000
_cell_volume 1448.134890
_symmetry_space_group_name_H-M "P 21/C"
_symmetry_group_IT_number 14
_symmetry_cell_setting 'monoclinic'
loop_
_space_group_symop_operation_xyz
x,y,z
-x,1/2+y,1/2-z
-x,-y,-z
x,1/2-y,1/2+z
loop_
_atom_site_type_symbol
_atom_site_label
_atom_site_fract_x
_atom_site_fract_y
_atom_site_fract_z
Si Si1 0.682602 0.844711 0.478246
Si Si2 0.602842 0.669519 0.533871
Si Si3 0.828962 0.409294 0.262495
Si Si4 0.704309 0.069286 0.650117
Si Si5 0.176861 0.049606 0.765886
Si Si6 0.642959 0.046419 0.188400
Si Si7 0.005047 0.944523 0.726911
O O1 0.629818 0.757475 0.510795
O O2 0.690027 0.883361 0.373985
O O3 0.491222 0.887869 0.668983
O O4 0.948465 0.863076 0.343660
O O5 0.420602 0.636824 0.577091
O O6 0.474022 0.639286 0.711215
O O7 0.856118 0.626612 0.357546
O O8 0.876007 0.428119 0.124865
O O9 0.823938 0.487858 0.318039
O O10 0.839356 0.072619 0.465408
O O11 0.540009 0.994661 0.759019
O O12 0.295241 0.018074 0.778490
O O13 0.162776 0.981467 0.702572
O O14 0.897317 0.069596 0.975152
#
# Coordination Sequence:
#
# PCOD9245534 Si02
#       7
#     4   4   4   4   4   4   4
#     4  11  23  41  59  91 125 158 195 260 308 356
#     4  10  24  38  57  93 125 151 198 257 308 345
#     4   9  21  40  62  86 117 158 203 244 299 362
#     4  10  21  38  62  92 113 162 198 253 292 357
#     4  10  22  38  65  92 114 167 206 245 296 370
#     4  11  21  39  65  87 122 157 212 248 293 370
#     4  11  19  38  68  87 118 155 212 238 300 364
#
# _framework density 19.335215999999999
#
# number of rings (size 3 to 8) (size 9 to 14) (size 15 to 20)
#    0.857    0.857    4.286    1.286    0.000    2.286 
#    0.000    0.000    0.000    0.000    0.000    0.000 
#    0.000    0.000    0.000    0.000    0.000    0.000 
#
# Total GULP energy -156196.353153 kJ/mol
# GULP energy per Si atom -5578.441184 kJ/mol
# Density = 1.929121 g / cm^3
# Si number density = 19.335216 Si / 1000 Ang^3
#
#
#
# Elastic Constant Matrix: (Units=GPa)
#
#
# Indices 1 2 3 4 5 6 
#
# 1 41.3362 3.3032 0.8894 0.0000 6.7253 0.0000
# 2 3.3032 146.5260 49.2724 0.0000 -0.1913 0.0000
# 3 0.8894 49.2724 75.1839 0.0000 14.7917 0.0000
# 4 0.0000 0.0000 0.0000 27.4794 0.0000 -1.5546
# 5 6.7253 -0.1913 14.7917 0.0000 25.3868 0.0000
# 6 0.0000 0.0000 0.0000 -1.5546 0.0000 10.9142
#
#
#
# Elastic Compliance Matrix: (Units=1/GPa)
#
#
# Indices 1 2 3 4 5 6 
#
# 1 0.025555 -0.001303 0.002129 0.000000 -0.008020 0.000000
# 2 -0.001303 0.009167 -0.006860 0.000000 0.004411 0.000000
# 3 0.002129 -0.006860 0.020209 0.000000 -0.012391 0.000000
# 4 0.000000 0.000000 0.000000 0.036686 0.000000 0.005226
# 5 -0.008020 0.004411 -0.012391 0.000000 0.048768 0.000000
# 6 0.000000 0.000000 0.000000 0.005226 0.000000 0.092368
#
#
# Mechanical properties :
#
#
# Convention : Reuss Voigt Hill
#
# Bulk Modulus (GPa) = 23.32946 41.10846 32.21896
# Shear Modulus (GPa) = 19.29701 26.72815 23.01258
#
# Velocity S-wave (km/s) = 3.16258 3.72204 3.45366
# Velocity P-wave (km/s) = 5.04260 6.30702 5.70992
#
# Compressibility (1/GPa) = 0.04286425
#
# Stress axis : x y z
#
# Youngs Moduli (GPa) = 39.13118 109.09165 49.48324
#
# Poissons Ratio (x) = 0.14210 -0.10536
# Poissons Ratio (y) = 0.05097 0.33945
# Poissons Ratio (z) = -0.08332 0.74835
#
# Static dielectric constant tensor:
#      x y z
#    x 1.718020 0.000000 -0.021130 
#    y 0.000000 1.630350 0.000000 
#    z -0.021130 0.000000 1.697750 
# 
# From -- ./inp_files/45276.got.cif
#   From: 2010.05.17/outbox.cif.g08.bks.cpg/sg14_23_cif.got.tgz:45276.got - 2010.06.03 17:49:19.
