data_PCOD9245871
_publ_section_title
;
Structure prediction by ZEFSAII (Michael W. Deem and Ramdas Pophale) SiO2 
 PCOD9245871
Probable space group: P 21/C
;
_chemical_formula_sum "Si O2"
_cell_formula_units_Z 24
_cell_length_a 6.247578
_cell_length_b 11.105169
_cell_length_c 15.527174
_cell_angle_alpha 90.000000
_cell_angle_beta 69.014331
_cell_angle_gamma 90.000000
_cell_volume 1005.825632
_symmetry_space_group_name_H-M "P 21/C"
_symmetry_group_IT_number 14
_symmetry_cell_setting 'monoclinic'
loop_
_space_group_symop_operation_xyz
x,y,z
-x,1/2+y,1/2-z
-x,-y,-z
x,1/2-y,1/2+z
loop_
_atom_site_type_symbol
_atom_site_label
_atom_site_fract_x
_atom_site_fract_y
_atom_site_fract_z
Si Si1 0.894121 0.799525 0.495477
Si Si2 0.751510 0.669852 0.820797
Si Si3 0.314823 0.812952 0.874764
Si Si4 0.776886 0.226824 0.804859
Si Si5 0.499228 0.552624 0.095824
Si Si6 0.398130 0.060235 0.928832
O O1 0.852960 0.841329 0.402601
O O2 0.755556 0.894553 0.574324
O O3 0.765359 0.672407 0.526950
O O4 0.162200 0.769134 0.460963
O O5 0.581035 0.782506 0.847199
O O6 0.594409 0.552273 0.829077
O O7 0.958097 0.690138 0.724898
O O8 0.252644 0.776616 0.787341
O O9 0.271920 0.952374 0.898297
O O10 0.676770 0.336104 0.875224
O O11 0.611627 0.114587 0.845445
O O12 0.500000 0.500000 0.000000
O O13 0.500000 0.000000 0.000000
#
# Coordination Sequence:
#
# PCOD9245871 Si02
#       6
#     4   4   4   4   4   4
#     4   9  20  42  61  96 124 163 216 261 309 395
#     4  10  21  39  64  90 129 169 206 262 328 376
#     4  11  23  39  65  93 128 165 213 263 324 382
#     4  10  25  41  61  97 130 164 221 265 320 394
#     4   9  20  41  65  86 128 167 210 266 315 377
#     4  11  22  43  68  92 130 172 215 271 326 381
#
# _framework density 23.860996
#
# number of rings (size 3 to 8) (size 9 to 14) (size 15 to 20)
#    0.000    2.000    1.667    0.500    4.667    0.667 
#    6.000    0.000    0.000    0.000    0.000    0.000 
#    0.000    0.000    0.000    0.000    0.000    0.000 
#
# Total GULP energy -134194.452820 kJ/mol
# GULP energy per Si atom -5591.435534 kJ/mol
# Density = 2.380669 g / cm^3
# Si number density = 23.860996 Si / 1000 Ang^3
#
#
#
# Elastic Constant Matrix: (Units=GPa)
#
#
# Indices 1 2 3 4 5 6 
#
# 1 50.4521 14.9161 45.2223 0.0000 -33.3967 0.0000
# 2 14.9161 108.2385 49.1835 0.0000 -12.4584 0.0000
# 3 45.2223 49.1835 99.9688 0.0000 -28.6231 0.0000
# 4 0.0000 0.0000 0.0000 41.9476 0.0000 -0.1509
# 5 -33.3967 -12.4584 -28.6231 0.0000 50.5434 0.0000
# 6 0.0000 0.0000 0.0000 -0.1509 0.0000 24.3683
#
#
#
# Elastic Compliance Matrix: (Units=1/GPa)
#
#
# Indices 1 2 3 4 5 6 
#
# 1 0.050993 0.003976 -0.018017 0.000000 0.024471 0.000000
# 2 0.003976 0.012218 -0.007394 0.000000 0.001452 0.000000
# 3 -0.018017 -0.007394 0.021317 0.000000 -0.001655 0.000000
# 4 0.000000 0.000000 0.000000 0.023840 0.000000 0.000148
# 5 0.024471 0.001452 -0.001655 0.000000 0.035374 0.000000
# 6 0.000000 0.000000 0.000000 0.000148 0.000000 0.041038
#
#
# Mechanical properties :
#
#
# Convention : Reuss Voigt Hill
#
# Bulk Modulus (GPa) = 24.00490 53.03370 38.51930
# Shear Modulus (GPa) = 20.70075 33.32769 27.01422
#
# Velocity S-wave (km/s) = 2.94863 3.74136 3.36839
# Velocity P-wave (km/s) = 4.65561 6.39828 5.59521
#
# Compressibility (1/GPa) = 0.04165816
#
# Stress axis : x y z
#
# Youngs Moduli (GPa) = 19.61043 81.84712 46.90983
#
# Poissons Ratio (x) = -0.32546 0.84520
# Poissons Ratio (y) = -0.07798 0.34686
# Poissons Ratio (z) = 0.35333 0.60520
#
# Static dielectric constant tensor:
#      x y z
#    x 1.954540 0.000000 -0.001390 
#    y 0.000000 1.900860 0.000000 
#    z -0.001390 0.000000 1.934550 
# 
# From -- ./inp_files/52947.got.cif
#   From: 2010.05.17/outbox.cif.g08.bks.cpg/sg14_27_cif.got.tgz:52947.got - 2010.06.03 17:49:19.
