data_PCOD9245502
_publ_section_title
;
Structure prediction by ZEFSAII (Michael W. Deem and Ramdas Pophale) SiO2 
 PCOD9245502
Probable space group: P 21/C
;
_chemical_formula_sum "Si O2"
_cell_formula_units_Z 32
_cell_length_a 23.604131
_cell_length_b 14.082465
_cell_length_c 8.653758
_cell_angle_alpha 90.000000
_cell_angle_beta 147.023234
_cell_angle_gamma 90.000000
_cell_volume 1565.701258
_symmetry_space_group_name_H-M "P 21/C"
_symmetry_group_IT_number 14
_symmetry_cell_setting 'monoclinic'
loop_
_space_group_symop_operation_xyz
x,y,z
-x,1/2+y,1/2-z
-x,-y,-z
x,1/2-y,1/2+z
loop_
_atom_site_type_symbol
_atom_site_label
_atom_site_fract_x
_atom_site_fract_y
_atom_site_fract_z
Si Si1 0.947112 0.478284 0.174089
Si Si2 0.430057 0.676035 0.648953
Si Si3 0.103955 0.664729 0.178158
Si Si4 0.235638 0.699110 0.777684
Si Si5 0.949215 0.840219 0.846949
Si Si6 0.425343 0.286872 0.751951
Si Si7 0.291365 0.342894 0.166441
Si Si8 0.735777 0.048763 0.386288
O O1 0.976795 0.588741 0.266615
O O2 0.023109 0.407741 0.443312
O O3 0.936702 0.434748 0.980826
O O4 0.836008 0.469903 0.008153
O O5 0.350118 0.763045 0.498216
O O6 0.506761 0.711335 0.689984
O O7 0.359248 0.589913 0.430129
O O8 0.496592 0.658421 0.955284
O O9 0.177256 0.659025 0.494799
O O10 0.172439 0.710257 0.196282
O O11 0.015848 0.744583 0.003634
O O12 0.238518 0.626003 0.925181
O O13 0.827521 0.816650 0.568113
O O14 0.360281 0.346205 0.479323
O O15 0.344229 0.231072 0.673569
O O16 0.291124 0.448693 0.098273
#
# Coordination Sequence:
#
# PCOD9245502 Si02
#       8
#     4   4   4   4   4   4   4   4
#     4  10  21  38  61  93 123 157 206 247 304 377
#     4  11  19  37  65  87 122 154 200 262 312 351
#     4  12  20  36  63  94 124 159 201 248 314 374
#     4  12  20  35  63  98 122 152 195 258 319 365
#     4  10  21  38  64  84 127 167 197 247 306 361
#     4  10  23  42  58  88 120 165 213 247 298 379
#     4  10  25  42  61  84 125 167 209 248 298 370
#     4  11  21  40  65  95 123 155 199 264 315 356
#
# _framework density 20.438127000000001
#
# number of rings (size 3 to 8) (size 9 to 14) (size 15 to 20)
#    0.000    1.250    6.250    0.000    1.750    1.000 
#    0.000    5.625    0.000    0.000    0.000    0.000 
#    0.000    0.000    0.000    0.000    0.000    0.000 
#
# Total GULP energy -178813.868876 kJ/mol
# GULP energy per Si atom -5587.933402 kJ/mol
# Density = 2.039161 g / cm^3
# Si number density = 20.438127 Si / 1000 Ang^3
#
#
#
# Elastic Constant Matrix: (Units=GPa)
#
#
# Indices 1 2 3 4 5 6 
#
# 1 49.9928 6.3064 27.6189 0.0000 4.9628 0.0000
# 2 6.3064 48.0559 -4.4811 0.0000 8.9580 0.0000
# 3 27.6189 -4.4811 92.6645 0.0000 16.7044 0.0000
# 4 0.0000 0.0000 0.0000 23.4956 0.0000 -2.2922
# 5 4.9628 8.9580 16.7044 0.0000 28.6840 0.0000
# 6 0.0000 0.0000 0.0000 -2.2922 0.0000 21.7019
#
#
#
# Elastic Compliance Matrix: (Units=1/GPa)
#
#
# Indices 1 2 3 4 5 6 
#
# 1 0.024731 -0.004287 -0.007875 0.000000 0.001646 0.000000
# 2 -0.004287 0.023406 0.004015 0.000000 -0.008906 0.000000
# 3 -0.007875 0.004015 0.014875 0.000000 -0.008554 0.000000
# 4 0.000000 0.000000 0.000000 0.043004 0.000000 0.004542
# 5 0.001646 -0.008906 -0.008554 0.000000 0.042341 0.000000
# 6 0.000000 0.000000 0.000000 0.004542 0.000000 0.046559
#
#
# Mechanical properties :
#
#
# Convention : Reuss Voigt Hill
#
# Bulk Modulus (GPa) = 21.40470 27.73352 24.56911
# Shear Modulus (GPa) = 22.04757 25.52755 23.78756
#
# Velocity S-wave (km/s) = 3.28799 3.53798 3.41527
# Velocity P-wave (km/s) = 4.99101 5.50351 5.25352
#
# Compressibility (1/GPa) = 0.04671872
#
# Stress axis : x y z
#
# Youngs Moduli (GPa) = 40.43525 42.72364 67.22694
#
# Poissons Ratio (x) = 0.18314 0.52942
# Poissons Ratio (y) = 0.17333 -0.26992
# Poissons Ratio (z) = 0.31843 -0.17154
#
# Static dielectric constant tensor:
#      x y z
#    x 1.727420 0.000000 -0.002450 
#    y 0.000000 1.721300 0.000000 
#    z -0.002450 0.000000 1.736000 
# 
# From -- ./inp_files/19844.got.cif
#   From: 2010.05.17/outbox.cif.g08.bks.cpg/sg14_10_cif.got.tgz:19844.got - 2010.06.03 17:49:19.
