data_PCOD9245711
_publ_section_title
;
Structure prediction by ZEFSAII (Michael W. Deem and Ramdas Pophale) SiO2 
 PCOD9245711
Probable space group: P 21/C
;
_chemical_formula_sum "Si O2"
_cell_formula_units_Z 20
_cell_length_a 4.812307
_cell_length_b 21.842395
_cell_length_c 8.261926
_cell_angle_alpha 90.000000
_cell_angle_beta 123.157055
_cell_angle_gamma 90.000000
_cell_volume 727.027555
_symmetry_space_group_name_H-M "P 21/C"
_symmetry_group_IT_number 14
_symmetry_cell_setting 'monoclinic'
loop_
_space_group_symop_operation_xyz
x,y,z
-x,1/2+y,1/2-z
-x,-y,-z
x,1/2-y,1/2+z
loop_
_atom_site_type_symbol
_atom_site_label
_atom_site_fract_x
_atom_site_fract_y
_atom_site_fract_z
Si Si1 0.183034 0.045848 0.393522
Si Si2 0.900608 0.951078 0.106260
Si Si3 0.791722 0.323711 0.284302
Si Si4 0.498361 0.724390 0.485231
Si Si5 0.586557 0.115600 0.258694
O O1 0.050084 0.908442 0.576713
O O2 0.500000 0.000000 0.500000
O O3 0.312651 0.093017 0.297850
O O4 0.904724 0.993427 0.264548
O O5 0.560130 0.917297 0.952264
O O6 0.169971 0.896629 0.205227
O O7 0.000000 0.000000 0.000000
O O8 0.533339 0.294487 0.077813
O O9 0.735896 0.300336 0.448197
O O10 0.137907 0.293862 0.340668
O O11 0.421987 0.685764 0.297041
#
# Coordination Sequence:
#
# PCOD9245711 Si02
#       5
#     4   4   4   4   4
#     4  11  22  36  59  91 120 154 201 255 303 351
#     4   9  20  39  62  85 117 159 203 242 300 372
#     4  11  24  40  64  91 122 163 205 256 309 370
#     4  11  23  42  62  90 121 160 207 251 310 368
#     4  10  21  39  59  81 120 162 195 244 302 371
#
# _framework density 27.509274999999999
#
# number of rings (size 3 to 8) (size 9 to 14) (size 15 to 20)
#    0.000    1.600    0.000    6.000    0.000    8.000 
#    0.000    0.000    0.000    0.000    0.000    0.000 
#    0.000    0.000    0.000    0.000    0.000    0.000 
#
# Total GULP energy -111764.678127 kJ/mol
# GULP energy per Si atom -5588.233906 kJ/mol
# Density = 2.744666 g / cm^3
# Si number density = 27.509275 Si / 1000 Ang^3
#
#
#
# Elastic Constant Matrix: (Units=GPa)
#
#
# Indices 1 2 3 4 5 6 
#
# 1 83.7470 12.2701 -10.9724 0.0000 -2.0112 0.0000
# 2 12.2701 175.8981 31.8767 0.0000 6.9372 0.0000
# 3 -10.9724 31.8767 29.1181 0.0000 -1.0034 0.0000
# 4 0.0000 0.0000 0.0000 58.2345 0.0000 8.6261
# 5 -2.0112 6.9372 -1.0034 0.0000 28.9893 0.0000
# 6 0.0000 0.0000 0.0000 8.6261 0.0000 33.4834
#
#
#
# Elastic Compliance Matrix: (Units=1/GPa)
#
#
# Indices 1 2 3 4 5 6 
#
# 1 0.013346 -0.002399 0.007716 0.000000 0.001767 0.000000
# 2 -0.002399 0.007637 -0.009345 0.000000 -0.002317 0.000000
# 3 0.007716 -0.009345 0.047633 0.000000 0.004420 0.000000
# 4 0.000000 0.000000 0.000000 0.017853 0.000000 -0.004599
# 5 0.001767 -0.002317 0.004420 0.000000 0.035326 0.000000
# 6 0.000000 0.000000 0.000000 -0.004599 0.000000 0.031050
#
#
# Mechanical properties :
#
#
# Convention : Reuss Voigt Hill
#
# Bulk Modulus (GPa) = 16.51242 39.45689 27.98465
# Shear Modulus (GPa) = 27.61103 41.18070 34.39586
#
# Velocity S-wave (km/s) = 3.17156 3.87327 3.53985
# Velocity P-wave (km/s) = 4.40763 5.86321 5.18674
#
# Compressibility (1/GPa) = 0.06056049
#
# Stress axis : x y z
#
# Youngs Moduli (GPa) = 74.93116 130.93594 20.99393
#
# Poissons Ratio (x) = 0.31411 -0.16199
# Poissons Ratio (y) = 0.17976 0.19618
# Poissons Ratio (z) = -0.57817 1.22356
#
# Static dielectric constant tensor:
#      x y z
#    x 2.059710 0.000000 0.032730 
#    y 0.000000 2.144150 0.000000 
#    z 0.032730 0.000000 2.375350 
# 
# From -- ./inp_files/6174.got.cif
#   From: 2010.05.17/outbox.cif.g08.bks.cpg/sg14_4_cif.got.tgz:6174.got - 2010.06.03 17:49:19.
