data_PCOD9245149
_publ_section_title
;
Structure prediction by ZEFSAII (Michael W. Deem and Ramdas Pophale) SiO2 
 PCOD9245149
Probable space group: P 21/C
;
_chemical_formula_sum "Si O2"
_cell_formula_units_Z 32
_cell_length_a 30.170104
_cell_length_b 8.781392
_cell_length_c 19.040364
_cell_angle_alpha 90.000000
_cell_angle_beta 18.443049
_cell_angle_gamma 90.000000
_cell_volume 1595.877566
_symmetry_space_group_name_H-M "P 21/C"
_symmetry_group_IT_number 14
_symmetry_cell_setting 'monoclinic'
loop_
_space_group_symop_operation_xyz
x,y,z
-x,1/2+y,1/2-z
-x,-y,-z
x,1/2-y,1/2+z
loop_
_atom_site_type_symbol
_atom_site_label
_atom_site_fract_x
_atom_site_fract_y
_atom_site_fract_z
Si Si1 0.060925 0.428692 0.836356
Si Si2 0.658515 0.791655 0.082682
Si Si3 0.092710 0.125011 0.549687
Si Si4 0.632759 0.432679 0.983275
Si Si5 0.043227 0.915952 0.007761
Si Si6 0.365622 0.947745 0.350304
Si Si7 0.356230 0.273687 0.563786
Si Si8 0.113502 0.608104 0.139700
O O1 0.227543 0.420057 0.570329
O O2 0.987316 0.521032 0.886012
O O3 0.000000 0.500000 0.000000
O O4 0.020772 0.251390 0.897976
O O5 0.677546 0.626137 0.089505
O O6 0.497249 0.828434 0.341229
O O7 0.676862 0.789358 0.969938
O O8 0.221267 0.201965 0.314925
O O9 0.979895 0.249890 0.745519
O O10 0.145314 0.012056 0.530871
O O11 0.791956 0.397141 0.725038
O O12 0.596290 0.598412 0.007089
O O13 0.640349 0.424533 0.056786
O O14 0.000000 0.000000 0.000000
O O15 0.981460 0.020414 0.161106
O O16 0.254550 0.854390 0.471015
O O17 0.522586 0.892594 0.096963
#
# Coordination Sequence:
#
# PCOD9245149 Si02
#       8
#     4   4   4   4   4   4   4   4
#     4  12  24  38  68 101 131 171 222 276 328 393
#     4  10  21  38  62 103 133 164 212 271 328 396
#     4  12  27  44  66  94 131 175 229 275 331 395
#     4  10  21  36  67 100 135 165 211 268 335 391
#     4  12  21  41  69  99 128 175 216 277 331 387
#     4  10  22  39  67  93 135 170 211 264 338 394
#     4  10  21  41  62  98 131 169 210 269 326 401
#     4  12  25  45  67  92 130 178 224 277 332 393
#
# _framework density 20.051665
#
# number of rings (size 3 to 8) (size 9 to 14) (size 15 to 20)
#    0.000    1.000    5.000    2.250    3.500    1.500 
#    0.000    0.000    0.000    2.250    0.000    0.000 
#    0.000    0.000    0.000    0.000    0.000    0.000 
#
# Total GULP energy -178522.175367 kJ/mol
# GULP energy per Si atom -5578.817980 kJ/mol
# Density = 2.000603 g / cm^3
# Si number density = 20.051665 Si / 1000 Ang^3
#
#
#
# Elastic Constant Matrix: (Units=GPa)
#
#
# Indices 1 2 3 4 5 6 
#
# 1 36.5293 8.7174 20.3035 0.0000 -5.5160 0.0000
# 2 8.7174 56.2376 0.8782 0.0000 -3.5355 0.0000
# 3 20.3035 0.8782 74.5774 0.0000 -23.3080 0.0000
# 4 0.0000 0.0000 0.0000 28.1564 0.0000 -8.7392
# 5 -5.5160 -3.5355 -23.3080 0.0000 27.8269 0.0000
# 6 0.0000 0.0000 0.0000 -8.7392 0.0000 25.8537
#
#
#
# Elastic Compliance Matrix: (Units=1/GPa)
#
#
# Indices 1 2 3 4 5 6 
#
# 1 0.033741 -0.005215 -0.009809 0.000000 -0.002190 0.000000
# 2 -0.005215 0.018756 0.002195 0.000000 0.003188 0.000000
# 3 -0.009809 0.002195 0.021041 0.000000 0.015959 0.000000
# 4 0.000000 0.000000 0.000000 0.039679 0.000000 0.013412
# 5 -0.002190 0.003188 0.015959 0.000000 0.049274 0.000000
# 6 0.000000 0.000000 0.000000 0.013412 0.000000 0.043213
#
#
# Mechanical properties :
#
#
# Convention : Reuss Voigt Hill
#
# Bulk Modulus (GPa) = 20.88502 25.23807 23.06154
# Shear Modulus (GPa) = 20.21656 25.53042 22.87349
#
# Velocity S-wave (km/s) = 3.17870 3.57211 3.38113
# Velocity P-wave (km/s) = 4.88982 5.44308 5.17385
#
# Compressibility (1/GPa) = 0.04788121
#
# Stress axis : x y z
#
# Youngs Moduli (GPa) = 29.63752 53.31578 47.52592
#
# Poissons Ratio (x) = 0.27803 0.46618
# Poissons Ratio (y) = 0.15455 -0.10433
# Poissons Ratio (z) = 0.29072 -0.11704
#
# Static dielectric constant tensor:
#      x y z
#    x 1.706930 0.000000 -0.015310 
#    y 0.000000 1.743440 0.000000 
#    z -0.015310 0.000000 1.753450 
# 
# From -- ./inp_files/62649.got.cif
#   From: 2010.05.17/outbox.cif.g08.bks.cpg/sg14_32_cif.got.tgz:62649.got - 2010.06.03 17:49:19.
