data_PCOD9245373
_publ_section_title
;
Structure prediction by ZEFSAII (Michael W. Deem and Ramdas Pophale) SiO2 
 PCOD9245373
Probable space group: P 21/C
;
_chemical_formula_sum "Si O2"
_cell_formula_units_Z 32
_cell_length_a 8.750673
_cell_length_b 20.874465
_cell_length_c 8.903990
_cell_angle_alpha 90.000000
_cell_angle_beta 109.806729
_cell_angle_gamma 90.000000
_cell_volume 1530.233474
_symmetry_space_group_name_H-M "P 21/C"
_symmetry_group_IT_number 14
_symmetry_cell_setting 'monoclinic'
loop_
_space_group_symop_operation_xyz
x,y,z
-x,1/2+y,1/2-z
-x,-y,-z
x,1/2-y,1/2+z
loop_
_atom_site_type_symbol
_atom_site_label
_atom_site_fract_x
_atom_site_fract_y
_atom_site_fract_z
Si Si1 0.230172 0.180774 0.619827
Si Si2 0.168746 0.582389 0.108195
Si Si3 0.727942 0.306522 0.672013
Si Si4 0.310786 0.370948 0.822677
Si Si5 0.977737 0.118524 0.733335
Si Si6 0.848515 0.984628 0.631993
Si Si7 0.463123 0.744951 0.146978
Si Si8 0.022780 0.195806 0.045141
O O1 0.270359 0.144271 0.482209
O O2 0.153699 0.136531 0.724181
O O3 0.390225 0.216604 0.729266
O O4 0.099168 0.235384 0.534350
O O5 0.267879 0.620865 0.264724
O O6 0.996869 0.560566 0.124408
O O7 0.228406 0.518596 0.042024
O O8 0.134833 0.629092 0.952953
O O9 0.583245 0.284257 0.515746
O O10 0.696197 0.261260 0.803766
O O11 0.891955 0.297584 0.633866
O O12 0.284785 0.447385 0.814917
O O13 0.470292 0.327868 0.849915
O O14 0.173348 0.344066 0.665517
O O15 0.957955 0.159138 0.876722
O O16 0.938044 0.043663 0.746469
#
# Coordination Sequence:
#
# PCOD9245373 Si02
#       8
#     4   4   4   4   4   4   4   4
#     4  11  21  42  61  95 125 173 213 264 331 389
#     4   9  19  39  63  95 124 163 209 276 313 374
#     4  12  25  42  59  96 132 169 214 267 328 380
#     4  11  20  44  65  95 126 176 216 261 325 392
#     4  10  21  37  69 102 125 158 222 274 324 374
#     4   9  18  40  70  98 121 173 215 273 318 379
#     4  11  27  39  63  92 138 172 207 265 329 396
#     4  11  24  34  68  97 130 160 219 277 312 379
#
# _framework density 20.911843000000001
#
# number of rings (size 3 to 8) (size 9 to 14) (size 15 to 20)
#    0.750    0.750    3.750    1.500    7.000    0.500 
#    0.000    0.625    0.000    5.250    0.000    0.000 
#    0.000    0.000    0.000    0.000    0.000    0.000 
#
# Total GULP energy -178262.322539 kJ/mol
# GULP energy per Si atom -5570.697579 kJ/mol
# Density = 2.086425 g / cm^3
# Si number density = 20.911843 Si / 1000 Ang^3
#
#
#
# Elastic Constant Matrix: (Units=GPa)
#
#
# Indices 1 2 3 4 5 6 
#
# 1 71.6828 29.6095 31.6933 0.0000 -5.6099 0.0000
# 2 29.6095 80.5921 54.3336 0.0000 8.0825 0.0000
# 3 31.6933 54.3336 78.5504 0.0000 0.7425 0.0000
# 4 0.0000 0.0000 0.0000 31.0249 0.0000 -0.9429
# 5 -5.6099 8.0825 0.7425 0.0000 20.1428 0.0000
# 6 0.0000 0.0000 0.0000 -0.9429 0.0000 26.6820
#
#
#
# Elastic Compliance Matrix: (Units=1/GPa)
#
#
# Indices 1 2 3 4 5 6 
#
# 1 0.018276 -0.004509 -0.004322 0.000000 0.007058 0.000000
# 2 -0.004509 0.026010 -0.016067 0.000000 -0.011100 0.000000
# 3 -0.004322 -0.016067 0.025548 0.000000 0.004302 0.000000
# 4 0.000000 0.000000 0.000000 0.032267 0.000000 0.001140
# 5 0.007058 -0.011100 0.004302 0.000000 0.055907 0.000000
# 6 0.000000 0.000000 0.000000 0.001140 0.000000 0.037519
#
#
# Mechanical properties :
#
#
# Convention : Reuss Voigt Hill
#
# Bulk Modulus (GPa) = 49.90535 51.34421 50.62478
# Shear Modulus (GPa) = 19.84121 23.24921 21.54521
#
# Velocity S-wave (km/s) = 3.08361 3.33794 3.21329
# Velocity P-wave (km/s) = 6.04935 6.28186 6.16670
#
# Compressibility (1/GPa) = 0.02003793
#
# Stress axis : x y z
#
# Youngs Moduli (GPa) = 54.71663 38.44675 39.14274
#
# Poissons Ratio (x) = 0.17334 0.16917
# Poissons Ratio (y) = 0.24670 0.62891
# Poissons Ratio (z) = 0.23649 0.61773
#
# Static dielectric constant tensor:
#      x y z
#    x 1.791250 0.000000 0.003890 
#    y 0.000000 1.847350 0.000000 
#    z 0.003890 0.000000 1.751690 
# 
# From -- ./inp_files/10710.got.cif
#   From: 2010.05.17/outbox.cif.g08.bks.cpg/sg14_6_cif.got.tgz:10710.got - 2010.06.03 17:49:19.
