data_PCOD9245238
_publ_section_title
;
Structure prediction by ZEFSAII (Michael W. Deem and Ramdas Pophale) SiO2 
 PCOD9245238
Probable space group: P 21/C
;
_chemical_formula_sum "Si O2"
_cell_formula_units_Z 28
_cell_length_a 9.079915
_cell_length_b 5.204997
_cell_length_c 31.811804
_cell_angle_alpha 90.000000
_cell_angle_beta 52.581739
_cell_angle_gamma 90.000000
_cell_volume 1194.075894
_symmetry_space_group_name_H-M "P 21/C"
_symmetry_group_IT_number 14
_symmetry_cell_setting 'monoclinic'
loop_
_space_group_symop_operation_xyz
x,y,z
-x,1/2+y,1/2-z
-x,-y,-z
x,1/2-y,1/2+z
loop_
_atom_site_type_symbol
_atom_site_label
_atom_site_fract_x
_atom_site_fract_y
_atom_site_fract_z
Si Si1 0.558277 0.523270 0.062747
Si Si2 0.392130 0.446600 0.777538
Si Si3 0.769307 0.944579 0.837840
Si Si4 0.677312 0.093579 0.942981
Si Si5 0.815286 0.023989 0.003804
Si Si6 0.447539 0.840719 0.671432
Si Si7 0.866199 0.809401 0.240532
O O1 0.388507 0.623417 0.062000
O O2 0.689659 0.278248 0.033486
O O3 0.475550 0.499955 0.124008
O O4 0.694984 0.771036 0.036010
O O5 0.457007 0.740037 0.766208
O O6 0.376122 0.355776 0.828658
O O7 0.225547 0.395886 0.774874
O O8 0.878640 0.757729 0.787735
O O9 0.703687 0.919943 0.896784
O O10 0.607506 0.063411 0.836782
O O11 0.932339 0.154203 0.813388
O O12 0.841191 0.051824 0.948406
O O13 0.500000 0.000000 0.000000
O O14 0.000000 0.000000 0.000000
O O15 0.281561 0.958488 0.728357
#
# Coordination Sequence:
#
# PCOD9245238 Si02
#       7
#     4   4   4   4   4   4   4
#     4  10  23  40  69  94 128 171 221 269 335 405
#     4  10  21  37  59  86 127 168 213 258 313 393
#     4  11  21  40  60  94 130 171 219 273 332 389
#     4   9  22  42  66  93 128 176 227 273 328 410
#     4  11  23  44  66  97 131 166 220 284 336 391
#     4  10  22  38  62  91 125 174 213 266 322 403
#     4  11  22  37  61  90 134 164 217 268 332 383
#
# _framework density 23.449093999999999
#
# number of rings (size 3 to 8) (size 9 to 14) (size 15 to 20)
#    0.000    1.714    2.857    0.857    6.000    1.143 
#    2.571    4.286    0.000    0.000    0.000    0.000 
#    0.000    0.000    0.000    0.000    0.000    0.000 
#
# Total GULP energy -155943.947089 kJ/mol
# GULP energy per Si atom -5569.426682 kJ/mol
# Density = 2.339572 g / cm^3
# Si number density = 23.449094 Si / 1000 Ang^3
#
#
#
# Elastic Constant Matrix: (Units=GPa)
#
#
# Indices 1 2 3 4 5 6 
#
# 1 139.1338 16.9365 34.4970 0.0000 35.5145 0.0000
# 2 16.9365 85.6844 2.7815 0.0000 0.8740 0.0000
# 3 34.4970 2.7815 115.5220 0.0000 31.2591 0.0000
# 4 0.0000 0.0000 0.0000 32.9299 0.0000 7.8313
# 5 35.5145 0.8740 31.2591 0.0000 40.3647 0.0000
# 6 0.0000 0.0000 0.0000 7.8313 0.0000 25.3351
#
#
#
# Elastic Compliance Matrix: (Units=1/GPa)
#
#
# Indices 1 2 3 4 5 6 
#
# 1 0.009582 -0.001791 -0.000693 0.000000 -0.007856 0.000000
# 2 -0.001791 0.012015 -0.000140 0.000000 0.001424 0.000000
# 3 -0.000693 -0.000140 0.011007 0.000000 -0.007912 0.000000
# 4 0.000000 0.000000 0.000000 0.032777 0.000000 -0.010132
# 5 -0.007856 0.001424 -0.007912 0.000000 0.037782 0.000000
# 6 0.000000 0.000000 0.000000 -0.010132 0.000000 0.042603
#
#
# Mechanical properties :
#
#
# Convention : Reuss Voigt Hill
#
# Bulk Modulus (GPa) = 36.55371 49.86337 43.20854
# Shear Modulus (GPa) = 31.22403 38.80096 35.01249
#
# Velocity S-wave (km/s) = 3.65302 4.07220 3.86829
# Velocity P-wave (km/s) = 5.78058 6.58947 6.19824
#
# Compressibility (1/GPa) = 0.02735701
#
# Stress axis : x y z
#
# Youngs Moduli (GPa) = 104.35864 83.23044 90.84772
#
# Poissons Ratio (x) = 0.14910 0.06293
# Poissons Ratio (y) = 0.18695 0.01269
# Poissons Ratio (z) = 0.07228 0.01163
#
# Static dielectric constant tensor:
#      x y z
#    x 2.029630 0.000000 0.036220 
#    y 0.000000 2.070300 0.000000 
#    z 0.036220 0.000000 1.894390 
# 
# From -- ./inp_files/79182.got.cif
#   From: 2010.05.17/outbox.cif.g08.bks.cpg/sg14_40_cif.got.tgz:79182.got - 2010.06.03 17:49:19.
