data_PCOD9245198
_publ_section_title
;
Structure prediction by ZEFSAII (Michael W. Deem and Ramdas Pophale) SiO2 
 PCOD9245198
Probable space group: P 21/C
;
_chemical_formula_sum "Si O2"
_cell_formula_units_Z 24
_cell_length_a 7.322581
_cell_length_b 12.983679
_cell_length_c 12.572205
_cell_angle_alpha 90.000000
_cell_angle_beta 124.727659
_cell_angle_gamma 90.000000
_cell_volume 982.372229
_symmetry_space_group_name_H-M "P 21/C"
_symmetry_group_IT_number 14
_symmetry_cell_setting 'monoclinic'
loop_
_space_group_symop_operation_xyz
x,y,z
-x,1/2+y,1/2-z
-x,-y,-z
x,1/2-y,1/2+z
loop_
_atom_site_type_symbol
_atom_site_label
_atom_site_fract_x
_atom_site_fract_y
_atom_site_fract_z
Si Si1 0.443141 0.365938 0.064086
Si Si2 0.623867 0.163168 0.844962
Si Si3 0.821936 0.427384 0.046732
Si Si4 0.086355 0.190228 0.942123
Si Si5 0.250057 0.049270 0.831108
Si Si6 0.758061 0.149141 0.294750
O O1 0.283584 0.458982 0.975384
O O2 0.292052 0.265205 0.030736
O O3 0.563700 0.397527 0.215182
O O4 0.636794 0.354890 0.041087
O O5 0.886927 0.165303 0.958470
O O6 0.465714 0.116990 0.879312
O O7 0.572574 0.279901 0.789581
O O8 0.052739 0.418066 0.184844
O O9 0.851088 0.406253 0.931593
O O10 0.934965 0.264932 0.815198
O O11 0.163251 0.083857 0.916462
O O12 0.297586 0.932214 0.813371
#
# Coordination Sequence:
#
# PCOD9245198 Si02
#       6
#     4   4   4   4   4   4
#     4  11  20  37  63  91 122 152 205 254 298 358
#     4  10  22  38  57  91 122 156 196 245 304 356
#     4  11  19  34  67  93 110 157 204 261 307 333
#     4  10  23  38  54  92 121 157 197 244 299 359
#     4  12  20  39  61  87 126 156 196 255 302 348
#     4  10  21  37  57  91 122 151 200 246 300 353
#
# _framework density 24.430658999999999
#
# number of rings (size 3 to 8) (size 9 to 14) (size 15 to 20)
#    1.000    0.333    5.000    2.500    0.000    0.000 
#    3.000    0.833    0.000    1.000    0.000    0.000 
#    0.000    0.000    0.000    0.000    0.000    0.000 
#
# Total GULP energy -133802.133389 kJ/mol
# GULP energy per Si atom -5575.088891 kJ/mol
# Density = 2.437505 g / cm^3
# Si number density = 24.430659 Si / 1000 Ang^3
#
#
#
# Elastic Constant Matrix: (Units=GPa)
#
#
# Indices 1 2 3 4 5 6 
#
# 1 116.2401 9.2009 19.1624 0.0000 22.0037 0.0000
# 2 9.2009 49.6712 2.2490 0.0000 4.5915 0.0000
# 3 19.1624 2.2490 62.4708 0.0000 4.9280 0.0000
# 4 0.0000 0.0000 0.0000 25.6921 0.0000 10.0170
# 5 22.0037 4.5915 4.9280 0.0000 15.4434 0.0000
# 6 0.0000 0.0000 0.0000 10.0170 0.0000 34.0852
#
#
#
# Elastic Compliance Matrix: (Units=1/GPa)
#
#
# Indices 1 2 3 4 5 6 
#
# 1 0.012145 -0.000629 -0.002413 0.000000 -0.016347 0.000000
# 2 -0.000629 0.020738 -0.000141 0.000000 -0.005224 0.000000
# 3 -0.002413 -0.000141 0.016904 0.000000 -0.001914 0.000000
# 4 0.000000 0.000000 0.000000 0.043959 0.000000 -0.012919
# 5 -0.016347 -0.005224 -0.001914 0.000000 0.090207 0.000000
# 6 0.000000 0.000000 0.000000 -0.012919 0.000000 0.033135
#
#
# Mechanical properties :
#
#
# Convention : Reuss Voigt Hill
#
# Bulk Modulus (GPa) = 23.03141 32.17853 27.60497
# Shear Modulus (GPa) = 21.01463 28.22879 24.62171
#
# Velocity S-wave (km/s) = 2.93606 3.40290 3.17806
# Velocity P-wave (km/s) = 4.57620 5.35160 4.97902
#
# Compressibility (1/GPa) = 0.04341897
#
# Stress axis : x y z
#
# Youngs Moduli (GPa) = 82.33913 48.22002 59.15849
#
# Poissons Ratio (x) = 0.03035 0.14276
# Poissons Ratio (y) = 0.05182 0.00837
# Poissons Ratio (z) = 0.19870 0.00682
#
# Static dielectric constant tensor:
#      x y z
#    x 1.953880 0.000000 0.040180 
#    y 0.000000 2.036050 0.000000 
#    z 0.040180 0.000000 1.973810 
# 
# From -- ./inp_files/39269.got.cif
#   From: 2010.05.17/outbox.cif.g08.bks.cpg/sg14_20_cif.got.tgz:39269.got - 2010.06.03 17:49:19.
