data_PCOD9245673
_publ_section_title
;
Structure prediction by ZEFSAII (Michael W. Deem and Ramdas Pophale) SiO2 
 PCOD9245673
Probable space group: P 21/C
;
_chemical_formula_sum "Si O2"
_cell_formula_units_Z 30
_cell_length_a 5.416149
_cell_length_b 13.417426
_cell_length_c 19.351947
_cell_angle_alpha 90.000000
_cell_angle_beta 103.884487
_cell_angle_gamma 90.000000
_cell_volume 1365.230444
_symmetry_space_group_name_H-M "P 21/C"
_symmetry_group_IT_number 14
_symmetry_cell_setting 'monoclinic'
loop_
_space_group_symop_operation_xyz
x,y,z
-x,1/2+y,1/2-z
-x,-y,-z
x,1/2-y,1/2+z
loop_
_atom_site_type_symbol
_atom_site_label
_atom_site_fract_x
_atom_site_fract_y
_atom_site_fract_z
Si Si1 0.894257 0.756647 0.544657
Si Si2 0.679763 0.925510 0.268714
Si Si3 0.573436 0.259418 0.680928
Si Si4 0.500000 0.000000 0.000000
Si Si5 0.814759 0.571594 0.632057
Si Si6 0.043636 0.628902 0.191627
Si Si7 0.320260 0.724806 0.462206
Si Si8 0.243219 0.425021 0.697760
O O1 0.963423 0.828594 0.612792
O O2 0.098024 0.763458 0.497153
O O3 0.913034 0.645617 0.579536
O O4 0.601284 0.767862 0.500931
O O5 0.574627 0.840807 0.310709
O O6 0.800108 0.879762 0.206662
O O7 0.860052 0.014027 0.308434
O O8 0.437724 0.986984 0.225813
O O9 0.740678 0.303305 0.755736
O O10 0.731265 0.249524 0.621371
O O11 0.361829 0.344590 0.654981
O O12 0.548000 0.962969 0.083255
O O13 0.353752 0.893746 0.973864
O O14 0.990628 0.476320 0.653894
O O15 0.818934 0.625867 0.232878
#
# Coordination Sequence:
#
# PCOD9245673 Si02
#       8
#     4   4   4   2   4   4   4   4
#     4  11  26  43  68  96 139 179 227 269 342 406
#     4  10  22  41  66  98 126 168 231 281 338 387
#     4  11  24  41  67  96 134 172 227 284 337 408
#     4  10  22  38  60  92 140 168 214 266 348 416
#     4  10  22  38  63  99 130 177 215 277 343 415
#     4  10  23  42  68  94 128 178 230 279 334 404
#     4  11  27  42  64  99 139 180 221 279 346 404
#     4  10  21  38  68  94 129 165 224 276 339 394
#
# _framework density 21.974312000000001
#
# number of rings (size 3 to 8) (size 9 to 14) (size 15 to 20)
#    0.000    1.600    0.000    4.000   16.800    2.133 
#    0.000    1.333    0.000    0.000    0.000    0.000 
#    0.000    0.000    0.000    0.000    0.000    0.000 
#
# Total GULP energy -167133.157004 kJ/mol
# GULP energy per Si atom -5571.105233 kJ/mol
# Density = 2.192430 g / cm^3
# Si number density = 21.974312 Si / 1000 Ang^3
#
#
#
# Elastic Constant Matrix: (Units=GPa)
#
#
# Indices 1 2 3 4 5 6 
#
# 1 81.3803 13.2583 30.1226 0.0000 -24.9724 0.0000
# 2 13.2583 60.5316 32.6033 0.0000 -7.9493 0.0000
# 3 30.1226 32.6033 67.1451 0.0000 -19.9526 0.0000
# 4 0.0000 0.0000 0.0000 35.4239 0.0000 -8.2511
# 5 -24.9724 -7.9493 -19.9526 0.0000 35.6155 0.0000
# 6 0.0000 0.0000 0.0000 -8.2511 0.0000 16.1958
#
#
#
# Elastic Compliance Matrix: (Units=1/GPa)
#
#
# Indices 1 2 3 4 5 6 
#
# 1 0.016887 0.000163 -0.004950 0.000000 0.009104 0.000000
# 2 0.000163 0.022424 -0.011325 0.000000 -0.001226 0.000000
# 3 -0.004950 -0.011325 0.024991 0.000000 0.008002 0.000000
# 4 0.000000 0.000000 0.000000 0.032030 0.000000 0.016318
# 5 0.009104 -0.001226 0.008002 0.000000 0.038671 0.000000
# 6 0.000000 0.000000 0.000000 0.016318 0.000000 0.070058
#
#
# Mechanical properties :
#
#
# Convention : Reuss Voigt Hill
#
# Bulk Modulus (GPa) = 31.17487 40.11393 35.64440
# Shear Modulus (GPa) = 20.16310 26.31856 23.24083
#
# Velocity S-wave (km/s) = 3.03244 3.46453 3.25566
# Velocity P-wave (km/s) = 5.14574 5.85649 5.51258
#
# Compressibility (1/GPa) = 0.03207712
#
# Stress axis : x y z
#
# Youngs Moduli (GPa) = 59.21619 44.59554 40.01490
#
# Poissons Ratio (x) = -0.00726 0.19806
# Poissons Ratio (y) = -0.00963 0.45319
# Poissons Ratio (z) = 0.29309 0.50506
#
# Static dielectric constant tensor:
#      x y z
#    x 1.877590 0.000000 0.003760 
#    y 0.000000 1.797770 0.000000 
#    z 0.003760 0.000000 1.777250 
# 
# From -- ./inp_files/53320.got.cif
#   From: 2010.05.17/outbox.cif.g08.bks.cpg/sg14_27_cif.got.tgz:53320.got - 2010.06.03 17:49:19.
