data_PCOD9245334
_publ_section_title
;
Structure prediction by ZEFSAII (Michael W. Deem and Ramdas Pophale) SiO2 
 PCOD9245334
Probable space group: P 21/C
;
_chemical_formula_sum "Si O2"
_cell_formula_units_Z 24
_cell_length_a 8.611533
_cell_length_b 14.975967
_cell_length_c 10.495076
_cell_angle_alpha 90.000000
_cell_angle_beta 117.926650
_cell_angle_gamma 90.000000
_cell_volume 1195.889423
_symmetry_space_group_name_H-M "P 21/C"
_symmetry_group_IT_number 14
_symmetry_cell_setting 'monoclinic'
loop_
_space_group_symop_operation_xyz
x,y,z
-x,1/2+y,1/2-z
-x,-y,-z
x,1/2-y,1/2+z
loop_
_atom_site_type_symbol
_atom_site_label
_atom_site_fract_x
_atom_site_fract_y
_atom_site_fract_z
Si Si1 0.690057 0.577256 0.684046
Si Si2 0.070088 0.959523 0.397220
Si Si3 0.578057 0.291264 0.291178
Si Si4 0.526006 0.906195 0.844567
Si Si5 0.653844 0.187398 0.545902
Si Si6 0.643119 0.566002 0.119241
O O1 0.584030 0.642827 0.739442
O O2 0.633186 0.476067 0.698549
O O3 0.624233 0.595548 0.516183
O O4 0.898914 0.583756 0.768465
O O5 0.218839 0.884377 0.470824
O O6 0.168406 0.039151 0.360346
O O7 0.000000 0.000000 0.500000
O O8 0.523710 0.193245 0.218181
O O9 0.671352 0.275254 0.464469
O O10 0.689714 0.321256 0.210699
O O11 0.637527 0.943635 0.768816
O O12 0.446831 0.160287 0.451969
O O13 0.500000 0.500000 0.000000
#
# Coordination Sequence:
#
# PCOD9245334 Si02
#       6
#     4   4   4   4   4   4
#     4  11  22  39  66  93 133 157 215 272 309 374
#     4  11  21  38  61  95 121 163 214 265 311 374
#     4  11  20  42  62  93 124 173 208 257 316 390
#     4  10  22  40  65  94 121 176 210 254 324 378
#     4  10  21  37  64  86 124 170 208 252 322 380
#     4   9  18  36  61  85 120 162 207 243 310 378
#
# _framework density 20.068746000000001
#
# number of rings (size 3 to 8) (size 9 to 14) (size 15 to 20)
#    0.000    1.667    1.667    6.000    0.000    0.667 
#    3.000    3.333    0.000    0.000    0.000    0.000 
#    0.000    0.000    0.000    0.000    0.000    0.000 
#
# Total GULP energy -133679.899911 kJ/mol
# GULP energy per Si atom -5569.995830 kJ/mol
# Density = 2.002307 g / cm^3
# Si number density = 20.068746 Si / 1000 Ang^3
#
#
#
# Elastic Constant Matrix: (Units=GPa)
#
#
# Indices 1 2 3 4 5 6 
#
# 1 106.0411 21.6938 40.6004 0.0000 -16.8897 0.0000
# 2 21.6938 65.8524 13.2882 0.0000 2.9746 0.0000
# 3 40.6004 13.2882 92.4796 0.0000 -25.8578 0.0000
# 4 0.0000 0.0000 0.0000 25.6052 0.0000 -9.7643
# 5 -16.8897 2.9746 -25.8578 0.0000 41.3151 0.0000
# 6 0.0000 0.0000 0.0000 -9.7643 0.0000 25.6024
#
#
#
# Elastic Compliance Matrix: (Units=1/GPa)
#
#
# Indices 1 2 3 4 5 6 
#
# 1 0.012087 -0.003271 -0.004108 0.000000 0.002606 0.000000
# 2 -0.003271 0.016852 -0.002059 0.000000 -0.003839 0.000000
# 3 -0.004108 -0.002059 0.015133 0.000000 0.007940 0.000000
# 4 0.000000 0.000000 0.000000 0.045701 0.000000 0.017430
# 5 0.002606 -0.003839 0.007940 0.000000 0.030515 0.000000
# 6 0.000000 0.000000 0.000000 0.017430 0.000000 0.045706
#
#
# Mechanical properties :
#
#
# Convention : Reuss Voigt Hill
#
# Bulk Modulus (GPa) = 39.68812 46.17086 42.92949
# Shear Modulus (GPa) = 25.87076 31.09059 28.48068
#
# Velocity S-wave (km/s) = 3.59431 3.94026 3.77126
# Velocity P-wave (km/s) = 6.08641 6.61492 6.35616
#
# Compressibility (1/GPa) = 0.02519645
#
# Stress axis : x y z
#
# Youngs Moduli (GPa) = 82.73147 59.34079 66.08266
#
# Poissons Ratio (x) = 0.19408 0.27147
# Poissons Ratio (y) = 0.27059 0.13606
# Poissons Ratio (z) = 0.33986 0.12218
#
# Static dielectric constant tensor:
#      x y z
#    x 1.706290 0.000000 -0.038450 
#    y 0.000000 1.817960 0.000000 
#    z -0.038450 0.000000 1.803190 
# 
# From -- ./inp_files/25005.got.cif
#   From: 2010.05.17/outbox.cif.g08.bks.cpg/sg14_13_cif.got.tgz:25005.got - 2010.06.03 17:49:19.
