data_PCOD9245094
_publ_section_title
;
Structure prediction by ZEFSAII (Michael W. Deem and Ramdas Pophale) SiO2 
 PCOD9245094
Probable space group: P 21/C
;
_chemical_formula_sum "Si O2"
_cell_formula_units_Z 24
_cell_length_a 9.695985
_cell_length_b 8.233505
_cell_length_c 29.619121
_cell_angle_alpha 90.000000
_cell_angle_beta 148.967593
_cell_angle_gamma 90.000000
_cell_volume 1218.980459
_symmetry_space_group_name_H-M "P 21/C"
_symmetry_group_IT_number 14
_symmetry_cell_setting 'monoclinic'
loop_
_space_group_symop_operation_xyz
x,y,z
-x,1/2+y,1/2-z
-x,-y,-z
x,1/2-y,1/2+z
loop_
_atom_site_type_symbol
_atom_site_label
_atom_site_fract_x
_atom_site_fract_y
_atom_site_fract_z
Si Si1 0.398222 0.473708 0.845145
Si Si2 0.774790 0.100648 0.077936
Si Si3 0.715523 0.054372 0.522080
Si Si4 0.248914 0.540217 0.217358
Si Si5 0.017452 0.193484 0.727136
Si Si6 0.669294 0.084395 0.768327
O O1 0.248998 0.303877 0.812390
O O2 0.465180 0.486751 0.811285
O O3 0.175734 0.611836 0.791302
O O4 0.618288 0.493045 0.945210
O O5 0.752611 0.251631 0.037310
O O6 0.844732 0.191586 0.144971
O O7 0.032723 0.987603 0.141666
O O8 0.500000 0.000000 0.000000
O O9 0.993575 0.972332 0.612894
O O10 0.500000 0.000000 0.500000
O O11 0.150029 0.449182 0.234551
O O12 0.324689 0.727157 0.242749
O O13 0.492496 0.444157 0.262916
#
# Coordination Sequence:
#
# PCOD9245094 Si02
#       6
#     4   4   4   4   4   4
#     4  11  22  37  60  95 120 160 203 252 298 353
#     4  10  21  36  60  91 117 160 203 244 300 362
#     4  11  21  38  62  89 123 162 201 252 302 353
#     4  11  22  44  63  86 124 163 201 247 313 366
#     4  10  22  36  61  89 123 156 202 249 303 356
#     4  11  24  40  65  88 122 162 203 251 303 369
#
# _framework density 19.688586999999998
#
# number of rings (size 3 to 8) (size 9 to 14) (size 15 to 20)
#    0.000    1.333    3.333    5.000    4.667    0.667 
#    0.000    0.000    0.000    4.000    0.000    0.000 
#    0.000    0.000    0.000    0.000    0.000    0.000 
#
# Total GULP energy -134074.535827 kJ/mol
# GULP energy per Si atom -5586.438993 kJ/mol
# Density = 1.964377 g / cm^3
# Si number density = 19.688587 Si / 1000 Ang^3
#
#
#
# Elastic Constant Matrix: (Units=GPa)
#
#
# Indices 1 2 3 4 5 6 
#
# 1 57.7076 3.8129 7.4308 0.0000 10.9266 0.0000
# 2 3.8129 74.8957 0.8260 0.0000 5.8101 0.0000
# 3 7.4308 0.8260 67.7274 0.0000 5.4936 0.0000
# 4 0.0000 0.0000 0.0000 26.2174 0.0000 8.7086
# 5 10.9266 5.8101 5.4936 0.0000 18.4681 0.0000
# 6 0.0000 0.0000 0.0000 8.7086 0.0000 20.7250
#
#
#
# Elastic Compliance Matrix: (Units=1/GPa)
#
#
# Indices 1 2 3 4 5 6 
#
# 1 0.019617 -0.000116 -0.001242 0.000000 -0.011200 0.000000
# 2 -0.000116 0.013689 0.000194 0.000000 -0.004296 0.000000
# 3 -0.001242 0.000194 0.015211 0.000000 -0.003851 0.000000
# 4 0.000000 0.000000 0.000000 0.044330 0.000000 -0.018627
# 5 -0.011200 -0.004296 -0.003851 0.000000 0.063271 0.000000
# 6 0.000000 0.000000 0.000000 -0.018627 0.000000 0.056078
#
#
# Mechanical properties :
#
#
# Convention : Reuss Voigt Hill
#
# Bulk Modulus (GPa) = 21.65033 24.94114 23.29574
# Shear Modulus (GPa) = 21.74660 25.63284 23.68972
#
# Velocity S-wave (km/s) = 3.32705 3.61212 3.47251
# Velocity P-wave (km/s) = 5.07733 5.48560 5.28541
#
# Compressibility (1/GPa) = 0.04618868
#
# Stress axis : x y z
#
# Youngs Moduli (GPa) = 50.97600 73.05184 65.74029
#
# Poissons Ratio (x) = 0.00848 0.08168
# Poissons Ratio (y) = 0.00592 -0.01277
# Poissons Ratio (z) = 0.06333 -0.01419
#
# Static dielectric constant tensor:
#      x y z
#    x 1.684850 0.000000 -0.010270 
#    y 0.000000 1.712100 0.000000 
#    z -0.010270 0.000000 1.685550 
# 
# From -- ./inp_files/54478.got.cif
#   From: 2010.05.17/outbox.cif.g08.bks.cpg/sg14_28_cif.got.tgz:54478.got - 2010.06.03 17:49:19.
