data_PCOD9245223
_publ_section_title
;
Structure prediction by ZEFSAII (Michael W. Deem and Ramdas Pophale) SiO2 
 PCOD9245223
Probable space group: P 21/C
;
_chemical_formula_sum "Si O2"
_cell_formula_units_Z 32
_cell_length_a 12.510935
_cell_length_b 13.955875
_cell_length_c 7.997877
_cell_angle_alpha 90.000000
_cell_angle_beta 91.821210
_cell_angle_gamma 90.000000
_cell_volume 1395.732291
_symmetry_space_group_name_H-M "P 21/C"
_symmetry_group_IT_number 14
_symmetry_cell_setting 'monoclinic'
loop_
_space_group_symop_operation_xyz
x,y,z
-x,1/2+y,1/2-z
-x,-y,-z
x,1/2-y,1/2+z
loop_
_atom_site_type_symbol
_atom_site_label
_atom_site_fract_x
_atom_site_fract_y
_atom_site_fract_z
Si Si1 0.067150 0.658494 0.821962
Si Si2 0.419582 0.681188 0.940947
Si Si3 0.924922 0.746015 0.075777
Si Si4 0.719685 0.174902 0.862384
Si Si5 0.828009 0.482755 0.579194
Si Si6 0.431508 0.184455 0.270851
Si Si7 0.951420 0.545463 0.246217
Si Si8 0.291601 0.162043 0.966698
O O1 0.173556 0.693557 0.739031
O O2 0.966684 0.666857 0.690414
O O3 0.074960 0.547190 0.868681
O O4 0.025436 0.727583 0.961718
O O5 0.362100 0.631061 0.780707
O O6 0.483870 0.766233 0.850233
O O7 0.331355 0.731847 0.054668
O O8 0.503949 0.633933 0.074539
O O9 0.812352 0.774138 0.992675
O O10 0.913945 0.645658 0.170690
O O11 0.754139 0.103122 0.010247
O O12 0.922222 0.450184 0.706800
O O13 0.751671 0.569117 0.631751
O O14 0.888897 0.521132 0.414623
O O15 0.365254 0.270717 0.355454
O O16 0.351693 0.131389 0.140113
#
# Coordination Sequence:
#
# PCOD9245223 Si02
#       8
#     4   4   4   4   4   4   4   4
#     4  11  23  37  57  93 125 165 206 242 298 377
#     4   9  19  40  60  86 112 150 205 259 306 361
#     4  12  23  36  62  88 127 171 201 245 304 368
#     4  10  21  37  61  84 121 160 196 253 312 363
#     4  10  21  37  58  89 126 165 204 252 298 367
#     4   9  20  37  64  85 112 147 207 260 299 361
#     4  10  22  38  54  86 137 166 205 254 287 361
#     4  11  20  38  62  90 116 165 204 246 309 366
#
# _framework density 22.927035
#
# number of rings (size 3 to 8) (size 9 to 14) (size 15 to 20)
#    0.000    1.750    1.250    3.375    5.250    0.000 
#    0.000    6.250    0.000    1.500    0.000    0.000 
#    0.000    0.000    0.000    0.000    0.000    0.000 
#
# Total GULP energy -178641.664965 kJ/mol
# GULP energy per Si atom -5582.552030 kJ/mol
# Density = 2.287485 g / cm^3
# Si number density = 22.927035 Si / 1000 Ang^3
#
#
#
# Elastic Constant Matrix: (Units=GPa)
#
#
# Indices 1 2 3 4 5 6 
#
# 1 89.8273 17.0095 16.8833 0.0000 16.4593 0.0000
# 2 17.0095 60.7226 3.8648 0.0000 2.6469 0.0000
# 3 16.8833 3.8648 48.0988 0.0000 16.0755 0.0000
# 4 0.0000 0.0000 0.0000 2.2756 0.0000 8.9360
# 5 16.4593 2.6469 16.0755 0.0000 51.7865 0.0000
# 6 0.0000 0.0000 0.0000 8.9360 0.0000 10.1714
#
#
#
# Elastic Compliance Matrix: (Units=1/GPa)
#
#
# Indices 1 2 3 4 5 6 
#
# 1 0.012906 -0.003279 -0.003293 0.000000 -0.002912 0.000000
# 2 -0.003279 0.017397 -0.000333 0.000000 0.000256 0.000000
# 3 -0.003293 -0.000333 0.024120 0.000000 -0.006424 0.000000
# 4 0.000000 0.000000 0.000000 -0.179371 0.000000 0.157585
# 5 -0.002912 0.000256 -0.006424 0.000000 0.022216 0.000000
# 6 0.000000 0.000000 0.000000 0.157585 0.000000 -0.040130
#
#
# Mechanical properties :
#
#
# Convention : Reuss Voigt Hill
#
# Bulk Modulus (GPa) = 24.62241 30.46265 27.54253
# Shear Modulus (GPa) = -43.28444 23.57278 -9.85583
#
# Velocity S-wave (km/s) = -4.34974 3.20998 -2.07560
# Velocity P-wave (km/s) = 3.80318 5.20137 2.50899
#
# Compressibility (1/GPa) = 0.04061340
#
# Stress axis : x y z
#
# Youngs Moduli (GPa) = 77.48410 57.48206 41.45903
#
# Poissons Ratio (x) = 0.18846 0.13654
# Poissons Ratio (y) = 0.25404 0.01379
# Poissons Ratio (z) = 0.25519 0.01912
#
# Static dielectric constant tensor:
#      x y z
#    x 1.878950 0.000000 0.034120 
#    y 0.000000 1.640770 0.000000 
#    z 0.034120 0.000000 1.948980 
# 
# From -- ./inp_files/13311.got.cif
#   From: 2010.05.17/outbox.cif.g08.bks.cpg/sg14_7_cif.got.tgz:13311.got - 2010.06.03 17:49:19.
