data_PCOD9245570
_publ_section_title
;
Structure prediction by ZEFSAII (Michael W. Deem and Ramdas Pophale) SiO2 
 PCOD9245570
Probable space group: P 21/C
;
_chemical_formula_sum "Si O2"
_cell_formula_units_Z 24
_cell_length_a 6.792260
_cell_length_b 14.852087
_cell_length_c 14.214235
_cell_angle_alpha 90.000000
_cell_angle_beta 131.784636
_cell_angle_gamma 90.000000
_cell_volume 1069.210070
_symmetry_space_group_name_H-M "P 21/C"
_symmetry_group_IT_number 14
_symmetry_cell_setting 'monoclinic'
loop_
_space_group_symop_operation_xyz
x,y,z
-x,1/2+y,1/2-z
-x,-y,-z
x,1/2-y,1/2+z
loop_
_atom_site_type_symbol
_atom_site_label
_atom_site_fract_x
_atom_site_fract_y
_atom_site_fract_z
Si Si1 0.360707 0.069681 0.727389
Si Si2 0.087208 0.878340 0.623162
Si Si3 0.487082 0.584898 0.927539
Si Si4 0.235875 0.489913 0.501832
Si Si5 0.312028 0.866996 0.892284
Si Si6 0.102713 0.802612 0.425839
O O1 0.540929 0.066141 0.691624
O O2 0.533374 0.047283 0.872508
O O3 0.199643 0.163028 0.679807
O O4 0.160346 0.985110 0.647645
O O5 0.213787 0.839544 0.757849
O O6 0.183297 0.834048 0.556567
O O7 0.772812 0.868035 0.527129
O O8 0.254429 0.642959 0.894138
O O9 0.500000 0.500000 0.000000
O O10 0.378567 0.394449 0.524440
O O11 0.177462 0.540310 0.385948
O O12 0.000000 0.500000 0.500000
O O13 0.200836 0.796966 0.933138
#
# Coordination Sequence:
#
# PCOD9245570 Si02
#       6
#     4   4   4   4   4   4
#     4  10  21  38  63  95 124 166 218 269 326 392
#     4  10  21  39  60  92 129 166 214 269 331 391
#     4  11  19  33  65  94 119 167 207 264 331 383
#     4  10  24  44  67  89 134 181 225 265 333 416
#     4  10  25  42  63  95 126 177 218 271 339 395
#     4  11  22  39  63  95 132 156 221 278 322 394
#
# _framework density 22.446477999999999
#
# number of rings (size 3 to 8) (size 9 to 14) (size 15 to 20)
#    0.000    1.667    3.333    1.000    2.333    6.667 
#    0.000    0.000    0.000    0.000    0.000    0.000 
#    0.000    0.000    0.000    0.000    0.000    0.000 
#
# Total GULP energy -133873.880811 kJ/mol
# GULP energy per Si atom -5578.078367 kJ/mol
# Density = 2.239539 g / cm^3
# Si number density = 22.446478 Si / 1000 Ang^3
#
#
#
# Elastic Constant Matrix: (Units=GPa)
#
#
# Indices 1 2 3 4 5 6 
#
# 1 159.9254 31.4472 22.3393 0.0000 -23.7196 0.0000
# 2 31.4472 78.7519 18.2055 0.0000 -5.3156 0.0000
# 3 22.3393 18.2055 62.2388 0.0000 -21.1884 0.0000
# 4 0.0000 0.0000 0.0000 16.4051 0.0000 -9.7601
# 5 -23.7196 -5.3156 -21.1884 0.0000 32.8298 0.0000
# 6 0.0000 0.0000 0.0000 -9.7601 0.0000 44.6857
#
#
#
# Elastic Compliance Matrix: (Units=1/GPa)
#
#
# Indices 1 2 3 4 5 6 
#
# 1 0.007523 -0.002610 -0.000295 0.000000 0.004822 0.000000
# 2 -0.002610 0.014530 -0.004043 0.000000 -0.002142 0.000000
# 3 -0.000295 -0.004043 0.021864 0.000000 0.013243 0.000000
# 4 0.000000 0.000000 0.000000 0.070060 0.000000 0.015302
# 5 0.004822 -0.002142 0.013243 0.000000 0.042144 0.000000
# 6 0.000000 0.000000 0.000000 0.015302 0.000000 0.025721
#
#
# Mechanical properties :
#
#
# Convention : Reuss Voigt Hill
#
# Bulk Modulus (GPa) = 33.30981 49.43335 41.37158
# Shear Modulus (GPa) = 24.30184 34.04575 29.17380
#
# Velocity S-wave (km/s) = 3.29395 3.89878 3.60905
# Velocity P-wave (km/s) = 5.41652 6.50675 5.98651
#
# Compressibility (1/GPa) = 0.03002119
#
# Stress axis : x y z
#
# Youngs Moduli (GPa) = 132.93321 68.82117 45.73706
#
# Poissons Ratio (x) = 0.17964 0.01349
# Poissons Ratio (y) = 0.34699 0.18490
# Poissons Ratio (z) = 0.03921 0.27823
#
# Static dielectric constant tensor:
#      x y z
#    x 1.831880 0.000000 0.019640 
#    y 0.000000 2.210680 0.000000 
#    z 0.019640 0.000000 1.859540 
# 
# From -- ./inp_files/37407.got.cif
#   From: 2010.05.17/outbox.cif.g08.bks.cpg/sg14_19_cif.got.tgz:37407.got - 2010.06.03 17:49:19.
