data_PCOD9245716
_publ_section_title
;
Structure prediction by ZEFSAII (Michael W. Deem and Ramdas Pophale) SiO2 
 PCOD9245716
Probable space group: P 21/C
;
_chemical_formula_sum "Si O2"
_cell_formula_units_Z 20
_cell_length_a 10.519854
_cell_length_b 9.088193
_cell_length_c 9.159985
_cell_angle_alpha 90.000000
_cell_angle_beta 105.474864
_cell_angle_gamma 90.000000
_cell_volume 844.005595
_symmetry_space_group_name_H-M "P 21/C"
_symmetry_group_IT_number 14
_symmetry_cell_setting 'monoclinic'
loop_
_space_group_symop_operation_xyz
x,y,z
-x,1/2+y,1/2-z
-x,-y,-z
x,1/2-y,1/2+z
loop_
_atom_site_type_symbol
_atom_site_label
_atom_site_fract_x
_atom_site_fract_y
_atom_site_fract_z
Si Si1 0.196222 0.311184 0.821586
Si Si2 0.476902 0.270033 0.040348
Si Si3 0.862499 0.074183 0.502472
Si Si4 0.968416 0.831069 0.994487
Si Si5 0.406329 0.561857 0.190517
O O1 0.162097 0.301952 0.642670
O O2 0.336018 0.251045 0.917121
O O3 0.187911 0.481074 0.874124
O O4 0.076172 0.226045 0.862206
O O5 0.462498 0.406524 0.150347
O O6 0.526007 0.130644 0.146972
O O7 0.571324 0.326517 0.939664
O O8 0.751261 0.051408 0.345972
O O9 0.905533 0.242328 0.526745
O O10 0.000000 0.000000 0.500000
O O11 0.000000 0.000000 0.000000
#
# Coordination Sequence:
#
# PCOD9245716 Si02
#       5
#     4   4   4   4   4
#     4  10  21  39  59  86 124 157 196 254 306 359
#     4  10  22  40  61  89 122 160 204 254 310 364
#     4   9  21  39  58  85 123 158 196 247 305 361
#     4  11  22  37  63  89 117 161 207 248 301 364
#     4  10  22  39  62  88 121 160 202 253 308 372
#
# _framework density 23.696525000000001
#
# number of rings (size 3 to 8) (size 9 to 14) (size 15 to 20)
#    0.000    2.000    0.000    2.400    0.000   10.400 
#    0.000    2.000    0.000    0.000    0.000    0.000 
#    0.000    0.000    0.000    0.000    0.000    0.000 
#
# Total GULP energy -111873.555191 kJ/mol
# GULP energy per Si atom -5593.677760 kJ/mol
# Density = 2.364259 g / cm^3
# Si number density = 23.696525 Si / 1000 Ang^3
#
#
#
# Elastic Constant Matrix: (Units=GPa)
#
#
# Indices 1 2 3 4 5 6 
#
# 1 97.6205 13.4417 20.2393 0.0000 23.6068 0.0000
# 2 13.4417 97.0749 11.1443 0.0000 10.3203 0.0000
# 3 20.2393 11.1443 80.3457 0.0000 17.8786 0.0000
# 4 0.0000 0.0000 0.0000 34.3528 0.0000 11.5314
# 5 23.6068 10.3203 17.8786 0.0000 33.4467 0.0000
# 6 0.0000 0.0000 0.0000 11.5314 0.0000 30.1336
#
#
#
# Elastic Compliance Matrix: (Units=1/GPa)
#
#
# Indices 1 2 3 4 5 6 
#
# 1 0.012530 -0.000744 -0.001290 0.000000 -0.007925 0.000000
# 2 -0.000744 0.010746 -0.000774 0.000000 -0.002377 0.000000
# 3 -0.001290 -0.000774 0.014327 0.000000 -0.006509 0.000000
# 4 0.000000 0.000000 0.000000 0.033400 0.000000 -0.012781
# 5 -0.007925 -0.002377 -0.006509 0.000000 0.039704 0.000000
# 6 0.000000 0.000000 0.000000 -0.012781 0.000000 0.038077
#
#
# Mechanical properties :
#
#
# Convention : Reuss Voigt Hill
#
# Bulk Modulus (GPa) = 31.26344 40.52131 35.89237
# Shear Modulus (GPa) = 30.29154 34.93432 32.61293
#
# Velocity S-wave (km/s) = 3.57923 3.84375 3.71384
# Velocity P-wave (km/s) = 5.50482 6.06930 5.79394
#
# Compressibility (1/GPa) = 0.03198624
#
# Stress axis : x y z
#
# Youngs Moduli (GPa) = 79.80856 93.05843 69.79873
#
# Poissons Ratio (x) = 0.06928 0.09002
# Poissons Ratio (y) = 0.05941 0.05404
# Poissons Ratio (z) = 0.10293 0.07204
#
# Static dielectric constant tensor:
#      x y z
#    x 1.962290 0.000000 -0.065370 
#    y 0.000000 1.942940 0.000000 
#    z -0.065370 0.000000 1.951190 
# 
# From -- ./inp_files/11897.got.cif
#   From: 2010.05.17/outbox.cif.g08.bks.cpg/sg14_6_cif.got.tgz:11897.got - 2010.06.03 17:49:19.
