data_PCOD9245798
_publ_section_title
;
Structure prediction by ZEFSAII (Michael W. Deem and Ramdas Pophale) SiO2 
 PCOD9245798
Probable space group: P 21/C
;
_chemical_formula_sum "Si O2"
_cell_formula_units_Z 30
_cell_length_a 12.082462
_cell_length_b 7.942220
_cell_length_c 14.035013
_cell_angle_alpha 90.000000
_cell_angle_beta 123.521114
_cell_angle_gamma 90.000000
_cell_volume 1122.821677
_symmetry_space_group_name_H-M "P 21/C"
_symmetry_group_IT_number 14
_symmetry_cell_setting 'monoclinic'
loop_
_space_group_symop_operation_xyz
x,y,z
-x,1/2+y,1/2-z
-x,-y,-z
x,1/2-y,1/2+z
loop_
_atom_site_type_symbol
_atom_site_label
_atom_site_fract_x
_atom_site_fract_y
_atom_site_fract_z
Si Si1 0.505889 0.753557 0.170515
Si Si2 0.500000 0.000000 0.000000
Si Si3 0.397812 0.246384 0.072324
Si Si4 0.946216 0.253896 0.917655
Si Si5 0.120206 0.106935 0.660749
Si Si6 0.095248 0.683515 0.797155
Si Si7 0.229592 0.600544 0.512607
Si Si8 0.709139 0.595951 0.158004
O O1 0.562316 0.786128 0.302135
O O2 0.347690 0.765686 0.089977
O O3 0.577555 0.590273 0.160809
O O4 0.549715 0.900476 0.119017
O O5 0.518932 0.182069 0.064146
O O6 0.308179 0.072840 0.031801
O O7 0.322587 0.372671 0.967827
O O8 0.847602 0.413510 0.849339
O O9 0.997632 0.206649 0.838202
O O10 0.870121 0.116464 0.946341
O O11 0.070860 0.312886 0.038787
O O12 0.206105 0.248429 0.756020
O O13 0.986737 0.091111 0.660516
O O14 0.208131 0.572365 0.802877
O O15 0.155870 0.843545 0.880843
#
# Coordination Sequence:
#
# PCOD9245798 Si02
#       8
#     4   2   4   4   4   4   4   4
#     4  10  22  39  64  94 129 171 214 263 325 389
#     4   8  20  40  58  90 128 166 212 258 308 376
#     4  10  21  39  62  91 128 170 212 260 321 385
#     4  10  22  41  64  89 121 162 208 259 320 380
#     4  10  23  42  63  89 121 163 211 261 319 379
#     4  11  23  40  62  90 123 162 209 266 317 372
#     4  10  23  40  62  92 127 167 210 256 317 384
#     4  11  24  39  62  95 127 162 214 267 319 388
#
# _framework density 26.718401
#
# number of rings (size 3 to 8) (size 9 to 14) (size 15 to 20)
#    0.000    1.867    0.000    2.400    0.000   14.933 
#    0.000    0.000    0.000    0.000    0.000    0.000 
#    0.000    0.000    0.000    0.000    0.000    0.000 
#
# Total GULP energy -167353.380311 kJ/mol
# GULP energy per Si atom -5578.446010 kJ/mol
# Density = 2.665759 g / cm^3
# Si number density = 26.718401 Si / 1000 Ang^3
#
#
#
# Elastic Constant Matrix: (Units=GPa)
#
#
# Indices 1 2 3 4 5 6 
#
# 1 63.4977 8.5247 14.8575 0.0000 2.4871 0.0000
# 2 8.5247 47.8410 9.4644 0.0000 0.9287 0.0000
# 3 14.8575 9.4644 211.5117 0.0000 -30.2150 0.0000
# 4 0.0000 0.0000 0.0000 31.9980 0.0000 5.4302
# 5 2.4871 0.9287 -30.2150 0.0000 27.0214 0.0000
# 6 0.0000 0.0000 0.0000 5.4302 0.0000 35.6726
#
#
#
# Elastic Compliance Matrix: (Units=1/GPa)
#
#
# Indices 1 2 3 4 5 6 
#
# 1 0.016568 -0.002597 -0.001491 0.000000 -0.003103 0.000000
# 2 -0.002597 0.021599 -0.001019 0.000000 -0.001642 0.000000
# 3 -0.001491 -0.001019 0.005835 0.000000 0.006697 0.000000
# 4 0.000000 0.000000 0.000000 0.032081 0.000000 -0.004883
# 5 -0.003103 -0.001642 0.006697 0.000000 0.044838 0.000000
# 6 0.000000 0.000000 0.000000 -0.004883 0.000000 0.028776
#
#
# Mechanical properties :
#
#
# Convention : Reuss Voigt Hill
#
# Bulk Modulus (GPa) = 29.59611 43.17153 36.38382
# Shear Modulus (GPa) = 29.21047 38.27198 33.74122
#
# Velocity S-wave (km/s) = 3.31005 3.78884 3.55751
# Velocity P-wave (km/s) = 5.07047 5.94419 5.52463
#
# Compressibility (1/GPa) = 0.03378823
#
# Stress axis : x y z
#
# Youngs Moduli (GPa) = 60.35874 46.29906 171.38526
#
# Poissons Ratio (x) = 0.12024 0.25550
# Poissons Ratio (y) = 0.15675 0.17458
# Poissons Ratio (z) = 0.08998 0.04716
#
# Static dielectric constant tensor:
#      x y z
#    x 1.826450 0.000000 -0.041640 
#    y 0.000000 2.323980 0.000000 
#    z -0.041640 0.000000 2.049150 
# 
# From -- ./inp_files/31919.got.cif
#   From: 2010.05.17/outbox.cif.g08.bks.cpg/sg14_16_cif.got.tgz:31919.got - 2010.06.03 17:49:19.
