data_PCOD9245576
_publ_section_title
;
Structure prediction by ZEFSAII (Michael W. Deem and Ramdas Pophale) SiO2 
 PCOD9245576
Probable space group: P 21/C
;
_chemical_formula_sum "Si O2"
_cell_formula_units_Z 28
_cell_length_a 5.302996
_cell_length_b 19.023082
_cell_length_c 13.956498
_cell_angle_alpha 90.000000
_cell_angle_beta 54.066371
_cell_angle_gamma 90.000000
_cell_volume 1139.990805
_symmetry_space_group_name_H-M "P 21/C"
_symmetry_group_IT_number 14
_symmetry_cell_setting 'monoclinic'
loop_
_space_group_symop_operation_xyz
x,y,z
-x,1/2+y,1/2-z
-x,-y,-z
x,1/2-y,1/2+z
loop_
_atom_site_type_symbol
_atom_site_label
_atom_site_fract_x
_atom_site_fract_y
_atom_site_fract_z
Si Si1 0.154520 0.159477 0.887192
Si Si2 0.214483 0.440004 0.789380
Si Si3 0.200877 0.334937 0.166063
Si Si4 0.466077 0.814535 0.887490
Si Si5 0.646807 0.971348 0.064747
Si Si6 0.536740 0.398751 0.917819
Si Si7 0.353592 0.763614 0.713579
O O1 0.248071 0.133172 0.760888
O O2 0.297886 0.111264 0.937221
O O3 0.289130 0.237983 0.864286
O O4 0.785780 0.160789 0.980692
O O5 0.301956 0.375745 0.696988
O O6 0.411359 0.503390 0.700294
O O7 0.349583 0.422900 0.864877
O O8 0.840797 0.445321 0.872683
O O9 0.383028 0.259910 0.120104
O O10 0.849636 0.306432 0.243040
O O11 0.311432 0.385465 0.057687
O O12 0.276784 0.800027 0.831263
O O13 0.500000 0.000000 0.000000
O O14 0.000000 0.000000 0.000000
O O15 0.672922 0.320855 0.862422
#
# Coordination Sequence:
#
# PCOD9245576 Si02
#       7
#     4   4   4   4   4   4   4
#     4  11  25  41  67 103 136 176 230 288 340 409
#     4  11  24  45  67  99 134 182 225 283 335 407
#     4  11  23  39  65  98 141 182 220 281 348 413
#     4  10  21  38  64 100 138 168 225 280 354 397
#     4  12  27  47  73 101 136 178 235 292 340 396
#     4  11  24  42  69  97 140 183 226 272 347 416
#     4  10  22  37  65 100 138 178 217 288 343 415
#
# _framework density 24.561599999999999
#
# number of rings (size 3 to 8) (size 9 to 14) (size 15 to 20)
#    0.000    1.143    2.857    2.571   12.000    1.143 
#    0.000    1.429    0.000    0.000    0.000    0.000 
#    0.000    0.000    0.000    0.000    0.000    0.000 
#
# Total GULP energy -156680.224271 kJ/mol
# GULP energy per Si atom -5595.722295 kJ/mol
# Density = 2.450570 g / cm^3
# Si number density = 24.561600 Si / 1000 Ang^3
#
#
#
# Elastic Constant Matrix: (Units=GPa)
#
#
# Indices 1 2 3 4 5 6 
#
# 1 99.2099 7.1606 31.7956 0.0000 -4.7315 0.0000
# 2 7.1606 46.7692 20.5608 0.0000 4.0788 0.0000
# 3 31.7956 20.5608 81.3542 0.0000 1.7598 0.0000
# 4 0.0000 0.0000 0.0000 27.1106 0.0000 -0.8306
# 5 -4.7315 4.0788 1.7598 0.0000 18.5132 0.0000
# 6 0.0000 0.0000 0.0000 -0.8306 0.0000 22.0490
#
#
#
# Elastic Compliance Matrix: (Units=1/GPa)
#
#
# Indices 1 2 3 4 5 6 
#
# 1 0.011738 -0.000055 -0.004648 0.000000 0.003454 0.000000
# 2 -0.000055 0.024475 -0.006060 0.000000 -0.004830 0.000000
# 3 -0.004648 -0.006060 0.015669 0.000000 -0.001342 0.000000
# 4 0.000000 0.000000 0.000000 0.036929 0.000000 0.001391
# 5 0.003454 -0.004830 -0.001342 0.000000 0.056090 0.000000
# 6 0.000000 0.000000 0.000000 0.001391 0.000000 0.045406
#
#
# Mechanical properties :
#
#
# Convention : Reuss Voigt Hill
#
# Bulk Modulus (GPa) = 32.94188 38.48525 35.71357
# Shear Modulus (GPa) = 22.52739 24.72231 23.62485
#
# Velocity S-wave (km/s) = 3.03178 3.17605 3.10475
# Velocity P-wave (km/s) = 5.06919 5.39931 5.23685
#
# Compressibility (1/GPa) = 0.03035649
#
# Stress axis : x y z
#
# Youngs Moduli (GPa) = 85.19270 40.85761 63.81938
#
# Poissons Ratio (x) = 0.00224 0.29666
# Poissons Ratio (y) = 0.00467 0.38673
# Poissons Ratio (z) = 0.39601 0.24759
#
# Static dielectric constant tensor:
#      x y z
#    x 1.985460 0.000000 -0.025800 
#    y 0.000000 1.953430 0.000000 
#    z -0.025800 0.000000 1.927280 
# 
# From -- ./inp_files/22009.got.cif
#   From: 2010.05.17/outbox.cif.g08.bks.cpg/sg14_12_cif.got.tgz:22009.got - 2010.06.03 17:49:19.
