data_PCOD9245164
_publ_section_title
;
Structure prediction by ZEFSAII (Michael W. Deem and Ramdas Pophale) SiO2 
 PCOD9245164
Probable space group: P 21/C
;
_chemical_formula_sum "Si O2"
_cell_formula_units_Z 32
_cell_length_a 9.781153
_cell_length_b 12.324343
_cell_length_c 16.153067
_cell_angle_alpha 90.000000
_cell_angle_beta 54.916325
_cell_angle_gamma 90.000000
_cell_volume 1593.413707
_symmetry_space_group_name_H-M "P 21/C"
_symmetry_group_IT_number 14
_symmetry_cell_setting 'monoclinic'
loop_
_space_group_symop_operation_xyz
x,y,z
-x,1/2+y,1/2-z
-x,-y,-z
x,1/2-y,1/2+z
loop_
_atom_site_type_symbol
_atom_site_label
_atom_site_fract_x
_atom_site_fract_y
_atom_site_fract_z
Si Si1 0.750602 0.215976 0.794537
Si Si2 0.829761 0.111615 0.517051
Si Si3 0.284991 0.185302 0.209906
Si Si4 0.067113 0.518519 0.842678
Si Si5 0.966868 0.284355 0.361984
Si Si6 0.573229 0.886956 0.009378
Si Si7 0.625655 0.292760 0.663475
Si Si8 0.163179 0.977738 0.997358
O O1 0.890658 0.125780 0.723044
O O2 0.839475 0.272159 0.841589
O O3 0.706054 0.277137 0.725668
O O4 0.576318 0.166150 0.887094
O O5 0.860234 0.049035 0.592029
O O6 0.957659 0.210403 0.448585
O O7 0.667844 0.185846 0.592499
O O8 0.880006 0.023841 0.428884
O O9 0.370891 0.179775 0.090548
O O10 0.428178 0.192152 0.228860
O O11 0.153639 0.281706 0.264756
O O12 0.174593 0.077118 0.263148
O O13 0.897987 0.402931 0.405486
O O14 0.500000 0.000000 0.000000
O O15 0.735020 0.918097 0.007362
O O16 0.708359 0.399147 0.594971
O O17 0.000000 0.000000 0.000000
#
# Coordination Sequence:
#
# PCOD9245164 Si02
#       8
#     4   4   4   4   4   4   4   4
#     4  11  21  36  60  84 115 149 194 230 291 344
#     4   8  17  33  57  75 106 139 186 226 276 325
#     4  11  21  36  60  84 115 149 194 230 291 344
#     4   9  16  33  58  82 100 147 188 225 272 350
#     4  10  21  37  55  85 115 147 187 240 284 348
#     4  12  20  39  62  82 113 158 190 237 288 354
#     4  10  21  37  55  85 115 147 187 240 284 348
#     4  11  23  38  60  88 118 149 198 250 293 337
#
# _framework density 20.082668999999999
#
# number of rings (size 3 to 8) (size 9 to 14) (size 15 to 20)
#    0.000    1.750    3.750    0.750    3.500    0.000 
#    0.000    1.250    0.000    1.500    0.000    0.000 
#    0.000    0.000    0.000    0.000    0.000    0.000 
#
# Total GULP energy -178192.783077 kJ/mol
# GULP energy per Si atom -5568.524471 kJ/mol
# Density = 2.003696 g / cm^3
# Si number density = 20.082669 Si / 1000 Ang^3
#
#
#
# Elastic Constant Matrix: (Units=GPa)
#
#
# Indices 1 2 3 4 5 6 
#
# 1 112.0572 5.5547 11.1443 0.0000 2.4571 0.0000
# 2 5.5547 24.6154 10.6497 0.0000 4.1566 0.0000
# 3 11.1443 10.6497 84.5093 0.0000 4.7783 0.0000
# 4 0.0000 0.0000 0.0000 3.8721 0.0000 3.3279
# 5 2.4571 4.1566 4.7783 0.0000 24.7128 0.0000
# 6 0.0000 0.0000 0.0000 3.3279 0.0000 28.9233
#
#
#
# Elastic Compliance Matrix: (Units=1/GPa)
#
#
# Indices 1 2 3 4 5 6 
#
# 1 0.009108 -0.001555 -0.000979 0.000000 -0.000455 0.000000
# 2 -0.001555 0.044209 -0.005009 0.000000 -0.006313 0.000000
# 3 -0.000979 -0.005009 0.012679 0.000000 -0.001512 0.000000
# 4 0.000000 0.000000 0.000000 0.286598 0.000000 -0.032976
# 5 -0.000455 -0.006313 -0.001512 0.000000 0.041864 0.000000
# 6 0.000000 0.000000 0.000000 -0.032976 0.000000 0.038369
#
#
# Mechanical properties :
#
#
# Convention : Reuss Voigt Hill
#
# Bulk Modulus (GPa) = 19.64277 30.65325 25.14801
# Shear Modulus (GPa) = 10.75537 24.42385 17.58961
#
# Velocity S-wave (km/s) = 2.31672 3.49114 2.96270
# Velocity P-wave (km/s) = 4.11806 5.61671 4.92472
#
# Compressibility (1/GPa) = 0.05090932
#
# Stress axis : x y z
#
# Youngs Moduli (GPa) = 109.78793 22.61985 78.87121
#
# Poissons Ratio (x) = 0.03517 0.07725
# Poissons Ratio (y) = 0.17070 0.39508
# Poissons Ratio (z) = 0.10754 0.11331
#
# Static dielectric constant tensor:
#      x y z
#    x 1.722640 0.000000 0.023150 
#    y 0.000000 1.753030 0.000000 
#    z 0.023150 0.000000 1.772260 
# 
# From -- ./inp_files/41221.got.cif
#   From: 2010.05.17/outbox.cif.g08.bks.cpg/sg14_21_cif.got.tgz:41221.got - 2010.06.03 17:49:19.
