data_PCOD9245377
_publ_section_title
;
Structure prediction by ZEFSAII (Michael W. Deem and Ramdas Pophale) SiO2 
 PCOD9245377
Probable space group: P 21/C
;
_chemical_formula_sum "Si O2"
_cell_formula_units_Z 32
_cell_length_a 15.610444
_cell_length_b 18.077394
_cell_length_c 5.313934
_cell_angle_alpha 90.000000
_cell_angle_beta 89.063163
_cell_angle_gamma 90.000000
_cell_volume 1499.371247
_symmetry_space_group_name_H-M "P 21/C"
_symmetry_group_IT_number 14
_symmetry_cell_setting 'monoclinic'
loop_
_space_group_symop_operation_xyz
x,y,z
-x,1/2+y,1/2-z
-x,-y,-z
x,1/2-y,1/2+z
loop_
_atom_site_type_symbol
_atom_site_label
_atom_site_fract_x
_atom_site_fract_y
_atom_site_fract_z
Si Si1 0.676764 0.503595 0.300006
Si Si2 0.998207 0.066882 0.304644
Si Si3 0.902858 0.794738 0.635464
Si Si4 0.541008 0.419223 0.033577
Si Si5 0.245914 0.381970 0.083686
Si Si6 0.535336 0.205705 0.181428
Si Si7 0.853503 0.506796 0.559998
Si Si8 0.396219 0.362674 0.401029
O O1 0.624350 0.435048 0.196184
O O2 0.768782 0.484388 0.412453
O O3 0.622321 0.554549 0.493776
O O4 0.695898 0.561378 0.074818
O O5 0.023440 0.144887 0.417765
O O6 0.075611 0.048233 0.110537
O O7 0.000000 0.000000 0.500000
O O8 0.905881 0.060635 0.178682
O O9 0.910119 0.733489 0.418818
O O10 0.810098 0.831719 0.595117
O O11 0.470823 0.371208 0.188951
O O12 0.500000 0.500000 0.000000
O O13 0.562288 0.376451 0.774061
O O14 0.179815 0.433727 0.237315
O O15 0.307634 0.339842 0.274944
O O16 0.562495 0.255443 0.419992
O O17 0.434333 0.189548 0.118075
#
# Coordination Sequence:
#
# PCOD9245377 Si02
#       8
#     4   4   4   4   4   4   4   4
#     4  11  22  38  67 103 133 170 233 296 345 393
#     4  11  21  41  71  94 133 179 236 276 327 418
#     4  12  27  43  65 102 147 184 216 274 347 411
#     4  12  23  42  69 100 132 183 242 307 333 403
#     4  11  22  41  59 103 139 179 222 277 340 419
#     4  12  26  44  64  92 134 185 235 281 357 422
#     4  10  21  37  69  97 130 169 227 283 341 396
#     4  11  23  39  66  97 141 180 235 280 351 407
#
# _framework density 21.342281
#
# number of rings (size 3 to 8) (size 9 to 14) (size 15 to 20)
#    0.000    0.750    6.250    1.125    3.500    1.000 
#    0.000    0.000    0.000    1.500    0.000    0.000 
#    0.000    0.000    0.000    0.000    0.000    0.000 
#
# Total GULP energy -178782.675486 kJ/mol
# GULP energy per Si atom -5586.958609 kJ/mol
# Density = 2.129370 g / cm^3
# Si number density = 21.342281 Si / 1000 Ang^3
#
#
#
# Elastic Constant Matrix: (Units=GPa)
#
#
# Indices 1 2 3 4 5 6 
#
# 1 85.6076 9.7432 19.8710 0.0000 24.7596 0.0000
# 2 9.7432 59.6007 14.8624 0.0000 6.9720 0.0000
# 3 19.8710 14.8624 81.0995 0.0000 8.6724 0.0000
# 4 0.0000 0.0000 0.0000 47.5200 0.0000 15.4557
# 5 24.7596 6.9720 8.6724 0.0000 43.6749 0.0000
# 6 0.0000 0.0000 0.0000 15.4557 0.0000 29.7245
#
#
#
# Elastic Compliance Matrix: (Units=1/GPa)
#
#
# Indices 1 2 3 4 5 6 
#
# 1 0.014585 -0.000844 -0.002604 0.000000 -0.007616 0.000000
# 2 -0.000844 0.017843 -0.002871 0.000000 -0.001800 0.000000
# 3 -0.002604 -0.002871 0.013576 0.000000 -0.000761 0.000000
# 4 0.000000 0.000000 0.000000 0.025327 0.000000 -0.013169
# 5 -0.007616 -0.001800 -0.000761 0.000000 0.027653 0.000000
# 6 0.000000 0.000000 0.000000 -0.013169 0.000000 0.040490
#
#
# Mechanical properties :
#
#
# Convention : Reuss Voigt Hill
#
# Bulk Modulus (GPa) = 29.97100 35.02899 32.50000
# Shear Modulus (GPa) = 30.63119 36.30597 33.46858
#
# Velocity S-wave (km/s) = 3.79256 4.12895 3.96432
# Velocity P-wave (km/s) = 5.76641 6.25936 6.01793
#
# Compressibility (1/GPa) = 0.03336558
#
# Stress axis : x y z
#
# Youngs Moduli (GPa) = 68.56574 56.04550 73.65866
#
# Poissons Ratio (x) = 0.04729 0.19184
# Poissons Ratio (y) = 0.05786 0.21145
# Poissons Ratio (z) = 0.17858 0.16089
#
# Static dielectric constant tensor:
#      x y z
#    x 1.769180 0.000000 0.021070 
#    y 0.000000 1.855210 0.000000 
#    z 0.021070 0.000000 1.869730 
# 
# From -- ./inp_files/3803.got.cif
#   From: 2010.05.17/outbox.cif.g08.bks.cpg/sg14_2_cif.got.tgz:3803.got - 2010.06.03 17:49:19.
