data_PCOD9245687
_publ_section_title
;
Structure prediction by ZEFSAII (Michael W. Deem and Ramdas Pophale) SiO2 
 PCOD9245687
Probable space group: P 21/C
;
_chemical_formula_sum "Si O2"
_cell_formula_units_Z 22
_cell_length_a 9.239397
_cell_length_b 12.419891
_cell_length_c 9.027705
_cell_angle_alpha 90.000000
_cell_angle_beta 131.242795
_cell_angle_gamma 90.000000
_cell_volume 778.954295
_symmetry_space_group_name_H-M "P 21/C"
_symmetry_group_IT_number 14
_symmetry_cell_setting 'monoclinic'
loop_
_space_group_symop_operation_xyz
x,y,z
-x,1/2+y,1/2-z
-x,-y,-z
x,1/2-y,1/2+z
loop_
_atom_site_type_symbol
_atom_site_label
_atom_site_fract_x
_atom_site_fract_y
_atom_site_fract_z
Si Si1 0.434771 0.243258 0.842949
Si Si2 0.714994 0.856660 0.508214
Si Si3 0.850310 0.336166 0.623374
Si Si4 0.894666 0.400136 0.349399
Si Si5 0.500000 0.500000 0.000000
Si Si6 0.123472 0.443682 0.217791
O O1 0.362064 0.353121 0.869712
O O2 0.399783 0.240588 0.643769
O O3 0.283350 0.144811 0.775271
O O4 0.656756 0.227448 0.028436
O O5 0.938866 0.834072 0.659690
O O6 0.638125 0.975703 0.434567
O O7 0.899878 0.312942 0.483908
O O8 0.787177 0.457469 0.628710
O O9 0.676666 0.433519 0.191558
O O10 0.000000 0.500000 0.500000
O O11 0.989586 0.386342 0.252836
O O12 0.000000 0.500000 0.000000
#
# Coordination Sequence:
#
# PCOD9245687 Si02
#       6
#     4   4   4   4   2   4
#     4  12  28  48  71 109 147 191 244 313 372 425
#     4  12  28  47  73 107 151 188 252 302 367 442
#     4  11  24  48  71 106 142 192 245 299 371 446
#     4  10  21  38  74 102 133 186 237 286 351 439
#     4  12  20  46  74 102 140 194 238 286 362 442
#     4  11  22  46  74 107 142 186 242 306 365 451
#
# _framework density 28.242992000000001
#
# number of rings (size 3 to 8) (size 9 to 14) (size 15 to 20)
#    0.000    0.727    7.273    0.545    2.545    2.909 
#    6.545    0.000    0.000    0.000    0.000    0.000 
#    0.000    0.000    0.000    0.000    0.000    0.000 
#
# Total GULP energy -122551.664254 kJ/mol
# GULP energy per Si atom -5570.530193 kJ/mol
# Density = 2.817871 g / cm^3
# Si number density = 28.242992 Si / 1000 Ang^3
#
#
#
# Elastic Constant Matrix: (Units=GPa)
#
#
# Indices 1 2 3 4 5 6 
#
# 1 150.1670 39.7188 40.1278 0.0000 24.6909 0.0000
# 2 39.7188 83.5166 28.9268 0.0000 8.4960 0.0000
# 3 40.1278 28.9268 121.6261 0.0000 31.9208 0.0000
# 4 0.0000 0.0000 0.0000 41.3676 0.0000 -13.3647
# 5 24.6909 8.4960 31.9208 0.0000 69.7232 0.0000
# 6 0.0000 0.0000 0.0000 -13.3647 0.0000 61.7608
#
#
#
# Elastic Compliance Matrix: (Units=1/GPa)
#
#
# Indices 1 2 3 4 5 6 
#
# 1 0.008201 -0.003207 -0.001458 0.000000 -0.001846 0.000000
# 2 -0.003207 0.014305 -0.002483 0.000000 0.000529 0.000000
# 3 -0.001458 -0.002483 0.010319 0.000000 -0.003905 0.000000
# 4 0.000000 0.000000 0.000000 0.025991 0.000000 0.005624
# 5 -0.001846 0.000529 -0.003905 0.000000 0.016719 0.000000
# 6 0.000000 0.000000 0.000000 0.005624 0.000000 0.017409
#
#
# Mechanical properties :
#
#
# Convention : Reuss Voigt Hill
#
# Bulk Modulus (GPa) = 53.97552 63.65070 58.81311
# Shear Modulus (GPa) = 44.08554 51.00606 47.54580
#
# Velocity S-wave (km/s) = 3.95516 4.25428 4.10744
# Velocity P-wave (km/s) = 6.32537 6.83503 6.58513
#
# Compressibility (1/GPa) = 0.01852692
#
# Stress axis : x y z
#
# Youngs Moduli (GPa) = 121.94017 69.90503 96.91296
#
# Poissons Ratio (x) = 0.22420 0.14135
# Poissons Ratio (y) = 0.39109 0.24064
# Poissons Ratio (z) = 0.17785 0.17358
#
# Static dielectric constant tensor:
#      x y z
#    x 2.238810 0.000000 -0.687020 
#    y 0.000000 0.782940 0.000000 
#    z -0.687020 0.000000 2.099350 
# 
# From -- ./inp_files/9343.got.cif
#   From: 2010.05.17/outbox.cif.g08.bks.cpg/sg14_5_cif.got.tgz:9343.got - 2010.06.03 17:49:19.
