data_PCOD9245750
_publ_section_title
;
Structure prediction by ZEFSAII (Michael W. Deem and Ramdas Pophale) SiO2 
 PCOD9245750
Probable space group: P 21/C
;
_chemical_formula_sum "Si O2"
_cell_formula_units_Z 20
_cell_length_a 4.986252
_cell_length_b 12.493361
_cell_length_c 15.009015
_cell_angle_alpha 90.000000
_cell_angle_beta 91.809789
_cell_angle_gamma 90.000000
_cell_volume 934.520893
_symmetry_space_group_name_H-M "P 21/C"
_symmetry_group_IT_number 14
_symmetry_cell_setting 'monoclinic'
loop_
_space_group_symop_operation_xyz
x,y,z
-x,1/2+y,1/2-z
-x,-y,-z
x,1/2-y,1/2+z
loop_
_atom_site_type_symbol
_atom_site_label
_atom_site_fract_x
_atom_site_fract_y
_atom_site_fract_z
Si Si1 0.044389 0.185317 0.427004
Si Si2 0.541190 0.116681 0.324554
Si Si3 0.631593 0.189570 0.125343
Si Si4 0.618688 0.918005 0.427095
Si Si5 0.130203 0.111253 0.027153
O O1 0.237138 0.134310 0.354098
O O2 0.114035 0.123009 0.519660
O O3 0.124391 0.307364 0.444308
O O4 0.738763 0.177995 0.394764
O O5 0.589069 0.162947 0.227949
O O6 0.629994 0.993128 0.340308
O O7 0.543310 0.310457 0.098706
O O8 0.428328 0.112373 0.069047
O O9 0.932353 0.164603 0.098205
O O10 0.500000 0.000000 0.500000
O O11 0.000000 0.000000 0.000000
#
# Coordination Sequence:
#
# PCOD9245750 Si02
#       5
#     4   4   4   4   4
#     4  10  21  39  61  87 115 160 205 237 295 378
#     4  11  22  38  61  91 121 151 196 260 308 342
#     4  11  24  39  59  94 121 152 205 256 301 362
#     4   9  20  39  63  85 118 161 201 243 299 369
#     4  11  23  41  61  83 121 164 200 240 297 365
#
# _framework density 21.401337999999999
#
# number of rings (size 3 to 8) (size 9 to 14) (size 15 to 20)
#    0.000    1.600    0.000    6.000    0.000    8.000 
#    0.000    0.000    0.000    0.000    0.000    0.000 
#    0.000    0.000    0.000    0.000    0.000    0.000 
#
# Total GULP energy -111701.817884 kJ/mol
# GULP energy per Si atom -5585.090894 kJ/mol
# Density = 2.135263 g / cm^3
# Si number density = 21.401338 Si / 1000 Ang^3
#
#
#
# Elastic Constant Matrix: (Units=GPa)
#
#
# Indices 1 2 3 4 5 6 
#
# 1 62.2305 -4.8520 2.0996 0.0000 -3.8297 0.0000
# 2 -4.8520 110.4698 44.3112 0.0000 6.6326 0.0000
# 3 2.0996 44.3112 75.8262 0.0000 -8.6300 0.0000
# 4 0.0000 0.0000 0.0000 35.1374 0.0000 3.3846
# 5 -3.8297 6.6326 -8.6300 0.0000 32.7121 0.0000
# 6 0.0000 0.0000 0.0000 3.3846 0.0000 29.0167
#
#
#
# Elastic Compliance Matrix: (Units=1/GPa)
#
#
# Indices 1 2 3 4 5 6 
#
# 1 0.016264 0.000964 -0.000845 0.000000 0.001486 0.000000
# 2 0.000964 0.012514 -0.007851 0.000000 -0.004496 0.000000
# 3 -0.000845 -0.007851 0.018526 0.000000 0.006380 0.000000
# 4 0.000000 0.000000 0.000000 0.028783 0.000000 -0.003357
# 5 0.001486 -0.004496 0.006380 0.000000 0.033338 0.000000
# 6 0.000000 0.000000 0.000000 -0.003357 0.000000 0.034855
#
#
# Mechanical properties :
#
#
# Convention : Reuss Voigt Hill
#
# Bulk Modulus (GPa) = 31.40678 36.84935 34.12807
# Shear Modulus (GPa) = 29.35016 33.17106 31.26061
#
# Velocity S-wave (km/s) = 3.70728 3.94121 3.82604
# Velocity P-wave (km/s) = 5.74737 6.16170 5.95814
#
# Compressibility (1/GPa) = 0.03184026
#
# Stress axis : x y z
#
# Youngs Moduli (GPa) = 61.48405 79.91234 53.97929
#
# Poissons Ratio (x) = -0.07703 0.04559
# Poissons Ratio (y) = -0.05926 0.42380
# Poissons Ratio (z) = 0.05192 0.62740
#
# Static dielectric constant tensor:
#      x y z
#    x 1.775800 0.000000 -0.022690 
#    y 0.000000 1.807550 0.000000 
#    z -0.022690 0.000000 1.781910 
# 
# From -- ./inp_files/36871.got.cif
#   From: 2010.05.17/outbox.cif.g08.bks.cpg/sg14_19_cif.got.tgz:36871.got - 2010.06.03 17:49:19.
