data_PCOD9245488
_publ_section_title
;
Structure prediction by ZEFSAII (Michael W. Deem and Ramdas Pophale) SiO2 
 PCOD9245488
Probable space group: P 21/C
;
_chemical_formula_sum "Si O2"
_cell_formula_units_Z 28
_cell_length_a 14.546966
_cell_length_b 9.035542
_cell_length_c 11.374633
_cell_angle_alpha 90.000000
_cell_angle_beta 56.899107
_cell_angle_gamma 90.000000
_cell_volume 1252.442603
_symmetry_space_group_name_H-M "P 21/C"
_symmetry_group_IT_number 14
_symmetry_cell_setting 'monoclinic'
loop_
_space_group_symop_operation_xyz
x,y,z
-x,1/2+y,1/2-z
-x,-y,-z
x,1/2-y,1/2+z
loop_
_atom_site_type_symbol
_atom_site_label
_atom_site_fract_x
_atom_site_fract_y
_atom_site_fract_z
Si Si1 0.747899 0.268016 0.994144
Si Si2 0.451375 0.618826 0.219583
Si Si3 0.726858 0.997786 0.301809
Si Si4 0.108095 0.303230 0.191537
Si Si5 0.950860 0.421897 0.922258
Si Si6 0.208603 0.464323 0.502184
Si Si7 0.539566 0.578807 0.590788
O O1 0.730661 0.366689 0.890730
O O2 0.827117 0.361898 0.023126
O O3 0.812963 0.117465 0.914727
O O4 0.640103 0.209257 0.137499
O O5 0.394015 0.506791 0.168713
O O6 0.517150 0.517790 0.265029
O O7 0.510812 0.749558 0.111576
O O8 0.777639 0.855344 0.328772
O O9 0.796099 0.008327 0.132060
O O10 0.058560 0.453319 0.172833
O O11 0.136460 0.178781 0.075375
O O12 0.027701 0.215437 0.333783
O O13 0.000000 0.500000 0.000000
O O14 0.332266 0.427628 0.461494
O O15 0.500000 0.500000 0.500000
#
# Coordination Sequence:
#
# PCOD9245488 Si02
#       7
#     4   4   4   4   4   4   4
#     4   9  20  39  60  83 116 155 192 236 288 338
#     4  10  21  38  61  88 118 154 192 237 290 344
#     4   9  20  40  59  83 117 152 190 234 287 341
#     4  11  23  39  60  86 117 152 192 238 289 344
#     4  11  24  39  60  89 115 151 196 238 288 344
#     4  10  22  39  59  86 118 153 192 238 287 341
#     4  10  22  38  60  89 118 153 197 239 287 342
#
# _framework density 22.356316
#
# number of rings (size 3 to 8) (size 9 to 14) (size 15 to 20)
#    0.000    2.286    0.000    3.429    0.000   12.571 
#    0.000   11.429    0.000    0.000    0.000    0.000 
#    0.000    0.000    0.000    0.000    0.000    0.000 
#
# Total GULP energy -156054.850024 kJ/mol
# GULP energy per Si atom -5573.387501 kJ/mol
# Density = 2.230543 g / cm^3
# Si number density = 22.356316 Si / 1000 Ang^3
#
#
#
# Elastic Constant Matrix: (Units=GPa)
#
#
# Indices 1 2 3 4 5 6 
#
# 1 75.8675 25.6690 21.3956 0.0000 23.1928 0.0000
# 2 25.6690 80.7521 7.8778 0.0000 9.3417 0.0000
# 3 21.3956 7.8778 35.6154 0.0000 7.7741 0.0000
# 4 0.0000 0.0000 0.0000 49.1805 0.0000 -6.6818
# 5 23.1928 9.3417 7.7741 0.0000 32.3451 0.0000
# 6 0.0000 0.0000 0.0000 -6.6818 0.0000 42.1840
#
#
#
# Elastic Compliance Matrix: (Units=1/GPa)
#
#
# Indices 1 2 3 4 5 6 
#
# 1 0.020677 -0.004379 -0.008963 0.000000 -0.011408 0.000000
# 2 -0.004379 0.013895 -0.000266 0.000000 -0.000809 0.000000
# 3 -0.008963 -0.000266 0.033879 0.000000 -0.001639 0.000000
# 4 0.000000 0.000000 0.000000 0.020780 0.000000 0.003292
# 5 -0.011408 -0.000809 -0.001639 0.000000 0.039724 0.000000
# 6 0.000000 0.000000 0.000000 0.003292 0.000000 0.024227
#
#
# Mechanical properties :
#
#
# Convention : Reuss Voigt Hill
#
# Bulk Modulus (GPa) = 24.25129 33.56889 28.91009
# Shear Modulus (GPa) = 25.75402 33.89475 29.82439
#
# Velocity S-wave (km/s) = 3.39776 3.89796 3.65642
# Velocity P-wave (km/s) = 5.12487 5.94195 5.54847
#
# Compressibility (1/GPa) = 0.04123492
#
# Stress axis : x y z
#
# Youngs Moduli (GPa) = 48.36181 71.96790 29.51689
#
# Poissons Ratio (x) = 0.31513 0.26457
# Poissons Ratio (y) = 0.21176 0.00786
# Poissons Ratio (z) = 0.43348 0.01917
#
# Static dielectric constant tensor:
#      x y z
#    x 1.850400 0.000000 -0.061890 
#    y 0.000000 1.840440 0.000000 
#    z -0.061890 0.000000 1.907270 
# 
# From -- ./inp_files/31471.got.cif
#   From: 2010.05.17/outbox.cif.g08.bks.cpg/sg14_16_cif.got.tgz:31471.got - 2010.06.03 17:49:19.
