data_PCOD9245681
_publ_section_title
;
Structure prediction by ZEFSAII (Michael W. Deem and Ramdas Pophale) SiO2 
 PCOD9245681
Probable space group: P 21/C
;
_chemical_formula_sum "Si O2"
_cell_formula_units_Z 28
_cell_length_a 11.420930
_cell_length_b 12.975116
_cell_length_c 9.327604
_cell_angle_alpha 90.000000
_cell_angle_beta 52.687591
_cell_angle_gamma 90.000000
_cell_volume 1099.352214
_symmetry_space_group_name_H-M "P 21/C"
_symmetry_group_IT_number 14
_symmetry_cell_setting 'monoclinic'
loop_
_space_group_symop_operation_xyz
x,y,z
-x,1/2+y,1/2-z
-x,-y,-z
x,1/2-y,1/2+z
loop_
_atom_site_type_symbol
_atom_site_label
_atom_site_fract_x
_atom_site_fract_y
_atom_site_fract_z
Si Si1 0.185008 0.497136 0.512294
Si Si2 0.934572 0.707596 0.301725
Si Si3 0.386948 0.999297 0.379700
Si Si4 0.143925 0.419484 0.234524
Si Si5 0.134079 0.757587 0.402349
Si Si6 0.569552 0.331621 0.916168
Si Si7 0.635633 0.101951 0.894732
O O1 0.216692 0.453363 0.330181
O O2 0.316087 0.556672 0.490123
O O3 0.147306 0.399614 0.641182
O O4 0.030284 0.558526 0.621094
O O5 0.990060 0.725315 0.421963
O O6 0.084403 0.716372 0.098415
O O7 0.836383 0.800845 0.319868
O O8 0.217375 0.017245 0.551709
O O9 0.466875 0.099288 0.389909
O O10 0.429995 0.895149 0.435195
O O11 0.408723 0.978573 0.195603
O O12 0.458901 0.708787 0.536623
O O13 0.265210 0.676188 0.275890
O O14 0.204848 0.858370 0.281524
#
# Coordination Sequence:
#
# PCOD9245681 Si02
#       7
#     4   4   4   4   4   4   4
#     4  11  24  39  67 109 149 182 232 291 375 435
#     4  12  22  40  65 103 143 182 223 299 351 442
#     4  11  23  44  74  96 140 192 237 292 354 421
#     4  11  24  39  65 107 146 181 223 292 365 439
#     4  10  21  38  69  95 140 178 233 285 348 420
#     4   9  23  44  67  99 132 183 245 289 346 414
#     4  10  23  40  74 104 135 183 244 296 346 436
#
# _framework density 25.469546000000001
#
# number of rings (size 3 to 8) (size 9 to 14) (size 15 to 20)
#    0.857    0.571    2.857    2.571    4.000    2.286 
#    0.000    5.714    0.000    9.429    0.000    0.000 
#    0.000    0.000    0.000    0.000    0.000    0.000 
#
# Total GULP energy -156638.885620 kJ/mol
# GULP energy per Si atom -5594.245915 kJ/mol
# Density = 2.541158 g / cm^3
# Si number density = 25.469546 Si / 1000 Ang^3
#
#
#
# Elastic Constant Matrix: (Units=GPa)
#
#
# Indices 1 2 3 4 5 6 
#
# 1 98.5673 56.3750 53.1672 0.0000 23.1132 0.0000
# 2 56.3750 142.5428 15.0492 0.0000 25.6953 0.0000
# 3 53.1672 15.0492 100.1610 0.0000 22.3951 0.0000
# 4 0.0000 0.0000 0.0000 29.9063 0.0000 4.2109
# 5 23.1132 25.6953 22.3951 0.0000 45.1849 0.0000
# 6 0.0000 0.0000 0.0000 4.2109 0.0000 45.8763
#
#
#
# Elastic Compliance Matrix: (Units=1/GPa)
#
#
# Indices 1 2 3 4 5 6 
#
# 1 0.018756 -0.006182 -0.008624 0.000000 -0.001804 0.000000
# 2 -0.006182 0.009858 0.002639 0.000000 -0.003752 0.000000
# 3 -0.008624 0.002639 0.015199 0.000000 -0.004623 0.000000
# 4 0.000000 0.000000 0.000000 0.033876 0.000000 -0.003109
# 5 -0.001804 -0.003752 -0.004623 0.000000 0.027479 0.000000
# 6 0.000000 0.000000 0.000000 -0.003109 0.000000 0.022083
#
#
# Mechanical properties :
#
#
# Convention : Reuss Voigt Hill
#
# Bulk Modulus (GPa) = 51.33609 65.60599 58.47104
# Shear Modulus (GPa) = 31.63028 38.63883 35.13455
#
# Velocity S-wave (km/s) = 3.52786 3.89917 3.71816
# Velocity P-wave (km/s) = 6.06581 6.78866 6.43739
#
# Compressibility (1/GPa) = 0.01947948
#
# Stress axis : x y z
#
# Youngs Moduli (GPa) = 53.31646 101.43920 65.79588
#
# Poissons Ratio (x) = 0.62711 0.56740
# Poissons Ratio (y) = 0.32961 -0.17365
# Poissons Ratio (z) = 0.45978 -0.26773
#
# Static dielectric constant tensor:
#      x y z
#    x 1.988820 0.000000 -0.028610 
#    y 0.000000 2.071120 0.000000 
#    z -0.028610 0.000000 1.987420 
# 
# From -- ./inp_files/13053.got.cif
#   From: 2010.05.17/outbox.cif.g08.bks.cpg/sg14_7_cif.got.tgz:13053.got - 2010.06.03 17:49:19.
