data_PCOD9245743
_publ_section_title
;
Structure prediction by ZEFSAII (Michael W. Deem and Ramdas Pophale) SiO2 
 PCOD9245743
Probable space group: P 21/C
;
_chemical_formula_sum "Si O2"
_cell_formula_units_Z 28
_cell_length_a 18.635797
_cell_length_b 5.378848
_cell_length_c 13.679794
_cell_angle_alpha 90.000000
_cell_angle_beta 53.287237
_cell_angle_gamma 90.000000
_cell_volume 1099.252682
_symmetry_space_group_name_H-M "P 21/C"
_symmetry_group_IT_number 14
_symmetry_cell_setting 'monoclinic'
loop_
_space_group_symop_operation_xyz
x,y,z
-x,1/2+y,1/2-z
-x,-y,-z
x,1/2-y,1/2+z
loop_
_atom_site_type_symbol
_atom_site_label
_atom_site_fract_x
_atom_site_fract_y
_atom_site_fract_z
Si Si1 0.197894 0.283329 0.012954
Si Si2 0.035185 0.799645 0.581391
Si Si3 0.735719 0.094226 0.365857
Si Si4 0.865495 0.601412 0.615904
Si Si5 0.561520 0.413600 0.095055
Si Si6 0.388507 0.415949 0.330260
Si Si7 0.898088 0.398738 0.275157
O O1 0.282531 0.117585 0.909804
O O2 0.145673 0.324568 0.954175
O O3 0.241304 0.496212 0.043330
O O4 0.131152 0.138005 0.138110
O O5 0.113832 0.649192 0.462048
O O6 0.065503 0.784835 0.670593
O O7 0.949139 0.629055 0.620196
O O8 0.974655 0.051959 0.633116
O O9 0.776262 0.910621 0.253058
O O10 0.629451 0.125833 0.449483
O O11 0.804539 0.321449 0.302036
O O12 0.453845 0.388364 0.183274
O O13 0.581065 0.689612 0.122212
O O14 0.592147 0.186329 0.140412
#
# Coordination Sequence:
#
# PCOD9245743 Si02
#       7
#     4   4   4   4   4   4   4
#     4  10  21  39  61  84 123 161 205 250 311 371
#     4  10  22  39  59  86 120 156 206 256 304 373
#     4  11  21  39  61  90 121 162 202 256 310 373
#     4  10  22  41  58  91 119 156 209 251 310 369
#     4   9  18  32  63  89 125 159 210 250 314 376
#     4   9  17  35  58  94 119 165 205 255 309 380
#     4  11  21  39  62  83 119 163 203 247 322 357
#
# _framework density 25.471848000000001
#
# number of rings (size 3 to 8) (size 9 to 14) (size 15 to 20)
#    0.000    2.000    2.857    0.857    0.000    0.571 
#    5.143    0.714    0.000    0.000    0.000   12.000 
#    0.000    0.000    0.000    0.000    0.000    0.000 
#
# Total GULP energy -156040.478405 kJ/mol
# GULP energy per Si atom -5572.874229 kJ/mol
# Density = 2.541387 g / cm^3
# Si number density = 25.471848 Si / 1000 Ang^3
#
#
#
# Elastic Constant Matrix: (Units=GPa)
#
#
# Indices 1 2 3 4 5 6 
#
# 1 50.2041 0.9155 42.6716 0.0000 -5.8539 0.0000
# 2 0.9155 60.7131 -24.1383 0.0000 18.1117 0.0000
# 3 42.6716 -24.1383 151.2884 0.0000 -42.6500 0.0000
# 4 0.0000 0.0000 0.0000 11.0185 0.0000 -11.2983
# 5 -5.8539 18.1117 -42.6500 0.0000 54.6535 0.0000
# 6 0.0000 0.0000 0.0000 -11.2983 0.0000 13.6023
#
#
#
# Elastic Compliance Matrix: (Units=1/GPa)
#
#
# Indices 1 2 3 4 5 6 
#
# 1 0.027333 -0.003088 -0.009087 0.000000 -0.003141 0.000000
# 2 -0.003088 0.018915 0.002601 0.000000 -0.004569 0.000000
# 3 -0.009087 0.002601 0.011629 0.000000 0.007240 0.000000
# 4 0.000000 0.000000 0.000000 0.611972 0.000000 0.508312
# 5 -0.003141 -0.004569 0.007240 0.000000 0.025125 0.000000
# 6 0.000000 0.000000 0.000000 0.508312 0.000000 0.495727
#
#
# Mechanical properties :
#
#
# Convention : Reuss Voigt Hill
#
# Bulk Modulus (GPa) = 25.82214 33.45590 29.63902
# Shear Modulus (GPa) = 4.08911 32.03866 18.06389
#
# Velocity S-wave (km/s) = 1.26840 3.55040 2.66591
# Velocity P-wave (km/s) = 3.50780 5.47450 4.59754
#
# Compressibility (1/GPa) = 0.03872645
#
# Stress axis : x y z
#
# Youngs Moduli (GPa) = 36.58606 52.86919 85.99226
#
# Poissons Ratio (x) = 0.16328 0.78145
# Poissons Ratio (y) = 0.11299 -0.22365
# Poissons Ratio (z) = 0.33247 -0.13750
#
# Static dielectric constant tensor:
#      x y z
#    x 2.044660 0.000000 -0.015650 
#    y 0.000000 2.147490 0.000000 
#    z -0.015650 0.000000 2.085250 
# 
# From -- ./inp_files/49657.got.cif
#   From: 2010.05.17/outbox.cif.g08.bks.cpg/sg14_25_cif.got.tgz:49657.got - 2010.06.03 17:49:19.
