data_PCOD9245786
_publ_section_title
;
Structure prediction by ZEFSAII (Michael W. Deem and Ramdas Pophale) SiO2 
 PCOD9245786
Probable space group: P 21/C
;
_chemical_formula_sum "Si O2"
_cell_formula_units_Z 24
_cell_length_a 9.663516
_cell_length_b 14.251160
_cell_length_c 16.008054
_cell_angle_alpha 90.000000
_cell_angle_beta 149.311558
_cell_angle_gamma 90.000000
_cell_volume 1125.145273
_symmetry_space_group_name_H-M "P 21/C"
_symmetry_group_IT_number 14
_symmetry_cell_setting 'monoclinic'
loop_
_space_group_symop_operation_xyz
x,y,z
-x,1/2+y,1/2-z
-x,-y,-z
x,1/2-y,1/2+z
loop_
_atom_site_type_symbol
_atom_site_label
_atom_site_fract_x
_atom_site_fract_y
_atom_site_fract_z
Si Si1 0.206956 0.453499 0.360417
Si Si2 0.486437 0.334746 0.831534
Si Si3 0.752145 0.924248 0.379467
Si Si4 0.946103 0.784717 0.342096
Si Si5 0.311194 0.023302 0.480967
Si Si6 0.757339 0.544222 0.428959
O O1 0.500000 0.500000 0.500000
O O2 0.137967 0.357331 0.274568
O O3 0.154550 0.438494 0.430993
O O4 0.990309 0.525653 0.210167
O O5 0.235835 0.307366 0.759684
O O6 0.629679 0.430289 0.934111
O O7 0.362714 0.362436 0.677850
O O8 0.736414 0.264393 0.977808
O O9 0.842897 0.834640 0.373765
O O10 0.673360 0.902291 0.435264
O O11 0.490301 0.970433 0.200604
O O12 0.000000 0.000000 0.500000
O O13 0.500000 0.000000 0.500000
O O14 0.000000 0.500000 0.500000
#
# Coordination Sequence:
#
# PCOD9245786 Si02
#       6
#     4   4   4   4   4   4
#     4  11  20  36  65  92 114 156 206 249 303 369
#     4  10  24  41  59  86 127 162 201 253 311 364
#     4  11  18  40  64  83 117 165 201 250 298 370
#     4  11  23  41  61  87 128 164 205 255 316 358
#     4  10  21  39  62  89 120 154 208 251 302 360
#     4  11  22  38  64  96 120 156 213 252 304 367
#
# _framework density 21.330580000000001
#
# number of rings (size 3 to 8) (size 9 to 14) (size 15 to 20)
#    0.000    1.333    6.667    2.000    2.333    1.333 
#    3.000    1.667    0.000    0.000    0.000    0.000 
#    0.000    0.000    0.000    0.000    0.000    0.000 
#
# Total GULP energy -133711.651561 kJ/mol
# GULP energy per Si atom -5571.318815 kJ/mol
# Density = 2.128203 g / cm^3
# Si number density = 21.330580 Si / 1000 Ang^3
#
#
#
# Elastic Constant Matrix: (Units=GPa)
#
#
# Indices 1 2 3 4 5 6 
#
# 1 125.7080 3.8728 33.6351 0.0000 -29.9604 0.0000
# 2 3.8728 20.2957 15.3007 0.0000 -2.0632 0.0000
# 3 33.6351 15.3007 115.0366 0.0000 -12.2117 0.0000
# 4 0.0000 0.0000 0.0000 13.7759 0.0000 8.5877
# 5 -29.9604 -2.0632 -12.2117 0.0000 49.8899 0.0000
# 6 0.0000 0.0000 0.0000 8.5877 0.0000 28.5148
#
#
#
# Elastic Compliance Matrix: (Units=1/GPa)
#
#
# Indices 1 2 3 4 5 6 
#
# 1 0.009852 0.000453 -0.002372 0.000000 0.005354 0.000000
# 2 0.000453 0.054795 -0.007342 0.000000 0.000741 0.000000
# 3 -0.002372 -0.007342 0.010451 0.000000 0.000830 0.000000
# 4 0.000000 0.000000 0.000000 0.089369 0.000000 -0.026915
# 5 0.005354 0.000741 0.000830 0.000000 0.023493 0.000000
# 6 0.000000 0.000000 0.000000 -0.026915 0.000000 0.043175
#
#
# Mechanical properties :
#
#
# Convention : Reuss Voigt Hill
#
# Bulk Modulus (GPa) = 17.67546 40.73971 29.20759
# Shear Modulus (GPa) = 18.62078 32.31825 25.46951
#
# Velocity S-wave (km/s) = 2.95780 3.89667 3.45923
# Velocity P-wave (km/s) = 4.46869 6.27583 5.44772
#
# Compressibility (1/GPa) = 0.05657563
#
# Stress axis : x y z
#
# Youngs Moduli (GPa) = 101.50344 18.24971 95.68316
#
# Poissons Ratio (x) = -0.00827 0.22700
# Poissons Ratio (y) = -0.04597 0.70250
# Poissons Ratio (z) = 0.24081 0.13399
#
# Static dielectric constant tensor:
#      x y z
#    x 1.896040 0.000000 0.025460 
#    y 0.000000 1.918210 0.000000 
#    z 0.025460 0.000000 1.830750 
# 
# From -- ./inp_files/41866.got.cif
#   From: 2010.05.17/outbox.cif.g08.bks.cpg/sg14_21_cif.got.tgz:41866.got - 2010.06.03 17:49:19.
