data_PCOD9245487
_publ_section_title
;
Structure prediction by ZEFSAII (Michael W. Deem and Ramdas Pophale) SiO2 
 PCOD9245487
Probable space group: P 21/C
;
_chemical_formula_sum "Si O2"
_cell_formula_units_Z 28
_cell_length_a 11.090805
_cell_length_b 21.392969
_cell_length_c 5.558229
_cell_angle_alpha 90.000000
_cell_angle_beta 114.315887
_cell_angle_gamma 90.000000
_cell_volume 1201.784948
_symmetry_space_group_name_H-M "P 21/C"
_symmetry_group_IT_number 14
_symmetry_cell_setting 'monoclinic'
loop_
_space_group_symop_operation_xyz
x,y,z
-x,1/2+y,1/2-z
-x,-y,-z
x,1/2-y,1/2+z
loop_
_atom_site_type_symbol
_atom_site_label
_atom_site_fract_x
_atom_site_fract_y
_atom_site_fract_z
Si Si1 0.626933 0.402271 0.053046
Si Si2 0.152614 0.557322 0.449836
Si Si3 0.633280 0.892139 0.910822
Si Si4 0.871185 0.580010 0.324701
Si Si5 0.735328 0.229494 0.519061
Si Si6 0.434622 0.222123 0.826811
Si Si7 0.274069 0.011857 0.672645
O O1 0.472494 0.388658 0.892864
O O2 0.643889 0.468658 0.936240
O O3 0.709146 0.410282 0.365836
O O4 0.701122 0.344036 0.987363
O O5 0.136497 0.491439 0.578545
O O6 0.162091 0.534750 0.184555
O O7 0.023445 0.596510 0.411386
O O8 0.779150 0.880129 0.924559
O O9 0.586482 0.846075 0.081582
O O10 0.641771 0.960240 0.039910
O O11 0.796831 0.570048 0.011644
O O12 0.801356 0.251993 0.326718
O O13 0.591369 0.263933 0.421544
O O14 0.382322 0.237375 0.515512
#
# Coordination Sequence:
#
# PCOD9245487 Si02
#       7
#     4   4   4   4   4   4   4
#     4  11  22  36  60  92 125 156 209 261 325 374
#     4   9  20  38  58  82 120 162 204 242 307 379
#     4  11  22  36  60  91 124 156 207 265 327 375
#     4   9  20  38  57  84 118 163 203 245 303 382
#     4  10  21  38  61  88 122 166 213 261 314 386
#     4  10  21  38  61  87 121 166 213 260 316 388
#     4  10  22  34  59  91 128 163 200 261 318 385
#
# _framework density 23.298680000000001
#
# number of rings (size 3 to 8) (size 9 to 14) (size 15 to 20)
#    0.000    2.000    2.857    0.857    4.000    7.429 
#    0.000    0.000    0.000    1.714    0.000    0.000 
#    0.000    0.000    0.000    0.000    0.000    0.000 
#
# Total GULP energy -156118.873651 kJ/mol
# GULP energy per Si atom -5575.674059 kJ/mol
# Density = 2.324565 g / cm^3
# Si number density = 23.298680 Si / 1000 Ang^3
#
#
#
# Elastic Constant Matrix: (Units=GPa)
#
#
# Indices 1 2 3 4 5 6 
#
# 1 54.5952 11.5916 31.6905 0.0000 -1.7944 0.0000
# 2 11.5916 64.2812 11.0409 0.0000 3.6887 0.0000
# 3 31.6905 11.0409 85.0832 0.0000 -18.0224 0.0000
# 4 0.0000 0.0000 0.0000 28.0249 0.0000 -11.4160
# 5 -1.7944 3.6887 -18.0224 0.0000 19.8488 0.0000
# 6 0.0000 0.0000 0.0000 -11.4160 0.0000 14.0075
#
#
#
# Elastic Compliance Matrix: (Units=1/GPa)
#
#
# Indices 1 2 3 4 5 6 
#
# 1 0.024534 -0.002280 -0.010255 0.000000 -0.006670 0.000000
# 2 -0.002280 0.016718 -0.002504 0.000000 -0.005586 0.000000
# 3 -0.010255 -0.002504 0.019562 0.000000 0.017300 0.000000
# 4 0.000000 0.000000 0.000000 0.053416 0.000000 0.043533
# 5 -0.006670 -0.005586 0.017300 0.000000 0.066524 0.000000
# 6 0.000000 0.000000 0.000000 0.043533 0.000000 0.106869
#
#
# Mechanical properties :
#
#
# Convention : Reuss Voigt Hill
#
# Bulk Modulus (GPa) = 32.53339 34.73397 33.63368
# Shear Modulus (GPa) = 15.24634 22.35202 18.79918
#
# Velocity S-wave (km/s) = 2.56087 3.10073 2.84364
# Velocity P-wave (km/s) = 4.76844 5.26876 5.02483
#
# Compressibility (1/GPa) = 0.03073765
#
# Stress axis : x y z
#
# Youngs Moduli (GPa) = 40.75948 59.81450 51.11876
#
# Poissons Ratio (x) = 0.13638 0.52422
# Poissons Ratio (y) = 0.09293 0.12798
# Poissons Ratio (z) = 0.41799 0.14975
#
# Static dielectric constant tensor:
#      x y z
#    x 1.876450 0.000000 -0.021610 
#    y 0.000000 1.915170 0.000000 
#    z -0.021610 0.000000 1.993590 
# 
# From -- ./inp_files/2970.got.cif
#   From: 2010.05.17/outbox.cif.g08.bks.cpg/sg14_2_cif.got.tgz:2970.got - 2010.06.03 17:49:19.
