data_PCOD9245779
_publ_section_title
;
Structure prediction by ZEFSAII (Michael W. Deem and Ramdas Pophale) SiO2 
 PCOD9245779
Probable space group: P 21/C
;
_chemical_formula_sum "Si O2"
_cell_formula_units_Z 20
_cell_length_a 12.110491
_cell_length_b 8.707198
_cell_length_c 22.908614
_cell_angle_alpha 90.000000
_cell_angle_beta 22.115469
_cell_angle_gamma 90.000000
_cell_volume 909.440800
_symmetry_space_group_name_H-M "P 21/C"
_symmetry_group_IT_number 14
_symmetry_cell_setting 'monoclinic'
loop_
_space_group_symop_operation_xyz
x,y,z
-x,1/2+y,1/2-z
-x,-y,-z
x,1/2-y,1/2+z
loop_
_atom_site_type_symbol
_atom_site_label
_atom_site_fract_x
_atom_site_fract_y
_atom_site_fract_z
Si Si1 0.934736 0.265056 0.834715
Si Si2 0.064483 0.108367 0.653612
Si Si3 0.447270 0.411928 0.636624
Si Si4 0.805946 0.833313 0.537990
Si Si5 0.540013 0.444677 0.250138
O O1 0.804624 0.438681 0.896554
O O2 0.062735 0.218102 0.709621
O O3 0.197317 0.282415 0.752448
O O4 0.710379 0.139189 0.967121
O O5 0.202006 0.179147 0.527924
O O6 0.727190 0.060688 0.802499
O O7 0.525652 0.436648 0.665181
O O8 0.701320 0.684910 0.624179
O O9 0.138390 0.875299 0.392258
O O10 0.589814 0.969062 0.665211
#
# Coordination Sequence:
#
# PCOD9245779 Si02
#       5
#     4   4   4   4   4
#     4  10  21  39  62  86 127 163 199 251 298 362
#     4   9  22  38  61  92 122 160 206 245 300 362
#     4   9  22  39  61  89 124 158 204 253 300 358
#     4  10  23  42  64  92 122 161 203 255 299 366
#     4  10  23  43  65  88 126 156 207 253 305 357
#
# _framework density 21.991537000000001
#
# number of rings (size 3 to 8) (size 9 to 14) (size 15 to 20)
#    1.200    1.200    0.000    0.600    5.600    3.200 
#    3.600    0.000    0.000    0.000    0.000    0.000 
#    0.000    0.000    0.000    0.000    0.000    0.000 
#
# Total GULP energy -111552.170953 kJ/mol
# GULP energy per Si atom -5577.608548 kJ/mol
# Density = 2.194148 g / cm^3
# Si number density = 21.991537 Si / 1000 Ang^3
#
#
#
# Elastic Constant Matrix: (Units=GPa)
#
#
# Indices 1 2 3 4 5 6 
#
# 1 8.5561 -15.2356 -6.4007 0.0000 -8.6405 0.0000
# 2 -15.2356 -45.8752 -34.0708 0.0000 -46.0575 0.0000
# 3 -6.4007 -34.0708 16.5651 0.0000 -16.5688 0.0000
# 4 0.0000 0.0000 0.0000 27.6967 0.0000 18.6439
# 5 -8.6405 -46.0575 -16.5688 0.0000 -29.0441 0.0000
# 6 0.0000 0.0000 0.0000 18.6439 0.0000 31.9426
#
#
#
# Elastic Compliance Matrix: (Units=1/GPa)
#
#
# Indices 1 2 3 4 5 6 
#
# 1 0.091859 0.007307 0.007385 0.000000 -0.043127 0.000000
# 2 0.007307 0.040862 0.012658 0.000000 -0.074193 0.000000
# 3 0.007385 0.012658 0.042647 0.000000 -0.046599 0.000000
# 4 0.000000 0.000000 0.000000 0.059471 0.000000 -0.034712
# 5 -0.043127 -0.074193 -0.046599 0.000000 0.122638 0.000000
# 6 0.000000 0.000000 0.000000 -0.034712 0.000000 0.051566
#
#
# Mechanical properties :
#
#
# Convention : Reuss Voigt Hill
#
# Bulk Modulus (GPa) = 4.34653 -14.68538 -5.16942
# Shear Modulus (GPa) = 11.60004 8.44923 10.02464
#
# Velocity S-wave (km/s) = 2.29918 1.96224 2.13736
# Velocity P-wave (km/s) = 3.00484 1.24836 1.93270
#
# Compressibility (1/GPa) = 0.23006860
#
# Stress axis : x y z
#
# Youngs Moduli (GPa) = 10.88627 24.47243 23.44816
#
# Poissons Ratio (x) = -0.17881 -0.17317
# Poissons Ratio (y) = -0.07954 -0.29681
# Poissons Ratio (z) = -0.08040 -0.30978
#
# Static dielectric constant tensor:
#      x y z
#    x 1.808880 0.000000 -0.028650 
#    y 0.000000 1.838630 0.000000 
#    z -0.028650 0.000000 1.794570 
# 
# From -- ./inp_files/33467.got.cif
#   From: 2010.05.17/outbox.cif.g08.bks.cpg/sg14_17_cif.got.tgz:33467.got - 2010.06.03 17:49:19.
