data_PCOD9245148
_publ_section_title
;
Structure prediction by ZEFSAII (Michael W. Deem and Ramdas Pophale) SiO2 
 PCOD9245148
Probable space group: P 21/C
;
_chemical_formula_sum "Si O2"
_cell_formula_units_Z 20
_cell_length_a 7.203228
_cell_length_b 9.165808
_cell_length_c 19.105600
_cell_angle_alpha 90.000000
_cell_angle_beta 134.468529
_cell_angle_gamma 90.000000
_cell_volume 900.191570
_symmetry_space_group_name_H-M "P 21/C"
_symmetry_group_IT_number 14
_symmetry_cell_setting 'monoclinic'
loop_
_space_group_symop_operation_xyz
x,y,z
-x,1/2+y,1/2-z
-x,-y,-z
x,1/2-y,1/2+z
loop_
_atom_site_type_symbol
_atom_site_label
_atom_site_fract_x
_atom_site_fract_y
_atom_site_fract_z
Si Si1 0.517067 0.533826 0.331974
Si Si2 0.965612 0.530412 0.263744
Si Si3 0.464470 0.908852 0.560988
Si Si4 0.731170 0.408560 0.522379
Si Si5 0.497705 0.870980 0.318743
O O1 0.227821 0.520552 0.289182
O O2 0.721055 0.473596 0.442183
O O3 0.511018 0.442283 0.259523
O O4 0.576172 0.704405 0.337156
O O5 0.035795 0.575203 0.361291
O O6 0.747113 0.630393 0.168864
O O7 0.794699 0.382218 0.225478
O O8 0.322506 0.761672 0.503294
O O9 0.347449 0.019229 0.588452
O O10 0.500000 0.000000 0.500000
O O11 0.500000 0.500000 0.500000
#
# Coordination Sequence:
#
# PCOD9245148 Si02
#       5
#     4   4   4   4   4
#     4  11  22  42  66  95 134 165 216 268 311 386
#     4   9  24  40  70  88 127 174 207 259 328 368
#     4  10  21  41  65  94 129 165 216 262 316 385
#     4  10  21  36  66  96 124 168 215 260 318 382
#     4  10  24  41  65  95 129 169 214 266 316 381
#
# _framework density 22.217493999999999
#
# number of rings (size 3 to 8) (size 9 to 14) (size 15 to 20)
#    1.200    0.800    0.000    3.600    5.600    0.800 
#    0.000    1.000    0.000    0.000    0.000    0.000 
#    0.000    0.000    0.000    0.000    0.000    0.000 
#
# Total GULP energy -111572.935250 kJ/mol
# GULP energy per Si atom -5578.646763 kJ/mol
# Density = 2.216693 g / cm^3
# Si number density = 22.217494 Si / 1000 Ang^3
#
#
#
# Elastic Constant Matrix: (Units=GPa)
#
#
# Indices 1 2 3 4 5 6 
#
# 1 51.4988 19.3291 -1.1456 0.0000 -13.0461 0.0000
# 2 19.3291 169.4387 49.1525 0.0000 -23.0493 0.0000
# 3 -1.1456 49.1525 146.7729 0.0000 -27.5335 0.0000
# 4 0.0000 0.0000 0.0000 13.8393 0.0000 -14.7951
# 5 -13.0461 -23.0493 -27.5335 0.0000 46.1396 0.0000
# 6 0.0000 0.0000 0.0000 -14.7951 0.0000 23.4243
#
#
#
# Elastic Compliance Matrix: (Units=1/GPa)
#
#
# Indices 1 2 3 4 5 6 
#
# 1 0.021914 -0.002251 0.002113 0.000000 0.006332 0.000000
# 2 -0.002251 0.006974 -0.002048 0.000000 0.001625 0.000000
# 3 0.002113 -0.002048 0.008373 0.000000 0.004571 0.000000
# 4 0.000000 0.000000 0.000000 0.222494 0.000000 0.140531
# 5 0.006332 0.001625 0.004571 0.000000 0.027003 0.000000
# 6 0.000000 0.000000 0.000000 0.140531 0.000000 0.131452
#
#
# Mechanical properties :
#
#
# Convention : Reuss Voigt Hill
#
# Bulk Modulus (GPa) = 30.40647 55.82028 43.11337
# Shear Modulus (GPa) = 11.53279 36.70559 24.11919
#
# Velocity S-wave (km/s) = 2.28082 4.06902 3.29841
# Velocity P-wave (km/s) = 4.54441 6.87422 5.82695
#
# Compressibility (1/GPa) = 0.03288774
#
# Stress axis : x y z
#
# Youngs Moduli (GPa) = 45.63268 143.39185 119.42983
#
# Poissons Ratio (x) = 0.32284 -0.25235
# Poissons Ratio (y) = 0.10274 0.24462
# Poissons Ratio (z) = -0.09642 0.29370
#
# Static dielectric constant tensor:
#      x y z
#    x 1.878430 0.000000 0.025060 
#    y 0.000000 1.782650 0.000000 
#    z 0.025060 0.000000 1.803300 
# 
# From -- ./inp_files/54963.got.cif
#   From: 2010.05.17/outbox.cif.g08.bks.cpg/sg14_28_cif.got.tgz:54963.got - 2010.06.03 17:49:19.
