data_PCOD9245972
_publ_section_title
;
Structure prediction by ZEFSAII (Michael W. Deem and Ramdas Pophale) SiO2 
 PCOD9245972
Probable space group: P 21/C
;
_chemical_formula_sum "Si O2"
_cell_formula_units_Z 30
_cell_length_a 13.737929
_cell_length_b 15.211942
_cell_length_c 8.998714
_cell_angle_alpha 90.000000
_cell_angle_beta 40.912007
_cell_angle_gamma 90.000000
_cell_volume 1231.574918
_symmetry_space_group_name_H-M "P 21/C"
_symmetry_group_IT_number 14
_symmetry_cell_setting 'monoclinic'
loop_
_space_group_symop_operation_xyz
x,y,z
-x,1/2+y,1/2-z
-x,-y,-z
x,1/2-y,1/2+z
loop_
_atom_site_type_symbol
_atom_site_label
_atom_site_fract_x
_atom_site_fract_y
_atom_site_fract_z
Si Si1 0.000000 0.000000 0.000000
Si Si2 0.822328 0.857281 0.446843
Si Si3 0.836632 0.444491 0.964228
Si Si4 0.425319 0.376373 0.982757
Si Si5 0.496733 0.942313 0.280833
Si Si6 0.744146 0.181274 0.818719
Si Si7 0.139586 0.659530 0.491602
Si Si8 0.574127 0.683283 0.451553
O O1 0.958622 0.062008 0.194870
O O2 0.885091 0.060558 0.033337
O O3 0.745760 0.885460 0.377359
O O4 0.845413 0.952145 0.495711
O O5 0.711062 0.806266 0.681486
O O6 0.973075 0.810347 0.230432
O O7 0.673600 0.428006 0.077014
O O8 0.841288 0.383344 0.102227
O O9 0.506909 0.453657 0.798188
O O10 0.770480 0.332245 0.460672
O O11 0.453006 0.273333 0.928326
O O12 0.538432 0.896960 0.388276
O O13 0.593770 0.898159 0.040204
O O14 0.789936 0.278505 0.713208
O O15 0.573872 0.166914 0.970962
#
# Coordination Sequence:
#
# PCOD9245972 Si02
#       8
#     2   4   4   4   4   4   4   4
#     4  10  22  42  70  90 142 190 240 280 360 430
#     4  10  24  43  66 101 143 182 243 287 361 421
#     4   9  21  44  66 100 143 186 235 297 355 438
#     4  10  21  39  66  97 140 186 228 295 363 427
#     4   9  21  40  62 102 140 174 238 296 362 428
#     4  11  26  44  73 104 146 183 246 296 375 428
#     4  11  26  47  68 106 143 195 233 305 352 447
#     4  11  24  42  72 105 140 190 239 307 357 442
#
# _framework density 24.359052999999999
#
# number of rings (size 3 to 8) (size 9 to 14) (size 15 to 20)
#    0.000    1.867    0.000    1.600    9.333    6.933 
#    2.400    1.333    0.000    0.000    0.000    0.000 
#    0.000    0.000    0.000    0.000    0.000    0.000 
#
# Total GULP energy -167290.242763 kJ/mol
# GULP energy per Si atom -5576.341425 kJ/mol
# Density = 2.430361 g / cm^3
# Si number density = 24.359053 Si / 1000 Ang^3
#
#
#
# Elastic Constant Matrix: (Units=GPa)
#
#
# Indices 1 2 3 4 5 6 
#
# 1 84.9230 42.1967 8.4965 0.0000 14.9821 0.0000
# 2 42.1967 60.6738 21.6819 0.0000 24.8891 0.0000
# 3 8.4965 21.6819 87.3621 0.0000 4.0913 0.0000
# 4 0.0000 0.0000 0.0000 33.6097 0.0000 9.9169
# 5 14.9821 24.8891 4.0913 0.0000 24.7392 0.0000
# 6 0.0000 0.0000 0.0000 9.9169 0.0000 38.0802
#
#
#
# Elastic Compliance Matrix: (Units=1/GPa)
#
#
# Indices 1 2 3 4 5 6 
#
# 1 0.018345 -0.014816 0.001729 0.000000 0.003510 0.000000
# 2 -0.014816 0.043143 -0.007714 0.000000 -0.033156 0.000000
# 3 0.001729 -0.007714 0.012979 0.000000 0.004567 0.000000
# 4 0.000000 0.000000 0.000000 0.032230 0.000000 -0.008393
# 5 0.003510 -0.033156 0.004567 0.000000 0.070898 0.000000
# 6 0.000000 0.000000 0.000000 -0.008393 0.000000 0.028446
#
#
# Mechanical properties :
#
#
# Convention : Reuss Voigt Hill
#
# Bulk Modulus (GPa) = 30.42761 41.96769 36.19765
# Shear Modulus (GPa) = 19.33505 29.99142 24.66324
#
# Velocity S-wave (km/s) = 2.82042 3.51269 3.18541
# Velocity P-wave (km/s) = 4.80882 5.80673 5.33118
#
# Compressibility (1/GPa) = 0.03286489
#
# Stress axis : x y z
#
# Youngs Moduli (GPa) = 54.51107 23.17871 77.04727
#
# Poissons Ratio (x) = 0.34341 -0.13318
# Poissons Ratio (y) = 0.80763 0.59432
# Poissons Ratio (z) = -0.09422 0.17879
#
# Static dielectric constant tensor:
#      x y z
#    x 1.965990 0.000000 -0.040780 
#    y 0.000000 1.964330 0.000000 
#    z -0.040780 0.000000 1.995440 
# 
# From -- ./inp_files/35328.got.cif
#   From: 2010.05.17/outbox.cif.g08.bks.cpg/sg14_18_cif.got.tgz:35328.got - 2010.06.03 17:49:19.
