data_PCOD9245325
_publ_section_title
;
Structure prediction by ZEFSAII (Michael W. Deem and Ramdas Pophale) SiO2 
 PCOD9245325
Probable space group: P 21/C
;
_chemical_formula_sum "Si O2"
_cell_formula_units_Z 28
_cell_length_a 9.142253
_cell_length_b 17.610674
_cell_length_c 7.256054
_cell_angle_alpha 90.000000
_cell_angle_beta 91.491008
_cell_angle_gamma 90.000000
_cell_volume 1167.838132
_symmetry_space_group_name_H-M "P 21/C"
_symmetry_group_IT_number 14
_symmetry_cell_setting 'monoclinic'
loop_
_space_group_symop_operation_xyz
x,y,z
-x,1/2+y,1/2-z
-x,-y,-z
x,1/2-y,1/2+z
loop_
_atom_site_type_symbol
_atom_site_label
_atom_site_fract_x
_atom_site_fract_y
_atom_site_fract_z
Si Si1 0.653233 0.420379 0.392690
Si Si2 0.528992 0.703477 0.498739
Si Si3 0.122788 0.870364 0.831468
Si Si4 0.210706 0.025896 0.816566
Si Si5 0.671267 0.545466 0.089454
Si Si6 0.181047 0.343816 0.607050
Si Si7 0.598196 0.143940 0.382172
O O1 0.516048 0.363369 0.359836
O O2 0.784488 0.366670 0.474236
O O3 0.658558 0.482878 0.561383
O O4 0.687264 0.469249 0.213787
O O5 0.700067 0.715559 0.466476
O O6 0.468799 0.662902 0.318059
O O7 0.443369 0.781144 0.509971
O O8 0.230774 0.860764 0.660254
O O9 0.085870 0.960609 0.815925
O O10 0.980163 0.819714 0.838718
O O11 0.167321 0.097758 0.935068
O O12 0.257488 0.041252 0.609909
O O13 0.750801 0.609869 0.218391
O O14 0.502640 0.573366 0.066278
#
# Coordination Sequence:
#
# PCOD9245325 Si02
#       7
#     4   4   4   4   4   4   4
#     4   8  20  40  58  89 123 160 204 256 310 353
#     4  10  22  41  61  85 123 164 210 256 302 368
#     4   9  20  40  59  88 127 156 199 256 311 368
#     4   9  20  35  63  92 120 160 198 247 310 362
#     4  10  21  37  63  94 121 158 215 256 299 372
#     4  10  21  39  60  88 128 161 194 257 316 362
#     4  10  23  39  63  88 121 165 212 253 308 365
#
# _framework density 23.975926999999999
#
# number of rings (size 3 to 8) (size 9 to 14) (size 15 to 20)
#    0.857    1.714    0.000    0.429    4.000    4.571 
#    0.000    5.714    0.000    0.000    0.000    0.000 
#    0.000    0.000    0.000    0.000    0.000    0.000 
#
# Total GULP energy -156048.003856 kJ/mol
# GULP energy per Si atom -5573.142995 kJ/mol
# Density = 2.392136 g / cm^3
# Si number density = 23.975927 Si / 1000 Ang^3
#
#
#
# Elastic Constant Matrix: (Units=GPa)
#
#
# Indices 1 2 3 4 5 6 
#
# 1 117.3354 11.7563 21.6845 0.0000 -26.0875 0.0000
# 2 11.7563 54.8122 24.9583 0.0000 -13.7886 0.0000
# 3 21.6845 24.9583 137.6628 0.0000 -13.9937 0.0000
# 4 0.0000 0.0000 0.0000 32.6391 0.0000 -13.6158
# 5 -26.0875 -13.7886 -13.9937 0.0000 30.1748 0.0000
# 6 0.0000 0.0000 0.0000 -13.6158 0.0000 17.1791
#
#
#
# Elastic Compliance Matrix: (Units=1/GPa)
#
#
# Indices 1 2 3 4 5 6 
#
# 1 0.010635 0.000353 -0.000827 0.000000 0.008972 0.000000
# 2 0.000353 0.021806 -0.003112 0.000000 0.008826 0.000000
# 3 -0.000827 -0.003112 0.008124 0.000000 0.001631 0.000000
# 4 0.000000 0.000000 0.000000 0.045772 0.000000 0.036278
# 5 0.008972 0.008826 0.001631 0.000000 0.045686 0.000000
# 6 0.000000 0.000000 0.000000 0.036278 0.000000 0.086963
#
#
# Mechanical properties :
#
#
# Convention : Reuss Voigt Hill
#
# Bulk Modulus (GPa) = 29.94699 47.40097 38.67398
# Shear Modulus (GPa) = 21.07137 32.75937 26.91537
#
# Velocity S-wave (km/s) = 2.96777 3.70042 3.35416
# Velocity P-wave (km/s) = 4.92555 6.17014 5.58264
#
# Compressibility (1/GPa) = 0.03339234
#
# Stress axis : x y z
#
# Youngs Moduli (GPa) = 94.03051 45.85963 123.08703
#
# Poissons Ratio (x) = -0.01617 0.10181
# Poissons Ratio (y) = -0.03316 0.38301
# Poissons Ratio (z) = 0.07777 0.14270
#
# Static dielectric constant tensor:
#      x y z
#    x 2.077570 0.000000 -0.059690 
#    y 0.000000 1.866600 0.000000 
#    z -0.059690 0.000000 2.023020 
# 
# From -- ./inp_files/25773.got.cif
#   From: 2010.05.17/outbox.cif.g08.bks.cpg/sg14_13_cif.got.tgz:25773.got - 2010.06.03 17:49:19.
