data_PCOD9245190
_publ_section_title
;
Structure prediction by ZEFSAII (Michael W. Deem and Ramdas Pophale) SiO2 
 PCOD9245190
Probable space group: P 21/C
;
_chemical_formula_sum "Si O2"
_cell_formula_units_Z 32
_cell_length_a 26.000818
_cell_length_b 4.811573
_cell_length_c 10.503701
_cell_angle_alpha 90.000000
_cell_angle_beta 120.173337
_cell_angle_gamma 90.000000
_cell_volume 1136.019682
_symmetry_space_group_name_H-M "P 21/C"
_symmetry_group_IT_number 14
_symmetry_cell_setting 'monoclinic'
loop_
_space_group_symop_operation_xyz
x,y,z
-x,1/2+y,1/2-z
-x,-y,-z
x,1/2-y,1/2+z
loop_
_atom_site_type_symbol
_atom_site_label
_atom_site_fract_x
_atom_site_fract_y
_atom_site_fract_z
Si Si1 0.989450 0.900923 0.310239
Si Si2 0.631964 0.288650 0.921065
Si Si3 0.487153 0.838774 0.142889
Si Si4 0.162470 0.146199 0.734843
Si Si5 0.750684 0.128772 0.987592
Si Si6 0.087549 0.708976 0.617022
Si Si7 0.275999 0.361679 0.222519
Si Si8 0.606333 0.787674 0.708398
O O1 0.028354 0.718213 0.456907
O O2 0.970240 0.653695 0.193040
O O3 0.815661 0.062722 0.123998
O O4 0.581589 0.241612 0.964460
O O5 0.701255 0.219970 0.031695
O O6 0.614847 0.088198 0.780549
O O7 0.623144 0.586004 0.847393
O O8 0.493852 0.137181 0.215579
O O9 0.537013 0.778608 0.098378
O O10 0.226349 0.235085 0.760146
O O11 0.118919 0.415905 0.686743
O O12 0.064114 0.914223 0.701085
O O13 0.733522 0.834144 0.910923
O O14 0.740436 0.341481 0.859004
O O15 0.133512 0.917063 0.605490
O O16 0.344865 0.289731 0.337460
#
# Coordination Sequence:
#
# PCOD9245190 Si02
#       8
#     4   4   4   4   4   4   4   4
#     4  11  24  47  76 102 136 173 204 255 314 360
#     4   8  14  25  43  69 102 144 197 254 312 374
#     4   8  12  20  38  65  96 135 190 254 314 367
#     4  12  24  41  64  93 134 170 208 264 307 366
#     4  10  21  37  57  84 121 166 213 259 317 380
#     4  11  26  44  68 106 134 165 218 252 299 379
#     4  10  21  37  57  84 121 166 213 259 317 380
#     4   8  14  25  43  69 102 144 197 254 312 374
#
# _framework density 28.168526
#
# number of rings (size 3 to 8) (size 9 to 14) (size 15 to 20)
#    0.000    2.250    0.000    3.000    0.000    6.000 
#    0.000    0.000    0.000    0.750    0.000    0.000 
#    0.000   32.000    0.000    0.000    0.000    4.250 
#
# Total GULP energy -178753.641828 kJ/mol
# GULP energy per Si atom -5586.051307 kJ/mol
# Density = 2.810441 g / cm^3
# Si number density = 28.168526 Si / 1000 Ang^3
#
#
#
# Elastic Constant Matrix: (Units=GPa)
#
#
# Indices 1 2 3 4 5 6 
#
# 1 143.4469 36.6505 34.2249 0.0000 15.4589 0.0000
# 2 36.6505 172.7596 53.8992 0.0000 4.0401 0.0000
# 3 34.2249 53.8992 94.7565 0.0000 22.0344 0.0000
# 4 0.0000 0.0000 0.0000 39.5189 0.0000 14.8965
# 5 15.4589 4.0401 22.0344 0.0000 38.3145 0.0000
# 6 0.0000 0.0000 0.0000 14.8965 0.0000 52.1394
#
#
#
# Elastic Compliance Matrix: (Units=1/GPa)
#
#
# Indices 1 2 3 4 5 6 
#
# 1 0.007888 -0.001077 -0.001758 0.000000 -0.002058 0.000000
# 2 -0.001077 0.007294 -0.004250 0.000000 0.002110 0.000000
# 3 -0.001758 -0.004250 0.015396 0.000000 -0.007697 0.000000
# 4 0.000000 0.000000 0.000000 0.028358 0.000000 -0.008102
# 5 -0.002058 0.002110 -0.007697 0.000000 0.031134 0.000000
# 6 0.000000 0.000000 0.000000 -0.008102 0.000000 0.021494
#
#
# Mechanical properties :
#
#
# Convention : Reuss Voigt Hill
#
# Bulk Modulus (GPa) = 60.95033 73.39023 67.17028
# Shear Modulus (GPa) = 38.10912 45.07379 41.59145
#
# Velocity S-wave (km/s) = 3.68217 4.00452 3.84672
# Velocity P-wave (km/s) = 6.30575 6.89146 6.60510
#
# Compressibility (1/GPa) = 0.01640680
#
# Stress axis : x y z
#
# Youngs Moduli (GPa) = 126.78270 137.10722 64.95314
#
# Poissons Ratio (x) = 0.14763 0.11418
# Poissons Ratio (y) = 0.13651 0.27608
# Poissons Ratio (z) = 0.22286 0.58276
#
# Static dielectric constant tensor:
#      x y z
#    x 2.560990 0.000000 0.119990 
#    y 0.000000 2.102930 0.000000 
#    z 0.119990 0.000000 2.281390 
# 
# From -- ./inp_files/50902.got.cif
#   From: 2010.05.17/outbox.cif.g08.bks.cpg/sg14_26_cif.got.tgz:50902.got - 2010.06.03 17:49:19.
