data_PCOD9245542
_publ_section_title
;
Structure prediction by ZEFSAII (Michael W. Deem and Ramdas Pophale) SiO2 
 PCOD9245542
Probable space group: P 21/C
;
_chemical_formula_sum "Si O2"
_cell_formula_units_Z 26
_cell_length_a 11.709743
_cell_length_b 17.937893
_cell_length_c 8.131434
_cell_angle_alpha 90.000000
_cell_angle_beta 37.197282
_cell_angle_gamma 90.000000
_cell_volume 1032.586154
_symmetry_space_group_name_H-M "P 21/C"
_symmetry_group_IT_number 14
_symmetry_cell_setting 'monoclinic'
loop_
_space_group_symop_operation_xyz
x,y,z
-x,1/2+y,1/2-z
-x,-y,-z
x,1/2-y,1/2+z
loop_
_atom_site_type_symbol
_atom_site_label
_atom_site_fract_x
_atom_site_fract_y
_atom_site_fract_z
Si Si1 0.751287 0.639866 0.601269
Si Si2 0.884635 0.115078 0.492554
Si Si3 0.353029 0.206666 0.435115
Si Si4 0.927279 0.611637 0.885607
Si Si5 0.239599 0.784863 0.874757
Si Si6 0.644697 0.415096 0.994758
Si Si7 0.000000 0.000000 0.000000
O O1 0.957637 0.606285 0.334915
O O2 0.718102 0.710515 0.521288
O O3 0.742228 0.674033 0.792195
O O4 0.578162 0.584613 0.771992
O O5 0.991067 0.087936 0.531995
O O6 0.823607 0.200881 0.588752
O O7 0.701071 0.079085 0.621779
O O8 0.280246 0.150319 0.377286
O O9 0.573383 0.209340 0.226471
O O10 0.066360 0.677255 0.665775
O O11 0.945234 0.548882 0.728734
O O12 0.291710 0.833878 0.653659
O O13 0.775840 0.471449 0.746260
#
# Coordination Sequence:
#
# PCOD9245542 Si02
#       7
#     4   4   4   4   4   4   2
#     4  11  22  36  62  98 133 162 213 274 337 396
#     4  12  22  37  65 100 134 163 221 283 339 391
#     4  11  22  37  60  95 133 166 208 269 338 390
#     4  11  24  40  67  95 132 183 217 272 326 401
#     4  10  21  38  62  96 132 168 211 274 347 392
#     4  10  23  42  63  93 134 177 221 273 322 401
#     4  10  24  50  66  88 138 190 236 260 326 400
#
# _framework density 25.179496
#
# number of rings (size 3 to 8) (size 9 to 14) (size 15 to 20)
#    0.000    1.231    3.077    3.692    2.154    1.846 
#    0.000   13.077    0.000    0.000    0.000    0.000 
#    0.000    0.000    0.000    0.000    0.000    0.000 
#
# Total GULP energy -145149.496659 kJ/mol
# GULP energy per Si atom -5582.672948 kJ/mol
# Density = 2.512219 g / cm^3
# Si number density = 25.179496 Si / 1000 Ang^3
#
#
#
# Elastic Constant Matrix: (Units=GPa)
#
#
# Indices 1 2 3 4 5 6 
#
# 1 147.9048 55.3603 45.3264 0.0000 -26.1871 0.0000
# 2 55.3603 90.3128 21.2370 0.0000 -22.6386 0.0000
# 3 45.3264 21.2370 71.1754 0.0000 -17.6534 0.0000
# 4 0.0000 0.0000 0.0000 32.2972 0.0000 -7.8638
# 5 -26.1871 -22.6386 -17.6534 0.0000 42.2499 0.0000
# 6 0.0000 0.0000 0.0000 -7.8638 0.0000 42.3359
#
#
#
# Elastic Compliance Matrix: (Units=1/GPa)
#
#
# Indices 1 2 3 4 5 6 
#
# 1 0.010305 -0.004742 -0.004678 0.000000 0.001891 0.000000
# 2 -0.004742 0.015339 -0.000276 0.000000 0.005164 0.000000
# 3 -0.004678 -0.000276 0.018246 0.000000 0.004577 0.000000
# 4 0.000000 0.000000 0.000000 0.032429 0.000000 0.006024
# 5 0.001891 0.005164 0.004577 0.000000 0.029520 0.000000
# 6 0.000000 0.000000 0.000000 0.006024 0.000000 0.024739
#
#
# Mechanical properties :
#
#
# Convention : Reuss Voigt Hill
#
# Bulk Modulus (GPa) = 40.82089 61.47116 51.14602
# Shear Modulus (GPa) = 31.61800 35.87456 33.74628
#
# Velocity S-wave (km/s) = 3.54744 3.77868 3.66488
# Velocity P-wave (km/s) = 5.74684 6.59577 6.18588
#
# Compressibility (1/GPa) = 0.02449726
#
# Stress axis : x y z
#
# Youngs Moduli (GPa) = 97.04301 65.19282 54.80537
#
# Poissons Ratio (x) = 0.30918 0.25639
# Poissons Ratio (y) = 0.46023 0.01511
# Poissons Ratio (z) = 0.45399 0.01798
#
# Static dielectric constant tensor:
#      x y z
#    x 5.141130 0.000000 0.756830 
#    y 0.000000 2.340870 0.000000 
#    z 0.756830 0.000000 2.122230 
# 
# From -- ./inp_files/14237.got.cif
#   From: 2010.05.17/outbox.cif.g08.bks.cpg/sg14_8_cif.got.tgz:14237.got - 2010.06.03 17:49:19.
