data_PCOD9245571
_publ_section_title
;
Structure prediction by ZEFSAII (Michael W. Deem and Ramdas Pophale) SiO2 
 PCOD9245571
Probable space group: P 21/C
;
_chemical_formula_sum "Si O2"
_cell_formula_units_Z 20
_cell_length_a 7.224098
_cell_length_b 9.406412
_cell_length_c 22.166681
_cell_angle_alpha 90.000000
_cell_angle_beta 140.392955
_cell_angle_gamma 90.000000
_cell_volume 960.287428
_symmetry_space_group_name_H-M "P 21/C"
_symmetry_group_IT_number 14
_symmetry_cell_setting 'monoclinic'
loop_
_space_group_symop_operation_xyz
x,y,z
-x,1/2+y,1/2-z
-x,-y,-z
x,1/2-y,1/2+z
loop_
_atom_site_type_symbol
_atom_site_label
_atom_site_fract_x
_atom_site_fract_y
_atom_site_fract_z
Si Si1 0.104741 0.341953 0.013187
Si Si2 0.259086 0.768790 0.309037
Si Si3 0.681147 0.934558 0.182506
Si Si4 0.123148 0.904540 0.974622
Si Si5 0.206130 0.862229 0.159678
O O1 0.446880 0.327180 0.087013
O O2 0.030523 0.245181 0.053467
O O3 0.000000 0.500000 0.000000
O O4 0.934302 0.264585 0.915647
O O5 0.251268 0.599217 0.311124
O O6 0.276664 0.809987 0.243273
O O7 0.967185 0.841089 0.259148
O O8 0.489472 0.914712 0.194720
O O9 0.463026 0.888452 0.073272
O O10 0.016000 0.002899 0.893613
O O11 0.000000 0.000000 0.000000
#
# Coordination Sequence:
#
# PCOD9245571 Si02
#       5
#     4   4   4   4   4
#     4  10  21  38  63  95 125 158 210 264 298 366
#     4  12  24  40  66  93 128 160 211 258 310 370
#     4  10  23  41  60  95 123 158 212 261 299 371
#     4   8  16  42  60  77 124 165 199 243 306 365
#     4  10  22  44  66  82 125 179 201 241 326 372
#
# _framework density 20.827097999999999
#
# number of rings (size 3 to 8) (size 9 to 14) (size 15 to 20)
#    0.000    2.400    6.000    0.000    8.400    0.800 
#    0.000    3.000    0.000    0.000    0.000    0.000 
#    0.000    0.000    0.000    0.000    0.000    0.000 
#
# Total GULP energy -111648.151013 kJ/mol
# GULP energy per Si atom -5582.407551 kJ/mol
# Density = 2.077969 g / cm^3
# Si number density = 20.827098 Si / 1000 Ang^3
#
#
#
# Elastic Constant Matrix: (Units=GPa)
#
#
# Indices 1 2 3 4 5 6 
#
# 1 44.2728 -5.3175 7.2290 0.0000 10.6366 0.0000
# 2 -5.3175 69.6246 7.8185 0.0000 -0.1898 0.0000
# 3 7.2290 7.8185 39.5615 0.0000 19.1365 0.0000
# 4 0.0000 0.0000 0.0000 -41.1328 0.0000 9.5844
# 5 10.6366 -0.1898 19.1365 0.0000 32.8210 0.0000
# 6 0.0000 0.0000 0.0000 9.5844 0.0000 24.9132
#
#
#
# Elastic Compliance Matrix: (Units=1/GPa)
#
#
# Indices 1 2 3 4 5 6 
#
# 1 0.024794 0.002039 -0.001466 0.000000 -0.007169 0.000000
# 2 0.002039 0.015002 -0.004262 0.000000 0.001911 0.000000
# 3 -0.001466 -0.004262 0.036449 0.000000 -0.020802 0.000000
# 4 0.000000 0.000000 0.000000 -0.022311 0.000000 0.008583
# 5 -0.007169 0.001911 -0.020802 0.000000 0.044931 0.000000
# 6 0.000000 0.000000 0.000000 0.008583 0.000000 0.036837
#
#
# Mechanical properties :
#
#
# Convention : Reuss Voigt Hill
#
# Bulk Modulus (GPa) = 14.52066 19.21320 16.86693
# Shear Modulus (GPa) = 30.11407 12.90222 21.50815
#
# Velocity S-wave (km/s) = 3.80664 2.49166 3.21705
# Velocity P-wave (km/s) = 5.12911 4.18604 4.68138
#
# Compressibility (1/GPa) = 0.06886740
#
# Stress axis : x y z
#
# Youngs Moduli (GPa) = 40.33278 66.65685 27.43546
#
# Poissons Ratio (x) = -0.13589 0.04022
# Poissons Ratio (y) = -0.08223 0.11692
# Poissons Ratio (z) = 0.05912 0.28407
#
# Static dielectric constant tensor:
#      x y z
#    x 1.783400 0.000000 -0.012550 
#    y 0.000000 1.732180 0.000000 
#    z -0.012550 0.000000 1.798880 
# 
# From -- ./inp_files/54351.got.cif
#   From: 2010.05.17/outbox.cif.g08.bks.cpg/sg14_28_cif.got.tgz:54351.got - 2010.06.03 17:49:19.
