data_PCOD9245400
_publ_section_title
;
Structure prediction by ZEFSAII (Michael W. Deem and Ramdas Pophale) SiO2 
 PCOD9245400
Probable space group: P 21/C
;
_chemical_formula_sum "Si O2"
_cell_formula_units_Z 32
_cell_length_a 8.634081
_cell_length_b 26.827105
_cell_length_c 9.621367
_cell_angle_alpha 90.000000
_cell_angle_beta 55.771733
_cell_angle_gamma 90.000000
_cell_volume 1842.590556
_symmetry_space_group_name_H-M "P 21/C"
_symmetry_group_IT_number 14
_symmetry_cell_setting 'monoclinic'
loop_
_space_group_symop_operation_xyz
x,y,z
-x,1/2+y,1/2-z
-x,-y,-z
x,1/2-y,1/2+z
loop_
_atom_site_type_symbol
_atom_site_label
_atom_site_fract_x
_atom_site_fract_y
_atom_site_fract_z
Si Si1 0.748337 0.877287 0.326349
Si Si2 0.741678 0.867599 0.661622
Si Si3 0.034163 0.967511 0.119181
Si Si4 0.997739 0.958727 0.616334
Si Si5 0.310583 0.887492 0.551582
Si Si6 0.688525 0.387520 0.621761
Si Si7 0.994435 0.302578 0.467750
Si Si8 0.986217 0.298842 0.803683
O O1 0.764982 0.862706 0.482078
O O2 0.528428 0.883653 0.404571
O O3 0.865967 0.928262 0.238965
O O4 0.836085 0.834153 0.185700
O O5 0.523566 0.873919 0.804797
O O6 0.846633 0.917468 0.654854
O O7 0.841784 0.824926 0.701392
O O8 0.216444 0.932541 0.009736
O O9 0.052148 0.010184 0.223357
O O10 0.000000 0.000000 0.000000
O O11 0.194979 0.930148 0.531700
O O12 0.000000 0.000000 0.500000
O O13 0.302516 0.900655 0.719210
O O14 0.192554 0.836214 0.591937
O O15 0.817449 0.339075 0.540162
O O16 0.021419 0.293133 0.619784
O O17 0.958989 0.253076 0.396576
#
# Coordination Sequence:
#
# PCOD9245400 Si02
#       8
#     4   4   4   4   4   4   4   4
#     4  10  21  38  59  84 110 151 188 231 276 333
#     4  10  21  38  58  83 117 143 188 234 278 325
#     4  11  21  36  59  80 116 153 191 227 276 330
#     4  11  21  36  55  86 114 151 189 233 274 327
#     4   9  20  38  59  81 113 146 190 228 278 329
#     4   9  20  38  58  83 110 150 186 231 273 334
#     4  10  21  39  61  83 112 145 185 222 286 332
#     4  10  21  39  61  84 112 146 178 233 277 338
#
# _framework density 17.366852999999999
#
# number of rings (size 3 to 8) (size 9 to 14) (size 15 to 20)
#    0.000    2.000    2.500    0.750    1.750    3.000 
#    2.250    2.500    0.000    0.000    0.000    0.000 
#    0.000    0.000    0.000    0.000    0.000    0.000 
#
# Total GULP energy -178419.305983 kJ/mol
# GULP energy per Si atom -5575.603312 kJ/mol
# Density = 1.732733 g / cm^3
# Si number density = 17.366853 Si / 1000 Ang^3
#
#
#
# Elastic Constant Matrix: (Units=GPa)
#
#
# Indices 1 2 3 4 5 6 
#
# 1 99.7295 17.8357 45.2882 0.0000 -7.1788 0.0000
# 2 17.8357 57.1378 25.7750 0.0000 10.8864 0.0000
# 3 45.2882 25.7750 93.4131 0.0000 1.5406 0.0000
# 4 0.0000 0.0000 0.0000 28.2705 0.0000 16.5873
# 5 -7.1788 10.8864 1.5406 0.0000 38.1992 0.0000
# 6 0.0000 0.0000 0.0000 16.5873 0.0000 14.1999
#
#
#
# Elastic Compliance Matrix: (Units=1/GPa)
#
#
# Indices 1 2 3 4 5 6 
#
# 1 0.013346 -0.002126 -0.005939 0.000000 0.003353 0.000000
# 2 -0.002126 0.021543 -0.004809 0.000000 -0.006345 0.000000
# 3 -0.005939 -0.004809 0.014917 0.000000 -0.000347 0.000000
# 4 0.000000 0.000000 0.000000 0.112432 0.000000 -0.131335
# 5 0.003353 -0.006345 -0.000347 0.000000 0.028631 0.000000
# 6 0.000000 0.000000 0.000000 -0.131335 0.000000 0.223840
#
#
# Mechanical properties :
#
#
# Convention : Reuss Voigt Hill
#
# Bulk Modulus (GPa) = 41.56518 47.56424 44.56471
# Shear Modulus (GPa) = 11.14886 26.89269 19.02078
#
# Velocity S-wave (km/s) = 2.53645 3.93938 3.31302
# Velocity P-wave (km/s) = 5.70646 6.93823 6.35227
#
# Compressibility (1/GPa) = 0.02405860
#
# Stress axis : x y z
#
# Youngs Moduli (GPa) = 74.93108 46.41781 67.03713
#
# Poissons Ratio (x) = 0.09867 0.39813
# Poissons Ratio (y) = 0.15928 0.32239
# Poissons Ratio (z) = 0.44501 0.22323
#
# Static dielectric constant tensor:
#      x y z
#    x 1.559730 0.000000 -0.021310 
#    y 0.000000 1.546620 0.000000 
#    z -0.021310 0.000000 1.563240 
# 
# From -- ./inp_files/11053.got.cif
#   From: 2010.05.17/outbox.cif.g08.bks.cpg/sg14_6_cif.got.tgz:11053.got - 2010.06.03 17:49:19.
