data_PCOD9245559
_publ_section_title
;
Structure prediction by ZEFSAII (Michael W. Deem and Ramdas Pophale) SiO2 
 PCOD9245559
Probable space group: P 21/C
;
_chemical_formula_sum "Si O2"
_cell_formula_units_Z 26
_cell_length_a 24.214513
_cell_length_b 7.418910
_cell_length_c 18.303536
_cell_angle_alpha 90.000000
_cell_angle_beta 161.433099
_cell_angle_gamma 90.000000
_cell_volume 1046.983688
_symmetry_space_group_name_H-M "P 21/C"
_symmetry_group_IT_number 14
_symmetry_cell_setting 'monoclinic'
loop_
_space_group_symop_operation_xyz
x,y,z
-x,1/2+y,1/2-z
-x,-y,-z
x,1/2-y,1/2+z
loop_
_atom_site_type_symbol
_atom_site_label
_atom_site_fract_x
_atom_site_fract_y
_atom_site_fract_z
Si Si1 0.476341 0.384851 0.144525
Si Si2 0.000000 0.000000 0.500000
Si Si3 0.112174 0.230369 0.421119
Si Si4 0.618739 0.777390 0.625733
Si Si5 0.158903 0.014139 0.853748
Si Si6 0.672647 0.133261 0.140581
Si Si7 0.619050 0.520090 0.826303
O O1 0.642178 0.505477 0.372493
O O2 0.345428 0.418615 0.046741
O O3 0.554381 0.183561 0.243371
O O4 0.398192 0.402937 0.965987
O O5 0.871565 0.962244 0.269455
O O6 0.867983 0.166215 0.362544
O O7 0.241213 0.335182 0.638305
O O8 0.075044 0.337917 0.301250
O O9 0.226620 0.062075 0.535617
O O10 0.944046 0.167499 0.253368
O O11 0.430651 0.737885 0.425461
O O12 0.686144 0.578842 0.683815
O O13 0.540666 0.136520 0.907045
#
# Coordination Sequence:
#
# PCOD9245559 Si02
#       7
#     4   2   4   4   4   4   4
#     4  11  22  40  64  97 123 166 209 266 314 383
#     4  12  22  38  62  92 124 174 214 252 304 412
#     4  11  24  42  62  93 127 167 209 269 318 384
#     4   9  20  38  64  85 129 161 210 253 325 372
#     4  12  26  41  66  94 128 168 217 263 324 372
#     4   9  18  36  59  89 117 173 205 248 297 402
#     4  10  21  38  63  91 127 162 215 256 314 373
#
# _framework density 24.833241999999998
#
# number of rings (size 3 to 8) (size 9 to 14) (size 15 to 20)
#    0.000    1.538    3.077    2.769    4.308    0.615 
#    0.000    1.538    0.000    3.692    0.000    0.000 
#    0.000    0.000    0.000    0.000    0.000    0.000 
#
# Total GULP energy -144932.322429 kJ/mol
# GULP energy per Si atom -5574.320093 kJ/mol
# Density = 2.477672 g / cm^3
# Si number density = 24.833242 Si / 1000 Ang^3
#
#
#
# Elastic Constant Matrix: (Units=GPa)
#
#
# Indices 1 2 3 4 5 6 
#
# 1 112.4417 6.3496 36.5432 0.0000 -28.0524 0.0000
# 2 6.3496 31.9320 5.3155 0.0000 -18.0719 0.0000
# 3 36.5432 5.3155 65.7840 0.0000 -5.7478 0.0000
# 4 0.0000 0.0000 0.0000 20.6921 0.0000 -2.5315
# 5 -28.0524 -18.0719 -5.7478 0.0000 37.8053 0.0000
# 6 0.0000 0.0000 0.0000 -2.5315 0.0000 29.2362
#
#
#
# Elastic Compliance Matrix: (Units=1/GPa)
#
#
# Indices 1 2 3 4 5 6 
#
# 1 0.013778 0.004953 -0.007048 0.000000 0.011520 0.000000
# 2 0.004953 0.044900 -0.004239 0.000000 0.024494 0.000000
# 3 -0.007048 -0.004239 0.019078 0.000000 -0.004355 0.000000
# 4 0.000000 0.000000 0.000000 0.048845 0.000000 0.004229
# 5 0.011520 0.024494 -0.004355 0.000000 0.046046 0.000000
# 6 0.000000 0.000000 0.000000 0.004229 0.000000 0.034570
#
#
# Mechanical properties :
#
#
# Convention : Reuss Voigt Hill
#
# Bulk Modulus (GPa) = 15.36369 34.06381 24.71375
# Shear Modulus (GPa) = 20.69698 28.34335 24.52016
#
# Velocity S-wave (km/s) = 2.89007 3.38205 3.14569
# Velocity P-wave (km/s) = 4.16375 5.38496 4.81324
#
# Compressibility (1/GPa) = 0.06508851
#
# Stress axis : x y z
#
# Youngs Moduli (GPa) = 72.57784 22.27195 52.41582
#
# Poissons Ratio (x) = -0.11032 0.36940
# Poissons Ratio (y) = -0.35949 0.22221
# Poissons Ratio (z) = 0.51150 0.09442
#
# Static dielectric constant tensor:
#      x y z
#    x 2.019980 0.000000 0.062110 
#    y 0.000000 2.028470 0.000000 
#    z 0.062110 0.000000 1.986300 
# 
# From -- ./inp_files/61841.got.cif
#   From: 2010.05.17/outbox.cif.g08.bks.cpg/sg14_31_cif.got.tgz:61841.got - 2010.06.03 17:49:19.
