data_PCOD9245469
_publ_section_title
;
Structure prediction by ZEFSAII (Michael W. Deem and Ramdas Pophale) SiO2 
 PCOD9245469
Probable space group: P 21/C
;
_chemical_formula_sum "Si O2"
_cell_formula_units_Z 28
_cell_length_a 10.079747
_cell_length_b 5.241420
_cell_length_c 31.983284
_cell_angle_alpha 90.000000
_cell_angle_beta 129.073435
_cell_angle_gamma 90.000000
_cell_volume 1311.815937
_symmetry_space_group_name_H-M "P 21/C"
_symmetry_group_IT_number 14
_symmetry_cell_setting 'monoclinic'
loop_
_space_group_symop_operation_xyz
x,y,z
-x,1/2+y,1/2-z
-x,-y,-z
x,1/2-y,1/2+z
loop_
_atom_site_type_symbol
_atom_site_label
_atom_site_fract_x
_atom_site_fract_y
_atom_site_fract_z
Si Si1 0.768585 0.384226 0.699967
Si Si2 0.904732 0.509096 0.063348
Si Si3 0.601413 0.471522 0.373576
Si Si4 0.892889 0.971521 0.873575
Si Si5 0.728248 0.500001 0.114124
Si Si6 0.968716 0.384227 0.300033
Si Si7 0.651341 0.990906 0.436652
O O1 0.603137 0.562582 0.670174
O O2 0.796957 0.250000 0.750000
O O3 0.952896 0.499998 0.726447
O O4 0.743314 0.210981 0.653586
O O5 0.033289 0.271589 0.087408
O O6 0.778187 0.433227 0.076640
O O7 0.003822 0.771309 0.093620
O O8 0.797194 0.538858 0.000000
O O9 0.683659 0.228413 0.412593
O O10 0.697695 0.500000 0.348848
O O11 0.629344 0.728693 0.406380
O O12 0.922437 0.937419 0.829825
O O13 0.528373 0.566775 0.076640
O O14 0.871031 0.710982 0.153586
#
# Coordination Sequence:
#
# PCOD9245469 Si02
#       7
#     4   4   4   4   4   4   4
#     4  11  21  40  66  93 121 166 212 261 319 380
#     4  11  23  40  66  94 129 172 214 260 315 375
#     4  11  25  43  63  95 134 167 210 264 315 377
#     4  11  25  43  63  95 134 167 210 264 315 377
#     4  10  21  38  60  96 130 156 213 268 316 366
#     4  11  21  40  66  93 121 166 212 261 319 380
#     4  11  23  40  66  94 129 172 214 260 315 375
#
# _framework density 21.344456999999998
#
# number of rings (size 3 to 8) (size 9 to 14) (size 15 to 20)
#    0.000    1.143    4.286    2.143    0.000    3.429 
#    0.000   11.429    0.000    0.000    0.000    0.000 
#    0.000    0.000    0.000    0.000    0.000    0.000 
#
# Total GULP energy -156212.639982 kJ/mol
# GULP energy per Si atom -5579.022857 kJ/mol
# Density = 2.129588 g / cm^3
# Si number density = 21.344457 Si / 1000 Ang^3
#
#
#
# Elastic Constant Matrix: (Units=GPa)
#
#
# Indices 1 2 3 4 5 6 
#
# 1 74.0086 -12.4559 10.0020 0.0000 -3.6268 0.0000
# 2 -12.4559 78.9772 8.9017 0.0000 1.3354 0.0000
# 3 10.0020 8.9017 69.7182 0.0000 3.3566 0.0000
# 4 0.0000 0.0000 0.0000 26.0631 0.0000 1.0185
# 5 -3.6268 1.3354 3.3566 0.0000 3.4580 0.0000
# 6 0.0000 0.0000 0.0000 1.0185 0.0000 9.7822
#
#
#
# Elastic Compliance Matrix: (Units=1/GPa)
#
#
# Indices 1 2 3 4 5 6 
#
# 1 0.015289 0.002483 -0.003395 0.000000 0.018372 0.000000
# 2 0.002483 0.013291 -0.002026 0.000000 -0.000561 0.000000
# 3 -0.003395 -0.002026 0.015969 0.000000 -0.018280 0.000000
# 4 0.000000 0.000000 0.000000 0.038525 0.000000 -0.004011
# 5 0.018372 -0.000561 -0.018280 0.000000 0.326416 0.000000
# 6 0.000000 0.000000 0.000000 -0.004011 0.000000 0.102644
#
#
# Mechanical properties :
#
#
# Convention : Reuss Voigt Hill
#
# Bulk Modulus (GPa) = 25.85732 26.17775 26.01754
# Shear Modulus (GPa) = 9.41791 22.27772 15.84782
#
# Velocity S-wave (km/s) = 2.10284 3.23418 2.72780
# Velocity P-wave (km/s) = 4.24694 5.12226 4.70500
#
# Compressibility (1/GPa) = 0.03867376
#
# Stress axis : x y z
#
# Youngs Moduli (GPa) = 65.40620 75.23652 62.61999
#
# Poissons Ratio (x) = -0.18684 0.21260
# Poissons Ratio (y) = -0.16243 0.12689
# Poissons Ratio (z) = 0.22206 0.15245
#
# Static dielectric constant tensor:
#      x y z
#    x 1.803490 0.000000 -0.005010 
#    y 0.000000 1.951400 0.000000 
#    z -0.005010 0.000000 1.723370 
# 
# From -- ./inp_files/79076.got.cif
#   From: 2010.05.17/outbox.cif.g08.bks.cpg/sg14_40_cif.got.tgz:79076.got - 2010.06.03 17:49:19.
