data_PCOD9245920
_publ_section_title
;
Structure prediction by ZEFSAII (Michael W. Deem and Ramdas Pophale) SiO2 
 PCOD9245920
Probable space group: P 21/C
;
_chemical_formula_sum "Si O2"
_cell_formula_units_Z 20
_cell_length_a 7.549801
_cell_length_b 14.935012
_cell_length_c 13.036912
_cell_angle_alpha 90.000000
_cell_angle_beta 145.971987
_cell_angle_gamma 90.000000
_cell_volume 822.606429
_symmetry_space_group_name_H-M "P 21/C"
_symmetry_group_IT_number 14
_symmetry_cell_setting 'monoclinic'
loop_
_space_group_symop_operation_xyz
x,y,z
-x,1/2+y,1/2-z
-x,-y,-z
x,1/2-y,1/2+z
loop_
_atom_site_type_symbol
_atom_site_label
_atom_site_fract_x
_atom_site_fract_y
_atom_site_fract_z
Si Si1 0.521080 0.199891 0.335375
Si Si2 0.496977 0.103575 0.875928
Si Si3 0.609013 0.390808 0.091463
Si Si4 0.032064 0.544154 0.223985
Si Si5 0.055334 0.672791 0.566780
O O1 0.381950 0.293542 0.315544
O O2 0.580564 0.138513 0.460411
O O3 0.831778 0.234019 0.427931
O O4 0.296915 0.159134 0.140577
O O5 0.235597 0.026081 0.755006
O O6 0.724325 0.099616 0.885656
O O7 0.719663 0.094329 0.083660
O O8 0.835356 0.326197 0.264611
O O9 0.809666 0.482130 0.189933
O O10 0.248951 0.397407 0.961352
#
# Coordination Sequence:
#
# PCOD9245920 Si02
#       5
#     4   4   4   4   4
#     4  10  21  42  58  91 124 157 209 263 286 377
#     4   9  21  41  61  89 126 159 202 254 305 365
#     4  11  22  40  67  90 124 165 204 253 313 363
#     4  10  21  39  65  92 125 165 197 257 314 360
#     4  10  23  38  64  87 119 165 208 246 314 358
#
# _framework density 24.312964000000001
#
# number of rings (size 3 to 8) (size 9 to 14) (size 15 to 20)
#    1.200    0.800    2.000    1.200    0.000    6.400 
#    0.000    2.000    0.000    0.000    0.000    0.000 
#    0.000    0.000    0.000    0.000    0.000    0.000 
#
# Total GULP energy -111528.513029 kJ/mol
# GULP energy per Si atom -5576.425651 kJ/mol
# Density = 2.425763 g / cm^3
# Si number density = 24.312964 Si / 1000 Ang^3
#
#
#
# Elastic Constant Matrix: (Units=GPa)
#
#
# Indices 1 2 3 4 5 6 
#
# 1 19.4106 1.8626 8.3859 0.0000 6.7210 0.0000
# 2 1.8626 40.8576 30.7643 0.0000 -0.4795 0.0000
# 3 8.3859 30.7643 175.4942 0.0000 -10.2433 0.0000
# 4 0.0000 0.0000 0.0000 13.2096 0.0000 6.6145
# 5 6.7210 -0.4795 -10.2433 0.0000 18.4727 0.0000
# 6 0.0000 0.0000 0.0000 6.6145 0.0000 20.1282
#
#
#
# Elastic Compliance Matrix: (Units=1/GPa)
#
#
# Indices 1 2 3 4 5 6 
#
# 1 0.062109 0.000243 -0.004474 0.000000 -0.025072 0.000000
# 2 0.000243 0.028275 -0.005096 0.000000 -0.002180 0.000000
# 3 -0.004474 -0.005096 0.007123 0.000000 0.005445 0.000000
# 4 0.000000 0.000000 0.000000 0.090613 0.000000 -0.029777
# 5 -0.025072 -0.002180 0.005445 0.000000 0.066219 0.000000
# 6 0.000000 0.000000 0.000000 -0.029777 0.000000 0.059467
#
#
# Mechanical properties :
#
#
# Convention : Reuss Voigt Hill
#
# Bulk Modulus (GPa) = 12.68155 35.30976 23.99566
# Shear Modulus (GPa) = 13.93756 23.34543 18.64149
#
# Velocity S-wave (km/s) = 2.39687 3.10208 2.77199
# Velocity P-wave (km/s) = 3.58989 5.23308 4.48734
#
# Compressibility (1/GPa) = 0.07885470
#
# Stress axis : x y z
#
# Youngs Moduli (GPa) = 16.10072 35.36650 140.38904
#
# Poissons Ratio (x) = -0.00860 0.62808
# Poissons Ratio (y) = -0.00391 0.71536
# Poissons Ratio (z) = 0.07203 0.18021
#
# Static dielectric constant tensor:
#      x y z
#    x 1.953830 0.000000 0.000460 
#    y 0.000000 2.018750 0.000000 
#    z 0.000460 0.000000 1.966470 
# 
# From -- ./inp_files/41732.got.cif
#   From: 2010.05.17/outbox.cif.g08.bks.cpg/sg14_21_cif.got.tgz:41732.got - 2010.06.03 17:49:19.
