data_PCOD9245313
_publ_section_title
;
Structure prediction by ZEFSAII (Michael W. Deem and Ramdas Pophale) SiO2 
 PCOD9245313
Probable space group: P 21/C
;
_chemical_formula_sum "Si O2"
_cell_formula_units_Z 32
_cell_length_a 5.596983
_cell_length_b 13.552152
_cell_length_c 18.853358
_cell_angle_alpha 90.000000
_cell_angle_beta 74.767715
_cell_angle_gamma 90.000000
_cell_volume 1379.809532
_symmetry_space_group_name_H-M "P 21/C"
_symmetry_group_IT_number 14
_symmetry_cell_setting 'monoclinic'
loop_
_space_group_symop_operation_xyz
x,y,z
-x,1/2+y,1/2-z
-x,-y,-z
x,1/2-y,1/2+z
loop_
_atom_site_type_symbol
_atom_site_label
_atom_site_fract_x
_atom_site_fract_y
_atom_site_fract_z
Si Si1 0.218012 0.140430 0.279682
Si Si2 0.550997 0.459589 0.176698
Si Si3 0.956099 0.597728 0.941862
Si Si4 0.961992 0.750719 0.836383
Si Si5 0.744142 0.403191 0.908177
Si Si6 0.996208 0.301923 0.516022
Si Si7 0.558142 0.190128 0.947468
Si Si8 0.435276 0.685962 0.713797
O O1 0.413477 0.213018 0.300296
O O2 0.186933 0.176747 0.201992
O O3 0.971898 0.143563 0.346630
O O4 0.307802 0.029321 0.277983
O O5 0.767513 0.415894 0.110428
O O6 0.394031 0.531102 0.140049
O O7 0.424446 0.381438 0.238893
O O8 0.822717 0.661455 0.888270
O O9 0.830199 0.490533 0.956410
O O10 0.974317 0.682371 0.999983
O O11 0.171252 0.706086 0.769805
O O12 0.078835 0.806667 0.895300
O O13 0.581071 0.311177 0.947112
O O14 0.277416 0.339873 0.488621
O O15 0.782616 0.341711 0.481649
O O16 0.596132 0.153094 0.864267
#
# Coordination Sequence:
#
# PCOD9245313 Si02
#       8
#     4   4   4   4   4   4   4   4
#     4  11  19  37  64  95 122 165 223 277 316 377
#     4  10  21  37  62  97 124 163 223 268 328 379
#     4   8  21  36  56  88 123 172 209 255 311 402
#     4   9  20  39  62  88 118 176 218 257 311 387
#     4  11  21  36  59  94 130 164 217 263 331 392
#     4  10  26  41  60  95 133 182 211 261 330 404
#     4  12  24  41  61  95 134 171 216 268 336 385
#     4  11  22  39  68  87 131 171 218 277 318 382
#
# _framework density 23.191607000000001
#
# number of rings (size 3 to 8) (size 9 to 14) (size 15 to 20)
#    0.750    1.000    2.500    1.500    5.250    1.000 
#    0.000    0.000    0.000    1.500    0.000    0.000 
#    0.000    0.000    0.000    0.000    0.000    0.000 
#
# Total GULP energy -178542.131505 kJ/mol
# GULP energy per Si atom -5579.441610 kJ/mol
# Density = 2.313882 g / cm^3
# Si number density = 23.191607 Si / 1000 Ang^3
#
#
#
# Elastic Constant Matrix: (Units=GPa)
#
#
# Indices 1 2 3 4 5 6 
#
# 1 59.6838 16.6195 12.0198 0.0000 12.8669 0.0000
# 2 16.6195 3.8216 8.1117 0.0000 -12.3759 0.0000
# 3 12.0198 8.1117 80.8084 0.0000 18.7896 0.0000
# 4 0.0000 0.0000 0.0000 34.0429 0.0000 8.4124
# 5 12.8669 -12.3759 18.7896 0.0000 36.0143 0.0000
# 6 0.0000 0.0000 0.0000 8.4124 0.0000 25.2342
#
#
#
# Elastic Compliance Matrix: (Units=1/GPa)
#
#
# Indices 1 2 3 4 5 6 
#
# 1 0.005845 0.034098 -0.007433 0.000000 0.013507 0.000000
# 2 0.034098 -0.093464 0.016628 0.000000 -0.052975 0.000000
# 3 -0.007433 0.016628 0.011227 0.000000 0.002512 0.000000
# 4 0.000000 0.000000 0.000000 0.032012 0.000000 -0.010672
# 5 0.013507 -0.052975 0.002512 0.000000 0.003426 0.000000
# 6 0.000000 0.000000 0.000000 -0.010672 0.000000 0.043187
#
#
# Mechanical properties :
#
#
# Convention : Reuss Voigt Hill
#
# Bulk Modulus (GPa) = 98.09076 24.20175 61.14626
# Shear Modulus (GPa) = -61.76372 26.22912 -17.76730
#
# Velocity S-wave (km/s) = -5.16621 3.36664 -2.77087
# Velocity P-wave (km/s) = 2.60793 5.05674 4.02318
#
# Compressibility (1/GPa) = 0.01019464
#
# Stress axis : x y z
#
# Youngs Moduli (GPa) = 171.07961 -10.69936 89.06875
#
# Poissons Ratio (x) = 0.36482 0.66204
# Poissons Ratio (y) = -5.83341 -1.48104
# Poissons Ratio (z) = 1.27161 0.17791
#
# Static dielectric constant tensor:
#      x y z
#    x 2.013350 0.000000 0.087210 
#    y 0.000000 1.922120 0.000000 
#    z 0.087210 0.000000 1.899210 
# 
# From -- ./inp_files/63687.got.cif
#   From: 2010.05.17/outbox.cif.g08.bks.cpg/sg14_32_cif.got.tgz:63687.got - 2010.06.03 17:49:19.
