data_PCOD9245076
_publ_section_title
;
Structure prediction by ZEFSAII (Michael W. Deem and Ramdas Pophale) SiO2 
 PCOD9245076
Probable space group: P 21/C
;
_chemical_formula_sum "Si O2"
_cell_formula_units_Z 20
_cell_length_a 13.253044
_cell_length_b 7.795225
_cell_length_c 9.210726
_cell_angle_alpha 90.000000
_cell_angle_beta 101.960552
_cell_angle_gamma 90.000000
_cell_volume 930.906368
_symmetry_space_group_name_H-M "P 21/C"
_symmetry_group_IT_number 14
_symmetry_cell_setting 'monoclinic'
loop_
_space_group_symop_operation_xyz
x,y,z
-x,1/2+y,1/2-z
-x,-y,-z
x,1/2-y,1/2+z
loop_
_atom_site_type_symbol
_atom_site_label
_atom_site_fract_x
_atom_site_fract_y
_atom_site_fract_z
Si Si1 0.662362 0.587359 0.849966
Si Si2 0.791241 0.791048 0.655213
Si Si3 0.878458 0.973542 0.955296
Si Si4 0.322844 0.692383 0.590509
Si Si5 0.450377 0.645388 0.881679
O O1 0.727384 0.666280 0.740103
O O2 0.553904 0.688368 0.823038
O O3 0.716555 0.613612 0.021661
O O4 0.793652 0.123572 0.966508
O O5 0.857754 0.675310 0.566455
O O6 0.852366 0.912492 0.783719
O O7 0.000000 0.000000 0.000000
O O8 0.372690 0.579329 0.733936
O O9 0.393948 0.715165 0.468210
O O10 0.500000 0.000000 0.500000
O O11 0.335048 0.882431 0.661996
#
# Coordination Sequence:
#
# PCOD9245076 Si02
#       5
#     4   4   4   4   4
#     4  10  21  40  63  94 131 167 204 257 321 388
#     4  10  23  41  62  91 129 163 209 268 319 380
#     4  11  25  44  65  91 125 170 220 273 323 368
#     4  11  22  39  63  92 124 169 217 256 310 391
#     4  10  21  36  59  92 126 159 201 256 313 377
#
# _framework density 21.484438000000001
#
# number of rings (size 3 to 8) (size 9 to 14) (size 15 to 20)
#    0.000    1.600    0.000    4.800    0.000    9.600 
#    0.000   14.000    0.000    0.000    0.000    0.000 
#    0.000    0.000    0.000    0.000    0.000    0.000 
#
# Total GULP energy -111527.110228 kJ/mol
# GULP energy per Si atom -5576.355511 kJ/mol
# Density = 2.143554 g / cm^3
# Si number density = 21.484438 Si / 1000 Ang^3
#
#
#
# Elastic Constant Matrix: (Units=GPa)
#
#
# Indices 1 2 3 4 5 6 
#
# 1 164.5521 34.1055 57.8817 0.0000 23.2770 0.0000
# 2 34.1055 65.4402 22.2022 0.0000 -0.4569 0.0000
# 3 57.8817 22.2022 120.7306 0.0000 6.3518 0.0000
# 4 0.0000 0.0000 0.0000 24.6111 0.0000 -5.1952
# 5 23.2770 -0.4569 6.3518 0.0000 16.6536 0.0000
# 6 0.0000 0.0000 0.0000 -5.1952 0.0000 25.3211
#
#
#
# Elastic Compliance Matrix: (Units=1/GPa)
#
#
# Indices 1 2 3 4 5 6 
#
# 1 0.009890 -0.004117 -0.003318 0.000000 -0.012671 0.000000
# 2 -0.004117 0.018055 -0.001710 0.000000 0.006902 0.000000
# 3 -0.003318 -0.001710 0.010150 0.000000 0.000719 0.000000
# 4 0.000000 0.000000 0.000000 0.042472 0.000000 0.008714
# 5 -0.012671 0.006902 0.000719 0.000000 0.077672 0.000000
# 6 0.000000 0.000000 0.000000 0.008714 0.000000 0.041281
#
#
# Mechanical properties :
#
#
# Convention : Reuss Voigt Hill
#
# Bulk Modulus (GPa) = 50.48936 64.34464 57.41700
# Shear Modulus (GPa) = 22.28063 29.08606 25.68335
#
# Velocity S-wave (km/s) = 3.22383 3.68342 3.46126
# Velocity P-wave (km/s) = 6.11628 6.93574 6.53886
#
# Compressibility (1/GPa) = 0.01980615
#
# Stress axis : x y z
#
# Youngs Moduli (GPa) = 101.11434 55.38612 98.52164
#
# Poissons Ratio (x) = 0.22803 0.32686
# Poissons Ratio (y) = 0.41630 0.16843
# Poissons Ratio (z) = 0.33547 0.09469
#
# Static dielectric constant tensor:
#      x y z
#    x 1.884890 0.000000 0.001160 
#    y 0.000000 1.800410 0.000000 
#    z 0.001160 0.000000 1.829650 
# 
# From -- ./inp_files/17392.got.cif
#   From: 2010.05.17/outbox.cif.g08.bks.cpg/sg14_9_cif.got.tgz:17392.got - 2010.06.03 17:49:19.
