data_PCOD9245258
_publ_section_title
;
Structure prediction by ZEFSAII (Michael W. Deem and Ramdas Pophale) SiO2 
 PCOD9245258
Probable space group: P 21/C
;
_chemical_formula_sum "Si O2"
_cell_formula_units_Z 28
_cell_length_a 8.610984
_cell_length_b 26.843864
_cell_length_c 5.515423
_cell_angle_alpha 90.000000
_cell_angle_beta 114.670075
_cell_angle_gamma 90.000000
_cell_volume 1158.536540
_symmetry_space_group_name_H-M "P 21/C"
_symmetry_group_IT_number 14
_symmetry_cell_setting 'monoclinic'
loop_
_space_group_symop_operation_xyz
x,y,z
-x,1/2+y,1/2-z
-x,-y,-z
x,1/2-y,1/2+z
loop_
_atom_site_type_symbol
_atom_site_label
_atom_site_fract_x
_atom_site_fract_y
_atom_site_fract_z
Si Si1 0.891490 0.120658 0.128182
Si Si2 0.935430 0.553167 0.554094
Si Si3 0.528943 0.730528 0.679655
Si Si4 0.120876 0.771116 0.808276
Si Si5 0.633393 0.965664 0.226642
Si Si6 0.267027 0.565084 0.066998
Si Si7 0.542600 0.372333 0.140388
O O1 0.916247 0.171598 0.288853
O O2 0.794387 0.075999 0.203323
O O3 0.737885 0.137865 0.851255
O O4 0.067476 0.095362 0.155709
O O5 0.778590 0.548213 0.630208
O O6 0.000000 0.500000 0.500000
O O7 0.094182 0.574415 0.809339
O O8 0.595127 0.733104 0.442033
O O9 0.325269 0.738997 0.484860
O O10 0.548279 0.677901 0.833639
O O11 0.052088 0.739683 0.534748
O O12 0.547799 0.917951 0.284722
O O13 0.696089 0.007060 0.460304
O O14 0.500000 0.000000 0.000000
O O15 0.418227 0.603534 0.098710
#
# Coordination Sequence:
#
# PCOD9245258 Si02
#       7
#     4   4   4   4   4   4   4
#     4  10  21  37  60  86 121 160 199 254 308 370
#     4  11  23  40  59  86 121 162 204 246 310 378
#     4   9  19  33  56  86 122 157 203 261 317 370
#     4   9  19  32  56  90 121 153 205 260 311 364
#     4  12  22  40  60  87 125 160 208 254 303 373
#     4  11  22  39  59  85 127 160 199 253 313 372
#     4  10  22  35  58  90 117 158 207 255 310 366
#
# _framework density 24.168420000000001
#
# number of rings (size 3 to 8) (size 9 to 14) (size 15 to 20)
#    0.000    1.714    2.857    1.714   12.000    0.000 
#    0.000    0.000    0.000    1.714    0.000    0.000 
#    0.000    0.000    0.000    0.000    0.000    0.000 
#
# Total GULP energy -155880.123188 kJ/mol
# GULP energy per Si atom -5567.147257 kJ/mol
# Density = 2.411341 g / cm^3
# Si number density = 24.168420 Si / 1000 Ang^3
#
#
#
# Elastic Constant Matrix: (Units=GPa)
#
#
# Indices 1 2 3 4 5 6 
#
# 1 39.6045 13.9300 5.8122 0.0000 -8.2784 0.0000
# 2 13.9300 90.9085 4.5081 0.0000 -3.9450 0.0000
# 3 5.8122 4.5081 56.2328 0.0000 -13.2159 0.0000
# 4 0.0000 0.0000 0.0000 25.2936 0.0000 -8.0462
# 5 -8.2784 -3.9450 -13.2159 0.0000 18.8311 0.0000
# 6 0.0000 0.0000 0.0000 -8.0462 0.0000 18.9579
#
#
#
# Elastic Compliance Matrix: (Units=1/GPa)
#
#
# Indices 1 2 3 4 5 6 
#
# 1 0.029144 -0.003948 0.000145 0.000000 0.012086 0.000000
# 2 -0.003948 0.011644 -0.000431 0.000000 0.000401 0.000000
# 3 0.000145 -0.000431 0.021312 0.000000 0.014930 0.000000
# 4 0.000000 0.000000 0.000000 0.045707 0.000000 0.019399
# 5 0.012086 0.000401 0.014930 0.000000 0.068979 0.000000
# 6 0.000000 0.000000 0.000000 0.019399 0.000000 0.060982
#
#
# Mechanical properties :
#
#
# Convention : Reuss Voigt Hill
#
# Bulk Modulus (GPa) = 18.64642 26.13850 22.39246
# Shear Modulus (GPa) = 18.93131 23.44955 21.19043
#
# Velocity S-wave (km/s) = 2.80180 3.11827 2.96426
# Velocity P-wave (km/s) = 4.26600 4.87888 4.58269
#
# Compressibility (1/GPa) = 0.05362961
#
# Stress axis : x y z
#
# Youngs Moduli (GPa) = 34.31292 85.88216 46.92263
#
# Poissons Ratio (x) = 0.33910 -0.00679
# Poissons Ratio (y) = 0.13548 0.02023
# Poissons Ratio (z) = -0.00497 0.03703
#
# Static dielectric constant tensor:
#      x y z
#    x 1.961850 0.000000 0.000820 
#    y 0.000000 2.223570 0.000000 
#    z 0.000820 0.000000 2.593180 
# 
# From -- ./inp_files/1934.got.cif
#   From: 2010.05.17/outbox.cif.g08.bks.cpg/sg14_1_cif.got.tgz:1934.got - 2010.06.03 17:49:19.
