data_PCOD9245111
_publ_section_title
;
Structure prediction by ZEFSAII (Michael W. Deem and Ramdas Pophale) SiO2 
 PCOD9245111
Probable space group: P 21/C
;
_chemical_formula_sum "Si O2"
_cell_formula_units_Z 32
_cell_length_a 9.642500
_cell_length_b 26.888229
_cell_length_c 5.685947
_cell_angle_alpha 90.000000
_cell_angle_beta 85.873551
_cell_angle_gamma 90.000000
_cell_volume 1470.372452
_symmetry_space_group_name_H-M "P 21/C"
_symmetry_group_IT_number 14
_symmetry_cell_setting 'monoclinic'
loop_
_space_group_symop_operation_xyz
x,y,z
-x,1/2+y,1/2-z
-x,-y,-z
x,1/2-y,1/2+z
loop_
_atom_site_type_symbol
_atom_site_label
_atom_site_fract_x
_atom_site_fract_y
_atom_site_fract_z
Si Si1 0.152229 0.111250 0.695326
Si Si2 0.319364 0.963958 0.679868
Si Si3 0.597928 0.560254 0.595470
Si Si4 0.094647 0.559184 0.590751
Si Si5 0.820370 0.964044 0.683014
Si Si6 0.942394 0.723079 0.844012
Si Si7 0.278759 0.776689 0.309325
Si Si8 0.345936 0.610182 0.799280
O O1 0.307561 0.094569 0.742765
O O2 0.110979 0.080782 0.465913
O O3 0.127527 0.169076 0.667388
O O4 0.049779 0.088009 0.905603
O O5 0.387027 0.918357 0.533793
O O6 0.414793 0.004016 0.802844
O O7 0.250106 0.999862 0.497099
O O8 0.193019 0.944845 0.853991
O O9 0.695374 0.555371 0.358379
O O10 0.451087 0.587211 0.594824
O O11 0.081936 0.503103 0.692756
O O12 0.190887 0.592156 0.754214
O O13 0.906867 0.752133 0.603127
O O14 0.110511 0.717782 0.826384
O O15 0.314124 0.748655 0.551715
O O16 0.346848 0.831054 0.310680
#
# Coordination Sequence:
#
# PCOD9245111 Si02
#       8
#     4   4   4   4   4   4   4   4
#     4  11  22  39  61  89 124 171 205 265 326 386
#     4   9  21  37  61  92 128 167 215 261 314 387
#     4  10  23  39  58  90 133 169 210 257 321 396
#     4  10  21  36  61  93 120 165 216 259 313 388
#     4   9  21  38  56  90 132 165 206 257 315 385
#     4  10  23  42  68  96 125 161 221 280 335 388
#     4  10  23  44  67  98 126 161 218 288 334 381
#     4  11  22  39  64  91 121 171 213 268 326 387
#
# _framework density 21.763192
#
# number of rings (size 3 to 8) (size 9 to 14) (size 15 to 20)
#    0.000    2.000    1.250    0.750    3.500   14.000 
#    0.000    1.250    0.000    0.000    0.000    0.000 
#    0.000    0.000    0.000    0.000    0.000    0.000 
#
# Total GULP energy -178796.495746 kJ/mol
# GULP energy per Si atom -5587.390492 kJ/mol
# Density = 2.171366 g / cm^3
# Si number density = 21.763192 Si / 1000 Ang^3
#
#
#
# Elastic Constant Matrix: (Units=GPa)
#
#
# Indices 1 2 3 4 5 6 
#
# 1 80.1581 31.3190 19.6905 0.0000 -2.5137 0.0000
# 2 31.3190 195.8290 78.3900 0.0000 -3.3019 0.0000
# 3 19.6905 78.3900 123.9336 0.0000 9.5814 0.0000
# 4 0.0000 0.0000 0.0000 23.3265 0.0000 -7.2174
# 5 -2.5137 -3.3019 9.5814 0.0000 25.2033 0.0000
# 6 0.0000 0.0000 0.0000 -7.2174 0.0000 27.4481
#
#
#
# Elastic Compliance Matrix: (Units=1/GPa)
#
#
# Indices 1 2 3 4 5 6 
#
# 1 0.013466 -0.001635 -0.001229 0.000000 0.001596 0.000000
# 2 -0.001635 0.007208 -0.004492 0.000000 0.002489 0.000000
# 3 -0.001229 -0.004492 0.011498 0.000000 -0.005082 0.000000
# 4 0.000000 0.000000 0.000000 0.046666 0.000000 0.012271
# 5 0.001596 0.002489 -0.005082 0.000000 0.042095 0.000000
# 6 0.000000 0.000000 0.000000 0.012271 0.000000 0.039659
#
#
# Mechanical properties :
#
#
# Convention : Reuss Voigt Hill
#
# Bulk Modulus (GPa) = 57.26992 73.19108 65.23050
# Shear Modulus (GPa) = 27.60548 33.23034 30.41791
#
# Velocity S-wave (km/s) = 3.56539 3.91180 3.74261
# Velocity P-wave (km/s) = 6.58191 7.35572 6.97955
#
# Compressibility (1/GPa) = 0.01746117
#
# Stress axis : x y z
#
# Youngs Moduli (GPa) = 74.26111 138.73472 86.97055
#
# Poissons Ratio (x) = 0.22681 0.10687
# Poissons Ratio (y) = 0.12140 0.39066
# Poissons Ratio (z) = 0.09125 0.62318
#
# Static dielectric constant tensor:
#      x y z
#    x 1.850970 0.000000 0.089900 
#    y 0.000000 1.745500 0.000000 
#    z 0.089900 0.000000 1.899080 
# 
# From -- ./inp_files/3145.got.cif
#   From: 2010.05.17/outbox.cif.g08.bks.cpg/sg14_2_cif.got.tgz:3145.got - 2010.06.03 17:49:19.
