data_PCOD9245218
_publ_section_title
;
Structure prediction by ZEFSAII (Michael W. Deem and Ramdas Pophale) SiO2 
 PCOD9245218
Probable space group: P 21/C
;
_chemical_formula_sum "Si O2"
_cell_formula_units_Z 20
_cell_length_a 24.106894
_cell_length_b 4.794702
_cell_length_c 10.600660
_cell_angle_alpha 90.000000
_cell_angle_beta 145.134476
_cell_angle_gamma 90.000000
_cell_volume 700.434800
_symmetry_space_group_name_H-M "P 21/C"
_symmetry_group_IT_number 14
_symmetry_cell_setting 'monoclinic'
loop_
_space_group_symop_operation_xyz
x,y,z
-x,1/2+y,1/2-z
-x,-y,-z
x,1/2-y,1/2+z
loop_
_atom_site_type_symbol
_atom_site_label
_atom_site_fract_x
_atom_site_fract_y
_atom_site_fract_z
Si Si1 0.845380 0.040576 0.713088
Si Si2 0.317157 0.686063 0.747408
Si Si3 0.715825 0.815447 0.139536
Si Si4 0.011307 0.219305 0.687600
Si Si5 0.483363 0.323757 0.306572
O O1 0.757244 0.229648 0.499382
O O2 0.808132 0.819459 0.746828
O O3 0.928266 0.230504 0.929568
O O4 0.892117 0.856403 0.688720
O O5 0.310155 0.375690 0.787363
O O6 0.282609 0.876784 0.802290
O O7 0.429420 0.771504 0.933685
O O8 0.625897 0.774635 0.874331
O O9 0.980537 0.405358 0.750917
O O10 0.485680 0.633763 0.256591
#
# Coordination Sequence:
#
# PCOD9245218 Si02
#       5
#     4   4   4   4   4
#     4  11  24  39  66  88 112 155 194 237 294 342
#     4  10  21  37  58  87 120 153 193 236 280 338
#     4  10  21  37  58  87 120 153 193 236 280 338
#     4  11  26  45  62  86 118 149 190 243 296 350
#     4   8  16  33  54  79 118 156 184 229 282 327
#
# _framework density 28.553688999999999
#
# number of rings (size 3 to 8) (size 9 to 14) (size 15 to 20)
#    0.000    2.000    0.000    2.400    0.000    8.800 
#    0.000    0.000    0.000   14.400    0.000    0.000 
#    0.000    0.000    0.000    0.000    0.000    0.000 
#
# Total GULP energy -112462.147212 kJ/mol
# GULP energy per Si atom -5623.107361 kJ/mol
# Density = 2.848870 g / cm^3
# Si number density = 28.553689 Si / 1000 Ang^3
#
#
#
# Elastic Constant Matrix: (Units=GPa)
#
#
# Indices 1 2 3 4 5 6 
#
# 1 99.1377 17.2336 8.6601 0.0000 -13.7959 0.0000
# 2 17.2336 110.4304 16.3945 0.0000 -9.3392 0.0000
# 3 8.6601 16.3945 184.5570 0.0000 -2.3377 0.0000
# 4 0.0000 0.0000 0.0000 42.9899 0.0000 1.8906
# 5 -13.7959 -9.3392 -2.3377 0.0000 37.5916 0.0000
# 6 0.0000 0.0000 0.0000 1.8906 0.0000 31.5364
#
#
#
# Elastic Compliance Matrix: (Units=1/GPa)
#
#
# Indices 1 2 3 4 5 6 
#
# 1 0.010854 -0.001336 -0.000345 0.000000 0.003630 0.000000
# 2 -0.001336 0.009532 -0.000761 0.000000 0.001831 0.000000
# 3 -0.000345 -0.000761 0.005502 0.000000 0.000027 0.000000
# 4 0.000000 0.000000 0.000000 0.023323 0.000000 -0.001398
# 5 0.003630 0.001831 0.000027 0.000000 0.028390 0.000000
# 6 0.000000 0.000000 0.000000 -0.001398 0.000000 0.031793
#
#
# Mechanical properties :
#
#
# Convention : Reuss Voigt Hill
#
# Bulk Modulus (GPa) = 47.60530 53.18906 50.39718
# Shear Modulus (GPa) = 41.22700 45.87934 43.55317
#
# Velocity S-wave (km/s) = 3.80391 4.01281 3.90976
# Velocity P-wave (km/s) = 6.00012 6.33548 6.17008
#
# Compressibility (1/GPa) = 0.02100606
#
# Stress axis : x y z
#
# Youngs Moduli (GPa) = 92.12795 104.91304 181.73620
#
# Poissons Ratio (x) = 0.14014 0.06264
# Poissons Ratio (y) = 0.12306 0.13827
# Poissons Ratio (z) = 0.03176 0.07982
#
# Static dielectric constant tensor:
#      x y z
#    x 2.141050 0.000000 -0.009770 
#    y 0.000000 2.084860 0.000000 
#    z -0.009770 0.000000 2.234190 
# 
# From -- ./inp_files/3461.got.cif
#   From: 2010.05.17/outbox.cif.g08.bks.cpg/sg14_2_cif.got.tgz:3461.got - 2010.06.03 17:49:19.
