data_PCOD9245984
_publ_section_title
;
Structure prediction by ZEFSAII (Michael W. Deem and Ramdas Pophale) SiO2 
 PCOD9245984
Probable space group: P 21/C
;
_chemical_formula_sum "Si O2"
_cell_formula_units_Z 32
_cell_length_a 9.874012
_cell_length_b 11.794981
_cell_length_c 12.321782
_cell_angle_alpha 90.000000
_cell_angle_beta 90.437877
_cell_angle_gamma 90.000000
_cell_volume 1434.999449
_symmetry_space_group_name_H-M "P 21/C"
_symmetry_group_IT_number 14
_symmetry_cell_setting 'monoclinic'
loop_
_space_group_symop_operation_xyz
x,y,z
-x,1/2+y,1/2-z
-x,-y,-z
x,1/2-y,1/2+z
loop_
_atom_site_type_symbol
_atom_site_label
_atom_site_fract_x
_atom_site_fract_y
_atom_site_fract_z
Si Si1 0.552063 0.722434 0.188403
Si Si2 0.805834 0.717427 0.318744
Si Si3 0.939158 0.009394 0.877700
Si Si4 0.624317 0.633345 0.978342
Si Si5 0.845596 0.460074 0.013035
Si Si6 0.111931 0.805167 0.281934
Si Si7 0.470306 0.031562 0.734275
Si Si8 0.806890 0.066686 0.260291
O O1 0.712978 0.731877 0.212768
O O2 0.485263 0.844507 0.218830
O O3 0.521740 0.599338 0.246095
O O4 0.532098 0.699552 0.061759
O O5 0.717477 0.782976 0.407472
O O6 0.829932 0.589146 0.357742
O O7 0.955147 0.768380 0.301139
O O8 0.882313 0.128237 0.832572
O O9 0.057385 0.982988 0.790874
O O10 0.000000 0.000000 0.000000
O O11 0.735925 0.556049 0.037474
O O12 0.537775 0.559191 0.893825
O O13 0.810221 0.422000 0.890539
O O14 0.844282 0.377654 0.114690
O O15 0.000000 0.500000 0.000000
O O16 0.202803 0.693606 0.281874
O O17 0.315589 0.013944 0.771713
#
# Coordination Sequence:
#
# PCOD9245984 Si02
#       8
#     4   4   4   4   4   4   4   4
#     4  11  23  42  71  87 129 168 215 283 318 381
#     4  10  23  36  59  96 119 166 213 254 324 389
#     4  11  23  35  59  94 137 165 206 257 329 390
#     4  10  21  39  67  93 122 165 222 255 321 390
#     4  11  19  37  62  90 129 169 211 251 312 396
#     4  11  22  37  61  95 131 173 206 258 327 390
#     4  10  24  46  65  96 122 170 225 270 326 382
#     4  10  24  40  60  94 132 165 212 268 315 389
#
# _framework density 22.299658000000001
#
# number of rings (size 3 to 8) (size 9 to 14) (size 15 to 20)
#    0.000    1.500    2.500    2.625    8.750    2.000 
#    0.000    3.750    0.000    0.000    0.000    0.000 
#    0.000    0.000    0.000    0.000    0.000    0.000 
#
# Total GULP energy -178474.902431 kJ/mol
# GULP energy per Si atom -5577.340701 kJ/mol
# Density = 2.224890 g / cm^3
# Si number density = 22.299658 Si / 1000 Ang^3
#
#
#
# Elastic Constant Matrix: (Units=GPa)
#
#
# Indices 1 2 3 4 5 6 
#
# 1 37.1608 20.0385 3.0863 0.0000 -4.7367 0.0000
# 2 20.0385 158.5536 35.8667 0.0000 -8.3231 0.0000
# 3 3.0863 35.8667 69.2245 0.0000 -9.7030 0.0000
# 4 0.0000 0.0000 0.0000 45.6568 0.0000 1.1545
# 5 -4.7367 -8.3231 -9.7030 0.0000 14.0259 0.0000
# 6 0.0000 0.0000 0.0000 1.1545 0.0000 32.9451
#
#
#
# Elastic Compliance Matrix: (Units=1/GPa)
#
#
# Indices 1 2 3 4 5 6 
#
# 1 0.029936 -0.003727 0.001886 0.000000 0.009203 0.000000
# 2 -0.003727 0.007652 -0.003697 0.000000 0.000725 0.000000
# 3 0.001886 -0.003697 0.017783 0.000000 0.010746 0.000000
# 4 0.000000 0.000000 0.000000 0.021922 0.000000 -0.000768
# 5 0.009203 0.000725 0.010746 0.000000 0.082269 0.000000
# 6 0.000000 0.000000 0.000000 -0.000768 0.000000 0.030380
#
#
# Mechanical properties :
#
#
# Convention : Reuss Voigt Hill
#
# Bulk Modulus (GPa) = 22.57514 42.54688 32.56101
# Shear Modulus (GPa) = 23.17128 32.25537 27.71333
#
# Velocity S-wave (km/s) = 3.22698 3.80735 3.52912
# Velocity P-wave (km/s) = 4.90205 6.20072 5.58923
#
# Compressibility (1/GPa) = 0.04429651
#
# Stress axis : x y z
#
# Youngs Moduli (GPa) = 33.40427 130.67742 56.23221
#
# Poissons Ratio (x) = 0.48704 -0.10608
# Poissons Ratio (y) = 0.12450 0.20790
# Poissons Ratio (z) = -0.06301 0.48313
#
# Static dielectric constant tensor:
#      x y z
#    x 1.835100 0.000000 -0.019330 
#    y 0.000000 2.084090 0.000000 
#    z -0.019330 0.000000 1.899280 
# 
# From -- ./inp_files/29096.got.cif
#   From: 2010.05.17/outbox.cif.g08.bks.cpg/sg14_15_cif.got.tgz:29096.got - 2010.06.03 17:49:19.
