data_PCOD9245171
_publ_section_title
;
Structure prediction by ZEFSAII (Michael W. Deem and Ramdas Pophale) SiO2 
 PCOD9245171
Probable space group: P 21/C
;
_chemical_formula_sum "Si O2"
_cell_formula_units_Z 32
_cell_length_a 19.616360
_cell_length_b 7.405472
_cell_length_c 13.922303
_cell_angle_alpha 90.000000
_cell_angle_beta 134.633730
_cell_angle_gamma 90.000000
_cell_volume 1439.215597
_symmetry_space_group_name_H-M "P 21/C"
_symmetry_group_IT_number 14
_symmetry_cell_setting 'monoclinic'
loop_
_space_group_symop_operation_xyz
x,y,z
-x,1/2+y,1/2-z
-x,-y,-z
x,1/2-y,1/2+z
loop_
_atom_site_type_symbol
_atom_site_label
_atom_site_fract_x
_atom_site_fract_y
_atom_site_fract_z
Si Si1 0.601119 0.747439 0.080870
Si Si2 0.074474 0.636486 0.528172
Si Si3 0.610745 0.178663 0.638435
Si Si4 0.763942 0.226887 0.934969
Si Si5 0.241179 0.256372 0.909974
Si Si6 0.771636 0.640924 0.884984
Si Si7 0.217694 0.680679 0.830447
Si Si8 0.920716 0.625937 0.871083
O O1 0.601555 0.533168 0.105021
O O2 0.654330 0.779674 0.031979
O O3 0.671579 0.836153 0.228877
O O4 0.488237 0.785724 0.967822
O O5 0.163538 0.593949 0.548321
O O6 0.126800 0.723499 0.673589
O O7 0.000000 0.500000 0.500000
O O8 0.998792 0.752019 0.392418
O O9 0.657893 0.191820 0.790312
O O10 0.690595 0.240101 0.641010
O O11 0.788802 0.428979 0.922612
O O12 0.776315 0.232153 0.059858
O O13 0.217043 0.461376 0.846933
O O14 0.165771 0.115003 0.790317
O O15 0.236477 0.264884 0.019753
O O16 0.858344 0.699823 0.900748
O O17 0.000000 0.500000 0.000000
#
# Coordination Sequence:
#
# PCOD9245171 Si02
#       8
#     4   4   4   4   4   4   4   4
#     4   9  19  37  60  83 113 153 191 235 296 361
#     4  11  21  38  60  80 114 158 195 235 295 351
#     4   9  19  37  60  83 113 152 191 237 296 356
#     4  10  21  37  56  84 114 149 193 244 286 349
#     4   9  19  37  57  79 115 154 187 240 295 343
#     4  10  21  37  56  82 116 149 192 243 294 345
#     4   9  19  37  57  81 114 149 193 240 288 348
#     4  11  21  38  56  82 117 150 194 245 287 349
#
# _framework density 22.234334
#
# number of rings (size 3 to 8) (size 9 to 14) (size 15 to 20)
#    0.000    2.250    2.500    0.000    1.750    2.500 
#    2.250    0.000    0.000    0.000    0.000    0.000 
#    0.000    0.000    0.000    0.000    0.000    0.000 
#
# Total GULP energy -178278.461098 kJ/mol
# GULP energy per Si atom -5571.201909 kJ/mol
# Density = 2.218373 g / cm^3
# Si number density = 22.234334 Si / 1000 Ang^3
#
#
#
# Elastic Constant Matrix: (Units=GPa)
#
#
# Indices 1 2 3 4 5 6 
#
# 1 126.9669 31.3361 123.9293 0.0000 4.0719 0.0000
# 2 31.3361 45.5858 32.9316 0.0000 4.2478 0.0000
# 3 123.9293 32.9316 162.3921 0.0000 15.8139 0.0000
# 4 0.0000 0.0000 0.0000 31.7515 0.0000 1.0746
# 5 4.0719 4.2478 15.8139 0.0000 53.4171 0.0000
# 6 0.0000 0.0000 0.0000 1.0746 0.0000 20.9594
#
#
#
# Elastic Compliance Matrix: (Units=1/GPa)
#
#
# Indices 1 2 3 4 5 6 
#
# 1 0.033205 -0.005435 -0.024747 0.000000 0.005227 0.000000
# 2 -0.005435 0.026605 -0.001114 0.000000 -0.001372 0.000000
# 3 -0.024747 -0.001114 0.025822 0.000000 -0.005669 0.000000
# 4 0.000000 0.000000 0.000000 0.031549 0.000000 -0.001618
# 5 0.005227 -0.001372 -0.005669 0.000000 0.020110 0.000000
# 6 0.000000 0.000000 0.000000 -0.001618 0.000000 0.047794
#
#
# Mechanical properties :
#
#
# Convention : Reuss Voigt Hill
#
# Bulk Modulus (GPa) = 43.40354 79.03763 61.22058
# Shear Modulus (GPa) = 19.58043 31.00879 25.29461
#
# Velocity S-wave (km/s) = 2.97078 3.73853 3.37655
# Velocity P-wave (km/s) = 5.59738 7.36615 6.54182
#
# Compressibility (1/GPa) = 0.02303960
#
# Stress axis : x y z
#
# Youngs Moduli (GPa) = 30.11610 37.58645 38.72721
#
# Poissons Ratio (x) = 0.20428 0.95839
# Poissons Ratio (y) = 0.16368 0.04314
# Poissons Ratio (z) = 0.74529 0.04187
#
# Static dielectric constant tensor:
#      x y z
#    x 1.768320 0.000000 0.015670 
#    y 0.000000 2.183230 0.000000 
#    z 0.015670 0.000000 1.730850 
# 
# From -- ./inp_files/49949.got.cif
#   From: 2010.05.17/outbox.cif.g08.bks.cpg/sg14_25_cif.got.tgz:49949.got - 2010.06.03 17:49:19.
