data_PCOD9245078
_publ_section_title
;
Structure prediction by ZEFSAII (Michael W. Deem and Ramdas Pophale) SiO2 
 PCOD9245078
Probable space group: P 21/C
;
_chemical_formula_sum "Si O2"
_cell_formula_units_Z 28
_cell_length_a 20.285002
_cell_length_b 14.237705
_cell_length_c 9.189007
_cell_angle_alpha 90.000000
_cell_angle_beta 30.081786
_cell_angle_gamma 90.000000
_cell_volume 1330.226546
_symmetry_space_group_name_H-M "P 21/C"
_symmetry_group_IT_number 14
_symmetry_cell_setting 'monoclinic'
loop_
_space_group_symop_operation_xyz
x,y,z
-x,1/2+y,1/2-z
-x,-y,-z
x,1/2-y,1/2+z
loop_
_atom_site_type_symbol
_atom_site_label
_atom_site_fract_x
_atom_site_fract_y
_atom_site_fract_z
Si Si1 0.618871 0.945972 0.847655
Si Si2 0.677141 0.946726 0.293781
Si Si3 0.095095 0.014911 0.679058
Si Si4 0.030108 0.376498 0.800793
Si Si5 0.500136 0.608676 0.862918
Si Si6 0.363817 0.212109 0.390839
Si Si7 0.913716 0.697140 0.000584
O O1 0.756052 0.994979 0.551139
O O2 0.626042 0.836773 0.785242
O O3 0.589906 0.944244 0.073174
O O4 0.500000 0.000000 0.000000
O O5 0.572554 0.909403 0.376212
O O6 0.650730 0.879519 0.481236
O O7 0.639092 0.056104 0.383798
O O8 0.827659 0.928393 0.964608
O O9 0.087906 0.117967 0.620686
O O10 0.065932 0.947645 0.597956
O O11 0.000000 0.000000 0.000000
O O12 0.037615 0.289797 0.674356
O O13 0.007430 0.338832 0.007725
O O14 0.513453 0.719979 0.813029
O O15 0.231976 0.273894 0.662475
#
# Coordination Sequence:
#
# PCOD9245078 Si02
#       7
#     4   4   4   4   4   4   4
#     4  12  24  43  68  99 136 176 227 279 339 400
#     4  10  21  36  60 100 132 174 220 283 331 402
#     4  12  25  42  68 100 138 182 229 289 343 404
#     4  11  22  41  68  98 136 172 230 281 347 400
#     4  11  21  36  63  95 135 167 229 274 333 388
#     4  11  20  39  67  94 128 178 228 271 328 408
#     4  11  22  40  69 103 131 178 234 277 334 426
#
# _framework density 21.049045
#
# number of rings (size 3 to 8) (size 9 to 14) (size 15 to 20)
#    0.000    0.857    4.286    4.714    0.000    0.000 
#    0.000    1.429    3.143    0.000    0.000    0.000 
#    0.000    0.000    0.000    0.000    0.000    0.000 
#
# Total GULP energy -156352.703015 kJ/mol
# GULP energy per Si atom -5584.025108 kJ/mol
# Density = 2.100114 g / cm^3
# Si number density = 21.049045 Si / 1000 Ang^3
#
#
#
# Elastic Constant Matrix: (Units=GPa)
#
#
# Indices 1 2 3 4 5 6 
#
# 1 100.9182 30.5006 31.7058 0.0000 -2.6658 0.0000
# 2 30.5006 97.2129 19.5337 0.0000 -19.5715 0.0000
# 3 31.7058 19.5337 64.9479 0.0000 -1.0628 0.0000
# 4 0.0000 0.0000 0.0000 28.0853 0.0000 4.5998
# 5 -2.6658 -19.5715 -1.0628 0.0000 32.3438 0.0000
# 6 0.0000 0.0000 0.0000 4.5998 0.0000 45.8074
#
#
#
# Elastic Compliance Matrix: (Units=1/GPa)
#
#
# Indices 1 2 3 4 5 6 
#
# 1 0.012431 -0.003064 -0.005163 0.000000 -0.000999 0.000000
# 2 -0.003064 0.013275 -0.002371 0.000000 0.007702 0.000000
# 3 -0.005163 -0.002371 0.018610 0.000000 -0.001249 0.000000
# 4 0.000000 0.000000 0.000000 0.036201 0.000000 -0.003635
# 5 -0.000999 0.007702 -0.001249 0.000000 0.035455 0.000000
# 6 0.000000 0.000000 0.000000 -0.003635 0.000000 0.022196
#
#
# Mechanical properties :
#
#
# Convention : Reuss Voigt Hill
#
# Bulk Modulus (GPa) = 43.25241 47.39545 45.32393
# Shear Modulus (GPa) = 29.92748 33.33655 31.63202
#
# Velocity S-wave (km/s) = 3.77476 3.98396 3.88077
# Velocity P-wave (km/s) = 6.29217 6.61273 6.45444
#
# Compressibility (1/GPa) = 0.02312010
#
# Stress axis : x y z
#
# Youngs Moduli (GPa) = 80.44565 75.32925 53.73410
#
# Poissons Ratio (x) = 0.23079 0.27744
# Poissons Ratio (y) = 0.24647 0.12740
# Poissons Ratio (z) = 0.41536 0.17860
#
# Static dielectric constant tensor:
#      x y z
#    x 1.768200 0.000000 0.018400 
#    y 0.000000 1.822330 0.000000 
#    z 0.018400 0.000000 1.763270 
# 
# From -- ./inp_files/19114.got.cif
#   From: 2010.05.17/outbox.cif.g08.bks.cpg/sg14_10_cif.got.tgz:19114.got - 2010.06.03 17:49:19.
