data_PCOD9245199
_publ_section_title
;
Structure prediction by ZEFSAII (Michael W. Deem and Ramdas Pophale) SiO2 
 PCOD9245199
Probable space group: P 21/C
;
_chemical_formula_sum "Si O2"
_cell_formula_units_Z 30
_cell_length_a 23.720806
_cell_length_b 9.966454
_cell_length_c 4.813594
_cell_angle_alpha 90.000000
_cell_angle_beta 69.952986
_cell_angle_gamma 90.000000
_cell_volume 1069.043831
_symmetry_space_group_name_H-M "P 21/C"
_symmetry_group_IT_number 14
_symmetry_cell_setting 'monoclinic'
loop_
_space_group_symop_operation_xyz
x,y,z
-x,1/2+y,1/2-z
-x,-y,-z
x,1/2-y,1/2+z
loop_
_atom_site_type_symbol
_atom_site_label
_atom_site_fract_x
_atom_site_fract_y
_atom_site_fract_z
Si Si1 0.500000 0.500000 0.000000
Si Si2 0.773056 0.059090 0.810197
Si Si3 0.161164 0.158691 0.966868
Si Si4 0.431823 0.675035 0.676075
Si Si5 0.971089 0.848114 0.824593
Si Si6 0.622248 0.657445 0.846864
Si Si7 0.904654 0.342904 0.033673
Si Si8 0.696695 0.085915 0.399500
O O1 0.467310 0.562431 0.772601
O O2 0.442991 0.394109 0.127536
O O3 0.838925 0.100629 0.593297
O O4 0.733593 0.037248 0.604538
O O5 0.789207 0.935741 0.987683
O O6 0.739611 0.155842 0.094135
O O7 0.165133 0.294274 0.144163
O O8 0.095004 0.092980 0.115825
O O9 0.446511 0.814197 0.824519
O O10 0.362202 0.656829 0.869364
O O11 0.971794 0.717230 0.625059
O O12 0.034383 0.579719 0.158819
O O13 0.632389 0.785591 0.636619
O O14 0.666181 0.530442 0.760907
O O15 0.907668 0.291848 0.341956
#
# Coordination Sequence:
#
# PCOD9245199 Si02
#       8
#     2   4   4   4   4   4   4   4
#     4  10  24  42  68 104 128 148 204 248 280 354
#     4  12  24  39  60  87 116 156 204 248 292 344
#     4  10  21  37  58  83 114 150 192 246 303 358
#     4  11  24  43  67  92 125 165 195 239 298 341
#     4   8  16  33  54  79 110 144 186 239 300 363
#     4  11  24  43  67  92 125 165 195 239 298 341
#     4  10  21  37  58  83 114 150 192 246 303 358
#     4  11  26  41  58  89 122 155 208 246 276 353
#
# _framework density 28.062460999999999
#
# number of rings (size 3 to 8) (size 9 to 14) (size 15 to 20)
#    0.000    1.600    0.000    4.000    0.000   11.200 
#    0.000    0.000    0.000   11.200    0.000    0.000 
#    0.000    0.000    0.000    0.000    0.000    0.000 
#
# Total GULP energy -167716.645827 kJ/mol
# GULP energy per Si atom -5590.554861 kJ/mol
# Density = 2.799859 g / cm^3
# Si number density = 28.062461 Si / 1000 Ang^3
#
#
#
# Elastic Constant Matrix: (Units=GPa)
#
#
# Indices 1 2 3 4 5 6 
#
# 1 174.7907 -1.9669 33.8875 0.0000 9.7678 0.0000
# 2 -1.9669 43.2231 11.7570 0.0000 0.4854 0.0000
# 3 33.8875 11.7570 129.6587 0.0000 3.3869 0.0000
# 4 0.0000 0.0000 0.0000 23.0121 0.0000 6.6861
# 5 9.7678 0.4854 3.3869 0.0000 41.5636 0.0000
# 6 0.0000 0.0000 0.0000 6.6861 0.0000 43.8969
#
#
#
# Elastic Compliance Matrix: (Units=1/GPa)
#
#
# Indices 1 2 3 4 5 6 
#
# 1 0.006119 0.000737 -0.001632 0.000000 -0.001314 0.000000
# 2 0.000737 0.023810 -0.002345 0.000000 -0.000260 0.000000
# 3 -0.001632 -0.002345 0.008359 0.000000 -0.000270 0.000000
# 4 0.000000 0.000000 0.000000 0.045468 0.000000 -0.006925
# 5 -0.001314 -0.000260 -0.000270 0.000000 0.024393 0.000000
# 6 0.000000 0.000000 0.000000 -0.006925 0.000000 0.023835
#
#
# Mechanical properties :
#
#
# Convention : Reuss Voigt Hill
#
# Bulk Modulus (GPa) = 31.43784 48.33641 39.88712
# Shear Modulus (GPa) = 33.54206 41.96083 37.75145
#
# Velocity S-wave (km/s) = 3.46101 3.87106 3.67176
# Velocity P-wave (km/s) = 5.21523 6.10263 5.67630
#
# Compressibility (1/GPa) = 0.03180880
#
# Stress axis : x y z
#
# Youngs Moduli (GPa) = 163.41985 41.99903 119.63539
#
# Poissons Ratio (x) = -0.03096 0.19522
# Poissons Ratio (y) = -0.12045 0.28053
# Poissons Ratio (z) = 0.26667 0.09848
#
# Static dielectric constant tensor:
#      x y z
#    x 2.100680 0.000000 -0.019460 
#    y 0.000000 1.968130 0.000000 
#    z -0.019460 0.000000 2.048760 
# 
# From -- ./inp_files/4345.got.cif
#   From: 2010.05.17/outbox.cif.g08.bks.cpg/sg14_3_cif.got.tgz:4345.got - 2010.06.03 17:49:19.
