data_PCOD9245551
_publ_section_title
;
Structure prediction by ZEFSAII (Michael W. Deem and Ramdas Pophale) SiO2 
 PCOD9245551
Probable space group: P 21/C
;
_chemical_formula_sum "Si O2"
_cell_formula_units_Z 28
_cell_length_a 5.421977
_cell_length_b 26.916737
_cell_length_c 8.247223
_cell_angle_alpha 90.000000
_cell_angle_beta 110.265049
_cell_angle_gamma 90.000000
_cell_volume 1129.112300
_symmetry_space_group_name_H-M "P 21/C"
_symmetry_group_IT_number 14
_symmetry_cell_setting 'monoclinic'
loop_
_space_group_symop_operation_xyz
x,y,z
-x,1/2+y,1/2-z
-x,-y,-z
x,1/2-y,1/2+z
loop_
_atom_site_type_symbol
_atom_site_label
_atom_site_fract_x
_atom_site_fract_y
_atom_site_fract_z
Si Si1 0.742113 0.313238 0.275349
Si Si2 0.841199 0.112010 0.541062
Si Si3 0.783627 0.683055 0.021352
Si Si4 0.793137 0.438281 0.559246
Si Si5 0.019487 0.773247 0.868757
Si Si6 0.376725 0.082489 0.240396
Si Si7 0.840603 0.480906 0.234079
O O1 0.904203 0.354263 0.212041
O O2 0.810311 0.309209 0.478178
O O3 0.793126 0.259517 0.204194
O O4 0.453918 0.327648 0.154151
O O5 0.020548 0.136577 0.446432
O O6 0.543552 0.115464 0.404177
O O7 0.887839 0.054950 0.594352
O O8 0.793561 0.700992 0.210445
O O9 0.898068 0.732599 0.960444
O O10 0.558983 0.420255 0.621015
O O11 0.730551 0.447138 0.356773
O O12 0.071239 0.408473 0.629362
O O13 0.887418 0.492874 0.646864
O O14 0.351210 0.028065 0.319623
#
# Coordination Sequence:
#
# PCOD9245551 Si02
#       7
#     4   4   4   4   4   4   4
#     4  10  21  39  62  91 122 162 206 263 317 389
#     4  11  24  37  53  94 124 156 214 260 324 377
#     4  10  21  38  63  88 125 159 207 261 318 388
#     4   9  21  39  65  85 116 172 221 259 320 374
#     4   9  20  41  63  89 118 164 208 253 321 392
#     4  10  21  40  61  87 122 169 209 265 313 382
#     4   9  21  39  60  86 120 167 212 270 313 384
#
# _framework density 24.798241999999998
#
# number of rings (size 3 to 8) (size 9 to 14) (size 15 to 20)
#    0.857    1.429    0.000    1.714    2.000    2.857 
#    2.571    0.000    0.000    0.000    0.000    0.000 
#    0.000    0.000    0.000    0.000    0.000    0.000 
#
# Total GULP energy -156178.982713 kJ/mol
# GULP energy per Si atom -5577.820811 kJ/mol
# Density = 2.474180 g / cm^3
# Si number density = 24.798242 Si / 1000 Ang^3
#
#
#
# Elastic Constant Matrix: (Units=GPa)
#
#
# Indices 1 2 3 4 5 6 
#
# 1 67.9779 20.2858 9.3766 0.0000 1.5106 0.0000
# 2 20.2858 55.9170 37.1918 0.0000 -2.1201 0.0000
# 3 9.3766 37.1918 90.2707 0.0000 3.2627 0.0000
# 4 0.0000 0.0000 0.0000 32.7080 0.0000 17.6901
# 5 1.5106 -2.1201 3.2627 0.0000 24.1687 0.0000
# 6 0.0000 0.0000 0.0000 17.6901 0.0000 22.3980
#
#
#
# Elastic Compliance Matrix: (Units=1/GPa)
#
#
# Indices 1 2 3 4 5 6 
#
# 1 0.016644 -0.006887 0.001174 0.000000 -0.001803 0.000000
# 2 -0.006887 0.027791 -0.010891 0.000000 0.004339 0.000000
# 3 0.001174 -0.010891 0.015556 0.000000 -0.003129 0.000000
# 4 0.000000 0.000000 0.000000 0.053373 0.000000 -0.042154
# 5 -0.001803 0.004339 -0.003129 0.000000 0.042292 0.000000
# 6 0.000000 0.000000 0.000000 -0.042154 0.000000 0.077940
#
#
# Mechanical properties :
#
#
# Convention : Reuss Voigt Hill
#
# Bulk Modulus (GPa) = 37.33905 38.65267 37.99586
# Shear Modulus (GPa) = 18.13353 25.67570 21.90461
#
# Velocity S-wave (km/s) = 2.70708 3.22123 2.97528
# Velocity P-wave (km/s) = 4.98607 5.42732 5.21137
#
# Compressibility (1/GPa) = 0.02678161
#
# Stress axis : x y z
#
# Youngs Moduli (GPa) = 60.08131 35.98307 64.28303
#
# Poissons Ratio (x) = 0.24783 -0.07546
# Poissons Ratio (y) = 0.41380 0.70013
# Poissons Ratio (z) = -0.07053 0.39190
#
# Static dielectric constant tensor:
#      x y z
#    x 2.046970 0.000000 -0.011070 
#    y 0.000000 1.993930 0.000000 
#    z -0.011070 0.000000 1.947510 
# 
# From -- ./inp_files/6821.got.cif
#   From: 2010.05.17/outbox.cif.g08.bks.cpg/sg14_4_cif.got.tgz:6821.got - 2010.06.03 17:49:19.
