data_PCOD9245253
_publ_section_title
;
Structure prediction by ZEFSAII (Michael W. Deem and Ramdas Pophale) SiO2 
 PCOD9245253
Probable space group: P 21/C
;
_chemical_formula_sum "Si O2"
_cell_formula_units_Z 20
_cell_length_a 5.448566
_cell_length_b 19.541502
_cell_length_c 9.808222
_cell_angle_alpha 90.000000
_cell_angle_beta 56.320911
_cell_angle_gamma 90.000000
_cell_volume 869.031440
_symmetry_space_group_name_H-M "P 21/C"
_symmetry_group_IT_number 14
_symmetry_cell_setting 'monoclinic'
loop_
_space_group_symop_operation_xyz
x,y,z
-x,1/2+y,1/2-z
-x,-y,-z
x,1/2-y,1/2+z
loop_
_atom_site_type_symbol
_atom_site_label
_atom_site_fract_x
_atom_site_fract_y
_atom_site_fract_z
Si Si1 0.895881 0.884821 0.799063
Si Si2 0.847814 0.512449 0.691501
Si Si3 0.065779 0.268674 0.212487
Si Si4 0.230293 0.988996 0.309687
Si Si5 0.392964 0.195562 0.881960
O O1 0.169376 0.935517 0.738791
O O2 0.976893 0.810350 0.721542
O O3 0.692756 0.935003 0.772466
O O4 0.727405 0.867622 0.991148
O O5 0.526378 0.542948 0.775613
O O6 0.000000 0.500000 0.500000
O O7 0.069270 0.547002 0.731469
O O8 0.744646 0.297682 0.275948
O O9 0.244331 0.303602 0.279743
O O10 0.259405 0.258134 0.016002
O O11 0.000000 0.000000 0.500000
#
# Coordination Sequence:
#
# PCOD9245253 Si02
#       5
#     4   4   4   4   4
#     4   8  24  34  68  76 132 144 196 234 314 308
#     4  10  21  39  64  85 118 154 194 240 294 348
#     4  10  21  37  60  84 118 155 196 236 285 344
#     4  10  21  39  64  85 118 154 194 240 294 348
#     4  10  21  37  60  84 118 155 196 236 285 344
#
# _framework density 23.014129000000001
#
# number of rings (size 3 to 8) (size 9 to 14) (size 15 to 20)
#    2.400    0.000    0.000    2.400    5.600    0.000 
#    0.000    6.000    0.000    0.000    0.000    0.000 
#    0.000    0.000    0.000    0.000    0.000    0.000 
#
# Total GULP energy -111364.413268 kJ/mol
# GULP energy per Si atom -5568.220663 kJ/mol
# Density = 2.296175 g / cm^3
# Si number density = 23.014129 Si / 1000 Ang^3
#
#
#
# Elastic Constant Matrix: (Units=GPa)
#
#
# Indices 1 2 3 4 5 6 
#
# 1 205.5825 28.1433 40.7803 0.0000 -0.6255 0.0000
# 2 28.1433 66.8953 -4.3124 0.0000 3.0354 0.0000
# 3 40.7803 -4.3124 77.0359 0.0000 0.4737 0.0000
# 4 0.0000 0.0000 0.0000 39.4675 0.0000 6.7855
# 5 -0.6255 3.0354 0.4737 0.0000 32.7165 0.0000
# 6 0.0000 0.0000 0.0000 6.7855 0.0000 14.5804
#
#
#
# Elastic Compliance Matrix: (Units=1/GPa)
#
#
# Indices 1 2 3 4 5 6 
#
# 1 0.005884 -0.002705 -0.003269 0.000000 0.000411 0.000000
# 2 -0.002705 0.016311 0.002355 0.000000 -0.001599 0.000000
# 3 -0.003269 0.002355 0.014846 0.000000 -0.000496 0.000000
# 4 0.000000 0.000000 0.000000 0.027541 0.000000 -0.012817
# 5 0.000411 -0.001599 -0.000496 0.000000 0.030729 0.000000
# 6 0.000000 0.000000 0.000000 -0.012817 0.000000 0.074550
#
#
# Mechanical properties :
#
#
# Convention : Reuss Voigt Hill
#
# Bulk Modulus (GPa) = 33.55297 53.19289 43.37293
# Shear Modulus (GPa) = 26.73307 36.34637 31.53972
#
# Velocity S-wave (km/s) = 3.41191 3.97836 3.70598
# Velocity P-wave (km/s) = 5.48931 6.65330 6.09914
#
# Compressibility (1/GPa) = 0.02980362
#
# Stress axis : x y z
#
# Youngs Moduli (GPa) = 169.94711 61.30811 67.35714
#
# Poissons Ratio (x) = 0.16583 0.22018
# Poissons Ratio (y) = 0.45969 -0.15861
# Poissons Ratio (z) = 0.55553 -0.14437
#
# Static dielectric constant tensor:
#      x y z
#    x 1.838570 0.000000 -0.008980 
#    y 0.000000 1.928610 0.000000 
#    z -0.008980 0.000000 1.803020 
# 
# From -- ./inp_files/6144.got.cif
#   From: 2010.05.17/outbox.cif.g08.bks.cpg/sg14_4_cif.got.tgz:6144.got - 2010.06.03 17:49:19.
