data_PCOD9245457
_publ_section_title
;
Structure prediction by ZEFSAII (Michael W. Deem and Ramdas Pophale) SiO2 
 PCOD9245457
Probable space group: P 21/C
;
_chemical_formula_sum "Si O2"
_cell_formula_units_Z 28
_cell_length_a 12.392641
_cell_length_b 13.950607
_cell_length_c 17.463002
_cell_angle_alpha 90.000000
_cell_angle_beta 23.180263
_cell_angle_gamma 90.000000
_cell_volume 1188.389606
_symmetry_space_group_name_H-M "P 21/C"
_symmetry_group_IT_number 14
_symmetry_cell_setting 'monoclinic'
loop_
_space_group_symop_operation_xyz
x,y,z
-x,1/2+y,1/2-z
-x,-y,-z
x,1/2-y,1/2+z
loop_
_atom_site_type_symbol
_atom_site_label
_atom_site_fract_x
_atom_site_fract_y
_atom_site_fract_z
Si Si1 0.972522 0.612359 0.516778
Si Si2 0.656327 0.577547 0.579200
Si Si3 0.481042 0.730662 0.212434
Si Si4 0.664205 0.788736 0.346592
Si Si5 0.255824 0.946494 0.611144
Si Si6 0.449134 0.864519 0.896270
Si Si7 0.109805 0.137399 0.645989
O O1 0.257524 0.663855 0.314382
O O2 0.000000 0.500000 0.500000
O O3 0.729402 0.621379 0.614985
O O4 0.878356 0.646862 0.660684
O O5 0.459047 0.665114 0.686340
O O6 0.527529 0.472633 0.651763
O O7 0.961073 0.568172 0.343649
O O8 0.424502 0.705313 0.338640
O O9 0.788701 0.691206 0.995194
O O10 0.376872 0.842114 0.515375
O O11 0.680132 0.683782 0.299358
O O12 0.729862 0.803717 0.391838
O O13 0.500000 0.000000 0.500000
O O14 0.203005 0.026075 0.580729
O O15 0.194745 0.864929 0.121763
#
# Coordination Sequence:
#
# PCOD9245457 Si02
#       7
#     4   4   4   4   4   4   4
#     4  12  20  36  65  90 119 159 209 263 315 372
#     4  11  23  40  61  95 127 162 221 267 314 391
#     4  12  23  38  64  95 125 167 214 266 323 376
#     4  11  20  37  61  88 125 161 198 263 323 371
#     4   9  18  35  61  95 118 156 203 260 312 366
#     4  11  23  41  61  90 127 164 208 264 322 379
#     4  10  21  38  60  88 125 157 209 255 318 381
#
# _framework density 23.561297
#
# number of rings (size 3 to 8) (size 9 to 14) (size 15 to 20)
#    0.000    1.143    4.286    5.143    0.000    0.000 
#    0.000    1.429    0.000    0.000    0.000    0.000 
#    0.000    0.000    0.000    0.000    0.000    0.000 
#
# Total GULP energy -156025.256246 kJ/mol
# GULP energy per Si atom -5572.330580 kJ/mol
# Density = 2.350767 g / cm^3
# Si number density = 23.561297 Si / 1000 Ang^3
#
#
#
# Elastic Constant Matrix: (Units=GPa)
#
#
# Indices 1 2 3 4 5 6 
#
# 1 15.7288 -10.0860 0.5108 0.0000 4.7691 0.0000
# 2 -10.0860 148.3641 33.9132 0.0000 -12.3348 0.0000
# 3 0.5108 33.9132 64.3911 0.0000 12.7287 0.0000
# 4 0.0000 0.0000 0.0000 37.7480 0.0000 0.9511
# 5 4.7691 -12.3348 12.7287 0.0000 20.3014 0.0000
# 6 0.0000 0.0000 0.0000 0.9511 0.0000 20.6929
#
#
#
# Elastic Compliance Matrix: (Units=1/GPa)
#
#
# Indices 1 2 3 4 5 6 
#
# 1 0.070231 0.003417 0.000564 0.000000 -0.014776 0.000000
# 2 0.003417 0.009247 -0.006677 0.000000 0.009002 0.000000
# 3 0.000564 -0.006677 0.022681 0.000000 -0.018410 0.000000
# 4 0.000000 0.000000 0.000000 0.026522 0.000000 -0.001219
# 5 -0.014776 0.009002 -0.018410 0.000000 0.069741 0.000000
# 6 0.000000 0.000000 0.000000 -0.001219 0.000000 0.048382
#
#
# Mechanical properties :
#
#
# Convention : Reuss Voigt Hill
#
# Bulk Modulus (GPa) = 10.33403 30.79555 20.56479
# Shear Modulus (GPa) = 17.57768 29.35818 23.46793
#
# Velocity S-wave (km/s) = 2.73434 3.53375 3.15943
# Velocity P-wave (km/s) = 3.79003 5.45423 4.69643
#
# Compressibility (1/GPa) = 0.09676767
#
# Stress axis : x y z
#
# Youngs Moduli (GPa) = 14.23881 108.14229 44.08891
#
# Poissons Ratio (x) = -0.36952 -0.02487
# Poissons Ratio (y) = -0.04865 0.29437
# Poissons Ratio (z) = -0.00803 0.72205
#
# Static dielectric constant tensor:
#      x y z
#    x 1.201540 0.000000 0.156360 
#    y 0.000000 3.158450 0.000000 
#    z 0.156360 0.000000 1.881310 
# 
# From -- ./inp_files/68587.got.cif
#   From: 2010.05.17/outbox.cif.g08.bks.cpg/sg14_35_cif.got.tgz:68587.got - 2010.06.03 17:49:19.
