data_PCOD9245689
_publ_section_title
;
Structure prediction by ZEFSAII (Michael W. Deem and Ramdas Pophale) SiO2 
 PCOD9245689
Probable space group: P 21/C
;
_chemical_formula_sum "Si O2"
_cell_formula_units_Z 24
_cell_length_a 13.237579
_cell_length_b 12.900303
_cell_length_c 9.262163
_cell_angle_alpha 90.000000
_cell_angle_beta 148.094819
_cell_angle_gamma 90.000000
_cell_volume 835.946140
_symmetry_space_group_name_H-M "P 21/C"
_symmetry_group_IT_number 14
_symmetry_cell_setting 'monoclinic'
loop_
_space_group_symop_operation_xyz
x,y,z
-x,1/2+y,1/2-z
-x,-y,-z
x,1/2-y,1/2+z
loop_
_atom_site_type_symbol
_atom_site_label
_atom_site_fract_x
_atom_site_fract_y
_atom_site_fract_z
Si Si1 0.696286 0.076917 0.844309
Si Si2 0.691394 0.853907 0.629438
Si Si3 0.541328 0.357665 0.419326
Si Si4 0.191357 0.142071 0.685964
Si Si5 0.070802 0.997185 0.290831
Si Si6 0.122243 0.796746 0.477965
O O1 0.499624 0.103657 0.523023
O O2 0.621255 0.050022 0.913910
O O3 0.831877 0.179994 0.013534
O O4 0.847281 0.992346 0.977267
O O5 0.571949 0.797590 0.346907
O O6 0.805678 0.766015 0.852952
O O7 0.815779 0.928631 0.679385
O O8 0.406341 0.382252 0.389990
O O9 0.727779 0.307177 0.709835
O O10 0.085479 0.054141 0.463780
O O11 0.077113 0.161041 0.696001
O O12 0.163871 0.884557 0.409904
#
# Coordination Sequence:
#
# PCOD9245689 Si02
#       6
#     4   4   4   4   4   4
#     4  10  21  39  53  86 125 157 183 247 306 345
#     4   9  20  36  55  83 124 155 182 240 298 349
#     4   9  20  35  55  85 114 153 191 233 295 345
#     4  11  19  35  61  88 114 155 192 240 294 342
#     4  11  23  36  59  95 117 150 202 248 287 350
#     4  12  22  36  63  90 119 152 199 249 293 340
#
# _framework density 28.709982
#
# number of rings (size 3 to 8) (size 9 to 14) (size 15 to 20)
#    1.000    0.667    5.000    0.500    0.000    4.000 
#    0.000    0.000    0.000    5.000    0.000    0.000 
#    0.000    0.000    0.000    0.000    0.000    0.000 
#
# Total GULP energy -133742.456787 kJ/mol
# GULP energy per Si atom -5572.602366 kJ/mol
# Density = 2.864464 g / cm^3
# Si number density = 28.709982 Si / 1000 Ang^3
#
#
#
# Elastic Constant Matrix: (Units=GPa)
#
#
# Indices 1 2 3 4 5 6 
#
# 1 115.8022 73.4165 40.3620 0.0000 14.3715 0.0000
# 2 73.4165 -6.0140 -42.6416 0.0000 14.0395 0.0000
# 3 40.3620 -42.6416 54.3163 0.0000 29.9338 0.0000
# 4 0.0000 0.0000 0.0000 14.1890 0.0000 -6.3022
# 5 14.3715 14.0395 29.9338 0.0000 43.0650 0.0000
# 6 0.0000 0.0000 0.0000 -6.3022 0.0000 53.1145
#
#
#
# Elastic Compliance Matrix: (Units=1/GPa)
#
#
# Indices 1 2 3 4 5 6 
#
# 1 0.004358 0.005474 0.004610 0.000000 -0.006443 0.000000
# 2 0.005474 -0.003932 -0.011109 0.000000 0.007177 0.000000
# 3 0.004610 -0.011109 0.008292 0.000000 -0.003680 0.000000
# 4 0.000000 0.000000 0.000000 0.074398 0.000000 0.008828
# 5 -0.006443 0.007177 -0.003680 0.000000 0.025589 0.000000
# 6 0.000000 0.000000 0.000000 0.008828 0.000000 0.019875
#
#
# Mechanical properties :
#
#
# Convention : Reuss Voigt Hill
#
# Bulk Modulus (GPa) = 149.99323 34.04204 92.01764
# Shear Modulus (GPa) = 37.63535 28.27155 32.95345
#
# Velocity S-wave (km/s) = 3.62454 3.14144 3.39160
# Velocity P-wave (km/s) = 8.35907 5.00412 6.88895
#
# Compressibility (1/GPa) = 0.00666697
#
# Stress axis : x y z
#
# Youngs Moduli (GPa) = 229.46616 -254.35233 120.60042
#
# Poissons Ratio (x) = 1.39231 -0.55594
# Poissons Ratio (y) = -1.25608 1.33979
# Poissons Ratio (z) = -1.05779 -2.82568
#
# Static dielectric constant tensor:
#      x y z
#    x 2.277210 0.000000 0.010450 
#    y 0.000000 2.325480 0.000000 
#    z 0.010450 0.000000 2.378120 
# 
# From -- ./inp_files/32792.got.cif
#   From: 2010.05.17/outbox.cif.g08.bks.cpg/sg14_17_cif.got.tgz:32792.got - 2010.06.03 17:49:19.
