data_PCOD9245639
_publ_section_title
;
Structure prediction by ZEFSAII (Michael W. Deem and Ramdas Pophale) SiO2 
 PCOD9245639
Probable space group: P 21/C
;
_chemical_formula_sum "Si O2"
_cell_formula_units_Z 28
_cell_length_a 17.704429
_cell_length_b 17.179238
_cell_length_c 8.273885
_cell_angle_alpha 90.000000
_cell_angle_beta 152.228237
_cell_angle_gamma 90.000000
_cell_volume 1172.560367
_symmetry_space_group_name_H-M "P 21/C"
_symmetry_group_IT_number 14
_symmetry_cell_setting 'monoclinic'
loop_
_space_group_symop_operation_xyz
x,y,z
-x,1/2+y,1/2-z
-x,-y,-z
x,1/2-y,1/2+z
loop_
_atom_site_type_symbol
_atom_site_label
_atom_site_fract_x
_atom_site_fract_y
_atom_site_fract_z
Si Si1 0.340286 0.553287 0.246395
Si Si2 0.186217 0.505472 0.671432
Si Si3 0.830172 0.833420 0.777898
Si Si4 0.805931 0.294513 0.124351
Si Si5 0.897086 0.147960 0.155343
Si Si6 0.254143 0.322469 0.261200
Si Si7 0.544515 0.966398 0.756515
O O1 0.500000 0.500000 0.500000
O O2 0.339721 0.527824 0.432099
O O3 0.175141 0.524381 0.843163
O O4 0.332308 0.646754 0.205306
O O5 0.186980 0.414148 0.661212
O O6 0.099800 0.555555 0.372483
O O7 0.366484 0.539610 0.994633
O O8 0.773277 0.839113 0.481925
O O9 0.721918 0.768710 0.662134
O O10 0.022679 0.814718 0.139423
O O11 0.792180 0.201018 0.078462
O O12 0.839374 0.317222 0.372712
O O13 0.085590 0.164748 0.536229
O O14 0.379018 0.381873 0.575205
O O15 0.500000 0.000000 0.500000
#
# Coordination Sequence:
#
# PCOD9245639 Si02
#       7
#     4   4   4   4   4   4   4
#     4   9  19  38  62  84 120 166 208 251 312 384
#     4  10  21  40  62  90 120 162 211 255 316 385
#     4  10  21  38  66  93 123 165 213 262 315 382
#     4   9  19  36  63  93 124 158 212 262 313 378
#     4   9  20  38  63  91 123 159 211 256 317 375
#     4  10  22  40  63  90 125 163 208 258 319 379
#     4  11  24  40  57  87 125 160 208 264 314 375
#
# _framework density 23.879367999999999
#
# number of rings (size 3 to 8) (size 9 to 14) (size 15 to 20)
#    0.000    2.286    1.429    0.000    4.000    2.857 
#    5.143    0.714    0.000    0.000    0.000    0.000 
#    0.000    0.000    0.000    0.000    0.000    0.000 
#
# Total GULP energy -155888.478135 kJ/mol
# GULP energy per Si atom -5567.445648 kJ/mol
# Density = 2.382502 g / cm^3
# Si number density = 23.879368 Si / 1000 Ang^3
#
#
#
# Elastic Constant Matrix: (Units=GPa)
#
#
# Indices 1 2 3 4 5 6 
#
# 1 15.3708 23.8561 14.3635 0.0000 0.5487 0.0000
# 2 23.8561 154.5768 34.6011 0.0000 -8.0129 0.0000
# 3 14.3635 34.6011 60.0255 0.0000 -2.6950 0.0000
# 4 0.0000 0.0000 0.0000 35.3673 0.0000 2.2061
# 5 0.5487 -8.0129 -2.6950 0.0000 17.9696 0.0000
# 6 0.0000 0.0000 0.0000 2.2061 0.0000 32.6099
#
#
#
# Elastic Compliance Matrix: (Units=1/GPa)
#
#
# Indices 1 2 3 4 5 6 
#
# 1 0.100839 -0.012202 -0.017597 0.000000 -0.011159 0.000000
# 2 -0.012202 0.009035 -0.002105 0.000000 0.004086 0.000000
# 3 -0.017597 -0.002105 0.022215 0.000000 0.002930 0.000000
# 4 0.000000 0.000000 0.000000 0.028395 0.000000 -0.001921
# 5 -0.011159 0.004086 0.002930 0.000000 0.058252 0.000000
# 6 0.000000 0.000000 0.000000 -0.001921 0.000000 0.030795
#
#
# Mechanical properties :
#
#
# Convention : Reuss Voigt Hill
#
# Bulk Modulus (GPa) = 14.64527 41.73494 28.19011
# Shear Modulus (GPa) = 14.87651 27.66619 21.27135
#
# Velocity S-wave (km/s) = 2.49868 3.40749 2.98784
# Velocity P-wave (km/s) = 3.80406 5.74427 4.87173
#
# Compressibility (1/GPa) = 0.06828143
#
# Stress axis : x y z
#
# Youngs Moduli (GPa) = 9.91680 110.67488 45.01381
#
# Poissons Ratio (x) = 1.35047 0.79211
# Poissons Ratio (y) = 0.12101 0.09476
# Poissons Ratio (z) = 0.17451 0.23298
#
# Static dielectric constant tensor:
#      x y z
#    x 1.321250 0.000000 0.224250 
#    y 0.000000 2.059440 0.000000 
#    z 0.224250 0.000000 1.875720 
# 
# From -- ./inp_files/19089.got.cif
#   From: 2010.05.17/outbox.cif.g08.bks.cpg/sg14_10_cif.got.tgz:19089.got - 2010.06.03 17:49:19.
