data_PCOD9245714
_publ_section_title
;
Structure prediction by ZEFSAII (Michael W. Deem and Ramdas Pophale) SiO2 
 PCOD9245714
Probable space group: P 21/C
;
_chemical_formula_sum "Si O2"
_cell_formula_units_Z 24
_cell_length_a 19.585140
_cell_length_b 5.192429
_cell_length_c 12.796828
_cell_angle_alpha 90.000000
_cell_angle_beta 62.078537
_cell_angle_gamma 90.000000
_cell_volume 1149.874678
_symmetry_space_group_name_H-M "P 21/C"
_symmetry_group_IT_number 14
_symmetry_cell_setting 'monoclinic'
loop_
_space_group_symop_operation_xyz
x,y,z
-x,1/2+y,1/2-z
-x,-y,-z
x,1/2-y,1/2+z
loop_
_atom_site_type_symbol
_atom_site_label
_atom_site_fract_x
_atom_site_fract_y
_atom_site_fract_z
Si Si1 0.126756 0.453894 0.348802
Si Si2 0.229926 0.177117 0.959074
Si Si3 0.400382 0.523719 0.364028
Si Si4 0.163508 0.827320 0.612733
Si Si5 0.978444 0.201496 0.426119
Si Si6 0.468313 0.028297 0.406988
O O1 0.189646 0.308930 0.373798
O O2 0.163503 0.641707 0.237339
O O3 0.073760 0.593743 0.473275
O O4 0.063186 0.290978 0.330680
O O5 0.218021 0.452625 0.022690
O O6 0.188405 0.956196 0.058488
O O7 0.316343 0.068601 0.888203
O O8 0.410317 0.800859 0.411873
O O9 0.459436 0.519225 0.224574
O O10 0.428744 0.304311 0.423064
O O11 0.077888 0.880848 0.626282
O O12 0.000000 0.000000 0.500000
O O13 0.500000 0.000000 0.500000
#
# Coordination Sequence:
#
# PCOD9245714 Si02
#       6
#     4   4   4   4   4   4
#     4  10  24  39  60  86 120 160 205 257 307 358
#     4  11  24  42  57  93 126 158 201 249 308 366
#     4  10  22  39  64  91 128 156 197 253 293 359
#     4  11  25  39  63  87 123 163 209 251 306 366
#     4  10  21  39  59  85 115 157 209 259 296 354
#     4  10  21  41  66  95 119 160 204 240 296 360
#
# _framework density 20.871842000000001
#
# number of rings (size 3 to 8) (size 9 to 14) (size 15 to 20)
#    0.000    1.667    1.667    1.500    4.667    2.667 
#    0.000    0.000    0.000    0.000    0.000    0.000 
#    0.000    0.000    0.000    0.000    0.000    0.000 
#
# Total GULP energy -133945.948558 kJ/mol
# GULP energy per Si atom -5581.081190 kJ/mol
# Density = 2.082434 g / cm^3
# Si number density = 20.871842 Si / 1000 Ang^3
#
#
#
# Elastic Constant Matrix: (Units=GPa)
#
#
# Indices 1 2 3 4 5 6 
#
# 1 76.1871 -16.5833 15.4087 0.0000 -8.6476 0.0000
# 2 -16.5833 56.0594 4.7413 0.0000 -0.6853 0.0000
# 3 15.4087 4.7413 43.9224 0.0000 19.7674 0.0000
# 4 0.0000 0.0000 0.0000 23.9993 0.0000 0.4912
# 5 -8.6476 -0.6853 19.7674 0.0000 24.5887 0.0000
# 6 0.0000 0.0000 0.0000 0.4912 0.0000 31.7601
#
#
#
# Elastic Compliance Matrix: (Units=1/GPa)
#
#
# Indices 1 2 3 4 5 6 
#
# 1 0.021159 0.008091 -0.018406 0.000000 0.022464 0.000000
# 2 0.008091 0.021262 -0.010468 0.000000 0.011854 0.000000
# 3 -0.018406 -0.010468 0.052334 0.000000 -0.048838 0.000000
# 4 0.000000 0.000000 0.000000 0.041681 0.000000 -0.000645
# 5 0.022464 0.011854 -0.048838 0.000000 0.088162 0.000000
# 6 0.000000 0.000000 0.000000 -0.000645 0.000000 0.031496
#
#
# Mechanical properties :
#
#
# Convention : Reuss Voigt Hill
#
# Bulk Modulus (GPa) = 18.80155 20.36694 19.58424
# Shear Modulus (GPa) = 15.85330 27.57644 21.71487
#
# Velocity S-wave (km/s) = 2.75899 3.63881 3.22901
# Velocity P-wave (km/s) = 4.37916 5.23774 4.82757
#
# Compressibility (1/GPa) = 0.05318712
#
# Stress axis : x y z
#
# Youngs Moduli (GPa) = 47.26094 47.03270 19.10788
#
# Poissons Ratio (x) = -0.38052 0.35171
# Poissons Ratio (y) = -0.38237 0.20003
# Poissons Ratio (z) = 0.86991 0.49235
#
# Static dielectric constant tensor:
#      x y z
#    x 1.775190 0.000000 -0.017380 
#    y 0.000000 1.697640 0.000000 
#    z -0.017380 0.000000 1.738400 
# 
# From -- ./inp_files/33346.got.cif
#   From: 2010.05.17/outbox.cif.g08.bks.cpg/sg14_17_cif.got.tgz:33346.got - 2010.06.03 17:49:19.
