data_PCOD9245348
_publ_section_title
;
Structure prediction by ZEFSAII (Michael W. Deem and Ramdas Pophale) SiO2 
 PCOD9245348
Probable space group: P 21/C
;
_chemical_formula_sum "Si O2"
_cell_formula_units_Z 28
_cell_length_a 11.970010
_cell_length_b 9.057092
_cell_length_c 12.485585
_cell_angle_alpha 90.000000
_cell_angle_beta 72.569928
_cell_angle_gamma 90.000000
_cell_volume 1291.452558
_symmetry_space_group_name_H-M "P 21/C"
_symmetry_group_IT_number 14
_symmetry_cell_setting 'monoclinic'
loop_
_space_group_symop_operation_xyz
x,y,z
-x,1/2+y,1/2-z
-x,-y,-z
x,1/2-y,1/2+z
loop_
_atom_site_type_symbol
_atom_site_label
_atom_site_fract_x
_atom_site_fract_y
_atom_site_fract_z
Si Si1 0.002996 0.515142 0.669585
Si Si2 0.673691 0.584867 0.614389
Si Si3 0.855002 0.012593 0.427728
Si Si4 0.528607 0.239614 0.431017
Si Si5 0.231270 0.670225 0.543221
Si Si6 0.910342 0.721739 0.512273
Si Si7 0.378960 0.072285 0.631242
O O1 0.135913 0.573907 0.634485
O O2 0.009801 0.364644 0.597554
O O3 0.939331 0.489389 0.799425
O O4 0.940314 0.641640 0.615564
O O5 0.549602 0.641049 0.606989
O O6 0.713559 0.420328 0.571289
O O7 0.775315 0.679510 0.530164
O O8 0.674732 0.610436 0.739850
O O9 0.907046 0.896025 0.496958
O O10 0.726655 0.962561 0.420426
O O11 0.832796 0.179017 0.473470
O O12 0.658861 0.294863 0.413784
O O13 0.461664 0.198926 0.560294
O O14 0.543957 0.077002 0.374543
#
# Coordination Sequence:
#
# PCOD9245348 Si02
#       7
#     4   4   4   4   4   4   4
#     4  10  21  40  61  93 127 170 216 261 323 379
#     4  11  21  41  65  93 125 169 212 262 329 381
#     4  11  20  41  65  91 127 170 217 265 326 380
#     4  10  22  42  61  95 130 165 214 267 319 393
#     4  10  24  39  63  95 133 164 210 278 317 385
#     4  10  21  37  65  89 124 168 213 261 314 388
#     4  10  22  38  66  92 126 170 213 265 325 380
#
# _framework density 21.681014999999999
#
# number of rings (size 3 to 8) (size 9 to 14) (size 15 to 20)
#    0.000    1.714    2.857    1.286    2.000    0.571 
#    0.000    0.000    9.429    0.000    0.000    0.000 
#    0.000    0.000    0.000    0.000    0.000    0.000 
#
# Total GULP energy -156329.070149 kJ/mol
# GULP energy per Si atom -5583.181077 kJ/mol
# Density = 2.163167 g / cm^3
# Si number density = 21.681015 Si / 1000 Ang^3
#
#
#
# Elastic Constant Matrix: (Units=GPa)
#
#
# Indices 1 2 3 4 5 6 
#
# 1 85.4256 39.0518 3.7570 0.0000 -24.2239 0.0000
# 2 39.0518 121.6389 22.8190 0.0000 -1.7489 0.0000
# 3 3.7570 22.8190 47.7636 0.0000 -15.0518 0.0000
# 4 0.0000 0.0000 0.0000 16.1680 0.0000 -3.5818
# 5 -24.2239 -1.7489 -15.0518 0.0000 21.8080 0.0000
# 6 0.0000 0.0000 0.0000 -3.5818 0.0000 47.1934
#
#
#
# Elastic Compliance Matrix: (Units=1/GPa)
#
#
# Indices 1 2 3 4 5 6 
#
# 1 0.027956 -0.011440 0.016311 0.000000 0.041394 0.000000
# 2 -0.011440 0.013856 -0.011980 0.000000 -0.019864 0.000000
# 3 0.016311 -0.011980 0.039340 0.000000 0.044310 0.000000
# 4 0.000000 0.000000 0.000000 0.062908 0.000000 0.004774
# 5 0.041394 -0.019864 0.044310 0.000000 0.120824 0.000000
# 6 0.000000 0.000000 0.000000 0.004774 0.000000 0.021552
#
#
# Mechanical properties :
#
#
# Convention : Reuss Voigt Hill
#
# Bulk Modulus (GPa) = 14.93996 42.89820 28.91908
# Shear Modulus (GPa) = 15.48158 29.64722 22.56440
#
# Velocity S-wave (km/s) = 2.67509 3.70189 3.22956
# Velocity P-wave (km/s) = 4.05552 6.17260 5.22246
#
# Compressibility (1/GPa) = 0.06693459
#
# Stress axis : x y z
#
# Youngs Moduli (GPa) = 35.77002 72.17328 25.41945
#
# Poissons Ratio (x) = 0.82566 -0.41461
# Poissons Ratio (y) = 0.40921 0.30451
# Poissons Ratio (z) = -0.58344 0.86460
#
# Static dielectric constant tensor:
#      x y z
#    x 1.819350 0.000000 -0.006050 
#    y 0.000000 1.847360 0.000000 
#    z -0.006050 0.000000 1.733950 
# 
# From -- ./inp_files/43594.got.cif
#   From: 2010.05.17/outbox.cif.g08.bks.cpg/sg14_22_cif.got.tgz:43594.got - 2010.06.03 17:49:19.
