data_PCOD9245893
_publ_section_title
;
Structure prediction by ZEFSAII (Michael W. Deem and Ramdas Pophale) SiO2 
 PCOD9245893
Probable space group: P 21/C
;
_chemical_formula_sum "Si O2"
_cell_formula_units_Z 32
_cell_length_a 30.623816
_cell_length_b 5.367797
_cell_length_c 17.814259
_cell_angle_alpha 90.000000
_cell_angle_beta 150.384339
_cell_angle_gamma 90.000000
_cell_volume 1447.131139
_symmetry_space_group_name_H-M "P 21/C"
_symmetry_group_IT_number 14
_symmetry_cell_setting 'monoclinic'
loop_
_space_group_symop_operation_xyz
x,y,z
-x,1/2+y,1/2-z
-x,-y,-z
x,1/2-y,1/2+z
loop_
_atom_site_type_symbol
_atom_site_label
_atom_site_fract_x
_atom_site_fract_y
_atom_site_fract_z
Si Si1 0.641589 0.693312 0.941958
Si Si2 0.891511 0.671527 0.457123
Si Si3 0.211381 0.624616 0.818282
Si Si4 0.941060 0.420517 0.839642
Si Si5 0.730352 0.999922 0.208190
Si Si6 0.050223 0.381860 0.307482
Si Si7 0.554675 0.978848 0.006441
Si Si8 0.496202 0.521233 0.158113
O O1 0.559929 0.526628 0.849797
O O2 0.597616 0.913628 0.828977
O O3 0.720517 0.525614 0.028001
O O4 0.687849 0.812046 0.083936
O O5 0.858377 0.538936 0.332409
O O6 0.831018 0.919010 0.371700
O O7 0.879339 0.549575 0.521187
O O8 0.995515 0.707150 0.599613
O O9 0.153864 0.828838 0.774997
O O10 0.267345 0.743518 0.833581
O O11 0.929213 0.601811 0.750365
O O12 0.000000 0.500000 0.000000
O O13 0.661558 0.979167 0.173168
O O14 0.978060 0.599554 0.215105
O O15 0.521005 0.725951 0.916051
O O16 0.536860 0.229092 0.932202
O O17 0.500000 0.000000 0.000000
#
# Coordination Sequence:
#
# PCOD9245893 Si02
#       8
#     4   4   4   4   4   4   4   4
#     4  10  22  38  65  99 126 170 216 282 348 400
#     4  10  22  40  66  91 131 184 218 271 342 412
#     4  11  21  38  65  98 137 166 232 287 338 403
#     4  11  21  39  68  98 129 179 229 281 339 405
#     4  10  21  39  64  94 131 169 222 278 337 401
#     4  10  23  42  65  92 127 174 226 270 332 404
#     4  11  24  43  66  94 131 183 228 271 337 425
#     4  11  22  40  70  93 128 173 220 276 342 412
#
# _framework density 22.112718000000001
#
# number of rings (size 3 to 8) (size 9 to 14) (size 15 to 20)
#    0.000    1.500    2.500    3.000    3.500    1.000 
#    0.000    2.500    0.000    0.000    0.000    0.000 
#    0.000    0.000    0.000    0.000    0.000    0.000 
#
# Total GULP energy -178320.887176 kJ/mol
# GULP energy per Si atom -5572.527724 kJ/mol
# Density = 2.206239 g / cm^3
# Si number density = 22.112718 Si / 1000 Ang^3
#
#
#
# Elastic Constant Matrix: (Units=GPa)
#
#
# Indices 1 2 3 4 5 6 
#
# 1 70.9134 11.4771 21.8853 0.0000 4.1493 0.0000
# 2 11.4771 90.4605 19.5696 0.0000 -1.4767 0.0000
# 3 21.8853 19.5696 62.3429 0.0000 5.0994 0.0000
# 4 0.0000 0.0000 0.0000 35.2363 0.0000 -1.6718
# 5 4.1493 -1.4767 5.0994 0.0000 33.7666 0.0000
# 6 0.0000 0.0000 0.0000 -1.6718 0.0000 27.8441
#
#
#
# Elastic Compliance Matrix: (Units=1/GPa)
#
#
# Indices 1 2 3 4 5 6 
#
# 1 0.015927 -0.000914 -0.005205 0.000000 -0.001211 0.000000
# 2 -0.000914 0.011953 -0.003526 0.000000 0.001168 0.000000
# 3 -0.005205 -0.003526 0.019172 0.000000 -0.002410 0.000000
# 4 0.000000 0.000000 0.000000 0.028461 0.000000 0.001709
# 5 -0.001211 0.001168 -0.002410 0.000000 0.030179 0.000000
# 6 0.000000 0.000000 0.000000 0.001709 0.000000 0.036017
#
#
# Mechanical properties :
#
#
# Convention : Reuss Voigt Hill
#
# Bulk Modulus (GPa) = 36.02399 36.62010 36.32205
# Shear Modulus (GPa) = 29.36815 30.75506 30.06161
#
# Velocity S-wave (km/s) = 3.64828 3.73343 3.69110
# Velocity P-wave (km/s) = 5.83721 5.93138 5.88448
#
# Compressibility (1/GPa) = 0.02775928
#
# Stress axis : x y z
#
# Youngs Moduli (GPa) = 62.78675 83.66444 52.16054
#
# Poissons Ratio (x) = 0.07651 0.27149
# Poissons Ratio (y) = 0.05742 0.18394
# Poissons Ratio (z) = 0.32680 0.29504
#
# Static dielectric constant tensor:
#      x y z
#    x 1.859040 0.000000 -0.009870 
#    y 0.000000 1.945960 0.000000 
#    z -0.009870 0.000000 1.894360 
# 
# From -- ./inp_files/62514.got.cif
#   From: 2010.05.17/outbox.cif.g08.bks.cpg/sg14_32_cif.got.tgz:62514.got - 2010.06.03 17:49:19.
