data_PCOD9245397
_publ_section_title
;
Structure prediction by ZEFSAII (Michael W. Deem and Ramdas Pophale) SiO2 
 PCOD9245397
Probable space group: P 21/C
;
_chemical_formula_sum "Si O2"
_cell_formula_units_Z 32
_cell_length_a 21.779168
_cell_length_b 7.858560
_cell_length_c 29.079300
_cell_angle_alpha 90.000000
_cell_angle_beta 17.838734
_cell_angle_gamma 90.000000
_cell_volume 1524.650734
_symmetry_space_group_name_H-M "P 21/C"
_symmetry_group_IT_number 14
_symmetry_cell_setting 'monoclinic'
loop_
_space_group_symop_operation_xyz
x,y,z
-x,1/2+y,1/2-z
-x,-y,-z
x,1/2-y,1/2+z
loop_
_atom_site_type_symbol
_atom_site_label
_atom_site_fract_x
_atom_site_fract_y
_atom_site_fract_z
Si Si1 0.797916 0.477023 0.860991
Si Si2 0.611722 0.924855 0.988397
Si Si3 0.095849 0.262372 0.049922
Si Si4 0.636044 0.249692 0.411156
Si Si5 0.686880 0.467235 0.651884
Si Si6 0.736281 0.109790 0.571827
Si Si7 0.603511 0.787022 0.577021
Si Si8 0.048565 0.722601 0.170981
O O1 0.634837 0.425146 0.940188
O O2 0.868528 0.307860 0.837160
O O3 0.983006 0.583892 0.708444
O O4 0.718748 0.599880 0.957268
O O5 0.846869 0.889165 0.812519
O O6 0.569611 0.106182 0.995494
O O7 0.492150 0.789890 0.042285
O O8 0.561319 0.884881 0.077659
O O9 0.869914 0.257166 0.229360
O O10 0.151599 0.115294 0.973332
O O11 0.133440 0.451973 0.003343
O O12 0.251830 0.253987 0.982293
O O13 0.761186 0.288952 0.578597
O O14 0.491256 0.543363 0.765219
O O15 0.587351 0.399039 0.770480
O O16 0.799033 0.152028 0.474922
#
# Coordination Sequence:
#
# PCOD9245397 Si02
#       8
#     4   4   4   4   4   4   4   4
#     4  11  21  33  59  89 122 149 194 245 311 362
#     4  10  22  39  62  81 127 155 200 250 303 376
#     4  11  21  39  61  90 122 154 205 252 297 372
#     4  11  22  39  59  89 116 166 196 246 316 364
#     4  11  21  37  58  90 118 160 195 254 303 353
#     4  11  20  34  56  87 117 150 199 245 301 356
#     4  10  21  38  57  92 119 153 200 252 301 364
#     4  11  20  36  56  90 121 149 192 255 298 368
#
# _framework density 20.988412
#
# number of rings (size 3 to 8) (size 9 to 14) (size 15 to 20)
#    0.000    1.250    6.250    3.000    0.000    3.000 
#    2.250    0.625    0.000    0.750    0.000    0.000 
#    0.000    0.000    0.000    0.000    0.000    0.000 
#
# Total GULP energy -178390.445384 kJ/mol
# GULP energy per Si atom -5574.701418 kJ/mol
# Density = 2.094064 g / cm^3
# Si number density = 20.988412 Si / 1000 Ang^3
#
#
#
# Elastic Constant Matrix: (Units=GPa)
#
#
# Indices 1 2 3 4 5 6 
#
# 1 64.2530 9.5327 16.0290 0.0000 -6.4873 0.0000
# 2 9.5327 109.5961 23.6832 0.0000 14.3120 0.0000
# 3 16.0290 23.6832 66.0677 0.0000 22.7792 0.0000
# 4 0.0000 0.0000 0.0000 29.5968 0.0000 10.6651
# 5 -6.4873 14.3120 22.7792 0.0000 15.8784 0.0000
# 6 0.0000 0.0000 0.0000 10.6651 0.0000 31.5276
#
#
#
# Elastic Compliance Matrix: (Units=1/GPa)
#
#
# Indices 1 2 3 4 5 6 
#
# 1 0.024614 -0.003316 -0.018364 0.000000 0.039391 0.000000
# 2 -0.003316 0.010820 0.001495 0.000000 -0.013253 0.000000
# 3 -0.018364 0.001495 0.043744 0.000000 -0.071607 0.000000
# 4 0.000000 0.000000 0.000000 0.038478 0.000000 -0.013016
# 5 0.039391 -0.013253 -0.071607 0.000000 0.193745 0.000000
# 6 0.000000 0.000000 0.000000 -0.013016 0.000000 0.036121
#
#
# Mechanical properties :
#
#
# Convention : Reuss Voigt Hill
#
# Bulk Modulus (GPa) = 25.76802 37.60074 31.68438
# Shear Modulus (GPa) = 12.47413 28.11202 20.29307
#
# Velocity S-wave (km/s) = 2.44054 3.66376 3.11283
# Velocity P-wave (km/s) = 4.49951 5.98761 5.29608
#
# Compressibility (1/GPa) = 0.03880779
#
# Stress axis : x y z
#
# Youngs Moduli (GPa) = 40.62749 92.41758 22.86012
#
# Poissons Ratio (x) = 0.30650 0.41981
# Poissons Ratio (y) = 0.13474 -0.03418
# Poissons Ratio (z) = 0.74610 -0.13820
#
# Static dielectric constant tensor:
#      x y z
#    x 1.776570 0.000000 0.027850 
#    y 0.000000 1.857730 0.000000 
#    z 0.027850 0.000000 1.760250 
# 
# From -- ./inp_files/77969.got.cif
#   From: 2010.05.17/outbox.cif.g08.bks.cpg/sg14_39_cif.got.tgz:77969.got - 2010.06.03 17:49:19.
