data_PCOD9245252
_publ_section_title
;
Structure prediction by ZEFSAII (Michael W. Deem and Ramdas Pophale) SiO2 
 PCOD9245252
Probable space group: P 21/C
;
_chemical_formula_sum "Si O2"
_cell_formula_units_Z 32
_cell_length_a 12.397521
_cell_length_b 12.819788
_cell_length_c 18.864198
_cell_angle_alpha 90.000000
_cell_angle_beta 152.100384
_cell_angle_gamma 90.000000
_cell_volume 1402.908227
_symmetry_space_group_name_H-M "P 21/C"
_symmetry_group_IT_number 14
_symmetry_cell_setting 'monoclinic'
loop_
_space_group_symop_operation_xyz
x,y,z
-x,1/2+y,1/2-z
-x,-y,-z
x,1/2-y,1/2+z
loop_
_atom_site_type_symbol
_atom_site_label
_atom_site_fract_x
_atom_site_fract_y
_atom_site_fract_z
Si Si1 0.811895 0.131403 0.769424
Si Si2 0.658248 0.621611 0.919692
Si Si3 0.119617 0.242538 0.561358
Si Si4 0.125988 0.904865 0.476486
Si Si5 0.704108 0.193263 0.985076
Si Si6 0.055911 0.257069 0.801959
Si Si7 0.990965 0.931206 0.923474
Si Si8 0.341705 0.402602 0.381373
O O1 0.566959 0.125835 0.663794
O O2 0.850355 0.189434 0.718048
O O3 0.898797 0.013157 0.813448
O O4 0.967384 0.196597 0.915161
O O5 0.664313 0.699874 0.856357
O O6 0.853029 0.662927 0.087039
O O7 0.722094 0.507482 0.929124
O O8 0.979276 0.146205 0.513362
O O9 0.156318 0.328234 0.643740
O O10 0.901932 0.930883 0.297596
O O11 0.277816 0.811798 0.530883
O O12 0.938381 0.185384 0.168418
O O13 0.760878 0.112345 0.955121
O O14 0.492220 0.157972 0.909682
O O15 0.258715 0.177986 0.894702
O O16 0.000000 0.000000 0.000000
O O17 0.500000 0.500000 0.500000
#
# Coordination Sequence:
#
# PCOD9245252 Si02
#       8
#     4   4   4   4   4   4   4   4
#     4  10  21  37  60  84 114 157 199 246 307 356
#     4  11  22  37  59  85 119 159 196 247 305 359
#     4   9  21  40  57  83 118 152 199 252 297 358
#     4  10  23  38  57  90 121 149 200 252 295 363
#     4  10  21  39  61  85 118 157 193 242 302 364
#     4  10  22  40  57  88 122 152 202 250 291 363
#     4   9  19  38  61  87 114 148 202 252 292 359
#     4  11  22  39  64  88 117 160 197 241 308 366
#
# _framework density 22.809759
#
# number of rings (size 3 to 8) (size 9 to 14) (size 15 to 20)
#    0.000    2.000    0.000    2.625    0.000    9.000 
#    0.000    3.750    0.000    0.000    0.000    0.000 
#    0.000    0.000    0.000    0.000    0.000    0.000 
#
# Total GULP energy -178742.044815 kJ/mol
# GULP energy per Si atom -5585.688900 kJ/mol
# Density = 2.275784 g / cm^3
# Si number density = 22.809759 Si / 1000 Ang^3
#
#
#
# Elastic Constant Matrix: (Units=GPa)
#
#
# Indices 1 2 3 4 5 6 
#
# 1 110.2931 57.9927 13.8753 0.0000 28.9104 0.0000
# 2 57.9927 125.9423 34.2676 0.0000 25.4930 0.0000
# 3 13.8753 34.2676 58.2086 0.0000 23.0730 0.0000
# 4 0.0000 0.0000 0.0000 20.9131 0.0000 -2.0147
# 5 28.9104 25.4930 23.0730 0.0000 34.1416 0.0000
# 6 0.0000 0.0000 0.0000 -2.0147 0.0000 29.8935
#
#
#
# Elastic Compliance Matrix: (Units=1/GPa)
#
#
# Indices 1 2 3 4 5 6 
#
# 1 0.014261 -0.005510 0.004098 0.000000 -0.010732 0.000000
# 2 -0.005510 0.012119 -0.005578 0.000000 -0.000614 0.000000
# 3 0.004098 -0.005578 0.026240 0.000000 -0.017038 0.000000
# 4 0.000000 0.000000 0.000000 0.048129 0.000000 0.003244
# 5 -0.010732 -0.000614 -0.017038 0.000000 0.050350 0.000000
# 6 0.000000 0.000000 0.000000 0.003244 0.000000 0.033671
#
#
# Mechanical properties :
#
#
# Convention : Reuss Voigt Hill
#
# Bulk Modulus (GPa) = 25.87892 56.30169 41.09030
# Shear Modulus (GPa) = 23.62611 29.54353 26.58482
#
# Velocity S-wave (km/s) = 3.22186 3.60281 3.41765
# Velocity P-wave (km/s) = 5.02102 6.48412 5.79890
#
# Compressibility (1/GPa) = 0.03864149
#
# Stress axis : x y z
#
# Youngs Moduli (GPa) = 70.12043 82.51417 38.10956
#
# Poissons Ratio (x) = 0.45462 -0.15617
# Poissons Ratio (y) = 0.38633 0.21257
# Poissons Ratio (z) = -0.28734 0.46024
#
# Static dielectric constant tensor:
#      x y z
#    x 1.908310 0.000000 -0.025060 
#    y 0.000000 1.838760 0.000000 
#    z -0.025060 0.000000 1.910450 
# 
# From -- ./inp_files/67444.got.cif
#   From: 2010.05.17/outbox.cif.g08.bks.cpg/sg14_34_cif.got.tgz:67444.got - 2010.06.03 17:49:19.
