data_PCOD9245062
_publ_section_title
;
Structure prediction by ZEFSAII (Michael W. Deem and Ramdas Pophale) SiO2 
 PCOD9245062
Probable space group: P 21/C
;
_chemical_formula_sum "Si O2"
_cell_formula_units_Z 20
_cell_length_a 12.024562
_cell_length_b 6.972959
_cell_length_c 11.790389
_cell_angle_alpha 90.000000
_cell_angle_beta 133.948485
_cell_angle_gamma 90.000000
_cell_volume 711.746503
_symmetry_space_group_name_H-M "P 21/C"
_symmetry_group_IT_number 14
_symmetry_cell_setting 'monoclinic'
loop_
_space_group_symop_operation_xyz
x,y,z
-x,1/2+y,1/2-z
-x,-y,-z
x,1/2-y,1/2+z
loop_
_atom_site_type_symbol
_atom_site_label
_atom_site_fract_x
_atom_site_fract_y
_atom_site_fract_z
Si Si1 0.946934 0.489732 0.138527
Si Si2 0.345698 0.946425 0.182154
Si Si3 0.635646 0.130139 0.484515
Si Si4 0.865371 0.733465 0.376075
Si Si5 0.296163 0.017617 0.907894
O O1 0.993091 0.295227 0.103564
O O2 0.097772 0.152058 0.483039
O O3 0.115932 0.534351 0.305945
O O4 0.800287 0.472967 0.115638
O O5 0.489249 0.996633 0.364170
O O6 0.191960 0.023179 0.134300
O O7 0.345075 0.738669 0.124644
O O8 0.359449 0.075965 0.075469
O O9 0.624896 0.312534 0.561353
O O10 0.721273 0.840513 0.209619
#
# Coordination Sequence:
#
# PCOD9245062 Si02
#       5
#     4   4   4   4   4
#     4   9  19  36  61  83 112 148 198 233 286 338
#     4  10  21  36  59  81 121 150 190 236 286 342
#     4  10  21  37  57  86 117 153 188 240 283 342
#     4   9  19  38  61  86 112 153 194 238 282 347
#     4   8  21  35  59  82 113 153 188 228 296 324
#
# _framework density 28.099891
#
# number of rings (size 3 to 8) (size 9 to 14) (size 15 to 20)
#    2.400    0.400    0.000    1.200    2.800    1.600 
#    0.000    1.000    4.400    0.000    0.000    0.000 
#    0.000    0.000    0.000    0.000    0.000    0.000 
#
# Total GULP energy -111683.795199 kJ/mol
# GULP energy per Si atom -5584.189760 kJ/mol
# Density = 2.803593 g / cm^3
# Si number density = 28.099891 Si / 1000 Ang^3
#
#
#
# Elastic Constant Matrix: (Units=GPa)
#
#
# Indices 1 2 3 4 5 6 
#
# 1 56.1847 41.0721 22.0686 0.0000 3.8706 0.0000
# 2 41.0721 81.7553 27.9336 0.0000 0.6601 0.0000
# 3 22.0686 27.9336 141.9373 0.0000 5.3344 0.0000
# 4 0.0000 0.0000 0.0000 26.9169 0.0000 -0.6017
# 5 3.8706 0.6601 5.3344 0.0000 53.0827 0.0000
# 6 0.0000 0.0000 0.0000 -0.6017 0.0000 50.8536
#
#
#
# Elastic Compliance Matrix: (Units=1/GPa)
#
#
# Indices 1 2 3 4 5 6 
#
# 1 0.028681 -0.013823 -0.001673 0.000000 -0.001751 0.000000
# 2 -0.013823 0.019776 -0.001778 0.000000 0.000941 0.000000
# 3 -0.001673 -0.001778 0.007679 0.000000 -0.000628 0.000000
# 4 0.000000 0.000000 0.000000 0.037161 0.000000 0.000440
# 5 -0.001751 0.000941 -0.000628 0.000000 0.019018 0.000000
# 6 0.000000 0.000000 0.000000 0.000440 0.000000 0.019669
#
#
# Mechanical properties :
#
#
# Convention : Reuss Voigt Hill
#
# Bulk Modulus (GPa) = 46.32282 51.33620 48.82951
# Shear Modulus (GPa) = 28.78052 38.75752 33.76902
#
# Velocity S-wave (km/s) = 3.20382 3.71789 3.47039
# Velocity P-wave (km/s) = 5.49607 6.06128 5.78558
#
# Compressibility (1/GPa) = 0.02158763
#
# Stress axis : x y z
#
# Youngs Moduli (GPa) = 34.86615 50.56662 130.22482
#
# Poissons Ratio (x) = 0.69898 0.21789
# Poissons Ratio (y) = 0.48195 0.23155
# Poissons Ratio (z) = 0.05834 0.08991
#
# Static dielectric constant tensor:
#      x y z
#    x 2.104840 0.000000 -0.009280 
#    y 0.000000 2.173930 0.000000 
#    z -0.009280 0.000000 2.164730 
# 
# From -- ./inp_files/32409.got.cif
#   From: 2010.05.17/outbox.cif.g08.bks.cpg/sg14_17_cif.got.tgz:32409.got - 2010.06.03 17:49:19.
