data_PCOD9245344
_publ_section_title
;
Structure prediction by ZEFSAII (Michael W. Deem and Ramdas Pophale) SiO2 
 PCOD9245344
Probable space group: P 21/C
;
_chemical_formula_sum "Si O2"
_cell_formula_units_Z 32
_cell_length_a 30.229517
_cell_length_b 9.430407
_cell_length_c 18.381715
_cell_angle_alpha 90.000000
_cell_angle_beta 161.999270
_cell_angle_gamma 90.000000
_cell_volume 1619.373643
_symmetry_space_group_name_H-M "P 21/C"
_symmetry_group_IT_number 14
_symmetry_cell_setting 'monoclinic'
loop_
_space_group_symop_operation_xyz
x,y,z
-x,1/2+y,1/2-z
-x,-y,-z
x,1/2-y,1/2+z
loop_
_atom_site_type_symbol
_atom_site_label
_atom_site_fract_x
_atom_site_fract_y
_atom_site_fract_z
Si Si1 0.948892 0.727914 0.760027
Si Si2 0.145760 0.049951 0.264746
Si Si3 0.729135 0.839527 0.303337
Si Si4 0.477579 0.148855 0.422930
Si Si5 0.757446 0.962623 0.049805
Si Si6 0.760117 0.177239 0.356512
Si Si7 0.839866 0.262368 0.146058
Si Si8 0.177655 0.282829 0.210662
O O1 0.901520 0.845881 0.744252
O O2 0.870863 0.776496 0.564288
O O3 0.883539 0.583906 0.690797
O O4 0.115464 0.708110 0.006953
O O5 0.226513 0.142373 0.331055
O O6 0.214390 0.908835 0.403525
O O7 0.000000 0.000000 0.000000
O O8 0.603647 0.758433 0.150167
O O9 0.740433 0.803482 0.236184
O O10 0.724321 0.009763 0.302946
O O11 0.623978 0.224181 0.629894
O O12 0.500000 0.000000 0.500000
O O13 0.379166 0.114699 0.199181
O O14 0.796751 0.907924 0.191222
O O15 0.749013 0.130500 0.032443
O O16 0.821275 0.220479 0.531047
O O17 0.007147 0.234824 0.427872
#
# Coordination Sequence:
#
# PCOD9245344 Si02
#       8
#     4   4   4   4   4   4   4   4
#     4  10  21  37  64  97 124 162 212 267 314 374
#     4   9  20  35  58  96 131 160 197 261 317 375
#     4  11  23  41  66  95 127 168 217 268 315 381
#     4  11  25  44  64  90 130 177 216 265 320 382
#     4  10  22  41  65  91 134 168 213 264 323 384
#     4  12  23  38  67  98 128 164 221 264 319 382
#     4  11  19  35  65  97 127 165 209 260 323 374
#     4  10  21  40  64  95 131 163 209 267 324 371
#
# _framework density 19.760725999999998
#
# number of rings (size 3 to 8) (size 9 to 14) (size 15 to 20)
#    0.000    1.500    3.750    1.500    0.000    4.000 
#    0.000    1.250    8.250    0.000    0.000    0.000 
#    0.000    0.000    0.000    0.000    0.000    0.000 
#
# Total GULP energy -178693.649735 kJ/mol
# GULP energy per Si atom -5584.176554 kJ/mol
# Density = 1.971575 g / cm^3
# Si number density = 19.760726 Si / 1000 Ang^3
#
#
#
# Elastic Constant Matrix: (Units=GPa)
#
#
# Indices 1 2 3 4 5 6 
#
# 1 75.6862 32.7765 37.8745 0.0000 -16.4498 0.0000
# 2 32.7765 126.8057 23.9894 0.0000 5.6372 0.0000
# 3 37.8745 23.9894 83.2088 0.0000 8.8470 0.0000
# 4 0.0000 0.0000 0.0000 22.1910 0.0000 -8.6750
# 5 -16.4498 5.6372 8.8470 0.0000 32.4396 0.0000
# 6 0.0000 0.0000 0.0000 -8.6750 0.0000 14.3563
#
#
#
# Elastic Compliance Matrix: (Units=1/GPa)
#
#
# Indices 1 2 3 4 5 6 
#
# 1 0.024769 -0.004943 -0.011613 0.000000 0.016586 0.000000
# 2 -0.004943 0.009348 -0.000006 0.000000 -0.004129 0.000000
# 3 -0.011613 -0.000006 0.018467 0.000000 -0.010924 0.000000
# 4 0.000000 0.000000 0.000000 0.059001 0.000000 0.035652
# 5 0.016586 -0.004129 -0.010924 0.000000 0.042934 0.000000
# 6 0.000000 0.000000 0.000000 0.035652 0.000000 0.091199
#
#
# Mechanical properties :
#
#
# Convention : Reuss Voigt Hill
#
# Bulk Modulus (GPa) = 51.38492 52.77575 52.08034
# Shear Modulus (GPa) = 17.52366 26.53471 22.02919
#
# Velocity S-wave (km/s) = 2.98114 3.66840 3.34248
# Velocity P-wave (km/s) = 6.15708 6.68642 6.42720
#
# Compressibility (1/GPa) = 0.01946096
#
# Stress axis : x y z
#
# Youngs Moduli (GPa) = 40.37326 106.96993 54.15051
#
# Poissons Ratio (x) = 0.52871 0.62883
# Poissons Ratio (y) = 0.19955 0.00035
# Poissons Ratio (z) = 0.46884 0.00068
#
# Static dielectric constant tensor:
#      x y z
#    x 1.663540 0.000000 -0.009430 
#    y 0.000000 1.693850 0.000000 
#    z -0.009430 0.000000 1.698950 
# 
# From -- ./inp_files/62675.got.cif
#   From: 2010.05.17/outbox.cif.g08.bks.cpg/sg14_32_cif.got.tgz:62675.got - 2010.06.03 17:49:19.
