data_PCOD9245843
_publ_section_title
;
Structure prediction by ZEFSAII (Michael W. Deem and Ramdas Pophale) SiO2 
 PCOD9245843
Probable space group: P 21/C
;
_chemical_formula_sum "Si O2"
_cell_formula_units_Z 32
_cell_length_a 25.474093
_cell_length_b 9.088343
_cell_length_c 9.514530
_cell_angle_alpha 90.000000
_cell_angle_beta 49.454916
_cell_angle_gamma 90.000000
_cell_volume 1673.879521
_symmetry_space_group_name_H-M "P 21/C"
_symmetry_group_IT_number 14
_symmetry_cell_setting 'monoclinic'
loop_
_space_group_symop_operation_xyz
x,y,z
-x,1/2+y,1/2-z
-x,-y,-z
x,1/2-y,1/2+z
loop_
_atom_site_type_symbol
_atom_site_label
_atom_site_fract_x
_atom_site_fract_y
_atom_site_fract_z
Si Si1 0.029656 0.923792 0.584764
Si Si2 0.827826 0.596341 0.763452
Si Si3 0.952717 0.424322 0.465640
Si Si4 0.837421 0.891209 0.573820
Si Si5 0.438409 0.904006 0.428872
Si Si6 0.675128 0.914752 0.880465
Si Si7 0.428594 0.889228 0.774332
Si Si8 0.334031 0.389981 0.938755
O O1 0.032611 0.747988 0.573559
O O2 0.105686 0.989725 0.482156
O O3 0.000000 0.000000 0.500000
O O4 0.976269 0.983716 0.791391
O O5 0.873422 0.458064 0.638724
O O6 0.847658 0.737916 0.636761
O O7 0.844348 0.633508 0.895776
O O8 0.746171 0.568886 0.896369
O O9 0.000000 0.500000 0.500000
O O10 0.757930 0.936860 0.739357
O O11 0.415111 0.870042 0.630519
O O12 0.450235 0.759624 0.314993
O O13 0.509127 0.994949 0.319068
O O14 0.383372 0.001155 0.438311
O O15 0.654537 0.892436 0.751047
O O16 0.658096 0.770558 0.003851
O O17 0.635701 0.046552 0.025981
#
# Coordination Sequence:
#
# PCOD9245843 Si02
#       8
#     4   4   4   4   4   4   4   4
#     4  12  26  41  63  92 122 163 209 261 320 374
#     4  10  22  40  64  91 124 163 204 254 309 372
#     4  12  24  43  63  88 124 161 209 263 314 383
#     4  10  22  41  63  92 124 161 205 253 309 374
#     4  11  24  41  63  92 126 163 209 259 311 371
#     4  10  21  39  64  92 127 165 205 253 308 375
#     4  11  24  41  63  92 125 165 208 258 312 371
#     4  10  21  39  63  93 126 165 207 253 309 372
#
# _framework density 19.117265
#
# number of rings (size 3 to 8) (size 9 to 14) (size 15 to 20)
#    0.000    1.250    1.250    4.500    1.750    6.000 
#    0.000    0.000    0.000    0.000    0.000    0.000 
#    0.000    0.000    0.000    0.000    0.000    0.000 
#
# Total GULP energy -178754.242180 kJ/mol
# GULP energy per Si atom -5586.070068 kJ/mol
# Density = 1.907375 g / cm^3
# Si number density = 19.117265 Si / 1000 Ang^3
#
#
#
# Elastic Constant Matrix: (Units=GPa)
#
#
# Indices 1 2 3 4 5 6 
#
# 1 95.9049 27.3168 36.6194 0.0000 17.7261 0.0000
# 2 27.3168 79.3061 27.3782 0.0000 -5.9813 0.0000
# 3 36.6194 27.3782 96.9978 0.0000 16.3239 0.0000
# 4 0.0000 0.0000 0.0000 32.7591 0.0000 -6.1159
# 5 17.7261 -5.9813 16.3239 0.0000 27.0691 0.0000
# 6 0.0000 0.0000 0.0000 -6.1159 0.0000 36.0983
#
#
#
# Elastic Compliance Matrix: (Units=1/GPa)
#
#
# Indices 1 2 3 4 5 6 
#
# 1 0.014421 -0.004741 -0.002605 0.000000 -0.008920 0.000000
# 2 -0.004741 0.016491 -0.004452 0.000000 0.009433 0.000000
# 3 -0.002605 -0.004452 0.013832 0.000000 -0.007619 0.000000
# 4 0.000000 0.000000 0.000000 0.031523 0.000000 0.005341
# 5 -0.008920 0.009433 -0.007619 0.000000 0.049463 0.000000
# 6 0.000000 0.000000 0.000000 0.005341 0.000000 0.028607
#
#
# Mechanical properties :
#
#
# Convention : Reuss Voigt Hill
#
# Bulk Modulus (GPa) = 47.28738 50.53751 48.91245
# Shear Modulus (GPa) = 27.02979 31.24494 29.13736
#
# Velocity S-wave (km/s) = 3.76426 4.04714 3.90826
# Velocity P-wave (km/s) = 6.60923 6.95212 6.78285
#
# Compressibility (1/GPa) = 0.02114729
#
# Stress axis : x y z
#
# Youngs Moduli (GPa) = 69.34542 60.63992 72.29629
#
# Poissons Ratio (x) = 0.28747 0.18833
# Poissons Ratio (y) = 0.32874 0.32190
# Poissons Ratio (z) = 0.18064 0.27000
#
# Static dielectric constant tensor:
#      x y z
#    x 1.652590 0.000000 -0.016340 
#    y 0.000000 1.676090 0.000000 
#    z -0.016340 0.000000 1.652610 
# 
# From -- ./inp_files/18613.got.cif
#   From: 2010.05.17/outbox.cif.g08.bks.cpg/sg14_10_cif.got.tgz:18613.got - 2010.06.03 17:49:19.
