data_PCOD9245578
_publ_section_title
;
Structure prediction by ZEFSAII (Michael W. Deem and Ramdas Pophale) SiO2 
 PCOD9245578
Probable space group: P 21/C
;
_chemical_formula_sum "Si O2"
_cell_formula_units_Z 32
_cell_length_a 8.197093
_cell_length_b 29.765409
_cell_length_c 8.649318
_cell_angle_alpha 90.000000
_cell_angle_beta 53.389423
_cell_angle_gamma 90.000000
_cell_volume 1693.990015
_symmetry_space_group_name_H-M "P 21/C"
_symmetry_group_IT_number 14
_symmetry_cell_setting 'monoclinic'
loop_
_space_group_symop_operation_xyz
x,y,z
-x,1/2+y,1/2-z
-x,-y,-z
x,1/2-y,1/2+z
loop_
_atom_site_type_symbol
_atom_site_label
_atom_site_fract_x
_atom_site_fract_y
_atom_site_fract_z
Si Si1 0.550656 0.908122 0.603874
Si Si2 0.506138 0.500306 0.311806
Si Si3 0.109978 0.526702 0.070516
Si Si4 0.829024 0.545286 0.698249
Si Si5 0.454334 0.195581 0.323793
Si Si6 0.079447 0.596532 0.309610
Si Si7 0.198264 0.247474 0.726974
Si Si8 0.934462 0.200218 0.134069
O O1 0.556129 0.949552 0.721729
O O2 0.700822 0.920634 0.378691
O O3 0.581259 0.858307 0.654533
O O4 0.321695 0.908709 0.669545
O O5 0.500000 0.500000 0.500000
O O6 0.299778 0.481066 0.357906
O O7 0.670022 0.468425 0.132593
O O8 0.110574 0.493601 0.216725
O O9 0.009972 0.571810 0.191930
O O10 0.000000 0.500000 0.000000
O O11 0.997722 0.572333 0.509556
O O12 0.332875 0.217953 0.534548
O O13 0.351221 0.218654 0.231457
O O14 0.696623 0.204597 0.216523
O O15 0.028668 0.648347 0.347545
O O16 0.017487 0.271987 0.734139
O O17 0.082633 0.216181 0.914227
#
# Coordination Sequence:
#
# PCOD9245578 Si02
#       8
#     4   4   4   4   4   4   4   4
#     4  10  21  39  57  86 117 153 200 239 290 348
#     4  11  22  37  58  82 118 160 198 241 288 348
#     4  11  22  36  56  84 117 157 200 240 289 342
#     4  11  21  38  58  79 119 157 192 238 290 343
#     4  10  21  38  64  86 120 155 192 248 303 353
#     4  11  21  37  61  86 117 155 197 242 294 346
#     4  10  21  40  62  89 119 153 195 243 311 363
#     4  10  22  38  63  90 119 152 201 244 299 364
#
# _framework density 18.890312999999999
#
# number of rings (size 3 to 8) (size 9 to 14) (size 15 to 20)
#    0.000    1.500    2.500    3.375    1.750    3.000 
#    0.000    0.000    2.750    0.000    0.000    0.000 
#    0.000    0.000    0.000    0.000    0.000    0.000 
#
# Total GULP energy -178473.698068 kJ/mol
# GULP energy per Si atom -5577.303065 kJ/mol
# Density = 1.884732 g / cm^3
# Si number density = 18.890313 Si / 1000 Ang^3
#
#
#
# Elastic Constant Matrix: (Units=GPa)
#
#
# Indices 1 2 3 4 5 6 
#
# 1 55.2285 2.5070 -0.0093 0.0000 6.6576 0.0000
# 2 2.5070 67.0494 27.4930 0.0000 0.8236 0.0000
# 3 -0.0093 27.4930 80.8998 0.0000 4.4500 0.0000
# 4 0.0000 0.0000 0.0000 11.2093 0.0000 -2.0695
# 5 6.6576 0.8236 4.4500 0.0000 34.6582 0.0000
# 6 0.0000 0.0000 0.0000 -2.0695 0.0000 22.7014
#
#
#
# Elastic Compliance Matrix: (Units=1/GPa)
#
#
# Indices 1 2 3 4 5 6 
#
# 1 0.018581 -0.000851 0.000490 0.000000 -0.003612 0.000000
# 2 -0.000851 0.017372 -0.005932 0.000000 0.000512 0.000000
# 3 0.000490 -0.005932 0.014477 0.000000 -0.001812 0.000000
# 4 0.000000 0.000000 0.000000 0.090738 0.000000 0.008272
# 5 -0.003612 0.000512 -0.001812 0.000000 0.029768 0.000000
# 6 0.000000 0.000000 0.000000 0.008272 0.000000 0.044804
#
#
# Mechanical properties :
#
#
# Convention : Reuss Voigt Hill
#
# Bulk Modulus (GPa) = 26.42489 29.23990 27.83240
# Shear Modulus (GPa) = 20.75198 25.25958 23.00578
#
# Velocity S-wave (km/s) = 3.31804 3.66070 3.49357
# Velocity P-wave (km/s) = 5.35706 5.77755 5.57127
#
# Compressibility (1/GPa) = 0.03784311
#
# Stress axis : x y z
#
# Youngs Moduli (GPa) = 53.81918 57.56291 69.07676
#
# Poissons Ratio (x) = 0.04901 -0.03386
# Poissons Ratio (y) = 0.04582 0.40977
# Poissons Ratio (z) = -0.02638 0.34147
#
# Static dielectric constant tensor:
#      x y z
#    x 1.734390 0.000000 -0.031530 
#    y 0.000000 1.657940 0.000000 
#    z -0.031530 0.000000 1.630290 
# 
# From -- ./inp_files/11267.got.cif
#   From: 2010.05.17/outbox.cif.g08.bks.cpg/sg14_6_cif.got.tgz:11267.got - 2010.06.03 17:49:19.
