data_PCOD9245700
_publ_section_title
;
Structure prediction by ZEFSAII (Michael W. Deem and Ramdas Pophale) SiO2 
 PCOD9245700
Probable space group: P 21/C
;
_chemical_formula_sum "Si O2"
_cell_formula_units_Z 28
_cell_length_a 14.165760
_cell_length_b 12.590528
_cell_length_c 8.959175
_cell_angle_alpha 90.000000
_cell_angle_beta 58.440486
_cell_angle_gamma 90.000000
_cell_volume 1361.572801
_symmetry_space_group_name_H-M "P 21/C"
_symmetry_group_IT_number 14
_symmetry_cell_setting 'monoclinic'
loop_
_space_group_symop_operation_xyz
x,y,z
-x,1/2+y,1/2-z
-x,-y,-z
x,1/2-y,1/2+z
loop_
_atom_site_type_symbol
_atom_site_label
_atom_site_fract_x
_atom_site_fract_y
_atom_site_fract_z
Si Si1 0.367355 0.377640 0.134025
Si Si2 0.471875 0.959696 0.759985
Si Si3 0.117475 0.382410 0.220965
Si Si4 0.449519 0.764215 0.975920
Si Si5 0.357857 0.879770 0.319993
Si Si6 0.003529 0.251377 0.066929
Si Si7 0.104835 0.612233 0.099343
O O1 0.385124 0.458031 0.258259
O O2 0.245162 0.382255 0.168190
O O3 0.419030 0.262436 0.133870
O O4 0.453036 0.412686 0.934597
O O5 0.422449 0.866175 0.898356
O O6 0.562315 0.022925 0.782968
O O7 0.094489 0.300654 0.104012
O O8 0.049516 0.340271 0.420207
O O9 0.078792 0.497642 0.193118
O O10 0.393851 0.660222 0.953021
O O11 0.395787 0.788202 0.177691
O O12 0.229109 0.898704 0.434550
O O13 0.912089 0.199323 0.253917
O O14 0.963431 0.343389 0.986158
#
# Coordination Sequence:
#
# PCOD9245700 Si02
#       7
#     4   4   4   4   4   4   4
#     4  10  22  38  63  88 128 160 197 251 308 363
#     4  10  21  39  57  91 124 159 200 246 299 370
#     4  11  23  42  67  91 125 166 207 263 317 368
#     4  11  22  38  59  93 127 158 205 248 299 378
#     4  11  22  36  62  88 120 166 199 249 313 363
#     4  10  25  42  64  95 120 163 220 259 320 368
#     4  11  22  43  64  89 127 162 210 272 309 369
#
# _framework density 20.564453
#
# number of rings (size 3 to 8) (size 9 to 14) (size 15 to 20)
#    0.000    1.429    2.857    2.143    2.000    1.143 
#    0.000    4.286    0.000    0.000    0.000    0.000 
#    0.000    0.000    0.000    0.000    0.000    0.000 
#
# Total GULP energy -156162.658362 kJ/mol
# GULP energy per Si atom -5577.237799 kJ/mol
# Density = 2.051765 g / cm^3
# Si number density = 20.564453 Si / 1000 Ang^3
#
#
#
# Elastic Constant Matrix: (Units=GPa)
#
#
# Indices 1 2 3 4 5 6 
#
# 1 94.9382 25.5632 30.7545 0.0000 6.2854 0.0000
# 2 25.5632 83.6279 23.9583 0.0000 8.6493 0.0000
# 3 30.7545 23.9583 62.4789 0.0000 15.5607 0.0000
# 4 0.0000 0.0000 0.0000 38.9057 0.0000 11.7782
# 5 6.2854 8.6493 15.5607 0.0000 22.3422 0.0000
# 6 0.0000 0.0000 0.0000 11.7782 0.0000 20.8670
#
#
#
# Elastic Compliance Matrix: (Units=1/GPa)
#
#
# Indices 1 2 3 4 5 6 
#
# 1 0.012977 -0.002448 -0.005778 0.000000 0.001321 0.000000
# 2 -0.002448 0.013966 -0.003600 0.000000 -0.002211 0.000000
# 3 -0.005778 -0.003600 0.023566 0.000000 -0.013394 0.000000
# 4 0.000000 0.000000 0.000000 0.031000 0.000000 -0.017498
# 5 0.001321 -0.002211 -0.013394 0.000000 0.054571 0.000000
# 6 0.000000 0.000000 0.000000 -0.017498 0.000000 0.057799
#
#
# Mechanical properties :
#
#
# Convention : Reuss Voigt Hill
#
# Bulk Modulus (GPa) = 37.23454 44.62189 40.92821
# Shear Modulus (GPa) = 22.07678 27.14090 24.60884
#
# Velocity S-wave (km/s) = 3.28005 3.63684 3.46304
# Velocity P-wave (km/s) = 5.70005 6.27544 5.99465
#
# Compressibility (1/GPa) = 0.02685679
#
# Stress axis : x y z
#
# Youngs Moduli (GPa) = 77.06208 71.60254 42.43460
#
# Poissons Ratio (x) = 0.17528 0.24518
# Poissons Ratio (y) = 0.18865 0.15276
# Poissons Ratio (z) = 0.44525 0.25776
#
# Static dielectric constant tensor:
#      x y z
#    x 1.761700 0.000000 0.030730 
#    y 0.000000 1.810160 0.000000 
#    z 0.030730 0.000000 1.708870 
# 
# From -- ./inp_files/15632.got.cif
#   From: 2010.05.17/outbox.cif.g08.bks.cpg/sg14_8_cif.got.tgz:15632.got - 2010.06.03 17:49:19.
