data_PCOD9245053
_publ_section_title
;
Structure prediction by ZEFSAII (Michael W. Deem and Ramdas Pophale) SiO2 
 PCOD9245053
Probable space group: P 21/C
;
_chemical_formula_sum "Si O2"
_cell_formula_units_Z 32
_cell_length_a 5.639057
_cell_length_b 11.690859
_cell_length_c 19.340509
_cell_angle_alpha 90.000000
_cell_angle_beta 61.650345
_cell_angle_gamma 90.000000
_cell_volume 1122.111795
_symmetry_space_group_name_H-M "P 21/C"
_symmetry_group_IT_number 14
_symmetry_cell_setting 'monoclinic'
loop_
_space_group_symop_operation_xyz
x,y,z
-x,1/2+y,1/2-z
-x,-y,-z
x,1/2-y,1/2+z
loop_
_atom_site_type_symbol
_atom_site_label
_atom_site_fract_x
_atom_site_fract_y
_atom_site_fract_z
Si Si1 0.906454 0.956886 0.423844
Si Si2 0.603716 0.745573 0.968714
Si Si3 0.902953 0.376231 0.456199
Si Si4 0.226754 0.174913 0.381023
Si Si5 0.885468 0.092671 0.115219
Si Si6 0.574957 0.197874 0.662526
Si Si7 0.091967 0.444973 0.239594
Si Si8 0.127548 0.807578 0.709950
O O1 0.151127 0.868095 0.388389
O O2 0.661082 0.882791 0.488089
O O3 0.852296 0.974238 0.349729
O O4 0.037804 0.071367 0.434632
O O5 0.539488 0.722736 0.897164
O O6 0.847015 0.832951 0.929161
O O7 0.348425 0.805485 0.037943
O O8 0.801775 0.424908 0.543924
O O9 0.139926 0.286495 0.434976
O O10 0.015282 0.464215 0.384472
O O11 0.549510 0.168856 0.339539
O O12 0.089598 0.190516 0.323693
O O13 0.656705 0.175764 0.177902
O O14 0.375489 0.108905 0.727028
O O15 0.028386 0.579137 0.269248
O O16 0.904200 0.328702 0.263209
#
# Coordination Sequence:
#
# PCOD9245053 Si02
#       8
#     4   4   4   4   4   4   4   4
#     4   9  19  39  64  84 124 160 207 254 320 375
#     4   9  18  34  59  90 116 163 208 251 307 377
#     4  10  21  36  58  85 130 167 209 264 311 370
#     4  11  25  43  62  92 131 165 206 267 314 378
#     4   9  19  36  58  89 124 166 212 255 318 377
#     4   9  17  36  61  87 116 160 204 253 316 372
#     4  10  22  42  66  89 124 163 205 270 316 386
#     4  11  26  44  67  95 127 164 216 261 329 378
#
# _framework density 28.517661
#
# number of rings (size 3 to 8) (size 9 to 14) (size 15 to 20)
#    0.000    2.250    1.250    0.375    3.500    1.500 
#    6.750    5.625    0.000    0.000    0.000    0.000 
#    0.000    0.000    0.000    0.000    0.000    0.000 
#
# Total GULP energy -178614.520138 kJ/mol
# GULP energy per Si atom -5581.703754 kJ/mol
# Density = 2.845275 g / cm^3
# Si number density = 28.517661 Si / 1000 Ang^3
#
#
#
# Elastic Constant Matrix: (Units=GPa)
#
#
# Indices 1 2 3 4 5 6 
#
# 1 136.3421 47.8910 25.4870 0.0000 -18.5456 0.0000
# 2 47.8910 200.3141 22.6071 0.0000 -19.9011 0.0000
# 3 25.4870 22.6071 44.6996 0.0000 -31.2780 0.0000
# 4 0.0000 0.0000 0.0000 50.3235 0.0000 -3.0711
# 5 -18.5456 -19.9011 -31.2780 0.0000 35.9757 0.0000
# 6 0.0000 0.0000 0.0000 -3.0711 0.0000 48.1342
#
#
#
# Elastic Compliance Matrix: (Units=1/GPa)
#
#
# Indices 1 2 3 4 5 6 
#
# 1 0.008671 -0.001607 -0.004151 0.000000 -0.000028 0.000000
# 2 -0.001607 0.005626 -0.000845 0.000000 0.001549 0.000000
# 3 -0.004151 -0.000845 0.059600 0.000000 0.049210 0.000000
# 4 0.000000 0.000000 0.000000 0.019949 0.000000 0.001273
# 5 -0.000028 0.001549 0.049210 0.000000 0.071423 0.000000
# 6 0.000000 0.000000 0.000000 0.001273 0.000000 0.020856
#
#
# Mechanical properties :
#
#
# Convention : Reuss Voigt Hill
#
# Bulk Modulus (GPa) = 16.47708 63.70288 40.08998
# Shear Modulus (GPa) = 22.77262 45.91138 34.34200
#
# Velocity S-wave (km/s) = 2.82892 4.01674 3.47398
# Velocity P-wave (km/s) = 4.05719 6.62562 5.49362
#
# Compressibility (1/GPa) = 0.06069038
#
# Stress axis : x y z
#
# Youngs Moduli (GPa) = 115.32379 177.75582 16.77859
#
# Poissons Ratio (x) = 0.28573 0.06964
# Poissons Ratio (y) = 0.18538 0.01418
# Poissons Ratio (z) = 0.47868 0.15020
#
# Static dielectric constant tensor:
#      x y z
#    x 2.272460 0.000000 0.179000 
#    y 0.000000 2.376560 0.000000 
#    z 0.179000 0.000000 2.455350 
# 
# From -- ./inp_files/71222.got.cif
#   From: 2010.05.17/outbox.cif.g08.bks.cpg/sg14_36_cif.got.tgz:71222.got - 2010.06.03 17:49:19.
