data_PCOD9245492
_publ_section_title
;
Structure prediction by ZEFSAII (Michael W. Deem and Ramdas Pophale) SiO2 
 PCOD9245492
Probable space group: P 21/C
;
_chemical_formula_sum "Si O2"
_cell_formula_units_Z 32
_cell_length_a 19.559627
_cell_length_b 11.354281
_cell_length_c 16.762781
_cell_angle_alpha 90.000000
_cell_angle_beta 156.538640
_cell_angle_gamma 90.000000
_cell_volume 1482.148593
_symmetry_space_group_name_H-M "P 21/C"
_symmetry_group_IT_number 14
_symmetry_cell_setting 'monoclinic'
loop_
_space_group_symop_operation_xyz
x,y,z
-x,1/2+y,1/2-z
-x,-y,-z
x,1/2-y,1/2+z
loop_
_atom_site_type_symbol
_atom_site_label
_atom_site_fract_x
_atom_site_fract_y
_atom_site_fract_z
Si Si1 0.635538 0.685408 0.772575
Si Si2 0.428595 0.926316 0.195771
Si Si3 0.230820 0.531657 0.178160
Si Si4 0.152063 0.947055 0.774466
Si Si5 0.981577 0.292417 0.300386
Si Si6 0.806654 0.241866 0.953283
Si Si7 0.443803 0.431395 0.860542
Si Si8 0.945731 0.011597 0.032806
O O1 0.551009 0.636006 0.762882
O O2 0.660142 0.574443 0.741124
O O3 0.531135 0.791450 0.618784
O O4 0.823309 0.742142 0.990630
O O5 0.341063 0.829256 0.158826
O O6 0.509106 0.015218 0.346361
O O7 0.274725 0.986505 0.978783
O O8 0.238683 0.534298 0.281776
O O9 0.270974 0.659505 0.186309
O O10 0.034481 0.505956 0.937453
O O11 0.119297 0.809182 0.758802
O O12 0.945212 0.420071 0.298857
O O13 0.918095 0.297764 0.142548
O O14 0.927997 0.147043 0.038737
O O15 0.241515 0.458589 0.649774
O O16 0.500000 0.500000 0.000000
O O17 0.000000 0.000000 0.000000
#
# Coordination Sequence:
#
# PCOD9245492 Si02
#       8
#     4   4   4   4   4   4   4   4
#     4  10  23  39  61  91 122 166 212 253 313 374
#     4  10  23  41  60  86 123 167 202 257 312 372
#     4  10  21  38  63  93 121 159 203 258 312 376
#     4   9  20  40  60  88 123 155 201 257 313 369
#     4   9  20  37  60  87 125 154 207 256 306 375
#     4  10  22  35  61  91 121 161 201 254 320 367
#     4  10  24  44  60  87 128 162 210 259 307 372
#     4  10  21  38  61  89 117 159 204 256 314 367
#
# _framework density 21.590278999999999
#
# number of rings (size 3 to 8) (size 9 to 14) (size 15 to 20)
#    0.000    2.250    0.000    0.750   10.500    6.500 
#    2.250    0.000    0.000    0.000    0.000    0.000 
#    0.000    0.000    0.000    0.000    0.000    0.000 
#
# Total GULP energy -178597.888477 kJ/mol
# GULP energy per Si atom -5581.184015 kJ/mol
# Density = 2.154114 g / cm^3
# Si number density = 21.590279 Si / 1000 Ang^3
#
#
#
# Elastic Constant Matrix: (Units=GPa)
#
#
# Indices 1 2 3 4 5 6 
#
# 1 163.0564 90.6372 22.5021 0.0000 -24.9352 0.0000
# 2 90.6372 131.0441 27.4373 0.0000 -27.4853 0.0000
# 3 22.5021 27.4373 46.2128 0.0000 -14.9786 0.0000
# 4 0.0000 0.0000 0.0000 17.3205 0.0000 -10.7058
# 5 -24.9352 -27.4853 -14.9786 0.0000 28.6684 0.0000
# 6 0.0000 0.0000 0.0000 -10.7058 0.0000 21.4273
#
#
#
# Elastic Compliance Matrix: (Units=1/GPa)
#
#
# Indices 1 2 3 4 5 6 
#
# 1 0.010122 -0.006412 -0.000314 0.000000 0.002492 0.000000
# 2 -0.006412 0.014039 -0.003200 0.000000 0.006210 0.000000
# 3 -0.000314 -0.003200 0.027218 0.000000 0.010880 0.000000
# 4 0.000000 0.000000 0.000000 0.083531 0.000000 0.041735
# 5 0.002492 0.006210 0.010880 0.000000 0.048688 0.000000
# 6 0.000000 0.000000 0.000000 0.041735 0.000000 0.067521
#
#
# Mechanical properties :
#
#
# Convention : Reuss Voigt Hill
#
# Bulk Modulus (GPa) = 31.71906 69.05183 50.38545
# Shear Modulus (GPa) = 17.76331 26.79902 22.28117
#
# Velocity S-wave (km/s) = 2.87147 3.52697 3.21596
# Velocity P-wave (km/s) = 5.07119 6.97411 6.09735
#
# Compressibility (1/GPa) = 0.03152678
#
# Stress axis : x y z
#
# Youngs Moduli (GPa) = 98.79887 71.23235 36.74027
#
# Poissons Ratio (x) = 0.45676 0.01152
# Poissons Ratio (y) = 0.63353 0.11756
# Poissons Ratio (z) = 0.03099 0.22793
#
# Static dielectric constant tensor:
#      x y z
#    x 1.791180 0.000000 -0.062570 
#    y 0.000000 1.846950 0.000000 
#    z -0.062570 0.000000 2.010360 
# 
# From -- ./inp_files/49051.got.cif
#   From: 2010.05.17/outbox.cif.g08.bks.cpg/sg14_25_cif.got.tgz:49051.got - 2010.06.03 17:49:19.
