data_PCOD9245419
_publ_section_title
;
Structure prediction by ZEFSAII (Michael W. Deem and Ramdas Pophale) SiO2 
 PCOD9245419
Probable space group: P 21/C
;
_chemical_formula_sum "Si O2"
_cell_formula_units_Z 32
_cell_length_a 8.551575
_cell_length_b 13.618355
_cell_length_c 28.724156
_cell_angle_alpha 90.000000
_cell_angle_beta 32.588160
_cell_angle_gamma 90.000000
_cell_volume 1801.696817
_symmetry_space_group_name_H-M "P 21/C"
_symmetry_group_IT_number 14
_symmetry_cell_setting 'monoclinic'
loop_
_space_group_symop_operation_xyz
x,y,z
-x,1/2+y,1/2-z
-x,-y,-z
x,1/2-y,1/2+z
loop_
_atom_site_type_symbol
_atom_site_label
_atom_site_fract_x
_atom_site_fract_y
_atom_site_fract_z
Si Si1 0.499038 0.276139 0.071558
Si Si2 0.195060 0.790063 0.254244
Si Si3 0.444342 0.114445 0.013995
Si Si4 0.238883 0.872049 0.818585
Si Si5 0.184349 0.755288 0.148812
Si Si6 0.347033 0.950356 0.287645
Si Si7 0.503490 0.282008 0.178900
Si Si8 0.761698 0.077693 0.432330
O O1 0.519783 0.167879 0.043889
O O2 0.574262 0.283370 0.106684
O O3 0.155568 0.302666 0.152687
O O4 0.696562 0.347301 0.990878
O O5 0.294583 0.696326 0.259528
O O6 0.257810 0.769440 0.184629
O O7 0.333980 0.885423 0.243764
O O8 0.104854 0.128236 0.089592
O O9 0.627484 0.170834 0.929179
O O10 0.500000 0.000000 0.000000
O O11 0.382830 0.816891 0.825798
O O12 0.376146 0.978882 0.779246
O O13 0.234605 0.646278 0.114866
O O14 0.844777 0.781450 0.228517
O O15 0.360642 0.872272 0.326372
O O16 0.062756 0.019167 0.361094
O O17 0.500000 0.000000 0.500000
#
# Coordination Sequence:
#
# PCOD9245419 Si02
#       8
#     4   4   4   4   4   4   4   4
#     4   9  20  38  59  83 116 151 194 240 285 346
#     4   9  20  39  60  83 114 156 195 232 289 353
#     4  10  21  39  60  81 113 155 196 233 283 352
#     4  10  21  39  56  86 118 148 186 245 290 333
#     4  10  21  40  61  84 113 157 198 237 286 355
#     4  11  21  37  61  86 119 154 190 242 295 347
#     4  10  21  38  59  85 116 150 192 240 295 341
#     4  11  21  37  61  88 117 151 198 241 293 348
#
# _framework density 17.761033999999999
#
# number of rings (size 3 to 8) (size 9 to 14) (size 15 to 20)
#    0.000    2.000    2.500    0.750    1.750    2.500 
#    4.500    1.250    0.000    0.000    0.000    0.000 
#    0.000    0.000    0.000    0.000    0.000    0.000 
#
# Total GULP energy -178540.031474 kJ/mol
# GULP energy per Si atom -5579.375984 kJ/mol
# Density = 1.772061 g / cm^3
# Si number density = 17.761034 Si / 1000 Ang^3
#
#
#
# Elastic Constant Matrix: (Units=GPa)
#
#
# Indices 1 2 3 4 5 6 
#
# 1 109.7546 47.5380 42.2680 0.0000 22.9984 0.0000
# 2 47.5380 114.6282 41.8336 0.0000 13.4122 0.0000
# 3 42.2680 41.8336 86.6714 0.0000 17.0594 0.0000
# 4 0.0000 0.0000 0.0000 31.2089 0.0000 -13.0275
# 5 22.9984 13.4122 17.0594 0.0000 22.5525 0.0000
# 6 0.0000 0.0000 0.0000 -13.0275 0.0000 20.3891
#
#
#
# Elastic Compliance Matrix: (Units=1/GPa)
#
#
# Indices 1 2 3 4 5 6 
#
# 1 0.013861 -0.003453 -0.003190 0.000000 -0.009669 0.000000
# 2 -0.003453 0.011608 -0.003822 0.000000 -0.000491 0.000000
# 3 -0.003190 -0.003822 0.016274 0.000000 -0.006784 0.000000
# 4 0.000000 0.000000 0.000000 0.043696 0.000000 0.027920
# 5 -0.009669 -0.000491 -0.006784 0.000000 0.059624 0.000000
# 6 0.000000 0.000000 0.000000 0.027920 0.000000 0.066885
#
#
# Mechanical properties :
#
#
# Convention : Reuss Voigt Hill
#
# Bulk Modulus (GPa) = 48.04833 63.81482 55.93157
# Shear Modulus (GPa) = 20.84918 26.79107 23.82013
#
# Velocity S-wave (km/s) = 3.42990 3.88805 3.66614
# Velocity P-wave (km/s) = 6.54194 7.49424 7.03422
#
# Compressibility (1/GPa) = 0.02081238
#
# Stress axis : x y z
#
# Youngs Moduli (GPa) = 72.14253 86.14543 61.44846
#
# Poissons Ratio (x) = 0.29746 0.19604
# Poissons Ratio (y) = 0.24910 0.23488
# Poissons Ratio (z) = 0.23015 0.32928
#
# Static dielectric constant tensor:
#      x y z
#    x 1.591830 0.000000 -0.010720 
#    y 0.000000 1.592770 0.000000 
#    z -0.010720 0.000000 1.606500 
# 
# From -- ./inp_files/79640.got.cif
#   From: 2010.05.17/outbox.cif.g08.bks.cpg/sg14_40_cif.got.tgz:79640.got - 2010.06.03 17:49:19.
