data_PCOD9245449
_publ_section_title
;
Structure prediction by ZEFSAII (Michael W. Deem and Ramdas Pophale) SiO2 
 PCOD9245449
Probable space group: P 21/C
;
_chemical_formula_sum "Si O2"
_cell_formula_units_Z 32
_cell_length_a 13.523056
_cell_length_b 8.917356
_cell_length_c 23.350003
_cell_angle_alpha 90.000000
_cell_angle_beta 149.353415
_cell_angle_gamma 90.000000
_cell_volume 1435.316013
_symmetry_space_group_name_H-M "P 21/C"
_symmetry_group_IT_number 14
_symmetry_cell_setting 'monoclinic'
loop_
_space_group_symop_operation_xyz
x,y,z
-x,1/2+y,1/2-z
-x,-y,-z
x,1/2-y,1/2+z
loop_
_atom_site_type_symbol
_atom_site_label
_atom_site_fract_x
_atom_site_fract_y
_atom_site_fract_z
Si Si1 0.944723 0.644924 0.188516
Si Si2 0.463087 0.994527 0.871507
Si Si3 0.325251 0.984853 0.531597
Si Si4 0.164114 0.032333 0.879721
Si Si5 0.654834 0.694656 0.148101
Si Si6 0.649638 0.204378 0.745455
Si Si7 0.707818 0.199302 0.905066
Si Si8 0.064346 0.438423 0.627159
O O1 0.967895 0.820739 0.190513
O O2 0.783750 0.641195 0.159416
O O3 0.133458 0.569114 0.309198
O O4 0.857132 0.560005 0.090436
O O5 0.372146 0.128442 0.863012
O O6 0.571767 0.083308 0.873054
O O7 0.338546 0.861422 0.782172
O O8 0.623753 0.922473 0.993806
O O9 0.453207 0.893677 0.548758
O O10 0.275630 0.856776 0.553063
O O11 0.466803 0.111092 0.628954
O O12 0.080329 0.938904 0.890952
O O13 0.757551 0.659083 0.260441
O O14 0.623270 0.226690 0.800066
O O15 0.840054 0.100171 0.834296
O O16 0.925120 0.128602 0.009635
#
# Coordination Sequence:
#
# PCOD9245449 Si02
#       8
#     4   4   4   4   4   4   4   4
#     4  11  22  38  60  86 116 157 195 237 299 356
#     4  10  21  40  58  91 121 151 199 248 291 350
#     4  10  21  38  60  87 119 151 198 245 285 358
#     4  10  23  38  58  86 118 154 195 240 300 352
#     4   9  21  37  59  83 119 157 190 239 299 355
#     4  11  20  39  61  90 116 156 202 246 293 340
#     4  10  21  38  64  83 119 162 196 242 298 346
#     4   9  21  40  57  85 120 157 196 244 294 348
#
# _framework density 22.294740999999998
#
# number of rings (size 3 to 8) (size 9 to 14) (size 15 to 20)
#    0.000    2.000    1.250    1.500    7.000    1.500 
#    0.000    0.625    0.000    0.000    0.000    0.000 
#    0.000    0.000    0.000    0.000    0.000    0.000 
#
# Total GULP energy -178683.562667 kJ/mol
# GULP energy per Si atom -5583.861333 kJ/mol
# Density = 2.224400 g / cm^3
# Si number density = 22.294741 Si / 1000 Ang^3
#
#
#
# Elastic Constant Matrix: (Units=GPa)
#
#
# Indices 1 2 3 4 5 6 
#
# 1 25.4318 7.9404 6.5202 0.0000 -15.9989 0.0000
# 2 7.9404 100.2979 39.1055 0.0000 -15.0420 0.0000
# 3 6.5202 39.1055 76.8449 0.0000 -20.8372 0.0000
# 4 0.0000 0.0000 0.0000 28.4255 0.0000 1.3840
# 5 -15.9989 -15.0420 -20.8372 0.0000 29.7499 0.0000
# 6 0.0000 0.0000 0.0000 1.3840 0.0000 28.9276
#
#
#
# Elastic Compliance Matrix: (Units=1/GPa)
#
#
# Indices 1 2 3 4 5 6 
#
# 1 0.060883 -0.001531 0.005286 0.000000 0.035670 0.000000
# 2 -0.001531 0.012604 -0.005900 0.000000 0.001417 0.000000
# 3 0.005286 -0.005900 0.019170 0.000000 0.013286 0.000000
# 4 0.000000 0.000000 0.000000 0.035262 0.000000 -0.001687
# 5 0.035670 0.001417 0.013286 0.000000 0.062818 0.000000
# 6 0.000000 0.000000 0.000000 -0.001687 0.000000 0.034650
#
#
# Mechanical properties :
#
#
# Convention : Reuss Voigt Hill
#
# Bulk Modulus (GPa) = 11.31656 34.41186 22.86421
# Shear Modulus (GPa) = 19.29499 27.35452 23.32476
#
# Velocity S-wave (km/s) = 2.94505 3.50658 3.23801
# Velocity P-wave (km/s) = 4.08060 5.64476 4.92517
#
# Compressibility (1/GPa) = 0.08836607
#
# Stress axis : x y z
#
# Youngs Moduli (GPa) = 16.42483 79.33707 52.16515
#
# Poissons Ratio (x) = 0.12149 -0.27572
# Poissons Ratio (y) = 0.02515 0.30778
# Poissons Ratio (z) = -0.08681 0.46810
#
# Static dielectric constant tensor:
#      x y z
#    x 1.859190 0.000000 0.012000 
#    y 0.000000 1.799010 0.000000 
#    z 0.012000 0.000000 1.838090 
# 
# From -- ./inp_files/73880.got.cif
#   From: 2010.05.17/outbox.cif.g08.bks.cpg/sg14_37_cif.got.tgz:73880.got - 2010.06.03 17:49:19.
