data_PCOD9245444
_publ_section_title
;
Structure prediction by ZEFSAII (Michael W. Deem and Ramdas Pophale) SiO2 
 PCOD9245444
Probable space group: P 21/C
;
_chemical_formula_sum "Si O2"
_cell_formula_units_Z 16
_cell_length_a 5.270301
_cell_length_b 4.991935
_cell_length_c 26.803788
_cell_angle_alpha 90.000000
_cell_angle_beta 52.446373
_cell_angle_gamma 90.000000
_cell_volume 559.055546
_symmetry_space_group_name_H-M "P 21/C"
_symmetry_group_IT_number 14
_symmetry_cell_setting 'monoclinic'
loop_
_space_group_symop_operation_xyz
x,y,z
-x,1/2+y,1/2-z
-x,-y,-z
x,1/2-y,1/2+z
loop_
_atom_site_type_symbol
_atom_site_label
_atom_site_fract_x
_atom_site_fract_y
_atom_site_fract_z
Si Si1 0.699623 0.330726 0.014538
Si Si2 0.506340 0.588782 0.857342
Si Si3 0.091575 0.422966 0.387337
Si Si4 0.721613 0.780181 0.234398
O O1 0.843927 0.096498 0.962834
O O2 0.500000 0.500000 0.000000
O O3 0.472233 0.295686 0.089547
O O4 0.000000 0.500000 0.000000
O O5 0.371302 0.288653 0.869853
O O6 0.788399 0.642505 0.783951
O O7 0.223979 0.779484 0.869956
O O8 0.013478 0.319370 0.340648
O O9 0.553176 0.494809 0.248533
#
# Coordination Sequence:
#
# PCOD9245444 Si02
#       4
#     4   4   4   4
#     4  10  21  38  60  86 118 154 194 240 290 346
#     4   9  17  32  54  83 114 151 192 238 288 343
#     4   9  17  32  54  83 114 151 192 238 288 343
#     4   8  14  26  50  78 110 146 188 234 284 338
#
# _framework density 28.619696000000001
#
# number of rings (size 3 to 8) (size 9 to 14) (size 15 to 20)
#    0.000    3.000    0.000    0.750    0.000    0.000 
#    0.000   20.000    0.000   39.000    0.000    0.000 
#    0.000    0.000    0.000    0.000    0.000    0.000 
#
# Total GULP energy -89574.284613 kJ/mol
# GULP energy per Si atom -5598.392788 kJ/mol
# Density = 2.855456 g / cm^3
# Si number density = 28.619696 Si / 1000 Ang^3
#
#
#
# Elastic Constant Matrix: (Units=GPa)
#
#
# Indices 1 2 3 4 5 6 
#
# 1 104.8539 25.6696 48.6108 0.0000 -3.2969 0.0000
# 2 25.6696 128.6269 14.4768 0.0000 -26.2699 0.0000
# 3 48.6108 14.4768 266.4603 0.0000 60.0931 0.0000
# 4 0.0000 0.0000 0.0000 60.9861 0.0000 -4.1273
# 5 -3.2969 -26.2699 60.0931 0.0000 43.4092 0.0000
# 6 0.0000 0.0000 0.0000 -4.1273 0.0000 15.3879
#
#
#
# Elastic Compliance Matrix: (Units=1/GPa)
#
#
# Indices 1 2 3 4 5 6 
#
# 1 0.011316 -0.001024 -0.002999 0.000000 0.004392 0.000000
# 2 -0.001024 0.010232 -0.002542 0.000000 0.009633 0.000000
# 3 -0.002999 -0.002542 0.007032 0.000000 -0.011500 0.000000
# 4 0.000000 0.000000 0.000000 0.016700 0.000000 0.004479
# 5 0.004392 0.009633 -0.011500 0.000000 0.045120 0.000000
# 6 0.000000 0.000000 0.000000 0.004479 0.000000 0.066187
#
#
# Mechanical properties :
#
#
# Convention : Reuss Voigt Hill
#
# Bulk Modulus (GPa) = 64.72164 75.27285 69.99724
# Shear Modulus (GPa) = 28.59309 51.36890 39.98099
#
# Velocity S-wave (km/s) = 3.16424 4.24120 3.74167
# Velocity P-wave (km/s) = 6.00111 7.09520 6.57096
#
# Compressibility (1/GPa) = 0.01545078
#
# Stress axis : x y z
#
# Youngs Moduli (GPa) = 88.36794 97.73139 142.21253
#
# Poissons Ratio (x) = 0.10006 0.42654
# Poissons Ratio (y) = 0.09047 0.36144
# Poissons Ratio (z) = 0.26505 0.24839
#
# Static dielectric constant tensor:
#      x y z
#    x 2.154190 0.000000 -0.067840 
#    y 0.000000 2.130680 0.000000 
#    z -0.067840 0.000000 2.647290 
# 
# From -- ./inp_files/62786.got.cif
#   From: 2010.05.17/outbox.cif.g08.bks.cpg/sg14_32_cif.got.tgz:62786.got - 2010.06.03 17:49:19.
