data_PCOD9245781
_publ_section_title
;
Structure prediction by ZEFSAII (Michael W. Deem and Ramdas Pophale) SiO2 
 PCOD9245781
Probable space group: P 21/C
;
_chemical_formula_sum "Si O2"
_cell_formula_units_Z 28
_cell_length_a 9.489487
_cell_length_b 9.372916
_cell_length_c 13.673158
_cell_angle_alpha 90.000000
_cell_angle_beta 76.218583
_cell_angle_gamma 90.000000
_cell_volume 1181.136663
_symmetry_space_group_name_H-M "P 21/C"
_symmetry_group_IT_number 14
_symmetry_cell_setting 'monoclinic'
loop_
_space_group_symop_operation_xyz
x,y,z
-x,1/2+y,1/2-z
-x,-y,-z
x,1/2-y,1/2+z
loop_
_atom_site_type_symbol
_atom_site_label
_atom_site_fract_x
_atom_site_fract_y
_atom_site_fract_z
Si Si1 0.444286 0.830270 0.060791
Si Si2 0.899998 0.326340 0.606195
Si Si3 0.287093 0.279305 0.871986
Si Si4 0.365339 0.130809 0.144743
Si Si5 0.841347 0.631461 0.915995
Si Si6 0.786350 0.346820 0.812473
Si Si7 0.981210 0.375431 0.380983
O O1 0.593043 0.823151 0.098603
O O2 0.356780 0.691642 0.105146
O O3 0.352167 0.966475 0.112773
O O4 0.488046 0.831526 0.940054
O O5 0.763924 0.333409 0.700143
O O6 0.996778 0.456548 0.635229
O O7 0.995106 0.183695 0.593597
O O8 0.884948 0.359787 0.495238
O O9 0.351398 0.349509 0.763287
O O10 0.141987 0.188337 0.873603
O O11 0.236076 0.388291 0.965837
O O12 0.247596 0.240344 0.120270
O O13 0.837074 0.496786 0.846528
O O14 0.907295 0.226727 0.815123
#
# Coordination Sequence:
#
# PCOD9245781 Si02
#       7
#     4   4   4   4   4   4   4
#     4  10  25  40  61  92 119 160 208 239 296 373
#     4  10  21  39  62  87 123 161 198 244 301 357
#     4  10  22  40  63  89 122 157 198 254 300 344
#     4  10  21  42  63  82 124 165 197 245 301 356
#     4  10  23  39  61  95 123 153 203 250 298 356
#     4  12  23  38  63  94 124 156 198 253 302 348
#     4  10  23  40  63  90 119 160 206 241 294 371
#
# _framework density 23.705976
#
# number of rings (size 3 to 8) (size 9 to 14) (size 15 to 20)
#    0.000    1.714    0.000    3.429    0.000   14.857 
#    0.000    0.000    0.000    1.714    0.000    0.000 
#    0.000    0.000    0.000    0.000    0.000    0.000 
#
# Total GULP energy -156461.708886 kJ/mol
# GULP energy per Si atom -5587.918175 kJ/mol
# Density = 2.365202 g / cm^3
# Si number density = 23.705976 Si / 1000 Ang^3
#
#
#
# Elastic Constant Matrix: (Units=GPa)
#
#
# Indices 1 2 3 4 5 6 
#
# 1 53.4606 2.6510 5.5316 0.0000 3.6638 0.0000
# 2 2.6510 35.7161 35.6642 0.0000 -4.7094 0.0000
# 3 5.5316 35.6642 221.8809 0.0000 6.3237 0.0000
# 4 0.0000 0.0000 0.0000 25.6748 0.0000 2.8634
# 5 3.6638 -4.7094 6.3237 0.0000 15.8122 0.0000
# 6 0.0000 0.0000 0.0000 2.8634 0.0000 20.2428
#
#
#
# Elastic Compliance Matrix: (Units=1/GPa)
#
#
# Indices 1 2 3 4 5 6 
#
# 1 0.019156 -0.002092 0.000003 0.000000 -0.005063 0.000000
# 2 -0.002092 0.036089 -0.006139 0.000000 0.013688 0.000000
# 3 0.000003 -0.006139 0.005610 0.000000 -0.004072 0.000000
# 4 0.000000 0.000000 0.000000 0.039573 0.000000 -0.005598
# 5 -0.005063 0.013688 -0.004072 0.000000 0.070121 0.000000
# 6 0.000000 0.000000 0.000000 -0.005598 0.000000 0.050192
#
#
# Mechanical properties :
#
#
# Convention : Reuss Voigt Hill
#
# Bulk Modulus (GPa) = 22.52363 44.30569 33.41466
# Shear Modulus (GPa) = 19.84161 30.16000 25.00081
#
# Velocity S-wave (km/s) = 2.89621 3.57074 3.25101
# Velocity P-wave (km/s) = 4.55038 5.97749 5.31208
#
# Compressibility (1/GPa) = 0.04439781
#
# Stress axis : x y z
#
# Youngs Moduli (GPa) = 52.20356 27.70960 178.26517
#
# Poissons Ratio (x) = 0.05798 -0.00055
# Poissons Ratio (y) = 0.10923 1.09431
# Poissons Ratio (z) = -0.00016 0.17010
#
# Static dielectric constant tensor:
#      x y z
#    x 1.910110 0.000000 -0.024390 
#    y 0.000000 1.875960 0.000000 
#    z -0.024390 0.000000 1.928560 
# 
# From -- ./inp_files/43592.got.cif
#   From: 2010.05.17/outbox.cif.g08.bks.cpg/sg14_22_cif.got.tgz:43592.got - 2010.06.03 17:49:19.
