data_PCOD9245489
_publ_section_title
;
Structure prediction by ZEFSAII (Michael W. Deem and Ramdas Pophale) SiO2 
 PCOD9245489
Probable space group: P 21/C
;
_chemical_formula_sum "Si O2"
_cell_formula_units_Z 20
_cell_length_a 5.131024
_cell_length_b 19.032854
_cell_length_c 9.124547
_cell_angle_alpha 90.000000
_cell_angle_beta 95.418114
_cell_angle_gamma 90.000000
_cell_volume 887.104067
_symmetry_space_group_name_H-M "P 21/C"
_symmetry_group_IT_number 14
_symmetry_cell_setting 'monoclinic'
loop_
_space_group_symop_operation_xyz
x,y,z
-x,1/2+y,1/2-z
-x,-y,-z
x,1/2-y,1/2+z
loop_
_atom_site_type_symbol
_atom_site_label
_atom_site_fract_x
_atom_site_fract_y
_atom_site_fract_z
Si Si1 0.985980 0.834973 0.145337
Si Si2 0.795239 0.589717 0.037431
Si Si3 0.735972 0.056638 0.649665
Si Si4 0.400915 0.276428 0.839803
Si Si5 0.251429 0.733019 0.398392
O O1 0.112024 0.907603 0.206510
O O2 0.103937 0.780957 0.273430
O O3 0.076370 0.819493 0.984256
O O4 0.690391 0.805185 0.147910
O O5 0.732448 0.528010 0.149970
O O6 0.799562 0.665696 0.112563
O O7 0.558260 0.582647 0.904781
O O8 0.070887 0.574931 0.975490
O O9 0.630563 0.282118 0.970072
O O10 0.508970 0.294991 0.686534
#
# Coordination Sequence:
#
# PCOD9245489 Si02
#       5
#     4   4   4   4   4
#     4  11  21  37  58  87 120 156 197 252 294 358
#     4  10  21  38  61  88 119 158 202 247 296 355
#     4  10  21  38  61  88 119 158 202 247 296 355
#     4  11  21  37  58  87 120 156 197 252 294 358
#     4  10  22  34  56  86 116 152 200 242 306 346
#
# _framework density 22.545271
#
# number of rings (size 3 to 8) (size 9 to 14) (size 15 to 20)
#    0.000    1.600    2.000    3.600    5.600    0.000 
#    0.000    1.000    0.000    4.800    0.000    0.000 
#    0.000    0.000    0.000    0.000    0.000    0.000 
#
# Total GULP energy -111465.258251 kJ/mol
# GULP energy per Si atom -5573.262913 kJ/mol
# Density = 2.249396 g / cm^3
# Si number density = 22.545271 Si / 1000 Ang^3
#
#
#
# Elastic Constant Matrix: (Units=GPa)
#
#
# Indices 1 2 3 4 5 6 
#
# 1 70.7363 4.5776 13.5343 0.0000 2.8090 0.0000
# 2 4.5776 48.7496 -8.9936 0.0000 3.4731 0.0000
# 3 13.5343 -8.9936 97.0390 0.0000 -13.5560 0.0000
# 4 0.0000 0.0000 0.0000 34.2893 0.0000 5.3090
# 5 2.8090 3.4731 -13.5560 0.0000 31.4487 0.0000
# 6 0.0000 0.0000 0.0000 5.3090 0.0000 27.5978
#
#
#
# Elastic Compliance Matrix: (Units=1/GPa)
#
#
# Indices 1 2 3 4 5 6 
#
# 1 0.014821 -0.001701 -0.002536 0.000000 -0.002229 0.000000
# 2 -0.001701 0.021138 0.002013 0.000000 -0.001315 0.000000
# 3 -0.002536 0.002013 0.011541 0.000000 0.004979 0.000000
# 4 0.000000 0.000000 0.000000 0.030059 0.000000 -0.005782
# 5 -0.002229 -0.001315 0.004979 0.000000 0.034288 0.000000
# 6 0.000000 0.000000 0.000000 -0.005782 0.000000 0.037347
#
#
# Mechanical properties :
#
#
# Convention : Reuss Voigt Hill
#
# Bulk Modulus (GPa) = 23.22840 26.08462 24.65651
# Shear Modulus (GPa) = 29.76319 32.49427 31.12873
#
# Velocity S-wave (km/s) = 3.63733 3.80055 3.71984
# Velocity P-wave (km/s) = 5.28825 5.55463 5.42308
#
# Compressibility (1/GPa) = 0.04305075
#
# Stress axis : x y z
#
# Youngs Moduli (GPa) = 67.47250 47.30894 86.64820
#
# Poissons Ratio (x) = 0.08046 0.21975
# Poissons Ratio (y) = 0.11475 -0.17438
# Poissons Ratio (z) = 0.17112 -0.09521
#
# Static dielectric constant tensor:
#      x y z
#    x 2.029540 0.000000 -0.004300 
#    y 0.000000 1.901940 0.000000 
#    z -0.004300 0.000000 1.812980 
# 
# From -- ./inp_files/5443.got.cif
#   From: 2010.05.17/outbox.cif.g08.bks.cpg/sg14_3_cif.got.tgz:5443.got - 2010.06.03 17:49:19.
