data_PCOD9245901
_publ_section_title
;
Structure prediction by ZEFSAII (Michael W. Deem and Ramdas Pophale) SiO2 
 PCOD9245901
Probable space group: P 21/C
;
_chemical_formula_sum "Si O2"
_cell_formula_units_Z 28
_cell_length_a 6.200339
_cell_length_b 18.288565
_cell_length_c 12.193707
_cell_angle_alpha 90.000000
_cell_angle_beta 76.867742
_cell_angle_gamma 90.000000
_cell_volume 1346.548775
_symmetry_space_group_name_H-M "P 21/C"
_symmetry_group_IT_number 14
_symmetry_cell_setting 'monoclinic'
loop_
_space_group_symop_operation_xyz
x,y,z
-x,1/2+y,1/2-z
-x,-y,-z
x,1/2-y,1/2+z
loop_
_atom_site_type_symbol
_atom_site_label
_atom_site_fract_x
_atom_site_fract_y
_atom_site_fract_z
Si Si1 0.653222 0.808427 0.666113
Si Si2 0.727318 0.039850 0.955317
Si Si3 0.910853 0.443573 0.680523
Si Si4 0.378078 0.566593 0.075361
Si Si5 0.887442 0.192289 0.515135
Si Si6 0.137574 0.205746 0.130403
Si Si7 0.439498 0.804304 0.055376
O O1 0.551820 0.880090 0.618967
O O2 0.693504 0.799820 0.788873
O O3 0.479728 0.745335 0.655749
O O4 0.902386 0.801555 0.590336
O O5 0.686212 0.120664 0.915551
O O6 0.813382 0.044347 0.070418
O O7 0.871382 0.993185 0.853883
O O8 0.500000 0.000000 0.000000
O O9 0.774874 0.460986 0.805855
O O10 0.963812 0.357707 0.675352
O O11 0.500000 0.500000 0.000000
O O12 0.236241 0.616299 0.004195
O O13 0.705432 0.254157 0.509179
O O14 0.010068 0.219078 0.613907
O O15 0.306587 0.183392 0.013446
#
# Coordination Sequence:
#
# PCOD9245901 Si02
#       7
#     4   4   4   4   4   4   4
#     4  10  23  40  70  96 127 188 224 281 346 400
#     4  11  22  40  66 103 138 174 230 281 351 407
#     4  11  23  39  72  97 134 191 223 286 350 408
#     4  11  25  47  70 100 145 189 238 276 350 425
#     4  10  22  42  69  97 127 180 226 293 338 409
#     4  11  20  40  71  95 128 176 233 275 354 413
#     4  10  21  39  64  99 134 162 226 291 334 416
#
# _framework density 20.793900000000001
#
# number of rings (size 3 to 8) (size 9 to 14) (size 15 to 20)
#    0.000    1.429    4.286    0.857    0.000    0.571 
#    0.000   11.429    0.000    0.000    0.000    0.000 
#    0.000    0.000    0.000    0.000    0.000    0.000 
#
# Total GULP energy -155939.790547 kJ/mol
# GULP energy per Si atom -5569.278234 kJ/mol
# Density = 2.074657 g / cm^3
# Si number density = 20.793900 Si / 1000 Ang^3
#
#
#
# Elastic Constant Matrix: (Units=GPa)
#
#
# Indices 1 2 3 4 5 6 
#
# 1 70.9198 32.8773 32.7440 0.0000 -4.0020 0.0000
# 2 32.8773 116.7194 55.6688 0.0000 -7.2087 0.0000
# 3 32.7440 55.6688 95.8878 0.0000 -8.0399 0.0000
# 4 0.0000 0.0000 0.0000 18.6356 0.0000 -4.0703
# 5 -4.0020 -7.2087 -8.0399 0.0000 43.7995 0.0000
# 6 0.0000 0.0000 0.0000 -4.0703 0.0000 38.0821
#
#
#
# Elastic Compliance Matrix: (Units=1/GPa)
#
#
# Indices 1 2 3 4 5 6 
#
# 1 0.017408 -0.002850 -0.004262 0.000000 0.000339 0.000000
# 2 -0.002850 0.012336 -0.006135 0.000000 0.000644 0.000000
# 3 -0.004262 -0.006135 0.015568 0.000000 0.001459 0.000000
# 4 0.000000 0.000000 0.000000 0.054943 0.000000 0.005872
# 5 0.000339 0.000644 0.001459 0.000000 0.023236 0.000000
# 6 0.000000 0.000000 0.000000 0.005872 0.000000 0.026887
#
#
# Mechanical properties :
#
#
# Convention : Reuss Voigt Hill
#
# Bulk Modulus (GPa) = 53.13532 58.45633 55.79583
# Shear Modulus (GPa) = 27.30090 30.91923 29.11007
#
# Velocity S-wave (km/s) = 3.62737 3.86027 3.74563
# Velocity P-wave (km/s) = 6.56906 6.93124 6.75258
#
# Compressibility (1/GPa) = 0.01881987
#
# Stress axis : x y z
#
# Youngs Moduli (GPa) = 57.44344 81.06369 64.23468
#
# Poissons Ratio (x) = 0.23104 0.27374
# Poissons Ratio (y) = 0.16372 0.39405
# Poissons Ratio (z) = 0.24480 0.49729
#
# Static dielectric constant tensor:
#      x y z
#    x 1.611720 0.000000 -0.074320 
#    y 0.000000 1.797350 0.000000 
#    z -0.074320 0.000000 1.703980 
# 
# From -- ./inp_files/21739.got.cif
#   From: 2010.05.17/outbox.cif.g08.bks.cpg/sg14_11_cif.got.tgz:21739.got - 2010.06.03 17:49:19.
