data_PCOD9245524
_publ_section_title
;
Structure prediction by ZEFSAII (Michael W. Deem and Ramdas Pophale) SiO2 
 PCOD9245524
Probable space group: P 21/C
;
_chemical_formula_sum "Si O2"
_cell_formula_units_Z 16
_cell_length_a 4.962856
_cell_length_b 8.295253
_cell_length_c 14.835894
_cell_angle_alpha 90.000000
_cell_angle_beta 108.793693
_cell_angle_gamma 90.000000
_cell_volume 578.203084
_symmetry_space_group_name_H-M "P 21/C"
_symmetry_group_IT_number 14
_symmetry_cell_setting 'monoclinic'
loop_
_space_group_symop_operation_xyz
x,y,z
-x,1/2+y,1/2-z
-x,-y,-z
x,1/2-y,1/2+z
loop_
_atom_site_type_symbol
_atom_site_label
_atom_site_fract_x
_atom_site_fract_y
_atom_site_fract_z
Si Si1 0.450387 0.728976 0.647896
Si Si2 0.101649 0.448420 0.108446
Si Si3 0.148265 0.034438 0.242799
Si Si4 0.880354 0.131819 0.053740
O O1 0.759711 0.785130 0.713288
O O2 0.327885 0.585671 0.696549
O O3 0.382874 0.700174 0.534063
O O4 0.302187 0.902477 0.655050
O O5 0.868488 0.449506 0.161958
O O6 0.140613 0.259357 0.094595
O O7 0.000000 0.500000 0.000000
O O8 0.858827 0.058412 0.151511
O O9 0.000000 0.000000 0.000000
#
# Coordination Sequence:
#
# PCOD9245524 Si02
#       4
#     4   4   4   4
#     4  10  22  38  63  94 125 167 212 262 317 372
#     4  10  21  38  62  90 124 164 208 256 309 374
#     4  11  21  39  64  92 128 167 211 260 319 375
#     4   9  20  38  59  90 126 159 205 258 309 371
#
# _framework density 27.671935000000001
#
# number of rings (size 3 to 8) (size 9 to 14) (size 15 to 20)
#    0.000    2.000    0.000    3.000    0.000    4.000 
#    0.000    7.500    0.000   37.500    0.000    0.000 
#    0.000    0.000    0.000    0.000    0.000    0.000 
#
# Total GULP energy -89118.041215 kJ/mol
# GULP energy per Si atom -5569.877576 kJ/mol
# Density = 2.760895 g / cm^3
# Si number density = 27.671935 Si / 1000 Ang^3
#
#
#
# Elastic Constant Matrix: (Units=GPa)
#
#
# Indices 1 2 3 4 5 6 
#
# 1 44.3629 18.9501 40.6261 0.0000 -10.5261 0.0000
# 2 18.9501 143.5641 60.7231 0.0000 0.2077 0.0000
# 3 40.6261 60.7231 261.1242 0.0000 -2.1714 0.0000
# 4 0.0000 0.0000 0.0000 68.2634 0.0000 10.8543
# 5 -10.5261 0.2077 -2.1714 0.0000 39.8560 0.0000
# 6 0.0000 0.0000 0.0000 10.8543 0.0000 34.8573
#
#
#
# Elastic Compliance Matrix: (Units=1/GPa)
#
#
# Indices 1 2 3 4 5 6 
#
# 1 0.028808 -0.002156 -0.003919 0.000000 0.007406 0.000000
# 2 -0.002156 0.007887 -0.001505 0.000000 -0.000692 0.000000
# 3 -0.003919 -0.001505 0.004783 0.000000 -0.000767 0.000000
# 4 0.000000 0.000000 0.000000 0.015412 0.000000 -0.004799
# 5 0.007406 -0.000692 -0.000767 0.000000 0.027008 0.000000
# 6 0.000000 0.000000 0.000000 -0.004799 0.000000 0.030183
#
#
# Mechanical properties :
#
#
# Convention : Reuss Voigt Hill
#
# Bulk Modulus (GPa) = 37.99398 76.62775 57.31086
# Shear Modulus (GPa) = 36.22817 50.51216 43.37016
#
# Velocity S-wave (km/s) = 3.62222 4.27710 3.96321
# Velocity P-wave (km/s) = 5.59052 7.22101 6.45743
#
# Compressibility (1/GPa) = 0.02631996
#
# Stress axis : x y z
#
# Youngs Moduli (GPa) = 34.71198 126.78361 209.08025
#
# Poissons Ratio (x) = 0.27330 0.81943
# Poissons Ratio (y) = 0.07483 0.31457
# Poissons Ratio (z) = 0.13604 0.19075
#
# Static dielectric constant tensor:
#      x y z
#    x 2.836700 0.000000 0.009650 
#    y 0.000000 2.371950 0.000000 
#    z 0.009650 0.000000 2.144370 
# 
# From -- ./inp_files/27679.got.cif
#   From: 2010.05.17/outbox.cif.g08.bks.cpg/sg14_14_cif.got.tgz:27679.got - 2010.06.03 17:49:19.
