data_PCOD9245937
_publ_section_title
;
Structure prediction by ZEFSAII (Michael W. Deem and Ramdas Pophale) SiO2 
 PCOD9245937
Probable space group: P 21/C
;
_chemical_formula_sum "Si O2"
_cell_formula_units_Z 32
_cell_length_a 15.379688
_cell_length_b 13.839245
_cell_length_c 15.163213
_cell_angle_alpha 90.000000
_cell_angle_beta 151.515190
_cell_angle_gamma 90.000000
_cell_volume 1539.224385
_symmetry_space_group_name_H-M "P 21/C"
_symmetry_group_IT_number 14
_symmetry_cell_setting 'monoclinic'
loop_
_space_group_symop_operation_xyz
x,y,z
-x,1/2+y,1/2-z
-x,-y,-z
x,1/2-y,1/2+z
loop_
_atom_site_type_symbol
_atom_site_label
_atom_site_fract_x
_atom_site_fract_y
_atom_site_fract_z
Si Si1 0.414771 0.910908 0.375913
Si Si2 0.449186 0.559379 0.587945
Si Si3 0.617752 0.726531 0.504087
Si Si4 0.304853 0.049018 0.123616
Si Si5 0.907412 0.697229 0.904937
Si Si6 0.364491 0.243325 0.682817
Si Si7 0.972511 0.396922 0.429368
Si Si8 0.286820 0.588020 0.250885
O O1 0.561958 0.828657 0.495681
O O2 0.239036 0.877628 0.274020
O O3 0.500000 0.000000 0.500000
O O4 0.346639 0.956888 0.222560
O O5 0.349905 0.486337 0.566251
O O6 0.482549 0.662944 0.662930
O O7 0.337234 0.574180 0.398515
O O8 0.643322 0.509384 0.734990
O O9 0.679991 0.747001 0.460195
O O10 0.428983 0.667050 0.339488
O O11 0.766491 0.677845 0.700163
O O12 0.416306 0.145432 0.252353
O O13 0.101094 0.089537 0.959082
O O14 0.970210 0.809546 0.955398
O O15 0.080776 0.626066 0.057558
O O16 0.799614 0.705185 0.901760
O O17 0.000000 0.500000 0.500000
#
# Coordination Sequence:
#
# PCOD9245937 Si02
#       8
#     4   4   4   4   4   4   4   4
#     4  11  21  37  65  99 132 180 212 272 351 397
#     4  11  23  46  70  99 135 185 232 286 344 409
#     4  12  22  43  71  97 138 180 222 284 341 403
#     4  10  21  39  65  96 136 171 227 284 328 410
#     4  11  24  45  66  99 140 175 227 283 335 412
#     4  11  23  43  67 100 140 175 232 283 337 413
#     4   9  19  37  62  93 133 172 215 275 332 399
#     4  11  25  46  73  94 137 188 226 281 348 401
#
# _framework density 20.78969
#
# number of rings (size 3 to 8) (size 9 to 14) (size 15 to 20)
#    0.000    1.250    5.000    2.250    0.000    0.500 
#    9.000    2.500    0.000    0.000    0.000    0.000 
#    0.000    0.000    0.000    0.000    0.000    0.000 
#
# Total GULP energy -178479.995752 kJ/mol
# GULP energy per Si atom -5577.499867 kJ/mol
# Density = 2.074237 g / cm^3
# Si number density = 20.789690 Si / 1000 Ang^3
#
#
#
# Elastic Constant Matrix: (Units=GPa)
#
#
# Indices 1 2 3 4 5 6 
#
# 1 126.0833 18.4034 50.8109 0.0000 -10.0477 0.0000
# 2 18.4034 100.9108 13.8815 0.0000 2.3136 0.0000
# 3 50.8109 13.8815 91.5963 0.0000 7.5749 0.0000
# 4 0.0000 0.0000 0.0000 37.0455 0.0000 1.7738
# 5 -10.0477 2.3136 7.5749 0.0000 17.3629 0.0000
# 6 0.0000 0.0000 0.0000 1.7738 0.0000 34.7088
#
#
#
# Elastic Compliance Matrix: (Units=1/GPa)
#
#
# Indices 1 2 3 4 5 6 
#
# 1 0.011851 -0.001404 -0.007204 0.000000 0.010188 0.000000
# 2 -0.001404 0.010295 -0.000623 0.000000 -0.001912 0.000000
# 3 -0.007204 -0.000623 0.015920 0.000000 -0.011031 0.000000
# 4 0.000000 0.000000 0.000000 0.027060 0.000000 -0.001383
# 5 0.010188 -0.001912 -0.011031 0.000000 0.068557 0.000000
# 6 0.000000 0.000000 0.000000 -0.001383 0.000000 0.028882
#
#
# Mechanical properties :
#
#
# Convention : Reuss Voigt Hill
#
# Bulk Modulus (GPa) = 51.00841 53.86466 52.43653
# Shear Modulus (GPa) = 26.65761 33.52308 30.09035
#
# Velocity S-wave (km/s) = 3.58474 4.01993 3.80856
# Velocity P-wave (km/s) = 6.45930 6.89290 6.67962
#
# Compressibility (1/GPa) = 0.01960461
#
# Stress axis : x y z
#
# Youngs Moduli (GPa) = 84.37927 97.13098 62.81220
#
# Poissons Ratio (x) = 0.13637 0.45250
# Poissons Ratio (y) = 0.11846 0.03915
# Poissons Ratio (z) = 0.60787 0.06054
#
# Static dielectric constant tensor:
#      x y z
#    x 1.802360 0.000000 0.008980 
#    y 0.000000 1.847010 0.000000 
#    z 0.008980 0.000000 1.764410 
# 
# From -- ./inp_files/47427.got.cif
#   From: 2010.05.17/outbox.cif.g08.bks.cpg/sg14_24_cif.got.tgz:47427.got - 2010.06.03 17:49:19.
