data_PCOD9245041
_publ_section_title
;
Structure prediction by ZEFSAII (Michael W. Deem and Ramdas Pophale) SiO2 
 PCOD9245041
Probable space group: P 21/C
;
_chemical_formula_sum "Si O2"
_cell_formula_units_Z 24
_cell_length_a 5.244014
_cell_length_b 20.586119
_cell_length_c 11.468758
_cell_angle_alpha 90.000000
_cell_angle_beta 71.230182
_cell_angle_gamma 90.000000
_cell_volume 1172.253733
_symmetry_space_group_name_H-M "P 21/C"
_symmetry_group_IT_number 14
_symmetry_cell_setting 'monoclinic'
loop_
_space_group_symop_operation_xyz
x,y,z
-x,1/2+y,1/2-z
-x,-y,-z
x,1/2-y,1/2+z
loop_
_atom_site_type_symbol
_atom_site_label
_atom_site_fract_x
_atom_site_fract_y
_atom_site_fract_z
Si Si1 0.943089 0.026975 0.138288
Si Si2 0.936933 0.811420 0.364979
Si Si3 0.463474 0.334881 0.282500
Si Si4 0.563045 0.688584 0.135041
Si Si5 0.963453 0.834876 0.782518
Si Si6 0.556913 0.473029 0.361708
O O1 0.024611 0.101440 0.140072
O O2 0.627426 0.014044 0.199118
O O3 0.127424 0.985963 0.199120
O O4 0.000000 0.000000 0.000000
O O5 0.786527 0.835348 0.269762
O O6 0.749990 0.830672 0.500012
O O7 0.246887 0.833248 0.325548
O O8 0.945714 0.732710 0.354698
O O9 0.445729 0.267295 0.354680
O O10 0.475400 0.398565 0.359914
O O11 0.253090 0.666758 0.174468
O O12 0.713445 0.664658 0.230261
O O13 0.500000 0.500000 0.500000
#
# Coordination Sequence:
#
# PCOD9245041 Si02
#       6
#     4   4   4   4   4   4
#     4  10  21  36  57  88 116 157 185 249 302 343
#     4  10  21  37  61  85 118 165 189 251 293 348
#     4  10  21  38  57  90 122 148 206 242 296 353
#     4  10  21  37  61  85 118 165 189 251 293 348
#     4  10  21  38  57  90 122 148 206 242 296 353
#     4  10  21  36  57  88 116 157 185 249 302 343
#
# _framework density 20.473382000000001
#
# number of rings (size 3 to 8) (size 9 to 14) (size 15 to 20)
#    0.000    2.000    0.000    3.000    4.667    0.000 
#   12.000    0.000    0.000   20.000    0.000    0.000 
#    0.000    0.000    0.000    0.000    0.000    0.000 
#
# Total GULP energy -133901.419270 kJ/mol
# GULP energy per Si atom -5579.225803 kJ/mol
# Density = 2.042678 g / cm^3
# Si number density = 20.473382 Si / 1000 Ang^3
#
#
#
# Elastic Constant Matrix: (Units=GPa)
#
#
# Indices 1 2 3 4 5 6 
#
# 1 132.8674 30.8184 -9.4350 0.0000 1.3865 0.0000
# 2 30.8184 127.8497 17.1016 0.0000 20.3256 0.0000
# 3 -9.4350 17.1016 40.2221 0.0000 -13.1778 0.0000
# 4 0.0000 0.0000 0.0000 18.2781 0.0000 2.2894
# 5 1.3865 20.3256 -13.1778 0.0000 25.0371 0.0000
# 6 0.0000 0.0000 0.0000 2.2894 0.0000 26.0074
#
#
#
# Elastic Compliance Matrix: (Units=1/GPa)
#
#
# Indices 1 2 3 4 5 6 
#
# 1 0.008695 -0.003647 0.005319 0.000000 0.005279 0.000000
# 2 -0.003647 0.012876 -0.011707 0.000000 -0.016413 0.000000
# 3 0.005319 -0.011707 0.041211 0.000000 0.030900 0.000000
# 4 0.000000 0.000000 0.000000 0.055320 0.000000 -0.004870
# 5 0.005279 -0.016413 0.030900 0.000000 0.069237 0.000000
# 6 0.000000 0.000000 0.000000 -0.004870 0.000000 0.038879
#
#
# Mechanical properties :
#
#
# Convention : Reuss Voigt Hill
#
# Bulk Modulus (GPa) = 23.41208 41.98992 32.70100
# Shear Modulus (GPa) = 19.19203 31.36148 25.27675
#
# Velocity S-wave (km/s) = 3.06504 3.91809 3.51752
# Velocity P-wave (km/s) = 4.89757 6.40489 5.70126
#
# Compressibility (1/GPa) = 0.04271300
#
# Stress axis : x y z
#
# Youngs Moduli (GPa) = 115.01139 77.66342 24.26523
#
# Poissons Ratio (x) = 0.28321 -0.12908
# Poissons Ratio (y) = 0.41941 0.28408
# Poissons Ratio (z) = -0.61180 0.90923
#
# Static dielectric constant tensor:
#      x y z
#    x 1.735920 0.000000 0.047900 
#    y 0.000000 1.729880 0.000000 
#    z 0.047900 0.000000 1.608840 
# 
# From -- ./inp_files/21155.got.cif
#   From: 2010.05.17/outbox.cif.g08.bks.cpg/sg14_11_cif.got.tgz:21155.got - 2010.06.03 17:49:19.
