data_PCOD9245747
_publ_section_title
;
Structure prediction by ZEFSAII (Michael W. Deem and Ramdas Pophale) SiO2 
 PCOD9245747
Probable space group: P 21/C
;
_chemical_formula_sum "Si O2"
_cell_formula_units_Z 32
_cell_length_a 14.626205
_cell_length_b 17.806938
_cell_length_c 8.926481
_cell_angle_alpha 90.000000
_cell_angle_beta 141.510557
_cell_angle_gamma 90.000000
_cell_volume 1446.938712
_symmetry_space_group_name_H-M "P 21/C"
_symmetry_group_IT_number 14
_symmetry_cell_setting 'monoclinic'
loop_
_space_group_symop_operation_xyz
x,y,z
-x,1/2+y,1/2-z
-x,-y,-z
x,1/2-y,1/2+z
loop_
_atom_site_type_symbol
_atom_site_label
_atom_site_fract_x
_atom_site_fract_y
_atom_site_fract_z
Si Si1 0.161703 0.960878 0.464940
Si Si2 0.270543 0.691820 0.784435
Si Si3 0.303754 0.972788 0.344943
Si Si4 0.688684 0.914779 0.159738
Si Si5 0.597503 0.148876 0.075149
Si Si6 0.068160 0.346890 0.208524
Si Si7 0.070498 0.729313 0.261024
Si Si8 0.404854 0.959013 0.173934
O O1 0.177801 0.974585 0.307728
O O2 0.291649 0.903021 0.684955
O O3 0.015864 0.919552 0.333832
O O4 0.194402 0.039991 0.588318
O O5 0.356674 0.614575 0.916749
O O6 0.365515 0.764218 0.865009
O O7 0.151234 0.684737 0.497778
O O8 0.182979 0.713902 0.822569
O O9 0.284417 0.981602 0.142898
O O10 0.432098 0.030465 0.552365
O O11 0.770222 0.866411 0.139085
O O12 0.569709 0.868387 0.098292
O O13 0.601210 0.981150 0.966212
O O14 0.621541 0.120818 0.935517
O O15 0.048774 0.281055 0.306053
O O16 0.987662 0.320012 0.951518
#
# Coordination Sequence:
#
# PCOD9245747 Si02
#       8
#     4   4   4   4   4   4   4   4
#     4  11  19  39  65  86 119 167 209 246 296 380
#     4  11  20  35  65  88 114 155 223 249 295 360
#     4  11  20  36  60  96 123 158 202 267 299 351
#     4  11  23  40  60  91 125 166 202 246 316 373
#     4  11  19  39  65  92 120 165 209 255 301 374
#     4  11  23  42  63  88 123 162 206 251 307 375
#     4  10  21  39  61  86 115 161 202 258 301 358
#     4  10  22  37  60  90 136 156 196 254 324 353
#
# _framework density 22.115656999999999
#
# number of rings (size 3 to 8) (size 9 to 14) (size 15 to 20)
#    0.000    1.250    6.250    1.875    1.750    0.000 
#    2.250    3.125    0.000    0.000    0.000    0.000 
#    0.000    0.000    0.000    0.000    0.000    0.000 
#
# Total GULP energy -178674.135754 kJ/mol
# GULP energy per Si atom -5583.566742 kJ/mol
# Density = 2.206532 g / cm^3
# Si number density = 22.115657 Si / 1000 Ang^3
#
#
#
# Elastic Constant Matrix: (Units=GPa)
#
#
# Indices 1 2 3 4 5 6 
#
# 1 132.0485 6.1064 10.8597 0.0000 -13.8338 0.0000
# 2 6.1064 53.1549 -3.5886 0.0000 3.6412 0.0000
# 3 10.8597 -3.5886 19.0268 0.0000 -8.8804 0.0000
# 4 0.0000 0.0000 0.0000 12.9778 0.0000 -6.0465
# 5 -13.8338 3.6412 -8.8804 0.0000 32.6605 0.0000
# 6 0.0000 0.0000 0.0000 -6.0465 0.0000 37.0698
#
#
#
# Elastic Compliance Matrix: (Units=1/GPa)
#
#
# Indices 1 2 3 4 5 6 
#
# 1 0.008218 -0.001375 -0.003726 0.000000 0.002621 0.000000
# 2 -0.001375 0.019335 0.003612 0.000000 -0.001756 0.000000
# 3 -0.003726 0.003612 0.062354 0.000000 0.014973 0.000000
# 4 0.000000 0.000000 0.000000 0.083392 0.000000 0.013602
# 5 0.002621 -0.001756 0.014973 0.000000 0.035995 0.000000
# 6 0.000000 0.000000 0.000000 0.013602 0.000000 0.029195
#
#
# Mechanical properties :
#
#
# Convention : Reuss Voigt Hill
#
# Bulk Modulus (GPa) = 11.50385 25.66502 18.58443
# Shear Modulus (GPa) = 18.48820 29.26514 23.87667
#
# Velocity S-wave (km/s) = 2.89446 3.64163 3.28933
# Velocity P-wave (km/s) = 4.04766 5.41407 4.77994
#
# Compressibility (1/GPa) = 0.08692743
#
# Stress axis : x y z
#
# Youngs Moduli (GPa) = 121.69020 51.71953 16.03752
#
# Poissons Ratio (x) = 0.07112 0.05976
# Poissons Ratio (y) = 0.16734 -0.05793
# Poissons Ratio (z) = 0.45347 -0.18681
#
# Static dielectric constant tensor:
#      x y z
#    x 1.830150 0.000000 -0.039770 
#    y 0.000000 1.817710 0.000000 
#    z -0.039770 0.000000 1.836130 
# 
# From -- ./inp_files/16812.got.cif
#   From: 2010.05.17/outbox.cif.g08.bks.cpg/sg14_9_cif.got.tgz:16812.got - 2010.06.03 17:49:19.
