data_PCOD9245669
_publ_section_title
;
Structure prediction by ZEFSAII (Michael W. Deem and Ramdas Pophale) SiO2 
 PCOD9245669
Probable space group: P 21/C
;
_chemical_formula_sum "Si O2"
_cell_formula_units_Z 32
_cell_length_a 24.987947
_cell_length_b 8.183135
_cell_length_c 21.021249
_cell_angle_alpha 90.000000
_cell_angle_beta 160.962806
_cell_angle_gamma 90.000000
_cell_volume 1402.066574
_symmetry_space_group_name_H-M "P 21/C"
_symmetry_group_IT_number 14
_symmetry_cell_setting 'monoclinic'
loop_
_space_group_symop_operation_xyz
x,y,z
-x,1/2+y,1/2-z
-x,-y,-z
x,1/2-y,1/2+z
loop_
_atom_site_type_symbol
_atom_site_label
_atom_site_fract_x
_atom_site_fract_y
_atom_site_fract_z
Si Si1 0.744061 0.001722 0.278474
Si Si2 0.472292 0.329214 0.555754
Si Si3 0.314677 0.659156 0.854034
Si Si4 0.533853 0.978613 0.814921
Si Si5 0.344278 0.010234 0.262679
Si Si6 0.725677 0.309234 0.047989
Si Si7 0.186332 0.364285 0.465962
Si Si8 0.967331 0.587863 0.141093
O O1 0.603869 0.044998 0.173042
O O2 0.750632 0.166511 0.243777
O O3 0.899654 0.958143 0.495797
O O4 0.686719 0.859868 0.166390
O O5 0.443697 0.373751 0.596200
O O6 0.553455 0.152176 0.641174
O O7 0.274081 0.528184 0.753448
O O8 0.255479 0.630003 0.858696
O O9 0.515513 0.650275 0.080707
O O10 0.353304 0.948961 0.584169
O O11 0.655867 0.912891 0.897596
O O12 0.592802 0.160585 0.897463
O O13 0.207906 0.041544 0.057146
O O14 0.888291 0.221854 0.205037
O O15 0.165245 0.179233 0.464319
O O16 0.037411 0.431574 0.256389
#
# Coordination Sequence:
#
# PCOD9245669 Si02
#       8
#     4   4   4   4   4   4   4   4
#     4  10  23  40  69  96 133 176 217 271 331 400
#     4  10  21  38  68 104 123 172 226 268 323 383
#     4  10  21  41  70  94 130 167 222 277 323 374
#     4  11  23  40  71  93 132 165 232 268 318 387
#     4  10  22  41  68  98 130 165 227 277 322 384
#     4  11  24  44  64 105 125 178 217 281 321 399
#     4  11  26  46  63  98 132 183 212 273 336 397
#     4  11  28  44  63  95 143 172 217 269 348 399
#
# _framework density 22.823453000000001
#
# number of rings (size 3 to 8) (size 9 to 14) (size 15 to 20)
#    0.000    1.500    2.500    1.500   14.000    0.500 
#    0.000    0.625    0.000    0.000    0.000    0.000 
#    0.000    0.000    0.000    0.000    0.000    0.000 
#
# Total GULP energy -178942.831501 kJ/mol
# GULP energy per Si atom -5591.963484 kJ/mol
# Density = 2.277151 g / cm^3
# Si number density = 22.823453 Si / 1000 Ang^3
#
#
#
# Elastic Constant Matrix: (Units=GPa)
#
#
# Indices 1 2 3 4 5 6 
#
# 1 94.8356 27.0703 23.5727 0.0000 -33.4553 0.0000
# 2 27.0703 69.8965 20.7995 0.0000 -7.0695 0.0000
# 3 23.5727 20.7995 102.7684 0.0000 -38.3006 0.0000
# 4 0.0000 0.0000 0.0000 38.5223 0.0000 -0.1767
# 5 -33.4553 -7.0695 -38.3006 0.0000 31.1602 0.0000
# 6 0.0000 0.0000 0.0000 -0.1767 0.0000 27.2124
#
#
#
# Elastic Compliance Matrix: (Units=1/GPa)
#
#
# Indices 1 2 3 4 5 6 
#
# 1 0.022163 -0.007863 0.008694 0.000000 0.032697 0.000000
# 2 -0.007863 0.018020 -0.006396 0.000000 -0.012216 0.000000
# 3 0.008694 -0.006396 0.022087 0.000000 0.035031 0.000000
# 4 0.000000 0.000000 0.000000 0.025960 0.000000 0.000169
# 5 0.032697 -0.012216 0.035031 0.000000 0.107484 0.000000
# 6 0.000000 0.000000 0.000000 0.000169 0.000000 0.036749
#
#
# Mechanical properties :
#
#
# Convention : Reuss Voigt Hill
#
# Bulk Modulus (GPa) = 19.55521 45.59840 32.57681
# Shear Modulus (GPa) = 19.18351 32.44952 25.81652
#
# Velocity S-wave (km/s) = 2.90231 3.77472 3.36689
# Velocity P-wave (km/s) = 4.45173 6.24661 5.42393
#
# Compressibility (1/GPa) = 0.05113727
#
# Stress axis : x y z
#
# Youngs Moduli (GPa) = 45.12060 55.49345 45.27635
#
# Poissons Ratio (x) = 0.43637 -0.39362
# Poissons Ratio (y) = 0.35481 0.28960
# Poissons Ratio (z) = -0.39227 0.35496
#
# Static dielectric constant tensor:
#      x y z
#    x 1.828530 0.000000 0.025460 
#    y 0.000000 1.876750 0.000000 
#    z 0.025460 0.000000 1.889030 
# 
# From -- ./inp_files/70514.got.cif
#   From: 2010.05.17/outbox.cif.g08.bks.cpg/sg14_36_cif.got.tgz:70514.got - 2010.06.03 17:49:19.
