data_PCOD9245387
_publ_section_title
;
Structure prediction by ZEFSAII (Michael W. Deem and Ramdas Pophale) SiO2 
 PCOD9245387
Probable space group: P 21/C
;
_chemical_formula_sum "Si O2"
_cell_formula_units_Z 32
_cell_length_a 19.975840
_cell_length_b 13.256644
_cell_length_c 23.593189
_cell_angle_alpha 90.000000
_cell_angle_beta 16.628258
_cell_angle_gamma 90.000000
_cell_volume 1787.869002
_symmetry_space_group_name_H-M "P 21/C"
_symmetry_group_IT_number 14
_symmetry_cell_setting 'monoclinic'
loop_
_space_group_symop_operation_xyz
x,y,z
-x,1/2+y,1/2-z
-x,-y,-z
x,1/2-y,1/2+z
loop_
_atom_site_type_symbol
_atom_site_label
_atom_site_fract_x
_atom_site_fract_y
_atom_site_fract_z
Si Si1 0.789814 0.980359 0.104865
Si Si2 0.556438 0.351093 0.864898
Si Si3 0.186034 0.750482 0.049589
Si Si4 0.946258 0.766947 0.027022
Si Si5 0.460787 0.572285 0.769614
Si Si6 0.130043 0.148839 0.791396
Si Si7 0.756553 0.750560 0.479189
Si Si8 0.674868 0.862845 0.662604
O O1 0.666564 0.043783 0.254537
O O2 0.847461 0.867342 0.076143
O O3 0.617915 0.978048 0.190960
O O4 0.018893 0.043612 0.902107
O O5 0.408479 0.307871 0.932000
O O6 0.773523 0.277550 0.701629
O O7 0.381659 0.362237 0.058911
O O8 0.045726 0.807646 0.113613
O O9 0.007804 0.737002 0.246115
O O10 0.276253 0.645217 0.950490
O O11 0.415807 0.814257 0.879828
O O12 0.871450 0.777886 0.153137
O O13 0.838239 0.673907 0.081067
O O14 0.630593 0.645312 0.596168
O O15 0.347053 0.482451 0.826466
O O16 0.767202 0.814218 0.528638
#
# Coordination Sequence:
#
# PCOD9245387 Si02
#       8
#     4   4   4   4   4   4   4   4
#     4  11  19  34  58  85 116 143 184 225 285 341
#     4  10  21  38  57  79 115 154 184 223 280 340
#     4  10  21  38  59  80 111 154 189 225 277 335
#     4  11  22  35  54  85 114 143 185 236 279 332
#     4  11  20  37  59  87 115 141 189 237 279 329
#     4  10  21  38  57  79 115 154 184 223 280 340
#     4  10  21  38  59  80 111 154 189 225 277 335
#     4  11  21  38  58  84 115 145 186 239 276 327
#
# _framework density 17.898402000000001
#
# number of rings (size 3 to 8) (size 9 to 14) (size 15 to 20)
#    0.000    1.500    5.000    3.750    0.000    5.000 
#    0.000    2.500    0.000    3.000    0.000    0.000 
#    0.000    0.000    0.000    0.000    0.000    0.000 
#
# Total GULP energy -178709.183391 kJ/mol
# GULP energy per Si atom -5584.661981 kJ/mol
# Density = 1.785766 g / cm^3
# Si number density = 17.898402 Si / 1000 Ang^3
#
#
#
# Elastic Constant Matrix: (Units=GPa)
#
#
# Indices 1 2 3 4 5 6 
#
# 1 37.3897 -15.6486 27.7226 0.0000 0.2249 0.0000
# 2 -15.6486 56.3725 19.7153 0.0000 13.5511 0.0000
# 3 27.7226 19.7153 129.2076 0.0000 36.0671 0.0000
# 4 0.0000 0.0000 0.0000 48.2424 0.0000 4.7442
# 5 0.2249 13.5511 36.0671 0.0000 17.8845 0.0000
# 6 0.0000 0.0000 0.0000 4.7442 0.0000 34.3139
#
#
#
# Elastic Compliance Matrix: (Units=1/GPa)
#
#
# Indices 1 2 3 4 5 6 
#
# 1 0.047737 0.012859 -0.021317 0.000000 0.032646 0.000000
# 2 0.012859 0.025647 -0.002752 0.000000 -0.014045 0.000000
# 3 -0.021317 -0.002752 0.027631 0.000000 -0.053369 0.000000
# 4 0.000000 0.000000 0.000000 0.021014 0.000000 -0.002905
# 5 0.032646 -0.014045 -0.053369 0.000000 0.173773 0.000000
# 6 0.000000 0.000000 0.000000 -0.002905 0.000000 0.029544
#
#
# Mechanical properties :
#
#
# Convention : Reuss Voigt Hill
#
# Bulk Modulus (GPa) = 12.72360 31.83872 22.28116
# Shear Modulus (GPa) = 13.37025 32.83354 23.10190
#
# Velocity S-wave (km/s) = 2.73611 4.28768 3.59656
# Velocity P-wave (km/s) = 4.13593 6.50688 5.45185
#
# Compressibility (1/GPa) = 0.07859412
#
# Stress axis : x y z
#
# Youngs Moduli (GPa) = 20.94831 38.99030 36.19189
#
# Poissons Ratio (x) = -0.50137 0.77151
# Poissons Ratio (y) = -0.26937 0.09959
# Poissons Ratio (z) = 0.44656 0.10729
#
# Static dielectric constant tensor:
#      x y z
#    x 1.622410 0.000000 -0.006260 
#    y 0.000000 1.607290 0.000000 
#    z -0.006260 0.000000 1.605830 
# 
# From -- ./inp_files/69423.got.cif
#   From: 2010.05.17/outbox.cif.g08.bks.cpg/sg14_35_cif.got.tgz:69423.got - 2010.06.03 17:49:19.
