data_PCOD9245012
_publ_section_title
;
Structure prediction by ZEFSAII (Michael W. Deem and Ramdas Pophale) SiO2 
 PCOD9245012
Probable space group: P 21/C
;
_chemical_formula_sum "Si O2"
_cell_formula_units_Z 20
_cell_length_a 12.985016
_cell_length_b 7.460694
_cell_length_c 15.310043
_cell_angle_alpha 90.000000
_cell_angle_beta 28.562757
_cell_angle_gamma 90.000000
_cell_volume 709.146556
_symmetry_space_group_name_H-M "P 21/C"
_symmetry_group_IT_number 14
_symmetry_cell_setting 'monoclinic'
loop_
_space_group_symop_operation_xyz
x,y,z
-x,1/2+y,1/2-z
-x,-y,-z
x,1/2-y,1/2+z
loop_
_atom_site_type_symbol
_atom_site_label
_atom_site_fract_x
_atom_site_fract_y
_atom_site_fract_z
Si Si1 0.272294 0.144911 0.519426
Si Si2 0.822581 0.939541 0.218894
Si Si3 0.260826 0.720828 0.354508
Si Si4 0.367265 0.113479 0.214157
Si Si5 0.806415 0.484253 0.344211
O O1 0.299778 0.072955 0.598259
O O2 0.501545 0.144476 0.300739
O O3 0.211645 0.351513 0.576121
O O4 0.052663 0.063097 0.648731
O O5 0.739617 0.808682 0.202065
O O6 0.800569 0.136966 0.195202
O O7 0.061947 0.857328 0.058067
O O8 0.292181 0.935588 0.322725
O O9 0.285915 0.055392 0.178241
O O10 0.623279 0.147795 0.016994
#
# Coordination Sequence:
#
# PCOD9245012 Si02
#       5
#     4   4   4   4   4
#     4  10  21  36  56  84 115 142 186 236 275 330
#     4  10  21  37  59  84 110 147 187 227 281 336
#     4  10  21  37  59  84 110 147 187 227 281 336
#     4   9  19  38  58  81 113 150 189 225 276 339
#     4   9  20  34  59  86 107 151 190 223 286 334
#
# _framework density 28.202915000000001
#
# number of rings (size 3 to 8) (size 9 to 14) (size 15 to 20)
#    0.000    2.400    0.000    2.400    5.600    0.000 
#    0.000   10.000    0.000    0.000    0.000    0.000 
#    0.000    0.000    0.000    0.000    0.000    0.000 
#
# Total GULP energy -111891.026058 kJ/mol
# GULP energy per Si atom -5594.551303 kJ/mol
# Density = 2.813872 g / cm^3
# Si number density = 28.202915 Si / 1000 Ang^3
#
#
#
# Elastic Constant Matrix: (Units=GPa)
#
#
# Indices 1 2 3 4 5 6 
#
# 1 53.5315 28.1664 31.4093 0.0000 -4.5522 0.0000
# 2 28.1664 118.6171 41.3418 0.0000 -6.9321 0.0000
# 3 31.4093 41.3418 205.8903 0.0000 -18.0138 0.0000
# 4 0.0000 0.0000 0.0000 39.4409 0.0000 -12.0423
# 5 -4.5522 -6.9321 -18.0138 0.0000 55.0326 0.0000
# 6 0.0000 0.0000 0.0000 -12.0423 0.0000 35.2018
#
#
#
# Elastic Compliance Matrix: (Units=1/GPa)
#
#
# Indices 1 2 3 4 5 6 
#
# 1 0.022531 -0.004450 -0.002501 0.000000 0.000484 0.000000
# 2 -0.004450 0.009961 -0.001280 0.000000 0.000468 0.000000
# 3 -0.002501 -0.001280 0.005624 0.000000 0.001473 0.000000
# 4 0.000000 0.000000 0.000000 0.028312 0.000000 0.009685
# 5 0.000484 0.000468 0.001473 0.000000 0.018752 0.000000
# 6 0.000000 0.000000 0.000000 0.009685 0.000000 0.031721
#
#
# Mechanical properties :
#
#
# Convention : Reuss Voigt Hill
#
# Bulk Modulus (GPa) = 46.18314 64.43042 55.30678
# Shear Modulus (GPa) = 35.56663 44.40983 39.98823
#
# Velocity S-wave (km/s) = 3.55505 3.97250 3.76955
# Velocity P-wave (km/s) = 5.76732 6.62841 6.21280
#
# Compressibility (1/GPa) = 0.02165292
#
# Stress axis : x y z
#
# Youngs Moduli (GPa) = 44.38370 100.39442 177.79459
#
# Poissons Ratio (x) = 0.44676 0.44470
# Poissons Ratio (y) = 0.19751 0.22763
# Poissons Ratio (z) = 0.11101 0.12853
#
# Static dielectric constant tensor:
#      x y z
#    x 2.243300 0.000000 -0.032310 
#    y 0.000000 2.201160 0.000000 
#    z -0.032310 0.000000 2.215860 
# 
# From -- ./inp_files/7888.got.cif
#   From: 2010.05.17/outbox.cif.g08.bks.cpg/sg14_4_cif.got.tgz:7888.got - 2010.06.03 17:49:19.
