data_PCOD9245982
_publ_section_title
;
Structure prediction by ZEFSAII (Michael W. Deem and Ramdas Pophale) SiO2 
 PCOD9245982
Probable space group: P 21/C
;
_chemical_formula_sum "Si O2"
_cell_formula_units_Z 32
_cell_length_a 12.804042
_cell_length_b 7.796613
_cell_length_c 21.692810
_cell_angle_alpha 90.000000
_cell_angle_beta 143.875988
_cell_angle_gamma 90.000000
_cell_volume 1276.669310
_symmetry_space_group_name_H-M "P 21/C"
_symmetry_group_IT_number 14
_symmetry_cell_setting 'monoclinic'
loop_
_space_group_symop_operation_xyz
x,y,z
-x,1/2+y,1/2-z
-x,-y,-z
x,1/2-y,1/2+z
loop_
_atom_site_type_symbol
_atom_site_label
_atom_site_fract_x
_atom_site_fract_y
_atom_site_fract_z
Si Si1 0.611958 0.432322 0.845262
Si Si2 0.316052 0.224519 0.926136
Si Si3 0.001411 0.288765 0.704331
Si Si4 0.689212 0.343254 0.636780
Si Si5 0.199965 0.794048 0.677048
Si Si6 0.882965 0.922507 0.055412
Si Si7 0.036072 0.888977 0.426440
Si Si8 0.743822 0.694724 0.361981
O O1 0.675695 0.303620 0.821787
O O2 0.404138 0.394988 0.751871
O O3 0.661146 0.623199 0.845559
O O4 0.752753 0.389720 0.965716
O O5 0.221253 0.205510 0.947630
O O6 0.191734 0.336141 0.822416
O O7 0.318583 0.034649 0.895530
O O8 0.520746 0.264419 0.033200
O O9 0.871132 0.263591 0.699061
O O10 0.904820 0.411598 0.609068
O O11 0.017869 0.120759 0.670616
O O12 0.689387 0.346714 0.710383
O O13 0.083927 0.629972 0.636168
O O14 0.045335 0.932684 0.589556
O O15 0.784448 0.917782 0.942521
O O16 0.923402 0.747260 0.411114
#
# Coordination Sequence:
#
# PCOD9245982 Si02
#       8
#     4   4   4   4   4   4   4   4
#     4  11  24  41  67  95 125 172 215 263 320 381
#     4  10  21  40  62  95 124 165 213 260 316 379
#     4  11  24  37  65  96 127 167 215 266 317 370
#     4  10  21  39  67  88 125 170 212 258 314 383
#     4  11  19  42  68  87 124 175 210 251 326 383
#     4  11  22  40  67  92 128 168 211 266 319 378
#     4  11  23  43  65  89 131 174 212 261 321 389
#     4  11  24  43  65  96 128 170 216 262 320 383
#
# _framework density 25.065221999999999
#
# number of rings (size 3 to 8) (size 9 to 14) (size 15 to 20)
#    0.000    1.250    5.000    1.500    1.750    2.500 
#    0.000    0.625    0.000    0.000    0.000    0.000 
#    0.000    0.000    0.000    0.000    0.000    0.000 
#
# Total GULP energy -178929.095567 kJ/mol
# GULP energy per Si atom -5591.534236 kJ/mol
# Density = 2.500817 g / cm^3
# Si number density = 25.065222 Si / 1000 Ang^3
#
#
#
# Elastic Constant Matrix: (Units=GPa)
#
#
# Indices 1 2 3 4 5 6 
#
# 1 33.7329 -2.4626 27.2035 0.0000 -1.7221 0.0000
# 2 -2.4626 57.7549 17.1673 0.0000 8.6453 0.0000
# 3 27.2035 17.1673 190.0934 0.0000 7.2380 0.0000
# 4 0.0000 0.0000 0.0000 32.4893 0.0000 7.2052
# 5 -1.7221 8.6453 7.2380 0.0000 37.5187 0.0000
# 6 0.0000 0.0000 0.0000 7.2052 0.0000 20.4255
#
#
#
# Elastic Compliance Matrix: (Units=1/GPa)
#
#
# Indices 1 2 3 4 5 6 
#
# 1 0.034139 0.002711 -0.005204 0.000000 0.001946 0.000000
# 2 0.002711 0.018567 -0.001921 0.000000 -0.003783 0.000000
# 3 -0.005204 -0.001921 0.006217 0.000000 -0.000996 0.000000
# 4 0.000000 0.000000 0.000000 0.033392 0.000000 -0.011779
# 5 0.001946 -0.003783 -0.000996 0.000000 0.027807 0.000000
# 6 0.000000 0.000000 0.000000 -0.011779 0.000000 0.053114
#
#
# Mechanical properties :
#
#
# Convention : Reuss Voigt Hill
#
# Bulk Modulus (GPa) = 19.96195 40.59972 30.28083
# Shear Modulus (GPa) = 25.15583 34.06491 29.61037
#
# Velocity S-wave (km/s) = 3.17142 3.69053 3.44078
# Velocity P-wave (km/s) = 4.62513 5.86454 5.28132
#
# Compressibility (1/GPa) = 0.05009531
#
# Stress axis : x y z
#
# Youngs Moduli (GPa) = 29.29205 53.85777 160.85632
#
# Poissons Ratio (x) = -0.14602 0.83717
# Poissons Ratio (y) = -0.07942 0.30897
# Poissons Ratio (z) = 0.15245 0.10345
#
# Static dielectric constant tensor:
#      x y z
#    x 1.972810 0.000000 0.014700 
#    y 0.000000 2.109220 0.000000 
#    z 0.014700 0.000000 1.948700 
# 
# From -- ./inp_files/73868.got.cif
#   From: 2010.05.17/outbox.cif.g08.bks.cpg/sg14_37_cif.got.tgz:73868.got - 2010.06.03 17:49:19.
