data_PCOD9245881
_publ_section_title
;
Structure prediction by ZEFSAII (Michael W. Deem and Ramdas Pophale) SiO2 
 PCOD9245881
Probable space group: P 21/C
;
_chemical_formula_sum "Si O2"
_cell_formula_units_Z 20
_cell_length_a 5.874357
_cell_length_b 15.554456
_cell_length_c 8.394169
_cell_angle_alpha 90.000000
_cell_angle_beta 83.235879
_cell_angle_gamma 90.000000
_cell_volume 761.656894
_symmetry_space_group_name_H-M "P 21/C"
_symmetry_group_IT_number 14
_symmetry_cell_setting 'monoclinic'
loop_
_space_group_symop_operation_xyz
x,y,z
-x,1/2+y,1/2-z
-x,-y,-z
x,1/2-y,1/2+z
loop_
_atom_site_type_symbol
_atom_site_label
_atom_site_fract_x
_atom_site_fract_y
_atom_site_fract_z
Si Si1 0.721829 0.479174 0.265999
Si Si2 0.388166 0.382223 0.506790
Si Si3 0.903098 0.835385 0.246716
Si Si4 0.527130 0.374565 0.039910
Si Si5 0.714229 0.212649 0.206252
O O1 0.483529 0.450835 0.371113
O O2 0.753540 0.572423 0.339791
O O3 0.658745 0.460817 0.087674
O O4 0.928667 0.416632 0.293484
O O5 0.230645 0.323241 0.409156
O O6 0.615893 0.340850 0.565015
O O7 0.742307 0.866115 0.405998
O O8 0.031749 0.746591 0.277005
O O9 0.608372 0.305114 0.167809
O O10 0.616285 0.338422 0.865938
#
# Coordination Sequence:
#
# PCOD9245881 Si02
#       5
#     4   4   4   4   4
#     4   9  20  39  63  91 123 162 205 251 306 371
#     4  10  21  39  64  92 124 162 207 251 302 369
#     4  10  21  41  63  87 122 166 204 248 311 366
#     4  10  22  38  59  90 124 159 208 255 301 366
#     4  11  23  39  60  91 125 160 204 258 304 362
#
# _framework density 26.258543
#
# number of rings (size 3 to 8) (size 9 to 14) (size 15 to 20)
#    0.000    2.000    0.000    4.200    0.000   10.400 
#    0.000    3.000    0.000    0.000    0.000    4.200 
#    0.000    0.000    0.000    0.000    0.000    0.000 
#
# Total GULP energy -111610.896425 kJ/mol
# GULP energy per Si atom -5580.544821 kJ/mol
# Density = 2.619878 g / cm^3
# Si number density = 26.258543 Si / 1000 Ang^3
#
#
#
# Elastic Constant Matrix: (Units=GPa)
#
#
# Indices 1 2 3 4 5 6 
#
# 1 100.7957 37.5564 61.1946 0.0000 10.4687 0.0000
# 2 37.5564 61.8260 35.8176 0.0000 9.7796 0.0000
# 3 61.1946 35.8176 138.3189 0.0000 30.2621 0.0000
# 4 0.0000 0.0000 0.0000 43.5328 0.0000 -2.8011
# 5 10.4687 9.7796 30.2621 0.0000 37.5672 0.0000
# 6 0.0000 0.0000 0.0000 -2.8011 0.0000 40.0042
#
#
#
# Elastic Compliance Matrix: (Units=1/GPa)
#
#
# Indices 1 2 3 4 5 6 
#
# 1 0.015551 -0.006494 -0.005609 0.000000 0.001875 0.000000
# 2 -0.006494 0.021785 -0.002335 0.000000 -0.001981 0.000000
# 3 -0.005609 -0.002335 0.011946 0.000000 -0.007452 0.000000
# 4 0.000000 0.000000 0.000000 0.023075 0.000000 0.001616
# 5 0.001875 -0.001981 -0.007452 0.000000 0.032615 0.000000
# 6 0.000000 0.000000 0.000000 0.001616 0.000000 0.025110
#
#
# Mechanical properties :
#
#
# Convention : Reuss Voigt Hill
#
# Bulk Modulus (GPa) = 49.00184 63.34197 56.17191
# Shear Modulus (GPa) = 30.16400 35.31232 32.73816
#
# Velocity S-wave (km/s) = 3.39297 3.67112 3.53478
# Velocity P-wave (km/s) = 5.83536 6.49186 6.17235
#
# Compressibility (1/GPa) = 0.02040740
#
# Stress axis : x y z
#
# Youngs Moduli (GPa) = 64.30441 45.90292 83.70905
#
# Poissons Ratio (x) = 0.29809 0.46950
# Poissons Ratio (y) = 0.41758 0.19545
# Poissons Ratio (z) = 0.36066 0.10718
#
# Static dielectric constant tensor:
#      x y z
#    x 2.198850 0.000000 0.043030 
#    y 0.000000 2.207730 0.000000 
#    z 0.043030 0.000000 2.108180 
# 
# From -- ./inp_files/5533.got.cif
#   From: 2010.05.17/outbox.cif.g08.bks.cpg/sg14_3_cif.got.tgz:5533.got - 2010.06.03 17:49:19.
