data_PCOD9245691
_publ_section_title
;
Structure prediction by ZEFSAII (Michael W. Deem and Ramdas Pophale) SiO2 
 PCOD9245691
Probable space group: P 21/C
;
_chemical_formula_sum "Si O2"
_cell_formula_units_Z 28
_cell_length_a 7.237001
_cell_length_b 5.880550
_cell_length_c 29.642836
_cell_angle_alpha 90.000000
_cell_angle_beta 117.463849
_cell_angle_gamma 90.000000
_cell_volume 1119.354864
_symmetry_space_group_name_H-M "P 21/C"
_symmetry_group_IT_number 14
_symmetry_cell_setting 'monoclinic'
loop_
_space_group_symop_operation_xyz
x,y,z
-x,1/2+y,1/2-z
-x,-y,-z
x,1/2-y,1/2+z
loop_
_atom_site_type_symbol
_atom_site_label
_atom_site_fract_x
_atom_site_fract_y
_atom_site_fract_z
Si Si1 0.215047 0.572692 0.752545
Si Si2 0.318603 0.200022 0.706860
Si Si3 0.245810 0.756328 0.493273
Si Si4 0.281167 0.677135 0.862851
Si Si5 0.628828 0.744933 0.463387
Si Si6 0.997000 0.807765 0.649243
Si Si7 0.052394 0.405077 0.609611
O O1 0.228714 0.305042 0.742852
O O2 0.441553 0.652428 0.760298
O O3 0.220418 0.654405 0.804104
O O4 0.037973 0.674798 0.700717
O O5 0.268167 0.372218 0.660189
O O6 0.180859 0.991129 0.674398
O O7 0.438489 0.749449 0.478935
O O8 0.270194 0.508727 0.520990
O O9 0.025285 0.729795 0.442008
O O10 0.259376 0.008567 0.516780
O O11 0.512044 0.742823 0.902022
O O12 0.123181 0.837283 0.872408
O O13 0.225726 0.426862 0.875733
O O14 0.022346 0.674207 0.605425
#
# Coordination Sequence:
#
# PCOD9245691 Si02
#       7
#     4   4   4   4   4   4   4
#     4  11  22  39  57  79 116 157 194 242 287 351
#     4  10  21  39  56  81 110 157 200 231 286 356
#     4   9  18  33  59  83 123 151 191 241 294 356
#     4  10  23  34  57  87 118 148 191 245 300 342
#     4   9  19  33  54  89 119 154 189 238 301 354
#     4  10  22  36  56  81 117 143 199 237 290 353
#     4   9  21  36  59  90 110 152 193 245 292 348
#
# _framework density 25.014409000000001
#
# number of rings (size 3 to 8) (size 9 to 14) (size 15 to 20)
#    0.000    2.286    1.429    0.000   18.000    0.000 
#    0.000    0.000    0.000    1.714    0.000    0.000 
#    0.000    0.000    0.000    0.000    0.000    0.000 
#
# Total GULP energy -156066.986558 kJ/mol
# GULP energy per Si atom -5573.820948 kJ/mol
# Density = 2.495748 g / cm^3
# Si number density = 25.014409 Si / 1000 Ang^3
#
#
#
# Elastic Constant Matrix: (Units=GPa)
#
#
# Indices 1 2 3 4 5 6 
#
# 1 47.2436 17.4931 24.8308 0.0000 1.9559 0.0000
# 2 17.4931 120.9070 54.9772 0.0000 9.4978 0.0000
# 3 24.8308 54.9772 119.9079 0.0000 30.8675 0.0000
# 4 0.0000 0.0000 0.0000 38.3923 0.0000 8.9336
# 5 1.9559 9.4978 30.8675 0.0000 34.2353 0.0000
# 6 0.0000 0.0000 0.0000 8.9336 0.0000 22.6484
#
#
#
# Elastic Compliance Matrix: (Units=1/GPa)
#
#
# Indices 1 2 3 4 5 6 
#
# 1 0.024358 -0.001367 -0.005413 0.000000 0.003868 0.000000
# 2 -0.001367 0.010617 -0.005009 0.000000 0.001649 0.000000
# 3 -0.005413 -0.005009 0.014742 0.000000 -0.011593 0.000000
# 4 0.000000 0.000000 0.000000 0.028679 0.000000 -0.011312
# 5 0.003868 0.001649 -0.011593 0.000000 0.038983 0.000000
# 6 0.000000 0.000000 0.000000 -0.011312 0.000000 0.048615
#
#
# Mechanical properties :
#
#
# Convention : Reuss Voigt Hill
#
# Bulk Modulus (GPa) = 38.25846 53.62898 45.94372
# Shear Modulus (GPa) = 25.21619 31.77235 28.49427
#
# Velocity S-wave (km/s) = 3.17845 3.56780 3.37874
# Velocity P-wave (km/s) = 5.36636 6.20145 5.79896
#
# Compressibility (1/GPa) = 0.02613801
#
# Stress axis : x y z
#
# Youngs Moduli (GPa) = 41.05436 94.19089 67.83473
#
# Poissons Ratio (x) = 0.12872 0.36721
# Poissons Ratio (y) = 0.05610 0.33980
# Poissons Ratio (z) = 0.22224 0.47183
#
# Static dielectric constant tensor:
#      x y z
#    x 2.013210 0.000000 -0.051380 
#    y 0.000000 2.284370 0.000000 
#    z -0.051380 0.000000 1.967010 
# 
# From -- ./inp_files/79282.got.cif
#   From: 2010.05.17/outbox.cif.g08.bks.cpg/sg14_40_cif.got.tgz:79282.got - 2010.06.03 17:49:19.
