data_PCOD9245573
_publ_section_title
;
Structure prediction by ZEFSAII (Michael W. Deem and Ramdas Pophale) SiO2 
 PCOD9245573
Probable space group: P 21/C
;
_chemical_formula_sum "Si O2"
_cell_formula_units_Z 32
_cell_length_a 20.645476
_cell_length_b 13.366885
_cell_length_c 13.916091
_cell_angle_alpha 90.000000
_cell_angle_beta 19.958890
_cell_angle_gamma 90.000000
_cell_volume 1310.892150
_symmetry_space_group_name_H-M "P 21/C"
_symmetry_group_IT_number 14
_symmetry_cell_setting 'monoclinic'
loop_
_space_group_symop_operation_xyz
x,y,z
-x,1/2+y,1/2-z
-x,-y,-z
x,1/2-y,1/2+z
loop_
_atom_site_type_symbol
_atom_site_label
_atom_site_fract_x
_atom_site_fract_y
_atom_site_fract_z
Si Si1 0.349286 0.014183 0.872383
Si Si2 0.729143 0.731884 0.513815
Si Si3 0.934085 0.250017 0.088174
Si Si4 0.937002 0.061621 0.876282
Si Si5 0.745706 0.456986 0.824665
Si Si6 0.073251 0.773982 0.676245
Si Si7 0.314030 0.977378 0.367623
Si Si8 0.617813 0.385490 0.489640
O O1 0.552571 0.018766 0.538706
O O2 0.177755 0.998464 0.041399
O O3 0.354748 0.925321 0.940601
O O4 0.331503 0.124033 0.943205
O O5 0.545723 0.800523 0.788118
O O6 0.867113 0.710890 0.413007
O O7 0.869275 0.776937 0.237668
O O8 0.791154 0.158560 0.275587
O O9 0.957628 0.259180 0.169774
O O10 0.828363 0.340845 0.179628
O O11 0.904547 0.011330 0.026469
O O12 0.858714 0.174394 0.975294
O O13 0.158358 0.054385 0.543719
O O14 0.709043 0.491303 0.984106
O O15 0.225649 0.867126 0.464602
O O16 0.528670 0.020383 0.055729
#
# Coordination Sequence:
#
# PCOD9245573 Si02
#       8
#     4   4   4   4   4   4   4   4
#     4  11  24  39  67  97 135 171 225 276 329 402
#     4  12  24  46  71  95 135 182 215 277 340 386
#     4  11  23  43  70  94 133 177 224 268 330 402
#     4  12  20  39  65  97 136 170 219 282 329 387
#     4  10  21  38  63  97 126 173 220 278 335 384
#     4  11  23  41  66  98 134 172 225 274 323 400
#     4  10  22  38  66  93 132 176 216 271 333 396
#     4  11  23  44  68  94 134 176 219 278 331 391
#
# _framework density 24.410855999999999
#
# number of rings (size 3 to 8) (size 9 to 14) (size 15 to 20)
#    0.000    1.000    6.250    0.750    0.000    3.500 
#    2.250    1.875    0.000    0.000    0.000    0.000 
#    0.000    0.000    0.000    0.000    0.000    0.000 
#
# Total GULP energy -178384.570793 kJ/mol
# GULP energy per Si atom -5574.517837 kJ/mol
# Density = 2.435530 g / cm^3
# Si number density = 24.410856 Si / 1000 Ang^3
#
#
#
# Elastic Constant Matrix: (Units=GPa)
#
#
# Indices 1 2 3 4 5 6 
#
# 1 85.6456 9.1725 -11.6993 0.0000 -8.2438 0.0000
# 2 9.1725 91.5354 -2.4276 0.0000 -9.5052 0.0000
# 3 -11.6993 -2.4276 31.3038 0.0000 -10.8540 0.0000
# 4 0.0000 0.0000 0.0000 37.1623 0.0000 -12.9238
# 5 -8.2438 -9.5052 -10.8540 0.0000 22.2746 0.0000
# 6 0.0000 0.0000 0.0000 -12.9238 0.0000 25.9195
#
#
#
# Elastic Compliance Matrix: (Units=1/GPa)
#
#
# Indices 1 2 3 4 5 6 
#
# 1 0.013684 -0.000222 0.008207 0.000000 0.008969 0.000000
# 2 -0.000222 0.011691 0.003038 0.000000 0.006387 0.000000
# 3 0.008207 0.003038 0.044222 0.000000 0.025882 0.000000
# 4 0.000000 0.000000 0.000000 0.032554 0.000000 0.016232
# 5 0.008969 0.006387 0.025882 0.000000 0.063551 0.000000
# 6 0.000000 0.000000 0.000000 0.016232 0.000000 0.046674
#
#
# Mechanical properties :
#
#
# Convention : Reuss Voigt Hill
#
# Bulk Modulus (GPa) = 10.91204 22.06401 16.48802
# Shear Modulus (GPa) = 22.63690 31.30056 26.96873
#
# Velocity S-wave (km/s) = 3.04851 3.58472 3.32744
# Velocity P-wave (km/s) = 4.10744 5.11780 4.64020
#
# Compressibility (1/GPa) = 0.09164192
#
# Stress axis : x y z
#
# Youngs Moduli (GPa) = 73.07724 85.53731 22.61320
#
# Poissons Ratio (x) = 0.01901 -0.18558
# Poissons Ratio (y) = 0.01624 -0.06870
# Poissons Ratio (z) = -0.59972 -0.25987
#
# Static dielectric constant tensor:
#      x y z
#    x 1.979770 0.000000 0.032950 
#    y 0.000000 2.023090 0.000000 
#    z 0.032950 0.000000 1.997850 
# 
# From -- ./inp_files/50617.got.cif
#   From: 2010.05.17/outbox.cif.g08.bks.cpg/sg14_26_cif.got.tgz:50617.got - 2010.06.03 17:49:19.
