data_PCOD9245827
_publ_section_title
;
Structure prediction by ZEFSAII (Michael W. Deem and Ramdas Pophale) SiO2 
 PCOD9245827
Probable space group: P 21/C
;
_chemical_formula_sum "Si O2"
_cell_formula_units_Z 28
_cell_length_a 12.490867
_cell_length_b 18.904050
_cell_length_c 9.406153
_cell_angle_alpha 90.000000
_cell_angle_beta 44.053043
_cell_angle_gamma 90.000000
_cell_volume 1544.353484
_symmetry_space_group_name_H-M "P 21/C"
_symmetry_group_IT_number 14
_symmetry_cell_setting 'monoclinic'
loop_
_space_group_symop_operation_xyz
x,y,z
-x,1/2+y,1/2-z
-x,-y,-z
x,1/2-y,1/2+z
loop_
_atom_site_type_symbol
_atom_site_label
_atom_site_fract_x
_atom_site_fract_y
_atom_site_fract_z
Si Si1 0.402533 0.729249 0.507031
Si Si2 0.589788 0.683515 0.597346
Si Si3 0.115300 0.691238 0.417072
Si Si4 0.361077 0.465079 0.547010
Si Si5 0.057096 0.420030 0.951565
Si Si6 0.805272 0.397481 0.414631
Si Si7 0.049898 0.195305 0.224394
O O1 0.528071 0.704402 0.501061
O O2 0.481655 0.778228 0.314006
O O3 0.316712 0.661890 0.519694
O O4 0.272170 0.772616 0.715018
O O5 0.584066 0.598091 0.607496
O O6 0.766619 0.706150 0.449583
O O7 0.153664 0.618596 0.461756
O O8 0.010511 0.686266 0.377370
O O9 0.035702 0.741815 0.610366
O O10 0.500000 0.500000 0.500000
O O11 0.241486 0.427422 0.771110
O O12 0.268515 0.526474 0.551794
O O13 0.017199 0.374581 0.850119
O O14 0.000000 0.500000 0.000000
O O15 0.962083 0.387828 0.172813
#
# Coordination Sequence:
#
# PCOD9245827 Si02
#       7
#     4   4   4   4   4   4   4
#     4  12  21  37  63  90 121 160 209 259 308 373
#     4  11  24  39  60  93 125 159 207 258 319 369
#     4  12  22  38  64  90 125 159 215 259 311 374
#     4  10  21  39  63  89 128 165 204 250 314 383
#     4   9  20  37  61  86 116 155 209 248 299 372
#     4  11  21  39  62  94 117 164 215 255 309 370
#     4  11  21  38  58  91 120 162 201 264 312 368
#
# _framework density 18.130564
#
# number of rings (size 3 to 8) (size 9 to 14) (size 15 to 20)
#    0.000    1.143    5.714    0.857    0.000    1.143 
#    0.000    7.143    0.000    0.000    0.000    0.000 
#    0.000    0.000    0.000    0.000    0.000    0.000 
#
# Total GULP energy -156245.483694 kJ/mol
# GULP energy per Si atom -5580.195846 kJ/mol
# Density = 1.808930 g / cm^3
# Si number density = 18.130564 Si / 1000 Ang^3
#
#
#
# Elastic Constant Matrix: (Units=GPa)
#
#
# Indices 1 2 3 4 5 6 
#
# 1 107.8867 32.5010 41.9751 0.0000 -0.3315 0.0000
# 2 32.5010 102.3610 61.3050 0.0000 0.5109 0.0000
# 3 41.9751 61.3050 94.7234 0.0000 -0.4333 0.0000
# 4 0.0000 0.0000 0.0000 37.6097 0.0000 -1.2394
# 5 -0.3315 0.5109 -0.4333 0.0000 27.2924 0.0000
# 6 0.0000 0.0000 0.0000 -1.2394 0.0000 32.1793
#
#
#
# Elastic Compliance Matrix: (Units=1/GPa)
#
#
# Indices 1 2 3 4 5 6 
#
# 1 0.011257 -0.000959 -0.004367 0.000000 0.000085 0.000000
# 2 -0.000959 0.016040 -0.009959 0.000000 -0.000470 0.000000
# 3 -0.004367 -0.009959 0.018940 0.000000 0.000434 0.000000
# 4 0.000000 0.000000 0.000000 0.026623 0.000000 0.001025
# 5 0.000085 -0.000470 0.000434 0.000000 0.036657 0.000000
# 6 0.000000 0.000000 0.000000 0.001025 0.000000 0.031115
#
#
# Mechanical properties :
#
#
# Convention : Reuss Voigt Hill
#
# Bulk Modulus (GPa) = 63.82714 64.05925 63.94319
# Shear Modulus (GPa) = 28.34068 30.69562 29.51815
#
# Velocity S-wave (km/s) = 3.95795 4.11911 4.03933
# Velocity P-wave (km/s) = 7.49451 7.61785 7.55643
#
# Compressibility (1/GPa) = 0.01566732
#
# Stress axis : x y z
#
# Youngs Moduli (GPa) = 88.83060 62.34227 52.79967
#
# Poissons Ratio (x) = 0.05979 0.23060
# Poissons Ratio (y) = 0.08520 0.52581
# Poissons Ratio (z) = 0.38796 0.62084
#
# Static dielectric constant tensor:
#      x y z
#    x 1.624130 0.000000 -0.016030 
#    y 0.000000 1.638740 0.000000 
#    z -0.016030 0.000000 1.633750 
# 
# From -- ./inp_files/9406.got.cif
#   From: 2010.05.17/outbox.cif.g08.bks.cpg/sg14_5_cif.got.tgz:9406.got - 2010.06.03 17:49:19.
