data_PCOD9245356
_publ_section_title
;
Structure prediction by ZEFSAII (Michael W. Deem and Ramdas Pophale) SiO2 
 PCOD9245356
Probable space group: P 21/C
;
_chemical_formula_sum "Si O2"
_cell_formula_units_Z 32
_cell_length_a 8.131328
_cell_length_b 11.872154
_cell_length_c 26.875071
_cell_angle_alpha 90.000000
_cell_angle_beta 31.738721
_cell_angle_gamma 90.000000
_cell_volume 1364.786666
_symmetry_space_group_name_H-M "P 21/C"
_symmetry_group_IT_number 14
_symmetry_cell_setting 'monoclinic'
loop_
_space_group_symop_operation_xyz
x,y,z
-x,1/2+y,1/2-z
-x,-y,-z
x,1/2-y,1/2+z
loop_
_atom_site_type_symbol
_atom_site_label
_atom_site_fract_x
_atom_site_fract_y
_atom_site_fract_z
Si Si1 0.670501 0.163379 0.202575
Si Si2 0.716789 0.549450 0.621781
Si Si3 0.540674 0.586798 0.391177
Si Si4 0.856837 0.500523 0.738624
Si Si5 0.788078 0.146826 0.934237
Si Si6 0.041901 0.878193 0.335265
Si Si7 0.514278 0.159708 0.600146
Si Si8 0.951512 0.376515 0.901182
O O1 0.760294 0.068166 0.139904
O O2 0.870330 0.277225 0.149352
O O3 0.295076 0.170448 0.299124
O O4 0.735592 0.104309 0.238744
O O5 0.678905 0.511101 0.574388
O O6 0.379472 0.599103 0.723498
O O7 0.968840 0.632550 0.581377
O O8 0.510245 0.599432 0.459082
O O9 0.473059 0.710197 0.386571
O O10 0.891957 0.549624 0.287671
O O11 0.580083 0.572950 0.833005
O O12 0.055833 0.582621 0.651278
O O13 0.736952 0.276815 0.933397
O O14 0.780053 0.844680 0.362602
O O15 0.934838 0.996232 0.386763
O O16 0.826177 0.125767 0.490134
#
# Coordination Sequence:
#
# PCOD9245356 Si02
#       8
#     4   4   4   4   4   4   4   4
#     4  10  22  40  63  90 125 163 206 252 318 380
#     4  10  21  37  66  88 121 168 210 256 318 371
#     4  11  22  39  62  92 127 162 212 261 311 378
#     4  11  23  39  63  90 126 165 204 259 319 368
#     4  10  22  40  62  93 125 162 211 261 313 376
#     4  11  20  40  65  88 130 166 204 259 317 381
#     4  11  24  39  63  96 129 162 213 265 313 381
#     4  10  23  40  64  93 126 166 211 258 317 378
#
# _framework density 23.44689
#
# number of rings (size 3 to 8) (size 9 to 14) (size 15 to 20)
#    0.000    1.500    3.750    1.125    3.500    0.500 
#    0.000    1.250    2.750    0.000    0.000    0.000 
#    0.000    0.000    0.000    0.000    0.000    0.000 
#
# Total GULP energy -178599.789260 kJ/mol
# GULP energy per Si atom -5581.243414 kJ/mol
# Density = 2.339352 g / cm^3
# Si number density = 23.446890 Si / 1000 Ang^3
#
#
#
# Elastic Constant Matrix: (Units=GPa)
#
#
# Indices 1 2 3 4 5 6 
#
# 1 30.2157 3.8963 -6.2719 0.0000 -12.1291 0.0000
# 2 3.8963 113.4123 30.2043 0.0000 2.6282 0.0000
# 3 -6.2719 30.2043 71.1990 0.0000 7.0727 0.0000
# 4 0.0000 0.0000 0.0000 39.8206 0.0000 2.0459
# 5 -12.1291 2.6282 7.0727 0.0000 20.8520 0.0000
# 6 0.0000 0.0000 0.0000 2.0459 0.0000 30.0527
#
#
#
# Elastic Compliance Matrix: (Units=1/GPa)
#
#
# Indices 1 2 3 4 5 6 
#
# 1 0.044067 -0.002779 0.002566 0.000000 0.025113 0.000000
# 2 -0.002779 0.010116 -0.004397 0.000000 -0.001400 0.000000
# 3 0.002566 -0.004397 0.016489 0.000000 -0.003546 0.000000
# 4 0.000000 0.000000 0.000000 0.025201 0.000000 -0.001716
# 5 0.025113 -0.001400 -0.003546 0.000000 0.063944 0.000000
# 6 0.000000 0.000000 0.000000 -0.001716 0.000000 0.033392
#
#
# Mechanical properties :
#
#
# Convention : Reuss Voigt Hill
#
# Bulk Modulus (GPa) = 16.27294 30.05381 23.16338
# Shear Modulus (GPa) = 22.43026 30.61162 26.52094
#
# Velocity S-wave (km/s) = 3.09632 3.61719 3.36684
# Velocity P-wave (km/s) = 4.44278 5.50373 5.00147
#
# Compressibility (1/GPa) = 0.06145171
#
# Stress axis : x y z
#
# Youngs Moduli (GPa) = 22.69263 98.84897 60.64686
#
# Poissons Ratio (x) = 0.27474 -0.15564
# Poissons Ratio (y) = 0.06307 0.26669
# Poissons Ratio (z) = -0.05824 0.43468
#
# Static dielectric constant tensor:
#      x y z
#    x 1.941610 0.000000 -0.014880 
#    y 0.000000 1.889190 0.000000 
#    z -0.014880 0.000000 1.965810 
# 
# From -- ./inp_files/59475.got.cif
#   From: 2010.05.17/outbox.cif.g08.bks.cpg/sg14_30_cif.got.tgz:59475.got - 2010.06.03 17:49:19.
