data_PCOD9245686
_publ_section_title
;
Structure prediction by ZEFSAII (Michael W. Deem and Ramdas Pophale) SiO2 
 PCOD9245686
Probable space group: P 21/C
;
_chemical_formula_sum "Si O2"
_cell_formula_units_Z 32
_cell_length_a 10.448629
_cell_length_b 6.423308
_cell_length_c 27.011714
_cell_angle_alpha 90.000000
_cell_angle_beta 131.813882
_cell_angle_gamma 90.000000
_cell_volume 1351.169275
_symmetry_space_group_name_H-M "P 21/C"
_symmetry_group_IT_number 14
_symmetry_cell_setting 'monoclinic'
loop_
_space_group_symop_operation_xyz
x,y,z
-x,1/2+y,1/2-z
-x,-y,-z
x,1/2-y,1/2+z
loop_
_atom_site_type_symbol
_atom_site_label
_atom_site_fract_x
_atom_site_fract_y
_atom_site_fract_z
Si Si1 0.066751 0.283131 0.338571
Si Si2 0.861423 0.848555 0.838588
Si Si3 0.402199 0.832922 0.575583
Si Si4 0.733856 0.234996 0.850889
Si Si5 0.625677 0.025062 0.119893
Si Si6 0.277548 0.540245 0.251201
Si Si7 0.043530 0.992098 0.453321
Si Si8 0.648658 0.046666 0.577623
O O1 0.990040 0.486646 0.346303
O O2 0.203039 0.383018 0.336164
O O3 0.897777 0.160413 0.278600
O O4 0.185897 0.095383 0.392098
O O5 0.959810 0.698898 0.902089
O O6 0.768576 0.697494 0.775211
O O7 0.734107 0.993531 0.837432
O O8 0.352589 0.794013 0.619676
O O9 0.459433 0.615471 0.564509
O O10 0.245610 0.947909 0.508101
O O11 0.569801 0.971579 0.610060
O O12 0.663051 0.357252 0.785115
O O13 0.935288 0.309442 0.906023
O O14 0.600667 0.077451 0.171034
O O15 0.664061 0.209031 0.091614
O O16 0.000000 0.000000 0.500000
O O17 0.500000 0.000000 0.500000
#
# Coordination Sequence:
#
# PCOD9245686 Si02
#       8
#     4   4   4   4   4   4   4   4
#     4  10  24  39  67  95 130 170 222 281 337 405
#     4  10  21  38  70  96 125 167 224 276 335 393
#     4  10  24  41  62  99 139 179 224 268 348 406
#     4   9  21  42  64 100 130 180 223 283 336 400
#     4  11  26  43  65  99 133 184 217 283 349 405
#     4  10  23  43  68  99 129 167 233 281 338 406
#     4   9  20  37  64  95 135 167 221 273 327 398
#     4  11  27  43  66  98 143 178 227 279 347 415
#
# _framework density 23.68319
#
# number of rings (size 3 to 8) (size 9 to 14) (size 15 to 20)
#    0.000    2.000    0.000    0.750   12.250    9.000 
#    4.500    0.000    0.000    0.000    0.000    0.000 
#    0.000    0.000    0.000    0.000    0.000    0.000 
#
# Total GULP energy -178480.511608 kJ/mol
# GULP energy per Si atom -5577.515988 kJ/mol
# Density = 2.362929 g / cm^3
# Si number density = 23.683190 Si / 1000 Ang^3
#
#
#
# Elastic Constant Matrix: (Units=GPa)
#
#
# Indices 1 2 3 4 5 6 
#
# 1 91.3403 25.3485 8.4229 0.0000 -0.4026 0.0000
# 2 25.3485 111.8283 22.4322 0.0000 -5.0228 0.0000
# 3 8.4229 22.4322 65.9974 0.0000 -9.0247 0.0000
# 4 0.0000 0.0000 0.0000 16.4642 0.0000 -0.7377
# 5 -0.4026 -5.0228 -9.0247 0.0000 33.8541 0.0000
# 6 0.0000 0.0000 0.0000 -0.7377 0.0000 20.6206
#
#
#
# Elastic Compliance Matrix: (Units=1/GPa)
#
#
# Indices 1 2 3 4 5 6 
#
# 1 0.011714 -0.002536 -0.000691 0.000000 -0.000421 0.000000
# 2 -0.002536 0.010156 -0.003037 0.000000 0.000667 0.000000
# 3 -0.000691 -0.003037 0.016823 0.000000 0.004026 0.000000
# 4 0.000000 0.000000 0.000000 0.060835 0.000000 0.002176
# 5 -0.000421 0.000667 0.004026 0.000000 0.030706 0.000000
# 6 0.000000 0.000000 0.000000 0.002176 0.000000 0.048573
#
#
# Mechanical properties :
#
#
# Convention : Reuss Voigt Hill
#
# Bulk Modulus (GPa) = 38.21758 42.39704 40.30731
# Shear Modulus (GPa) = 24.99301 28.38527 26.68914
#
# Velocity S-wave (km/s) = 3.25207 3.46575 3.36061
# Velocity P-wave (km/s) = 5.50212 5.82716 5.66697
#
# Compressibility (1/GPa) = 0.02616597
#
# Stress axis : x y z
#
# Youngs Moduli (GPa) = 85.37123 98.46170 59.44204
#
# Poissons Ratio (x) = 0.24965 0.04106
# Poissons Ratio (y) = 0.21646 0.18054
# Poissons Ratio (z) = 0.05896 0.29905
#
# Static dielectric constant tensor:
#      x y z
#    x 1.973670 0.000000 -0.038060 
#    y 0.000000 1.928930 0.000000 
#    z -0.038060 0.000000 2.007360 
# 
# From -- ./inp_files/79838.got.cif
#   From: 2010.05.17/outbox.cif.g08.bks.cpg/sg14_40_cif.got.tgz:79838.got - 2010.06.03 17:49:19.
