data_PCOD9245776
_publ_section_title
;
Structure prediction by ZEFSAII (Michael W. Deem and Ramdas Pophale) SiO2 
 PCOD9245776
Probable space group: P 21/C
;
_chemical_formula_sum "Si O2"
_cell_formula_units_Z 32
_cell_length_a 14.650483
_cell_length_b 22.980354
_cell_length_c 8.187217
_cell_angle_alpha 90.000000
_cell_angle_beta 30.877849
_cell_angle_gamma 90.000000
_cell_volume 1414.619460
_symmetry_space_group_name_H-M "P 21/C"
_symmetry_group_IT_number 14
_symmetry_cell_setting 'monoclinic'
loop_
_space_group_symop_operation_xyz
x,y,z
-x,1/2+y,1/2-z
-x,-y,-z
x,1/2-y,1/2+z
loop_
_atom_site_type_symbol
_atom_site_label
_atom_site_fract_x
_atom_site_fract_y
_atom_site_fract_z
Si Si1 0.478502 0.437765 0.855118
Si Si2 0.421492 0.873139 0.133491
Si Si3 0.052193 0.112268 0.614370
Si Si4 0.392131 0.466298 0.521370
Si Si5 0.695320 0.789571 0.623032
Si Si6 0.026724 0.602484 0.136107
Si Si7 0.685669 0.833210 0.272379
Si Si8 0.884372 0.007149 0.014491
O O1 0.488510 0.402051 0.668748
O O2 0.628545 0.487190 0.592927
O O3 0.461765 0.384781 0.008191
O O4 0.306772 0.478846 0.148253
O O5 0.214836 0.879351 0.420284
O O6 0.478987 0.911219 0.200684
O O7 0.517502 0.811530 0.989783
O O8 0.213533 0.065334 0.350412
O O9 0.141298 0.170479 0.555573
O O10 0.984663 0.121612 0.534363
O O11 0.902041 0.075045 0.939457
O O12 0.500000 0.500000 0.500000
O O13 0.678862 0.803873 0.458904
O O14 0.698491 0.720295 0.630853
O O15 0.870891 0.633410 0.473656
O O16 0.980443 0.534634 0.233213
O O17 0.000000 0.000000 0.000000
#
# Coordination Sequence:
#
# PCOD9245776 Si02
#       8
#     4   4   4   4   4   4   4   4
#     4   9  18  32  54  82 115 152 190 235 286 345
#     4   9  18  35  59  84 115 155 196 242 293 355
#     4  11  22  36  59  89 121 160 199 247 301 355
#     4   9  16  32  55  82 118 161 199 233 291 357
#     4  10  21  41  64  83 113 156 200 244 301 362
#     4  11  22  37  59  89 118 151 199 249 299 353
#     4  10  21  39  62  85 112 152 198 247 297 355
#     4  11  19  32  55  86 122 159 196 237 290 350
#
# _framework density 22.620925
#
# number of rings (size 3 to 8) (size 9 to 14) (size 15 to 20)
#    0.000    2.000    0.000    7.875    0.000    0.000 
#    0.000   11.875    0.000    4.500    0.000    0.000 
#    0.000    0.000    0.000    0.000    0.000    0.000 
#
# Total GULP energy -178325.710172 kJ/mol
# GULP energy per Si atom -5572.678443 kJ/mol
# Density = 2.256944 g / cm^3
# Si number density = 22.620925 Si / 1000 Ang^3
#
#
#
# Elastic Constant Matrix: (Units=GPa)
#
#
# Indices 1 2 3 4 5 6 
#
# 1 48.5274 6.4708 -0.6932 0.0000 10.7644 0.0000
# 2 6.4708 74.2537 37.3262 0.0000 -10.8035 0.0000
# 3 -0.6932 37.3262 58.3669 0.0000 -0.5120 0.0000
# 4 0.0000 0.0000 0.0000 30.6127 0.0000 11.2676
# 5 10.7644 -10.8035 -0.5120 0.0000 22.5539 0.0000
# 6 0.0000 0.0000 0.0000 11.2676 0.0000 22.8935
#
#
#
# Elastic Compliance Matrix: (Units=1/GPa)
#
#
# Indices 1 2 3 4 5 6 
#
# 1 0.024833 -0.006499 0.004321 0.000000 -0.014867 0.000000
# 2 -0.006499 0.023671 -0.015091 0.000000 0.014098 0.000000
# 3 0.004321 -0.015091 0.026759 0.000000 -0.008684 0.000000
# 4 0.000000 0.000000 0.000000 0.039893 0.000000 -0.019634
# 5 -0.014867 0.014098 -0.008684 0.000000 0.057990 0.000000
# 6 0.000000 0.000000 0.000000 -0.019634 0.000000 0.053344
#
#
# Mechanical properties :
#
#
# Convention : Reuss Voigt Hill
#
# Bulk Modulus (GPa) = 24.55560 29.70617 27.13089
# Shear Modulus (GPa) = 18.20800 24.41498 21.31149
#
# Velocity S-wave (km/s) = 2.84019 3.28885 3.07272
# Velocity P-wave (km/s) = 4.65128 5.25192 4.96070
#
# Compressibility (1/GPa) = 0.04072390
#
# Stress axis : x y z
#
# Youngs Moduli (GPa) = 40.26878 42.24558 37.37025
#
# Poissons Ratio (x) = 0.27456 -0.16147
# Poissons Ratio (y) = 0.26171 0.56397
# Poissons Ratio (z) = -0.17399 0.63755
#
# Static dielectric constant tensor:
#      x y z
#    x 1.931300 0.000000 -0.030970 
#    y 0.000000 2.060010 0.000000 
#    z -0.030970 0.000000 1.978410 
# 
# From -- ./inp_files/17035.got.cif
#   From: 2010.05.17/outbox.cif.g08.bks.cpg/sg14_9_cif.got.tgz:17035.got - 2010.06.03 17:49:19.
