data_PCOD9245618
_publ_section_title
;
Structure prediction by ZEFSAII (Michael W. Deem and Ramdas Pophale) SiO2 
 PCOD9245618
Probable space group: P 21/C
;
_chemical_formula_sum "Si O2"
_cell_formula_units_Z 30
_cell_length_a 12.970344
_cell_length_b 21.459123
_cell_length_c 8.742397
_cell_angle_alpha 90.000000
_cell_angle_beta 31.184985
_cell_angle_gamma 90.000000
_cell_volume 1259.964796
_symmetry_space_group_name_H-M "P 21/C"
_symmetry_group_IT_number 14
_symmetry_cell_setting 'monoclinic'
loop_
_space_group_symop_operation_xyz
x,y,z
-x,1/2+y,1/2-z
-x,-y,-z
x,1/2-y,1/2+z
loop_
_atom_site_type_symbol
_atom_site_label
_atom_site_fract_x
_atom_site_fract_y
_atom_site_fract_z
Si Si1 0.894752 0.176229 0.270752
Si Si2 0.805747 0.041842 0.516664
Si Si3 0.560032 0.788619 0.232460
Si Si4 0.487433 0.553990 0.352602
Si Si5 0.000000 0.000000 0.500000
Si Si6 0.498747 0.669310 0.140063
Si Si7 0.770897 0.623562 0.225853
Si Si8 0.038974 0.800170 0.152983
O O1 0.870701 0.106634 0.365693
O O2 0.975451 0.226452 0.290407
O O3 0.002482 0.182606 0.970376
O O4 0.669414 0.196226 0.515711
O O5 0.619898 0.008247 0.670807
O O6 0.980006 0.993692 0.329108
O O7 0.735859 0.042438 0.792191
O O8 0.573855 0.715190 0.179457
O O9 0.684190 0.827945 0.955547
O O10 0.600594 0.810607 0.352761
O O11 0.505604 0.597974 0.184449
O O12 0.590046 0.592529 0.360029
O O13 0.887114 0.931081 0.663118
O O14 0.266963 0.683121 0.403165
O O15 0.909876 0.660400 0.933285
#
# Coordination Sequence:
#
# PCOD9245618 Si02
#       8
#     4   4   4   4   2   4   4   4
#     4  10  22  42  64  97 125 175 205 271 312 392
#     4  10  21  42  67  92 128 176 216 261 321 386
#     4  10  21  38  65  92 129 161 222 255 326 377
#     4  10  21  39  69  89 127 171 220 260 317 381
#     4  10  24  40  66  94 128 168 214 260 324 376
#     4  10  21  40  61  95 124 171 207 273 311 391
#     4  11  22  43  61  98 125 170 212 266 318 392
#     4  10  24  39  65  94 135 161 215 261 337 368
#
# _framework density 23.810189000000001
#
# number of rings (size 3 to 8) (size 9 to 14) (size 15 to 20)
#    0.000    1.867    1.333    1.600    7.467    2.133 
#    4.800    2.667    0.000    0.000    0.000    0.000 
#    0.000    0.000    0.000    0.000    0.000    0.000 
#
# Total GULP energy -167472.111760 kJ/mol
# GULP energy per Si atom -5582.403725 kJ/mol
# Density = 2.375600 g / cm^3
# Si number density = 23.810189 Si / 1000 Ang^3
#
#
#
# Elastic Constant Matrix: (Units=GPa)
#
#
# Indices 1 2 3 4 5 6 
#
# 1 87.8845 29.0460 32.4870 0.0000 10.2624 0.0000
# 2 29.0460 132.3996 52.2576 0.0000 21.9330 0.0000
# 3 32.4870 52.2576 124.9033 0.0000 19.8247 0.0000
# 4 0.0000 0.0000 0.0000 35.2472 0.0000 10.7388
# 5 10.2624 21.9330 19.8247 0.0000 38.3244 0.0000
# 6 0.0000 0.0000 0.0000 10.7388 0.0000 15.3491
#
#
#
# Elastic Compliance Matrix: (Units=1/GPa)
#
#
# Indices 1 2 3 4 5 6 
#
# 1 0.012992 -0.001663 -0.002486 0.000000 -0.001241 0.000000
# 2 -0.001663 0.009714 -0.003072 0.000000 -0.003525 0.000000
# 3 -0.002486 -0.003072 0.010408 0.000000 -0.002960 0.000000
# 4 0.000000 0.000000 0.000000 0.036057 0.000000 -0.025227
# 5 -0.001241 -0.003525 -0.002960 0.000000 0.029974 0.000000
# 6 0.000000 0.000000 0.000000 -0.025227 0.000000 0.082800
#
#
# Mechanical properties :
#
#
# Convention : Reuss Voigt Hill
#
# Bulk Modulus (GPa) = 53.55953 63.64097 58.60025
# Shear Modulus (GPa) = 24.67761 33.21058 28.94410
#
# Velocity S-wave (km/s) = 3.22286 3.73876 3.49035
# Velocity P-wave (km/s) = 6.03260 6.73975 6.39596
#
# Compressibility (1/GPa) = 0.01867081
#
# Stress axis : x y z
#
# Youngs Moduli (GPa) = 76.96855 102.94089 96.07926
#
# Poissons Ratio (x) = 0.17122 0.23889
# Poissons Ratio (y) = 0.12802 0.29518
# Poissons Ratio (z) = 0.19137 0.31626
#
# Static dielectric constant tensor:
#      x y z
#    x 3.224090 0.000000 -0.989460 
#    y 0.000000 1.895720 0.000000 
#    z -0.989460 0.000000 2.644090 
# 
# From -- ./inp_files/16927.got.cif
#   From: 2010.05.17/outbox.cif.g08.bks.cpg/sg14_9_cif.got.tgz:16927.got - 2010.06.03 17:49:19.
