data_PCOD9245085
_publ_section_title
;
Structure prediction by ZEFSAII (Michael W. Deem and Ramdas Pophale) SiO2 
 PCOD9245085
Probable space group: P 21/C
;
_chemical_formula_sum "Si O2"
_cell_formula_units_Z 28
_cell_length_a 8.915532
_cell_length_b 24.184470
_cell_length_c 12.893422
_cell_angle_alpha 90.000000
_cell_angle_beta 153.259976
_cell_angle_gamma 90.000000
_cell_volume 1250.862261
_symmetry_space_group_name_H-M "P 21/C"
_symmetry_group_IT_number 14
_symmetry_cell_setting 'monoclinic'
loop_
_space_group_symop_operation_xyz
x,y,z
-x,1/2+y,1/2-z
-x,-y,-z
x,1/2-y,1/2+z
loop_
_atom_site_type_symbol
_atom_site_label
_atom_site_fract_x
_atom_site_fract_y
_atom_site_fract_z
Si Si1 0.652969 0.262040 0.547859
Si Si2 0.501233 0.310752 0.765254
Si Si3 0.801927 0.576913 0.381136
Si Si4 0.206218 0.150650 0.657932
Si Si5 0.668340 0.705243 0.962824
Si Si6 0.897526 0.500757 0.261875
Si Si7 0.029829 0.536376 0.915714
O O1 0.672074 0.217493 0.468954
O O2 0.979789 0.298930 0.762916
O O3 0.367859 0.304935 0.335953
O O4 0.585803 0.223656 0.605892
O O5 0.243870 0.357940 0.638019
O O6 0.317734 0.261344 0.595473
O O7 0.815315 0.334499 0.895409
O O8 0.965601 0.554259 0.376082
O O9 0.989453 0.550061 0.594905
O O10 0.418118 0.554960 0.146562
O O11 0.383285 0.157587 0.654613
O O12 0.192226 0.090794 0.701513
O O13 0.052488 0.494410 0.243281
O O14 0.500000 0.500000 0.000000
O O15 0.000000 0.500000 0.000000
#
# Coordination Sequence:
#
# PCOD9245085 Si02
#       7
#     4   4   4   4   4   4   4
#     4  11  22  38  60  87 119 157 195 248 298 357
#     4  10  21  36  60  87 113 154 205 243 297 362
#     4   9  20  38  61  86 113 157 206 248 296 354
#     4  10  22  38  58  88 118 156 203 241 299 366
#     4  11  22  37  59  86 123 155 195 245 301 358
#     4   9  19  37  59  82 115 152 199 248 289 349
#     4  10  22  38  60  88 120 158 198 248 305 357
#
# _framework density 22.384557999999998
#
# number of rings (size 3 to 8) (size 9 to 14) (size 15 to 20)
#    0.000    2.000    2.857    0.000    2.000    2.857 
#    0.000    7.143    0.000    0.000    0.000    0.000 
#    0.000    0.000    0.000    0.000    0.000    0.000 
#
# Total GULP energy -156231.787843 kJ/mol
# GULP energy per Si atom -5579.706709 kJ/mol
# Density = 2.233361 g / cm^3
# Si number density = 22.384558 Si / 1000 Ang^3
#
#
#
# Elastic Constant Matrix: (Units=GPa)
#
#
# Indices 1 2 3 4 5 6 
#
# 1 73.4352 -0.5833 5.8342 0.0000 -23.9355 0.0000
# 2 -0.5833 29.0882 -18.0915 0.0000 -10.7369 0.0000
# 3 5.8342 -18.0915 59.1863 0.0000 -8.5611 0.0000
# 4 0.0000 0.0000 0.0000 12.7453 0.0000 -1.3847
# 5 -23.9355 -10.7369 -8.5611 0.0000 34.4783 0.0000
# 6 0.0000 0.0000 0.0000 -1.3847 0.0000 16.0055
#
#
#
# Elastic Compliance Matrix: (Units=1/GPa)
#
#
# Indices 1 2 3 4 5 6 
#
# 1 0.018785 0.008340 0.003070 0.000000 0.016400 0.000000
# 2 0.008340 0.058667 0.021358 0.000000 0.029362 0.000000
# 3 0.003070 0.021358 0.025301 0.000000 0.015064 0.000000
# 4 0.000000 0.000000 0.000000 0.079205 0.000000 0.006852
# 5 0.016400 0.029362 0.015064 0.000000 0.053273 0.000000
# 6 0.000000 0.000000 0.000000 0.006852 0.000000 0.063071
#
#
# Mechanical properties :
#
#
# Convention : Reuss Voigt Hill
#
# Bulk Modulus (GPa) = 5.94221 15.11428 10.52825
# Shear Modulus (GPa) = 17.30917 24.28251 20.79584
#
# Velocity S-wave (km/s) = 2.78378 3.29719 3.05130
# Velocity P-wave (km/s) = 3.60457 4.61107 4.13853
#
# Compressibility (1/GPa) = 0.16828749
#
# Stress axis : x y z
#
# Youngs Moduli (GPa) = 53.23301 17.04530 39.52455
#
# Poissons Ratio (x) = -0.14215 -0.12133
# Poissons Ratio (y) = -0.44394 -0.84416
# Poissons Ratio (z) = -0.16341 -0.36405
#
# Static dielectric constant tensor:
#      x y z
#    x 1.876060 0.000000 -0.003660 
#    y 0.000000 1.808740 0.000000 
#    z -0.003660 0.000000 1.892990 
# 
# From -- ./inp_files/6521.got.cif
#   From: 2010.05.17/outbox.cif.g08.bks.cpg/sg14_4_cif.got.tgz:6521.got - 2010.06.03 17:49:19.
