data_PCOD9245863
_publ_section_title
;
Structure prediction by ZEFSAII (Michael W. Deem and Ramdas Pophale) SiO2 
 PCOD9245863
Probable space group: P 21/C
;
_chemical_formula_sum "Si O2"
_cell_formula_units_Z 18
_cell_length_a 4.921174
_cell_length_b 12.868437
_cell_length_c 11.215393
_cell_angle_alpha 90.000000
_cell_angle_beta 90.324604
_cell_angle_gamma 90.000000
_cell_volume 710.234964
_symmetry_space_group_name_H-M "P 21/C"
_symmetry_group_IT_number 14
_symmetry_cell_setting 'monoclinic'
loop_
_space_group_symop_operation_xyz
x,y,z
-x,1/2+y,1/2-z
-x,-y,-z
x,1/2-y,1/2+z
loop_
_atom_site_type_symbol
_atom_site_label
_atom_site_fract_x
_atom_site_fract_y
_atom_site_fract_z
Si Si1 0.145120 0.039636 0.713151
Si Si2 0.000000 0.000000 0.500000
Si Si3 0.222423 0.436076 0.625260
Si Si4 0.463813 0.350615 0.398398
Si Si5 0.526113 0.622160 0.123742
O O1 0.304159 0.131248 0.773783
O O2 0.283146 0.964128 0.610220
O O3 0.900423 0.068009 0.626479
O O4 0.069944 0.961792 0.820007
O O5 0.787847 0.901720 0.545609
O O6 0.263558 0.367674 0.509719
O O7 0.330918 0.552581 0.597466
O O8 0.384994 0.391002 0.738410
O O9 0.583337 0.236461 0.400517
#
# Coordination Sequence:
#
# PCOD9245863 Si02
#       5
#     4   2   4   4   4
#     4  10  21  41  60  89 125 158 204 255 296 373
#     4  10  22  40  60  88 126 160 198 248 302 368
#     4   9  21  40  59  92 121 157 212 251 301 369
#     4  10  21  39  64  88 122 163 202 255 307 361
#     4  10  22  39  61  91 124 161 203 252 312 360
#
# _framework density 25.343727000000001
#
# number of rings (size 3 to 8) (size 9 to 14) (size 15 to 20)
#    0.000    2.222    0.000    1.333    3.111    3.556 
#    8.000    0.000    0.000    0.000    0.000    0.000 
#    0.000    0.000    0.000    0.000    0.000    0.000 
#
# Total GULP energy -100203.134402 kJ/mol
# GULP energy per Si atom -5566.840800 kJ/mol
# Density = 2.528604 g / cm^3
# Si number density = 25.343727 Si / 1000 Ang^3
#
#
#
# Elastic Constant Matrix: (Units=GPa)
#
#
# Indices 1 2 3 4 5 6 
#
# 1 51.5721 15.4401 16.7885 0.0000 -5.0837 0.0000
# 2 15.4401 130.4002 47.9963 0.0000 -3.4851 0.0000
# 3 16.7885 47.9963 154.8087 0.0000 2.6998 0.0000
# 4 0.0000 0.0000 0.0000 16.8631 0.0000 -2.9256
# 5 -5.0837 -3.4851 2.6998 0.0000 47.0074 0.0000
# 6 0.0000 0.0000 0.0000 -2.9256 0.0000 22.8007
#
#
#
# Elastic Compliance Matrix: (Units=1/GPa)
#
#
# Indices 1 2 3 4 5 6 
#
# 1 0.020699 -0.001751 -0.001740 0.000000 0.002209 0.000000
# 2 -0.001751 0.008835 -0.002560 0.000000 0.000613 0.000000
# 3 -0.001740 -0.002560 0.007456 0.000000 -0.000806 0.000000
# 4 0.000000 0.000000 0.000000 0.060651 0.000000 0.007782
# 5 0.002209 0.000613 -0.000806 0.000000 0.021604 0.000000
# 6 0.000000 0.000000 0.000000 0.007782 0.000000 0.044857
#
#
# Mechanical properties :
#
#
# Convention : Reuss Voigt Hill
#
# Bulk Modulus (GPa) = 40.18204 55.24786 47.71495
# Shear Modulus (GPa) = 27.10028 34.43797 30.76912
#
# Velocity S-wave (km/s) = 3.27358 3.69024 3.48813
# Velocity P-wave (km/s) = 5.49342 6.32486 5.92375
#
# Compressibility (1/GPa) = 0.02488674
#
# Stress axis : x y z
#
# Youngs Moduli (GPa) = 48.31179 113.19100 134.11999
#
# Poissons Ratio (x) = 0.19823 0.23341
# Poissons Ratio (y) = 0.08461 0.34332
# Poissons Ratio (z) = 0.08408 0.28975
#
# Static dielectric constant tensor:
#      x y z
#    x 2.307970 0.000000 0.055190 
#    y 0.000000 1.985160 0.000000 
#    z 0.055190 0.000000 2.123190 
# 
# From -- ./inp_files/20284.got.cif
#   From: 2010.05.17/outbox.cif.g08.bks.cpg/sg14_11_cif.got.tgz:20284.got - 2010.06.03 17:49:19.
