data_PCOD9245507
_publ_section_title
;
Structure prediction by ZEFSAII (Michael W. Deem and Ramdas Pophale) SiO2 
 PCOD9245507
Probable space group: P 21/C
;
_chemical_formula_sum "Si O2"
_cell_formula_units_Z 32
_cell_length_a 8.396092
_cell_length_b 16.730197
_cell_length_c 11.569918
_cell_angle_alpha 90.000000
_cell_angle_beta 97.151886
_cell_angle_gamma 90.000000
_cell_volume 1612.561646
_symmetry_space_group_name_H-M "P 21/C"
_symmetry_group_IT_number 14
_symmetry_cell_setting 'monoclinic'
loop_
_space_group_symop_operation_xyz
x,y,z
-x,1/2+y,1/2-z
-x,-y,-z
x,1/2-y,1/2+z
loop_
_atom_site_type_symbol
_atom_site_label
_atom_site_fract_x
_atom_site_fract_y
_atom_site_fract_z
Si Si1 0.671196 0.862812 0.660892
Si Si2 0.844816 0.468407 0.548385
Si Si3 0.418444 0.312623 0.269470
Si Si4 0.184654 0.008908 0.480487
Si Si5 0.606055 0.142628 0.551156
Si Si6 0.345752 0.818705 0.000394
Si Si7 0.715110 0.973165 0.251422
Si Si8 0.581106 0.935067 0.883073
O O1 0.662540 0.770468 0.699381
O O2 0.794877 0.909117 0.589558
O O3 0.506844 0.873839 0.571007
O O4 0.683529 0.905413 0.785078
O O5 0.805910 0.376494 0.520092
O O6 0.847698 0.483030 0.685911
O O7 0.692060 0.517910 0.482927
O O8 0.000000 0.500000 0.500000
O O9 0.490115 0.334030 0.148983
O O10 0.571258 0.320579 0.367471
O O11 0.286374 0.380239 0.278259
O O12 0.272016 0.015156 0.612029
O O13 0.273277 0.933034 0.425508
O O14 0.000000 0.000000 0.500000
O O15 0.691677 0.227700 0.535472
O O16 0.480113 0.861566 0.929647
O O17 0.547861 0.007587 0.189237
#
# Coordination Sequence:
#
# PCOD9245507 Si02
#       8
#     4   4   4   4   4   4   4   4
#     4  11  23  38  68  94 122 165 229 271 319 385
#     4  11  24  38  62  96 134 173 207 257 333 401
#     4  11  20  38  69  93 118 158 225 282 310 363
#     4  12  27  43  64  97 139 180 211 266 343 406
#     4  11  22  41  66  94 124 170 225 277 321 380
#     4  10  21  38  61  95 122 163 219 273 319 377
#     4  11  21  42  64  90 126 167 219 263 319 380
#     4  11  19  40  64  93 122 162 216 270 315 377
#
# _framework density 19.844201999999999
#
# number of rings (size 3 to 8) (size 9 to 14) (size 15 to 20)
#    0.000    1.000    6.250    1.875    1.750    0.000 
#    2.250    0.000    0.000    0.000    0.000    0.000 
#    0.000    0.000    0.000    0.000    0.000    0.000 
#
# Total GULP energy -178331.530614 kJ/mol
# GULP energy per Si atom -5572.860332 kJ/mol
# Density = 1.979904 g / cm^3
# Si number density = 19.844202 Si / 1000 Ang^3
#
#
#
# Elastic Constant Matrix: (Units=GPa)
#
#
# Indices 1 2 3 4 5 6 
#
# 1 52.0821 35.9739 -6.8647 0.0000 -9.2253 0.0000
# 2 35.9739 122.7353 31.9061 0.0000 -10.6847 0.0000
# 3 -6.8647 31.9061 89.1627 0.0000 -2.0606 0.0000
# 4 0.0000 0.0000 0.0000 28.7159 0.0000 -4.2208
# 5 -9.2253 -10.6847 -2.0606 0.0000 14.6663 0.0000
# 6 0.0000 0.0000 0.0000 -4.2208 0.0000 21.1097
#
#
#
# Elastic Compliance Matrix: (Units=1/GPa)
#
#
# Indices 1 2 3 4 5 6 
#
# 1 0.028005 -0.008584 0.005508 0.000000 0.012136 0.000000
# 2 -0.008584 0.012196 -0.004961 0.000000 0.002789 0.000000
# 3 0.005508 -0.004961 0.013455 0.000000 0.001741 0.000000
# 4 0.000000 0.000000 0.000000 0.035878 0.000000 0.007174
# 5 0.012136 0.002789 0.001741 0.000000 0.078094 0.000000
# 6 0.000000 0.000000 0.000000 0.007174 0.000000 0.048806
#
#
# Mechanical properties :
#
#
# Convention : Reuss Voigt Hill
#
# Bulk Modulus (GPa) = 26.60739 42.89009 34.74874
# Shear Modulus (GPa) = 20.40536 26.42936 23.41736
#
# Velocity S-wave (km/s) = 3.21016 3.65340 3.43893
# Velocity P-wave (km/s) = 5.21319 6.28146 5.77210
#
# Compressibility (1/GPa) = 0.03758354
#
# Stress axis : x y z
#
# Youngs Moduli (GPa) = 35.70788 81.99527 74.32246
#
# Poissons Ratio (x) = 0.70382 -0.40938
# Poissons Ratio (y) = 0.30651 0.36868
# Poissons Ratio (z) = -0.19669 0.40674
#
# Static dielectric constant tensor:
#      x y z
#    x 1.706740 0.000000 -0.028750 
#    y 0.000000 1.779920 0.000000 
#    z -0.028750 0.000000 1.720980 
# 
# From -- ./inp_files/25248.got.cif
#   From: 2010.05.17/outbox.cif.g08.bks.cpg/sg14_13_cif.got.tgz:25248.got - 2010.06.03 17:49:19.
