data_PCOD9245346
_publ_section_title
;
Structure prediction by ZEFSAII (Michael W. Deem and Ramdas Pophale) SiO2 
 PCOD9245346
Probable space group: P 21/C
;
_chemical_formula_sum "Si O2"
_cell_formula_units_Z 32
_cell_length_a 8.231923
_cell_length_b 21.850444
_cell_length_c 12.788493
_cell_angle_alpha 90.000000
_cell_angle_beta 41.510531
_cell_angle_gamma 90.000000
_cell_volume 1524.529088
_symmetry_space_group_name_H-M "P 21/C"
_symmetry_group_IT_number 14
_symmetry_cell_setting 'monoclinic'
loop_
_space_group_symop_operation_xyz
x,y,z
-x,1/2+y,1/2-z
-x,-y,-z
x,1/2-y,1/2+z
loop_
_atom_site_type_symbol
_atom_site_label
_atom_site_fract_x
_atom_site_fract_y
_atom_site_fract_z
Si Si1 0.572547 0.858170 0.970385
Si Si2 0.137223 0.848130 0.634916
Si Si3 0.448498 0.849584 0.793929
Si Si4 0.013846 0.846255 0.463915
Si Si5 0.839519 0.010959 0.359350
Si Si6 0.680980 0.458705 0.275863
Si Si7 0.298741 0.752747 0.215514
Si Si8 0.415625 0.526245 0.214710
O O1 0.436089 0.851363 0.924729
O O2 0.487245 0.921763 0.062271
O O3 0.859429 0.853523 0.810460
O O4 0.493196 0.803433 0.085594
O O5 0.132302 0.827921 0.517245
O O6 0.233608 0.917618 0.593156
O O7 0.270897 0.797966 0.639756
O O8 0.363286 0.786008 0.786735
O O9 0.323491 0.907660 0.798288
O O10 0.732187 0.857479 0.624338
O O11 0.059087 0.793317 0.357289
O O12 0.152208 0.907216 0.360960
O O13 0.789776 0.996065 0.261411
O O14 0.115946 0.001177 0.265973
O O15 0.653032 0.973220 0.522795
O O16 0.514617 0.492056 0.269978
#
# Coordination Sequence:
#
# PCOD9245346 Si02
#       8
#     4   4   4   4   4   4   4   4
#     4  10  25  40  62  93 125 162 211 248 327 369
#     4  11  21  40  61  90 121 163 204 262 306 371
#     4  11  21  40  61  90 121 163 204 262 306 371
#     4  10  21  37  65  82 118 165 203 240 321 369
#     4  11  22  38  65  98 124 163 214 252 310 380
#     4  11  21  42  63  92 127 164 195 263 305 372
#     4  11  22  40  61  90 123 158 209 263 309 372
#     4  11  22  38  65  98 124 163 214 252 310 380
#
# _framework density 20.990089999999999
#
# number of rings (size 3 to 8) (size 9 to 14) (size 15 to 20)
#    0.000    1.250    3.750    3.375    0.000    2.000 
#    2.250    1.250    5.500    0.000    0.000    0.000 
#    0.000    0.000    0.000    0.000    0.000    0.000 
#
# Total GULP energy -178772.544824 kJ/mol
# GULP energy per Si atom -5586.642026 kJ/mol
# Density = 2.094232 g / cm^3
# Si number density = 20.990090 Si / 1000 Ang^3
#
#
#
# Elastic Constant Matrix: (Units=GPa)
#
#
# Indices 1 2 3 4 5 6 
#
# 1 76.9696 21.1938 9.2248 0.0000 29.2672 0.0000
# 2 21.1938 99.1485 23.7071 0.0000 15.1899 0.0000
# 3 9.2248 23.7071 49.6848 0.0000 11.5899 0.0000
# 4 0.0000 0.0000 0.0000 33.7093 0.0000 9.6997
# 5 29.2672 15.1899 11.5899 0.0000 23.9260 0.0000
# 6 0.0000 0.0000 0.0000 9.6997 0.0000 31.4988
#
#
#
# Elastic Compliance Matrix: (Units=1/GPa)
#
#
# Indices 1 2 3 4 5 6 
#
# 1 0.024768 -0.001321 0.003273 0.000000 -0.031044 0.000000
# 2 -0.001321 0.012055 -0.004621 0.000000 -0.003799 0.000000
# 3 0.003273 -0.004621 0.024773 0.000000 -0.013071 0.000000
# 4 0.000000 0.000000 0.000000 0.032550 0.000000 -0.010023
# 5 -0.031044 -0.003799 -0.013071 0.000000 0.088514 0.000000
# 6 0.000000 0.000000 0.000000 -0.010023 0.000000 0.034834
#
#
# Mechanical properties :
#
#
# Convention : Reuss Voigt Hill
#
# Bulk Modulus (GPa) = 17.77479 37.11715 27.44597
# Shear Modulus (GPa) = 20.69688 29.27195 24.98441
#
# Velocity S-wave (km/s) = 3.14352 3.73843 3.45381
# Velocity P-wave (km/s) = 4.65427 6.02960 5.38601
#
# Compressibility (1/GPa) = 0.05625946
#
# Stress axis : x y z
#
# Youngs Moduli (GPa) = 40.37485 82.95216 40.36682
#
# Poissons Ratio (x) = 0.10958 -0.13213
# Poissons Ratio (y) = 0.05333 0.18652
# Poissons Ratio (z) = -0.13216 0.38329
#
# Static dielectric constant tensor:
#      x y z
#    x 1.784050 0.000000 0.021810 
#    y 0.000000 1.749580 0.000000 
#    z 0.021810 0.000000 1.729520 
# 
# From -- ./inp_files/26644.got.cif
#   From: 2010.05.17/outbox.cif.g08.bks.cpg/sg14_14_cif.got.tgz:26644.got - 2010.06.03 17:49:19.
