data_PCOD9245675
_publ_section_title
;
Structure prediction by ZEFSAII (Michael W. Deem and Ramdas Pophale) SiO2 
 PCOD9245675
Probable space group: P 21/C
;
_chemical_formula_sum "Si O2"
_cell_formula_units_Z 28
_cell_length_a 14.134576
_cell_length_b 6.058845
_cell_length_c 17.290214
_cell_angle_alpha 90.000000
_cell_angle_beta 52.862933
_cell_angle_gamma 90.000000
_cell_volume 1180.420538
_symmetry_space_group_name_H-M "P 21/C"
_symmetry_group_IT_number 14
_symmetry_cell_setting 'monoclinic'
loop_
_space_group_symop_operation_xyz
x,y,z
-x,1/2+y,1/2-z
-x,-y,-z
x,1/2-y,1/2+z
loop_
_atom_site_type_symbol
_atom_site_label
_atom_site_fract_x
_atom_site_fract_y
_atom_site_fract_z
Si Si1 0.692366 0.297507 0.376673
Si Si2 0.014342 0.220327 0.846186
Si Si3 0.747001 0.849574 0.715538
Si Si4 0.857930 0.928244 0.367829
Si Si5 0.770471 0.972464 0.984881
Si Si6 0.549107 0.470465 0.835938
Si Si7 0.350776 0.696967 0.850452
O O1 0.739744 0.471029 0.289279
O O2 0.686419 0.431259 0.458583
O O3 0.787598 0.109516 0.352198
O O4 0.579052 0.172073 0.397170
O O5 0.126138 0.228637 0.847218
O O6 0.068761 0.202145 0.733133
O O7 0.947141 0.451775 0.881268
O O8 0.909099 0.045004 0.908711
O O9 0.721793 0.000220 0.653674
O O10 0.648604 0.662053 0.778867
O O11 0.772998 0.782264 0.462410
O O12 0.724395 0.093569 0.083568
O O13 0.426790 0.594566 0.882424
O O14 0.563263 0.296887 0.758103
#
# Coordination Sequence:
#
# PCOD9245675 Si02
#       7
#     4   4   4   4   4   4   4
#     4  10  21  38  68  98 123 166 210 259 318 371
#     4  11  20  35  66  91 133 171 203 253 319 380
#     4  11  22  42  67  94 125 173 219 250 319 390
#     4  11  19  37  63  95 128 168 201 257 320 377
#     4  11  24  39  62 103 133 160 215 267 306 379
#     4  11  22  44  70  87 124 178 212 265 320 376
#     4  11  26  43  65  93 126 171 220 264 317 371
#
# _framework density 23.720362000000002
#
# number of rings (size 3 to 8) (size 9 to 14) (size 15 to 20)
#    0.000    1.143    5.714    0.857    0.000    3.429 
#    0.000    4.286    0.000    0.000    0.000    0.000 
#    0.000    0.000    0.000    0.000    0.000    0.000 
#
# Total GULP energy -156505.512666 kJ/mol
# GULP energy per Si atom -5589.482595 kJ/mol
# Density = 2.366637 g / cm^3
# Si number density = 23.720362 Si / 1000 Ang^3
#
#
#
# Elastic Constant Matrix: (Units=GPa)
#
#
# Indices 1 2 3 4 5 6 
#
# 1 117.0246 32.7891 8.6138 0.0000 0.5408 0.0000
# 2 32.7891 85.8110 10.8032 0.0000 -1.2628 0.0000
# 3 8.6138 10.8032 31.4819 0.0000 0.0090 0.0000
# 4 0.0000 0.0000 0.0000 37.8200 0.0000 3.3839
# 5 0.5408 -1.2628 0.0090 0.0000 15.1948 0.0000
# 6 0.0000 0.0000 0.0000 3.3839 0.0000 39.2544
#
#
#
# Elastic Compliance Matrix: (Units=1/GPa)
#
#
# Indices 1 2 3 4 5 6 
#
# 1 0.009637 -0.003512 -0.001432 0.000000 -0.000634 0.000000
# 2 -0.003512 0.013475 -0.003664 0.000000 0.001247 0.000000
# 3 -0.001432 -0.003664 0.033413 0.000000 -0.000273 0.000000
# 4 0.000000 0.000000 0.000000 0.026647 0.000000 -0.002297
# 5 -0.000634 0.001247 -0.000273 0.000000 0.065938 0.000000
# 6 0.000000 0.000000 0.000000 -0.002297 0.000000 0.025673
#
#
# Mechanical properties :
#
#
# Convention : Reuss Voigt Hill
#
# Bulk Modulus (GPa) = 25.43758 37.63663 31.53710
# Shear Modulus (GPa) = 24.37822 30.59461 27.48642
#
# Velocity S-wave (km/s) = 3.20931 3.59528 3.40776
# Velocity P-wave (km/s) = 4.94774 5.75638 5.36731
#
# Compressibility (1/GPa) = 0.03931192
#
# Stress axis : x y z
#
# Youngs Moduli (GPa) = 103.76192 74.21196 29.92825
#
# Poissons Ratio (x) = 0.26061 0.04285
# Poissons Ratio (y) = 0.36437 0.10964
# Poissons Ratio (z) = 0.14855 0.27188
#
# Static dielectric constant tensor:
#      x y z
#    x 1.885010 0.000000 0.011660 
#    y 0.000000 1.944750 0.000000 
#    z 0.011660 0.000000 1.902880 
# 
# From -- ./inp_files/58401.got.cif
#   From: 2010.05.17/outbox.cif.g08.bks.cpg/sg14_30_cif.got.tgz:58401.got - 2010.06.03 17:49:19.
