data_PCOD9245931
_publ_section_title
;
Structure prediction by ZEFSAII (Michael W. Deem and Ramdas Pophale) SiO2 
 PCOD9245931
Probable space group: P 21/C
;
_chemical_formula_sum "Si O2"
_cell_formula_units_Z 30
_cell_length_a 13.565447
_cell_length_b 11.619529
_cell_length_c 9.470060
_cell_angle_alpha 90.000000
_cell_angle_beta 126.300532
_cell_angle_gamma 90.000000
_cell_volume 1203.008783
_symmetry_space_group_name_H-M "P 21/C"
_symmetry_group_IT_number 14
_symmetry_cell_setting 'monoclinic'
loop_
_space_group_symop_operation_xyz
x,y,z
-x,1/2+y,1/2-z
-x,-y,-z
x,1/2-y,1/2+z
loop_
_atom_site_type_symbol
_atom_site_label
_atom_site_fract_x
_atom_site_fract_y
_atom_site_fract_z
Si Si1 0.934404 0.256811 0.869192
Si Si2 0.629569 0.712014 0.590010
Si Si3 0.241167 0.048477 0.239794
Si Si4 0.085467 0.531792 0.840413
Si Si5 0.500000 0.000000 0.500000
Si Si6 0.200842 0.857959 0.991800
Si Si7 0.860878 0.581626 0.851989
Si Si8 0.481408 0.659879 0.731313
O O1 0.925988 0.143367 0.766725
O O2 0.850738 0.343115 0.708210
O O3 0.878345 0.221573 0.970913
O O4 0.067611 0.312261 0.006971
O O5 0.682935 0.832541 0.701103
O O6 0.743439 0.628504 0.672572
O O7 0.536692 0.659730 0.623522
O O8 0.558861 0.749567 0.390442
O O9 0.350966 0.966245 0.389772
O O10 0.130990 0.058890 0.259175
O O11 0.196595 0.984735 0.060891
O O12 0.962624 0.539159 0.828863
O O13 0.174304 0.503583 0.048845
O O14 0.504404 0.042831 0.667912
O O15 0.338952 0.814092 0.106100
#
# Coordination Sequence:
#
# PCOD9245931 Si02
#       8
#     4   4   4   4   2   4   4   4
#     4  11  22  40  64  93 121 174 215 265 324 398
#     4  11  23  40  67  96 131 171 220 270 332 394
#     4   9  20  38  63  94 124 171 215 270 328 392
#     4  10  23  41  61  91 131 175 211 271 339 384
#     4   8  16  36  66  88 122 168 202 260 336 382
#     4  10  21  40  65  90 130 163 219 265 328 391
#     4  11  24  40  63  94 131 171 218 271 331 395
#     4  10  21  39  65  95 126 170 214 269 328 388
#
# _framework density 24.937473000000001
#
# number of rings (size 3 to 8) (size 9 to 14) (size 15 to 20)
#    0.000    1.867    1.333    2.400    3.733    2.133 
#    2.400    2.667    0.000    5.600    0.000    0.000 
#    0.000    0.000    0.000    0.000    0.000    0.000 
#
# Total GULP energy -167033.926387 kJ/mol
# GULP energy per Si atom -5567.797546 kJ/mol
# Density = 2.488071 g / cm^3
# Si number density = 24.937473 Si / 1000 Ang^3
#
#
#
# Elastic Constant Matrix: (Units=GPa)
#
#
# Indices 1 2 3 4 5 6 
#
# 1 104.7771 5.1286 22.6578 0.0000 -12.0163 0.0000
# 2 5.1286 34.6188 -0.7267 0.0000 -1.5953 0.0000
# 3 22.6578 -0.7267 93.6151 0.0000 7.1667 0.0000
# 4 0.0000 0.0000 0.0000 33.5644 0.0000 -9.1567
# 5 -12.0163 -1.5953 7.1667 0.0000 30.5599 0.0000
# 6 0.0000 0.0000 0.0000 -9.1567 0.0000 22.1339
#
#
#
# Elastic Compliance Matrix: (Units=1/GPa)
#
#
# Indices 1 2 3 4 5 6 
#
# 1 0.010825 -0.001442 -0.003005 0.000000 0.004886 0.000000
# 2 -0.001442 0.029149 0.000511 0.000000 0.000835 0.000000
# 3 -0.003005 0.000511 0.011712 0.000000 -0.003902 0.000000
# 4 0.000000 0.000000 0.000000 0.033584 0.000000 0.013894
# 5 0.004886 0.000835 -0.003902 0.000000 0.035602 0.000000
# 6 0.000000 0.000000 0.000000 0.013894 0.000000 0.050927
#
#
# Mechanical properties :
#
#
# Convention : Reuss Voigt Hill
#
# Bulk Modulus (GPa) = 22.82340 31.90338 27.36339
# Shear Modulus (GPa) = 25.73671 30.98173 28.35922
#
# Velocity S-wave (km/s) = 3.21604 3.52856 3.37592
# Velocity P-wave (km/s) = 4.79194 5.42421 5.11785
#
# Compressibility (1/GPa) = 0.04381468
#
# Stress axis : x y z
#
# Youngs Moduli (GPa) = 92.38022 34.30672 85.38219
#
# Poissons Ratio (x) = 0.04946 0.25659
# Poissons Ratio (y) = 0.13317 -0.04365
# Poissons Ratio (z) = 0.27762 -0.01754
#
# Static dielectric constant tensor:
#      x y z
#    x 1.960810 0.000000 0.069370 
#    y 0.000000 2.210160 0.000000 
#    z 0.069370 0.000000 1.996970 
# 
# From -- ./inp_files/13176.got.cif
#   From: 2010.05.17/outbox.cif.g08.bks.cpg/sg14_7_cif.got.tgz:13176.got - 2010.06.03 17:49:19.
