data_PCOD9245480
_publ_section_title
;
Structure prediction by ZEFSAII (Michael W. Deem and Ramdas Pophale) SiO2 
 PCOD9245480
Probable space group: P 21/C
;
_chemical_formula_sum "Si O2"
_cell_formula_units_Z 28
_cell_length_a 5.262565
_cell_length_b 30.770612
_cell_length_c 9.762198
_cell_angle_alpha 90.000000
_cell_angle_beta 65.304728
_cell_angle_gamma 90.000000
_cell_volume 1436.238424
_symmetry_space_group_name_H-M "P 21/C"
_symmetry_group_IT_number 14
_symmetry_cell_setting 'monoclinic'
loop_
_space_group_symop_operation_xyz
x,y,z
-x,1/2+y,1/2-z
-x,-y,-z
x,1/2-y,1/2+z
loop_
_atom_site_type_symbol
_atom_site_label
_atom_site_fract_x
_atom_site_fract_y
_atom_site_fract_z
Si Si1 0.070282 0.879276 0.648434
Si Si2 0.274449 0.961295 0.030989
Si Si3 0.076477 0.722387 0.149146
Si Si4 0.576477 0.222387 0.149146
Si Si5 0.774449 0.461295 0.030989
Si Si6 0.570282 0.120724 0.148434
Si Si7 0.750000 0.998178 0.250000
O O1 0.076830 0.828583 0.607668
O O2 0.148725 0.911181 0.505360
O O3 0.250000 0.883206 0.750000
O O4 0.750000 0.891857 0.750000
O O5 0.351275 0.911181 0.994640
O O6 0.188300 0.971945 0.893240
O O7 0.023547 0.968458 0.193152
O O8 0.500000 0.000000 0.000000
O O9 0.250000 0.725892 0.250000
O O10 0.750000 0.734856 0.250000
O O11 0.250000 0.750000 1.000000
O O12 0.576830 0.171417 0.107668
O O13 0.688300 0.471945 0.893240
O O14 0.523547 0.468458 0.193152
O O15 0.000000 0.500000 0.000000
#
# Coordination Sequence:
#
# PCOD9245480 Si02
#       7
#     4   4   4   4   4   4   4
#     4  10  21  38  61  86 117 161 202 239 298 371
#     4  11  21  37  55  81 114 156 197 245 293 345
#     4  10  21  40  65  93 123 161 204 252 313 370
#     4  10  21  40  65  93 123 161 204 252 313 370
#     4  11  21  37  55  81 114 156 197 245 293 345
#     4  10  21  38  61  86 117 161 202 239 298 371
#     4  10  22  34  54  78 112 146 200 240 294 340
#
# _framework density 19.495370999999999
#
# number of rings (size 3 to 8) (size 9 to 14) (size 15 to 20)
#    0.000    1.714    1.429    3.429    4.000    0.000 
#    2.571    2.857    0.000    0.000    0.000    0.000 
#    0.000    0.000    0.000    0.000    0.000    0.000 
#
# Total GULP energy -155885.973060 kJ/mol
# GULP energy per Si atom -5567.356181 kJ/mol
# Density = 1.945100 g / cm^3
# Si number density = 19.495371 Si / 1000 Ang^3
#
#
#
# Elastic Constant Matrix: (Units=GPa)
#
#
# Indices 1 2 3 4 5 6 
#
# 1 112.9537 20.6973 23.1997 0.0000 -29.9580 0.0000
# 2 20.6973 88.1205 49.9024 0.0000 -22.7861 0.0000
# 3 23.1997 49.9024 79.2039 0.0000 -33.3498 0.0000
# 4 0.0000 0.0000 0.0000 33.7659 0.0000 -2.6894
# 5 -29.9580 -22.7861 -33.3498 0.0000 38.9922 0.0000
# 6 0.0000 0.0000 0.0000 -2.6894 0.0000 5.2592
#
#
#
# Elastic Compliance Matrix: (Units=1/GPa)
#
#
# Indices 1 2 3 4 5 6 
#
# 1 0.011181 -0.000918 0.001086 0.000000 0.008982 0.000000
# 2 -0.000918 0.017758 -0.010701 0.000000 0.000520 0.000000
# 3 0.001086 -0.010701 0.026205 0.000000 0.016994 0.000000
# 4 0.000000 0.000000 0.000000 0.030873 0.000000 0.015787
# 5 0.008982 0.000520 0.016994 0.000000 0.047386 0.000000
# 6 0.000000 0.000000 0.000000 0.015787 0.000000 0.198216
#
#
# Mechanical properties :
#
#
# Convention : Reuss Voigt Hill
#
# Bulk Modulus (GPa) = 29.34501 51.98631 40.66566
# Shear Modulus (GPa) = 13.73458 28.03537 20.88498
#
# Velocity S-wave (km/s) = 2.65713 3.79628 3.27659
# Velocity P-wave (km/s) = 4.94962 6.77787 5.93457
#
# Compressibility (1/GPa) = 0.03407735
#
# Stress axis : x y z
#
# Youngs Moduli (GPa) = 89.43942 56.31319 38.16052
#
# Poissons Ratio (x) = 0.05171 -0.04143
# Poissons Ratio (y) = 0.08213 0.40834
# Poissons Ratio (z) = -0.09710 0.60258
#
# Static dielectric constant tensor:
#      x y z
#    x 1.808980 0.000000 0.011660 
#    y 0.000000 1.765220 0.000000 
#    z 0.011660 0.000000 1.710450 
# 
# From -- ./inp_files/6572.got.cif
#   From: 2010.05.17/outbox.cif.g08.bks.cpg/sg14_4_cif.got.tgz:6572.got - 2010.06.03 17:49:19.
