data_PCOD9245720
_publ_section_title
;
Structure prediction by ZEFSAII (Michael W. Deem and Ramdas Pophale) SiO2 
 PCOD9245720
Probable space group: P 21/C
;
_chemical_formula_sum "Si O2"
_cell_formula_units_Z 28
_cell_length_a 8.872860
_cell_length_b 11.105553
_cell_length_c 15.351949
_cell_angle_alpha 90.000000
_cell_angle_beta 59.166452
_cell_angle_gamma 90.000000
_cell_volume 1298.938344
_symmetry_space_group_name_H-M "P 21/C"
_symmetry_group_IT_number 14
_symmetry_cell_setting 'monoclinic'
loop_
_space_group_symop_operation_xyz
x,y,z
-x,1/2+y,1/2-z
-x,-y,-z
x,1/2-y,1/2+z
loop_
_atom_site_type_symbol
_atom_site_label
_atom_site_fract_x
_atom_site_fract_y
_atom_site_fract_z
Si Si1 0.484874 0.721948 0.135069
Si Si2 0.497851 0.893194 0.815539
Si Si3 0.204947 0.587605 0.758068
Si Si4 0.132756 0.015301 0.751796
Si Si5 0.789061 0.907781 0.081105
Si Si6 0.995590 0.708772 0.372839
Si Si7 0.628629 0.810679 0.408658
O O1 0.450337 0.642683 0.230957
O O2 0.339454 0.825122 0.169315
O O3 0.661741 0.793193 0.110276
O O4 0.520556 0.669600 0.029077
O O5 0.534618 0.778269 0.866946
O O6 0.675260 0.973439 0.754600
O O7 0.338735 0.977227 0.898530
O O8 0.042350 0.552889 0.746647
O O9 0.112010 0.672884 0.858791
O O10 0.142941 0.080404 0.841612
O O11 0.303965 0.064639 0.652098
O O12 0.104884 0.874011 0.774327
O O13 0.944277 0.876843 0.968417
O O14 0.811227 0.745464 0.383467
#
# Coordination Sequence:
#
# PCOD9245720 Si02
#       7
#     4   4   4   4   4   4   4
#     4  10  22  41  62  94 125 167 221 259 316 393
#     4  11  21  43  67  91 128 173 216 265 318 378
#     4  10  23  39  65  92 130 167 212 268 321 377
#     4  11  20  39  61  94 130 167 207 276 319 374
#     4  10  22  36  66  91 125 168 216 266 313 384
#     4  10  21  39  59  97 127 163 222 261 320 383
#     4  10  22  39  64  91 129 169 211 266 326 378
#
# _framework density 21.556065
#
# number of rings (size 3 to 8) (size 9 to 14) (size 15 to 20)
#    0.000    1.714    2.857    1.286    2.000    1.714 
#    0.000   12.143    0.000    0.000    0.000    0.000 
#    0.000    0.000    0.000    0.000    0.000    0.000 
#
# Total GULP energy -156226.709720 kJ/mol
# GULP energy per Si atom -5579.525347 kJ/mol
# Density = 2.150700 g / cm^3
# Si number density = 21.556065 Si / 1000 Ang^3
#
#
#
# Elastic Constant Matrix: (Units=GPa)
#
#
# Indices 1 2 3 4 5 6 
#
# 1 90.1195 33.8880 31.7407 0.0000 -2.5504 0.0000
# 2 33.8880 64.6188 28.8242 0.0000 1.6220 0.0000
# 3 31.7407 28.8242 71.9407 0.0000 8.0032 0.0000
# 4 0.0000 0.0000 0.0000 25.8406 0.0000 -4.7418
# 5 -2.5504 1.6220 8.0032 0.0000 23.7041 0.0000
# 6 0.0000 0.0000 0.0000 -4.7418 0.0000 22.8329
#
#
#
# Elastic Compliance Matrix: (Units=1/GPa)
#
#
# Indices 1 2 3 4 5 6 
#
# 1 0.015068 -0.005903 -0.004684 0.000000 0.003607 0.000000
# 2 -0.005903 0.021195 -0.005876 0.000000 -0.000102 0.000000
# 3 -0.004684 -0.005876 0.019048 0.000000 -0.006533 0.000000
# 4 0.000000 0.000000 0.000000 0.040232 0.000000 0.008355
# 5 0.003607 -0.000102 -0.006533 0.000000 0.044787 0.000000
# 6 0.000000 0.000000 0.000000 0.008355 0.000000 0.045532
#
#
# Mechanical properties :
#
#
# Convention : Reuss Voigt Hill
#
# Bulk Modulus (GPa) = 44.67483 46.17608 45.42545
# Shear Modulus (GPa) = 22.09938 23.29061 22.69499
#
# Velocity S-wave (km/s) = 3.20536 3.29061 3.24826
# Velocity P-wave (km/s) = 5.87103 5.99211 5.93188
#
# Compressibility (1/GPa) = 0.02238397
#
# Stress axis : x y z
#
# Youngs Moduli (GPa) = 66.36561 47.18106 52.49843
#
# Poissons Ratio (x) = 0.27852 0.24591
# Poissons Ratio (y) = 0.39177 0.30849
# Poissons Ratio (z) = 0.31086 0.27725
#
# Static dielectric constant tensor:
#      x y z
#    x 1.772860 0.000000 -0.041330 
#    y 0.000000 1.837920 0.000000 
#    z -0.041330 0.000000 1.813050 
# 
# From -- ./inp_files/40219.got.cif
#   From: 2010.05.17/outbox.cif.g08.bks.cpg/sg14_21_cif.got.tgz:40219.got - 2010.06.03 17:49:19.
