data_PCOD9245297
_publ_section_title
;
Structure prediction by ZEFSAII (Michael W. Deem and Ramdas Pophale) SiO2 
 PCOD9245297
Probable space group: P 21/C
;
_chemical_formula_sum "Si O2"
_cell_formula_units_Z 32
_cell_length_a 22.659275
_cell_length_b 8.501912
_cell_length_c 11.079064
_cell_angle_alpha 90.000000
_cell_angle_beta 35.644411
_cell_angle_gamma 90.000000
_cell_volume 1243.799099
_symmetry_space_group_name_H-M "P 21/C"
_symmetry_group_IT_number 14
_symmetry_cell_setting 'monoclinic'
loop_
_space_group_symop_operation_xyz
x,y,z
-x,1/2+y,1/2-z
-x,-y,-z
x,1/2-y,1/2+z
loop_
_atom_site_type_symbol
_atom_site_label
_atom_site_fract_x
_atom_site_fract_y
_atom_site_fract_z
Si Si1 0.195952 0.963207 0.637900
Si Si2 0.813462 0.710054 0.214726
Si Si3 0.063438 0.092348 0.295210
Si Si4 0.351203 0.889276 0.557862
Si Si5 0.614215 0.966009 0.265212
Si Si6 0.032246 0.078515 0.746224
Si Si7 0.651178 0.628136 0.294021
Si Si8 0.468258 0.926568 0.840322
O O1 0.175238 0.111802 0.760038
O O2 0.092793 0.952835 0.729939
O O3 0.278190 0.011569 0.399678
O O4 0.256360 0.848888 0.628441
O O5 0.830097 0.619117 0.314334
O O6 0.712570 0.688466 0.308019
O O7 0.894150 0.645930 0.982257
O O8 0.013428 0.264326 0.354853
O O9 0.000000 0.000000 0.500000
O O10 0.057664 0.000413 0.179181
O O11 0.319986 0.940830 0.744375
O O12 0.432704 0.748727 0.429247
O O13 0.417720 0.033533 0.390595
O O14 0.608262 0.029639 0.141162
O O15 0.500000 0.000000 0.500000
O O16 0.629433 0.780360 0.251104
O O17 0.556295 0.540809 0.508369
#
# Coordination Sequence:
#
# PCOD9245297 Si02
#       8
#     4   4   4   4   4   4   4   4
#     4  10  21  37  62  88 122 163 210 256 307 375
#     4   9  18  37  63  92 118 165 205 250 300 383
#     4   9  18  37  63  93 128 158 206 249 299 380
#     4  11  24  41  60  85 127 162 214 266 318 368
#     4  10  22  37  58  86 117 157 211 261 306 373
#     4   9  19  37  66  94 125 165 201 248 315 368
#     4  11  21  38  65  86 121 165 216 258 322 360
#     4  11  25  40  60  89 121 165 217 262 319 365
#
# _framework density 25.727627999999999
#
# number of rings (size 3 to 8) (size 9 to 14) (size 15 to 20)
#    0.000    2.000    1.250    2.250    5.250    0.500 
#    2.250    5.625    5.500    0.000    0.000    0.000 
#    0.000    0.000    0.000    0.000    0.000    0.000 
#
# Total GULP energy -178852.509006 kJ/mol
# GULP energy per Si atom -5589.140906 kJ/mol
# Density = 2.566907 g / cm^3
# Si number density = 25.727628 Si / 1000 Ang^3
#
#
#
# Elastic Constant Matrix: (Units=GPa)
#
#
# Indices 1 2 3 4 5 6 
#
# 1 208.3540 33.3915 13.0717 0.0000 11.5988 0.0000
# 2 33.3915 64.8708 8.0680 0.0000 7.1348 0.0000
# 3 13.0717 8.0680 73.6058 0.0000 18.0253 0.0000
# 4 0.0000 0.0000 0.0000 29.3258 0.0000 12.8677
# 5 11.5988 7.1348 18.0253 0.0000 28.4046 0.0000
# 6 0.0000 0.0000 0.0000 12.8677 0.0000 46.6643
#
#
#
# Elastic Compliance Matrix: (Units=1/GPa)
#
#
# Indices 1 2 3 4 5 6 
#
# 1 0.005301 -0.002542 -0.000342 0.000000 -0.001309 0.000000
# 2 -0.002542 0.017123 -0.000742 0.000000 -0.002792 0.000000
# 3 -0.000342 -0.000742 0.016159 0.000000 -0.009929 0.000000
# 4 0.000000 0.000000 0.000000 0.038793 0.000000 -0.010697
# 5 -0.001309 -0.002792 -0.009929 0.000000 0.042742 0.000000
# 6 0.000000 0.000000 0.000000 -0.010697 0.000000 0.024379
#
#
# Mechanical properties :
#
#
# Convention : Reuss Voigt Hill
#
# Bulk Modulus (GPa) = 31.91658 50.65477 41.28568
# Shear Modulus (GPa) = 30.82714 40.36559 35.59637
#
# Velocity S-wave (km/s) = 3.46527 3.96531 3.72369
# Velocity P-wave (km/s) = 5.33323 6.37938 5.87962
#
# Compressibility (1/GPa) = 0.03133167
#
# Stress axis : x y z
#
# Youngs Moduli (GPa) = 188.63324 58.40032 61.88373
#
# Poissons Ratio (x) = 0.14847 0.02118
# Poissons Ratio (y) = 0.47955 0.04589
# Poissons Ratio (z) = 0.06456 0.04331
#
# Static dielectric constant tensor:
#      x y z
#    x 2.096550 0.000000 -0.004260 
#    y 0.000000 2.021490 0.000000 
#    z -0.004260 0.000000 2.038490 
# 
# From -- ./inp_files/35733.got.cif
#   From: 2010.05.17/outbox.cif.g08.bks.cpg/sg14_18_cif.got.tgz:35733.got - 2010.06.03 17:49:19.
