data_PCOD9245439
_publ_section_title
;
Structure prediction by ZEFSAII (Michael W. Deem and Ramdas Pophale) SiO2 
 PCOD9245439
Probable space group: P 21/C
;
_chemical_formula_sum "Si O2"
_cell_formula_units_Z 28
_cell_length_a 19.803923
_cell_length_b 8.540560
_cell_length_c 15.518743
_cell_angle_alpha 90.000000
_cell_angle_beta 149.037937
_cell_angle_gamma 90.000000
_cell_volume 1350.375404
_symmetry_space_group_name_H-M "P 21/C"
_symmetry_group_IT_number 14
_symmetry_cell_setting 'monoclinic'
loop_
_space_group_symop_operation_xyz
x,y,z
-x,1/2+y,1/2-z
-x,-y,-z
x,1/2-y,1/2+z
loop_
_atom_site_type_symbol
_atom_site_label
_atom_site_fract_x
_atom_site_fract_y
_atom_site_fract_z
Si Si1 0.254866 0.836234 0.363465
Si Si2 0.548126 0.665270 0.413834
Si Si3 0.516043 0.823018 0.552069
Si Si4 0.924910 0.104708 0.987186
Si Si5 0.239401 0.369695 0.576448
Si Si6 0.621854 0.114660 0.894766
Si Si7 0.183705 0.183722 0.349326
O O1 0.408787 0.823833 0.509625
O O2 0.247491 0.696032 0.423402
O O3 0.217222 0.000768 0.366573
O O4 0.183600 0.816150 0.193325
O O5 0.493191 0.706942 0.447431
O O6 0.467140 0.764935 0.255216
O O7 0.544891 0.485166 0.382687
O O8 0.699785 0.723204 0.572106
O O9 0.662918 0.797682 0.746375
O O10 0.500000 0.000000 0.500000
O O11 0.037039 0.210453 0.152781
O O12 0.862980 0.983807 0.987861
O O13 0.000000 0.000000 0.000000
O O14 0.330614 0.484944 0.620648
O O15 0.187542 0.240884 0.452462
#
# Coordination Sequence:
#
# PCOD9245439 Si02
#       7
#     4   4   4   4   4   4   4
#     4  11  21  39  62  88 120 161 201 249 307 361
#     4  11  21  38  59  91 119 161 199 247 309 357
#     4  12  19  36  64  87 118 159 196 248 306 365
#     4  10  21  38  60  85 118 161 202 244 305 368
#     4  11  22  39  62  89 117 161 204 253 306 360
#     4  11  23  37  62  90 124 151 202 255 301 365
#     4  10  21  38  61  85 116 159 206 245 295 365
#
# _framework density 20.734974999999999
#
# number of rings (size 3 to 8) (size 9 to 14) (size 15 to 20)
#    0.000    1.143    4.286    3.429    0.000    2.857 
#    0.000    7.143    0.000    0.000    0.000    0.000 
#    0.000    0.000    0.000    0.000    0.000    0.000 
#
# Total GULP energy -156231.521177 kJ/mol
# GULP energy per Si atom -5579.697185 kJ/mol
# Density = 2.068778 g / cm^3
# Si number density = 20.734975 Si / 1000 Ang^3
#
#
#
# Elastic Constant Matrix: (Units=GPa)
#
#
# Indices 1 2 3 4 5 6 
#
# 1 59.1727 1.2207 30.5795 0.0000 -7.8644 0.0000
# 2 1.2207 83.7014 45.7154 0.0000 -16.1619 0.0000
# 3 30.5795 45.7154 145.5298 0.0000 -19.7240 0.0000
# 4 0.0000 0.0000 0.0000 30.9315 0.0000 -12.1472
# 5 -7.8644 -16.1619 -19.7240 0.0000 31.3486 0.0000
# 6 0.0000 0.0000 0.0000 -12.1472 0.0000 26.7200
#
#
#
# Elastic Compliance Matrix: (Units=1/GPa)
#
#
# Indices 1 2 3 4 5 6 
#
# 1 0.019668 0.002890 -0.004559 0.000000 0.003556 0.000000
# 2 0.002890 0.015604 -0.004723 0.000000 0.005798 0.000000
# 3 -0.004559 -0.004723 0.009651 0.000000 0.002494 0.000000
# 4 0.000000 0.000000 0.000000 0.039356 0.000000 0.017892
# 5 0.003556 0.005798 0.002494 0.000000 0.037350 0.000000
# 6 0.000000 0.000000 0.000000 0.017892 0.000000 0.045559
#
#
# Mechanical properties :
#
#
# Convention : Reuss Voigt Hill
#
# Bulk Modulus (GPa) = 31.11456 49.27055 40.19255
# Shear Modulus (GPa) = 26.22119 31.85924 29.04021
#
# Velocity S-wave (km/s) = 3.55996 3.92407 3.74644
# Velocity P-wave (km/s) = 5.65121 6.65918 6.17580
#
# Compressibility (1/GPa) = 0.03213930
#
# Stress axis : x y z
#
# Youngs Moduli (GPa) = 50.84274 64.08501 103.61653
#
# Poissons Ratio (x) = -0.18518 0.47235
# Poissons Ratio (y) = -0.14691 0.48939
# Poissons Ratio (z) = 0.23177 0.30268
#
# Static dielectric constant tensor:
#      x y z
#    x 1.848470 0.000000 -0.034150 
#    y 0.000000 1.805230 0.000000 
#    z -0.034150 0.000000 1.833840 
# 
# From -- ./inp_files/50251.got.cif
#   From: 2010.05.17/outbox.cif.g08.bks.cpg/sg14_26_cif.got.tgz:50251.got - 2010.06.03 17:49:19.
