data_PCOD9245456
_publ_section_title
;
Structure prediction by ZEFSAII (Michael W. Deem and Ramdas Pophale) SiO2 
 PCOD9245456
Probable space group: P 21/C
;
_chemical_formula_sum "Si O2"
_cell_formula_units_Z 20
_cell_length_a 5.772349
_cell_length_b 5.014385
_cell_length_c 24.657704
_cell_angle_alpha 90.000000
_cell_angle_beta 90.118844
_cell_angle_gamma 90.000000
_cell_volume 713.710288
_symmetry_space_group_name_H-M "P 21/C"
_symmetry_group_IT_number 14
_symmetry_cell_setting 'monoclinic'
loop_
_space_group_symop_operation_xyz
x,y,z
-x,1/2+y,1/2-z
-x,-y,-z
x,1/2-y,1/2+z
loop_
_atom_site_type_symbol
_atom_site_label
_atom_site_fract_x
_atom_site_fract_y
_atom_site_fract_z
Si Si1 0.756951 0.027699 0.418974
Si Si2 0.253640 0.629802 0.483612
Si Si3 0.242686 0.683543 0.282824
Si Si4 0.006382 0.533475 0.382428
Si Si5 0.506066 0.182952 0.319444
O O1 0.743632 0.095462 0.482218
O O2 0.546275 0.124974 0.381991
O O3 0.956680 0.226373 0.395689
O O4 0.804967 0.724037 0.405112
O O5 0.500000 0.500000 0.500000
O O6 0.223024 0.633488 0.418909
O O7 0.000000 0.500000 0.500000
O O8 0.027809 0.595912 0.318998
O O9 0.434815 0.484573 0.308507
O O10 0.270630 0.629706 0.219076
O O11 0.310913 0.984567 0.296653
#
# Coordination Sequence:
#
# PCOD9245456 Si02
#       5
#     4   4   4   4   4
#     4  11  23  40  62  93 128 169 220 273 332 395
#     4  10  23  44  68  98 134 176 222 274 332 396
#     4  10  21  38  60  88 124 169 219 272 331 395
#     4  11  23  40  62  93 128 169 220 273 332 395
#     4  10  21  38  60  88 124 169 219 272 331 395
#
# _framework density 28.022576999999998
#
# number of rings (size 3 to 8) (size 9 to 14) (size 15 to 20)
#    0.000    1.600    0.000    4.200    0.000    4.800 
#    0.000    9.000    0.000    0.000    0.000    0.000 
#    0.000    0.000    0.000    0.000    0.000    0.000 
#
# Total GULP energy -111887.752029 kJ/mol
# GULP energy per Si atom -5594.387601 kJ/mol
# Density = 2.795880 g / cm^3
# Si number density = 28.022577 Si / 1000 Ang^3
#
#
#
# Elastic Constant Matrix: (Units=GPa)
#
#
# Indices 1 2 3 4 5 6 
#
# 1 109.6732 44.9756 30.8097 0.0000 -1.3204 0.0000
# 2 44.9756 67.4732 36.2816 0.0000 -11.8175 0.0000
# 3 30.8097 36.2816 64.0776 0.0000 -6.0944 0.0000
# 4 0.0000 0.0000 0.0000 41.6137 0.0000 -0.7403
# 5 -1.3204 -11.8175 -6.0944 0.0000 50.5006 0.0000
# 6 0.0000 0.0000 0.0000 -0.7403 0.0000 47.6679
#
#
#
# Elastic Compliance Matrix: (Units=1/GPa)
#
#
# Indices 1 2 3 4 5 6 
#
# 1 0.012848 -0.007846 -0.001900 0.000000 -0.001729 0.000000
# 2 -0.007846 0.026755 -0.010926 0.000000 0.004737 0.000000
# 3 -0.001900 -0.010926 0.022719 0.000000 0.000135 0.000000
# 4 0.000000 0.000000 0.000000 0.024037 0.000000 0.000373
# 5 -0.001729 0.004737 0.000135 0.000000 0.020881 0.000000
# 6 0.000000 0.000000 0.000000 0.000373 0.000000 0.020984
#
#
# Mechanical properties :
#
#
# Convention : Reuss Voigt Hill
#
# Bulk Modulus (GPa) = 47.66660 51.70642 49.68651
# Shear Modulus (GPa) = 28.31865 36.56692 32.44278
#
# Velocity S-wave (km/s) = 3.18239 3.61627 3.40625
# Velocity P-wave (km/s) = 5.52725 5.99402 5.76536
#
# Compressibility (1/GPa) = 0.02097905
#
# Stress axis : x y z
#
# Youngs Moduli (GPa) = 77.83158 37.37577 44.01585
#
# Poissons Ratio (x) = 0.29323 0.08363
# Poissons Ratio (y) = 0.61063 0.48093
# Poissons Ratio (z) = 0.14787 0.40838
#
# Static dielectric constant tensor:
#      x y z
#    x 2.270080 0.000000 -0.063680 
#    y 0.000000 2.088750 0.000000 
#    z -0.063680 0.000000 2.248900 
# 
# From -- ./inp_files/75448.got.cif
#   From: 2010.05.17/outbox.cif.g08.bks.cpg/sg14_38_cif.got.tgz:75448.got - 2010.06.03 17:49:19.
