data_PCOD9245707
_publ_section_title
;
Structure prediction by ZEFSAII (Michael W. Deem and Ramdas Pophale) SiO2 
 PCOD9245707
Probable space group: P 21/C
;
_chemical_formula_sum "Si O2"
_cell_formula_units_Z 28
_cell_length_a 19.204918
_cell_length_b 5.159670
_cell_length_c 12.694859
_cell_angle_alpha 90.000000
_cell_angle_beta 65.448426
_cell_angle_gamma 90.000000
_cell_volume 1144.212812
_symmetry_space_group_name_H-M "P 21/C"
_symmetry_group_IT_number 14
_symmetry_cell_setting 'monoclinic'
loop_
_space_group_symop_operation_xyz
x,y,z
-x,1/2+y,1/2-z
-x,-y,-z
x,1/2-y,1/2+z
loop_
_atom_site_type_symbol
_atom_site_label
_atom_site_fract_x
_atom_site_fract_y
_atom_site_fract_z
Si Si1 0.603993 0.124661 0.030689
Si Si2 0.836440 0.677001 0.707960
Si Si3 0.325684 0.500139 0.159325
Si Si4 0.046411 0.518016 0.195485
Si Si5 0.429772 0.127311 0.177229
Si Si6 0.141499 0.666116 0.940031
Si Si7 0.693982 0.191276 0.636006
O O1 0.520045 0.114220 0.133641
O O2 0.667617 0.068767 0.078564
O O3 0.639405 0.401673 0.970923
O O4 0.592050 0.981155 0.926743
O O5 0.745789 0.692342 0.794496
O O6 0.882116 0.576904 0.779710
O O7 0.852905 0.460393 0.606662
O O8 0.863960 0.954278 0.649079
O O9 0.399431 0.415699 0.180534
O O10 0.291057 0.726960 0.252087
O O11 0.993813 0.262462 0.222985
O O12 0.074360 0.620792 0.065104
O O13 0.379387 0.992647 0.298456
O O14 0.222416 0.597956 0.948547
#
# Coordination Sequence:
#
# PCOD9245707 Si02
#       7
#     4   4   4   4   4   4   4
#     4  10  22  37  59  89 128 169 217 283 334 376
#     4  11  24  45  73  98 143 181 218 288 332 401
#     4  10  21  40  60  89 126 167 222 266 327 397
#     4  12  27  46  71 108 137 174 228 273 341 423
#     4  10  21  39  58  89 125 168 221 273 334 389
#     4  11  24  46  70 103 138 183 229 272 345 407
#     4  10  22  39  61  93 125 170 226 270 327 401
#
# _framework density 24.470973999999998
#
# number of rings (size 3 to 8) (size 9 to 14) (size 15 to 20)
#    0.000    1.429    1.429    3.000    2.000    4.571 
#    7.714    0.000    0.000    0.000    0.000    0.000 
#    0.000    0.000    0.000    0.000    0.000    0.000 
#
# Total GULP energy -156179.106630 kJ/mol
# GULP energy per Si atom -5577.825237 kJ/mol
# Density = 2.441528 g / cm^3
# Si number density = 24.470974 Si / 1000 Ang^3
#
#
#
# Elastic Constant Matrix: (Units=GPa)
#
#
# Indices 1 2 3 4 5 6 
#
# 1 56.0801 6.9911 11.9049 0.0000 0.5376 0.0000
# 2 6.9911 69.1727 7.4195 0.0000 -3.6391 0.0000
# 3 11.9049 7.4195 79.5028 0.0000 -4.4072 0.0000
# 4 0.0000 0.0000 0.0000 29.5904 0.0000 4.7466
# 5 0.5376 -3.6391 -4.4072 0.0000 31.7404 0.0000
# 6 0.0000 0.0000 0.0000 4.7466 0.0000 34.0955
#
#
#
# Elastic Compliance Matrix: (Units=1/GPa)
#
#
# Indices 1 2 3 4 5 6 
#
# 1 0.018614 -0.001640 -0.002683 0.000000 -0.000876 0.000000
# 2 -0.001640 0.014818 -0.001050 0.000000 0.001581 0.000000
# 3 -0.002683 -0.001050 0.013175 0.000000 0.001754 0.000000
# 4 0.000000 0.000000 0.000000 0.034567 0.000000 -0.004812
# 5 -0.000876 0.001581 0.001754 0.000000 0.031945 0.000000
# 6 0.000000 0.000000 0.000000 -0.004812 0.000000 0.029999
#
#
# Mechanical properties :
#
#
# Convention : Reuss Voigt Hill
#
# Bulk Modulus (GPa) = 27.88397 28.59849 28.24123
# Shear Modulus (GPa) = 30.15374 30.98127 30.56751
#
# Velocity S-wave (km/s) = 3.51411 3.56201 3.53814
# Velocity P-wave (km/s) = 5.28060 5.35063 5.31573
#
# Compressibility (1/GPa) = 0.03586290
#
# Stress axis : x y z
#
# Youngs Moduli (GPa) = 53.72317 67.48530 75.90064
#
# Poissons Ratio (x) = 0.11065 0.20363
# Poissons Ratio (y) = 0.08808 0.07967
# Poissons Ratio (z) = 0.14413 0.07084
#
# Static dielectric constant tensor:
#      x y z
#    x 1.983860 0.000000 0.037230 
#    y 0.000000 2.059270 0.000000 
#    z 0.037230 0.000000 2.058720 
# 
# From -- ./inp_files/34676.got.cif
#   From: 2010.05.17/outbox.cif.g08.bks.cpg/sg14_18_cif.got.tgz:34676.got - 2010.06.03 17:49:19.
