data_PCOD9245481
_publ_section_title
;
Structure prediction by ZEFSAII (Michael W. Deem and Ramdas Pophale) SiO2 
 PCOD9245481
Probable space group: P 21/C
;
_chemical_formula_sum "Si O2"
_cell_formula_units_Z 20
_cell_length_a 9.633517
_cell_length_b 8.820221
_cell_length_c 21.417649
_cell_angle_alpha 90.000000
_cell_angle_beta 152.356988
_cell_angle_gamma 90.000000
_cell_volume 844.340798
_symmetry_space_group_name_H-M "P 21/C"
_symmetry_group_IT_number 14
_symmetry_cell_setting 'monoclinic'
loop_
_space_group_symop_operation_xyz
x,y,z
-x,1/2+y,1/2-z
-x,-y,-z
x,1/2-y,1/2+z
loop_
_atom_site_type_symbol
_atom_site_label
_atom_site_fract_x
_atom_site_fract_y
_atom_site_fract_z
Si Si1 0.997004 0.355861 0.409460
Si Si2 0.097689 0.035304 0.395431
Si Si3 0.443849 0.741357 0.533271
Si Si4 0.059540 0.506271 0.309850
Si Si5 0.548730 0.082048 0.838730
O O1 0.716227 0.361977 0.343949
O O2 0.893335 0.433284 0.303050
O O3 0.258241 0.448888 0.549907
O O4 0.132918 0.193795 0.444680
O O5 0.034537 0.056244 0.296547
O O6 0.795780 0.964824 0.305231
O O7 0.372028 0.918935 0.504013
O O8 0.178389 0.661957 0.388321
O O9 0.705965 0.630707 0.611945
O O10 0.439417 0.710650 0.604726
#
# Coordination Sequence:
#
# PCOD9245481 Si02
#       5
#     4   4   4   4   4
#     4  10  21  38  61  86 119 158 197 245 299 353
#     4  11  21  37  63  87 113 159 205 240 295 359
#     4   9  19  37  58  83 117 156 196 243 293 350
#     4   9  19  37  58  85 121 151 189 246 299 348
#     4   9  22  41  56  83 126 157 193 250 300 349
#
# _framework density 23.687118000000002
#
# number of rings (size 3 to 8) (size 9 to 14) (size 15 to 20)
#    0.000    2.400    0.000    2.400    0.000    6.400 
#    0.000    8.000    0.000    0.000    0.000    0.000 
#    0.000    0.000    0.000    0.000    0.000    0.000 
#
# Total GULP energy -111528.536218 kJ/mol
# GULP energy per Si atom -5576.426811 kJ/mol
# Density = 2.363320 g / cm^3
# Si number density = 23.687118 Si / 1000 Ang^3
#
#
#
# Elastic Constant Matrix: (Units=GPa)
#
#
# Indices 1 2 3 4 5 6 
#
# 1 181.8134 44.6097 30.5665 0.0000 -14.9300 0.0000
# 2 44.6097 147.0905 32.4196 0.0000 -7.0972 0.0000
# 3 30.5665 32.4196 13.8200 0.0000 1.7569 0.0000
# 4 0.0000 0.0000 0.0000 -3.3684 0.0000 -27.1317
# 5 -14.9300 -7.0972 1.7569 0.0000 38.5140 0.0000
# 6 0.0000 0.0000 0.0000 -27.1317 0.0000 -16.9554
#
#
#
# Elastic Compliance Matrix: (Units=1/GPa)
#
#
# Indices 1 2 3 4 5 6 
#
# 1 0.011202 0.005391 -0.038325 0.000000 0.007084 0.000000
# 2 0.005391 0.017354 -0.053618 0.000000 0.007734 0.000000
# 3 -0.038325 -0.053618 0.287718 0.000000 -0.037862 0.000000
# 4 0.000000 0.000000 0.000000 0.024971 0.000000 -0.039957
# 5 0.007084 0.007734 -0.037862 0.000000 0.031863 0.000000
# 6 0.000000 0.000000 0.000000 -0.039957 0.000000 0.004961
#
#
# Mechanical properties :
#
#
# Convention : Reuss Voigt Hill
#
# Bulk Modulus (GPa) = 6.98464 61.99062 34.48763
# Shear Modulus (GPa) = 8.34869 19.31324 13.83097
#
# Velocity S-wave (km/s) = 1.87942 2.85853 2.41903
# Velocity P-wave (km/s) = 2.76853 6.09281 4.73218
#
# Compressibility (1/GPa) = 0.14317133
#
# Stress axis : x y z
#
# Youngs Moduli (GPa) = 89.26822 57.62218 3.47563
#
# Poissons Ratio (x) = -0.31066 0.13320
# Poissons Ratio (y) = -0.48128 0.18636
# Poissons Ratio (z) = 3.42116 3.08961
#
# Static dielectric constant tensor:
#      x y z
#    x 1.878740 0.000000 0.107280 
#    y 0.000000 1.942890 0.000000 
#    z 0.107280 0.000000 2.034910 
# 
# From -- ./inp_files/72949.got.cif
#   From: 2010.05.17/outbox.cif.g08.bks.cpg/sg14_37_cif.got.tgz:72949.got - 2010.06.03 17:49:19.
