data_PCOD9245530
_publ_section_title
;
Structure prediction by ZEFSAII (Michael W. Deem and Ramdas Pophale) SiO2 
 PCOD9245530
Probable space group: P 21/C
;
_chemical_formula_sum "Si O2"
_cell_formula_units_Z 24
_cell_length_a 29.523818
_cell_length_b 8.639466
_cell_length_c 9.547821
_cell_angle_alpha 90.000000
_cell_angle_beta 29.534767
_cell_angle_gamma 90.000000
_cell_volume 1200.516043
_symmetry_space_group_name_H-M "P 21/C"
_symmetry_group_IT_number 14
_symmetry_cell_setting 'monoclinic'
loop_
_space_group_symop_operation_xyz
x,y,z
-x,1/2+y,1/2-z
-x,-y,-z
x,1/2-y,1/2+z
loop_
_atom_site_type_symbol
_atom_site_label
_atom_site_fract_x
_atom_site_fract_y
_atom_site_fract_z
Si Si1 0.016329 0.847694 0.866473
Si Si2 0.921543 0.411404 0.119654
Si Si3 0.529332 0.867715 0.528668
Si Si4 0.701063 0.814740 0.432108
Si Si5 0.574368 0.442328 0.188284
Si Si6 0.816215 0.791907 0.867899
O O1 0.915361 0.773231 0.137988
O O2 0.044218 0.873165 0.629795
O O3 0.088364 0.741929 0.759325
O O4 0.000000 0.000000 0.000000
O O5 0.834453 0.523616 0.330576
O O6 0.000000 0.500000 0.000000
O O7 0.449696 0.738378 0.769055
O O8 0.500000 0.000000 0.500000
O O9 0.557687 0.956918 0.593444
O O10 0.615856 0.778274 0.227470
O O11 0.787066 0.780100 0.299538
O O12 0.669863 0.992882 0.494984
O O13 0.734413 0.750910 0.193485
O O14 0.500000 0.500000 0.500000
#
# Coordination Sequence:
#
# PCOD9245530 Si02
#       6
#     4   4   4   4   4   4
#     4  11  21  39  65  93 121 174 225 267 331 405
#     4  10  21  38  62  91 125 168 221 266 329 411
#     4  11  23  42  68  96 126 171 220 258 320 402
#     4  11  22  40  63  94 130 169 215 270 336 376
#     4  10  21  39  65  94 127 169 215 256 317 393
#     4  11  22  40  63  92 131 165 208 279 330 379
#
# _framework density 19.991403999999999
#
# number of rings (size 3 to 8) (size 9 to 14) (size 15 to 20)
#    0.000    1.333    1.667    7.000    2.333    0.000 
#    0.000    5.000    3.667    0.000    0.000    0.000 
#    0.000    0.000    0.000    0.000    0.000    0.000 
#
# Total GULP energy -133736.149599 kJ/mol
# GULP energy per Si atom -5572.339567 kJ/mol
# Density = 1.994590 g / cm^3
# Si number density = 19.991404 Si / 1000 Ang^3
#
#
#
# Elastic Constant Matrix: (Units=GPa)
#
#
# Indices 1 2 3 4 5 6 
#
# 1 114.3506 65.4043 25.8702 0.0000 16.1684 0.0000
# 2 65.4043 128.2467 21.8273 0.0000 -0.4148 0.0000
# 3 25.8702 21.8273 84.3190 0.0000 22.0642 0.0000
# 4 0.0000 0.0000 0.0000 32.6938 0.0000 0.7232
# 5 16.1684 -0.4148 22.0642 0.0000 43.3196 0.0000
# 6 0.0000 0.0000 0.0000 0.7232 0.0000 28.1986
#
#
#
# Elastic Compliance Matrix: (Units=1/GPa)
#
#
# Indices 1 2 3 4 5 6 
#
# 1 0.013474 -0.006675 -0.001238 0.000000 -0.004462 0.000000
# 2 -0.006675 0.011531 -0.001867 0.000000 0.003553 0.000000
# 3 -0.001238 -0.001867 0.014545 0.000000 -0.006964 0.000000
# 4 0.000000 0.000000 0.000000 0.030604 0.000000 -0.000785
# 5 -0.004462 0.003553 -0.006964 0.000000 0.028331 0.000000
# 6 0.000000 0.000000 0.000000 -0.000785 0.000000 0.035483
#
#
# Mechanical properties :
#
#
# Convention : Reuss Voigt Hill
#
# Bulk Modulus (GPa) = 50.02539 61.45777 55.74158
# Shear Modulus (GPa) = 31.21257 35.09671 33.15464
#
# Velocity S-wave (km/s) = 3.95562 4.19452 4.07682
# Velocity P-wave (km/s) = 6.77793 7.36665 7.07841
#
# Compressibility (1/GPa) = 0.01998985
#
# Stress axis : x y z
#
# Youngs Moduli (GPa) = 74.21603 86.72288 68.75132
#
# Poissons Ratio (x) = 0.57890 0.08514
# Poissons Ratio (y) = 0.49542 0.12833
# Poissons Ratio (z) = 0.09191 0.16187
#
# Static dielectric constant tensor:
#      x y z
#    x 1.737080 0.000000 -0.017100 
#    y 0.000000 1.711890 0.000000 
#    z -0.017100 0.000000 1.693470 
# 
# From -- ./inp_files/15161.got.cif
#   From: 2010.05.17/outbox.cif.g08.bks.cpg/sg14_8_cif.got.tgz:15161.got - 2010.06.03 17:49:19.
