data_PCOD9245126
_publ_section_title
;
Structure prediction by ZEFSAII (Michael W. Deem and Ramdas Pophale) SiO2 
 PCOD9245126
Probable space group: P 21/C
;
_chemical_formula_sum "Si O2"
_cell_formula_units_Z 24
_cell_length_a 8.475792
_cell_length_b 22.353832
_cell_length_c 12.371336
_cell_angle_alpha 90.000000
_cell_angle_beta 153.153973
_cell_angle_gamma 90.000000
_cell_volume 1058.516060
_symmetry_space_group_name_H-M "P 21/C"
_symmetry_group_IT_number 14
_symmetry_cell_setting 'monoclinic'
loop_
_space_group_symop_operation_xyz
x,y,z
-x,1/2+y,1/2-z
-x,-y,-z
x,1/2-y,1/2+z
loop_
_atom_site_type_symbol
_atom_site_label
_atom_site_fract_x
_atom_site_fract_y
_atom_site_fract_z
Si Si1 0.630660 0.839832 0.998169
Si Si2 0.116026 0.276031 0.935248
Si Si3 0.669559 0.920176 0.826951
Si Si4 0.768758 0.865323 0.674800
Si Si5 0.404733 0.355658 0.284847
Si Si6 0.503141 0.551037 0.835046
O O1 0.882020 0.793472 0.090606
O O2 0.574069 0.895667 0.885641
O O3 0.266104 0.804372 0.786843
O O4 0.756069 0.856644 0.194406
O O5 0.313247 0.294923 0.165255
O O6 0.304592 0.310634 0.950787
O O7 0.606268 0.871397 0.693895
O O8 0.477311 0.981186 0.677363
O O9 0.088287 0.933313 0.084982
O O10 0.670405 0.925172 0.548169
O O11 0.182207 0.861188 0.945398
O O12 0.318991 0.409872 0.151402
#
# Coordination Sequence:
#
# PCOD9245126 Si02
#       6
#     4   4   4   4   4   4
#     4  11  25  38  61  90 119 161 205 252 312 364
#     4  10  24  40  59  85 122 162 201 257 306 368
#     4  10  21  36  62  97 124 162 209 251 307 366
#     4   9  19  38  62  86 121 161 202 247 301 363
#     4   9  21  41  58  86 121 158 200 252 308 359
#     4   9  19  39  65  90 127 164 203 254 303 370
#
# _framework density 22.673251
#
# number of rings (size 3 to 8) (size 9 to 14) (size 15 to 20)
#    0.000    2.333    0.000    0.500    9.333    3.333 
#    0.000    7.500    0.000    0.000    0.000    0.000 
#    0.000    0.000    0.000    0.000    0.000    0.000 
#
# Total GULP energy -134109.961700 kJ/mol
# GULP energy per Si atom -5587.915071 kJ/mol
# Density = 2.262165 g / cm^3
# Si number density = 22.673251 Si / 1000 Ang^3
#
#
#
# Elastic Constant Matrix: (Units=GPa)
#
#
# Indices 1 2 3 4 5 6 
#
# 1 84.2662 17.2334 41.7116 0.0000 -26.7401 0.0000
# 2 17.2334 40.4118 -7.0248 0.0000 1.1246 0.0000
# 3 41.7116 -7.0248 57.5844 0.0000 -7.5855 0.0000
# 4 0.0000 0.0000 0.0000 20.3805 0.0000 -2.1753
# 5 -26.7401 1.1246 -7.5855 0.0000 49.2427 0.0000
# 6 0.0000 0.0000 0.0000 -2.1753 0.0000 15.1146
#
#
#
# Elastic Compliance Matrix: (Units=1/GPa)
#
#
# Indices 1 2 3 4 5 6 
#
# 1 0.031250 -0.017705 -0.022974 0.000000 0.013835 0.000000
# 2 -0.017705 0.035313 0.016086 0.000000 -0.007943 0.000000
# 3 -0.022974 0.016086 0.034987 0.000000 -0.007453 0.000000
# 4 0.000000 0.000000 0.000000 0.049832 0.000000 0.007172
# 5 0.013835 -0.007943 -0.007453 0.000000 0.026854 0.000000
# 6 0.000000 0.000000 0.000000 0.007172 0.000000 0.067193
#
#
# Mechanical properties :
#
#
# Convention : Reuss Voigt Hill
#
# Bulk Modulus (GPa) = 19.09648 31.78921 25.44284
# Shear Modulus (GPa) = 16.02209 25.63704 20.82956
#
# Velocity S-wave (km/s) = 2.66118 3.36626 3.03427
# Velocity P-wave (km/s) = 4.22886 5.40000 4.84991
#
# Compressibility (1/GPa) = 0.05236568
#
# Stress axis : x y z
#
# Youngs Moduli (GPa) = 31.99979 28.31838 28.58166
#
# Poissons Ratio (x) = 0.50138 0.65662
# Poissons Ratio (y) = 0.56656 -0.45977
# Poissons Ratio (z) = 0.73515 -0.45554
#
# Static dielectric constant tensor:
#      x y z
#    x 1.867890 0.000000 0.004580 
#    y 0.000000 1.822010 0.000000 
#    z 0.004580 0.000000 1.830550 
# 
# From -- ./inp_files/6306.got.cif
#   From: 2010.05.17/outbox.cif.g08.bks.cpg/sg14_4_cif.got.tgz:6306.got - 2010.06.03 17:49:19.
