data_PCOD9245801
_publ_section_title
;
Structure prediction by ZEFSAII (Michael W. Deem and Ramdas Pophale) SiO2 
 PCOD9245801
Probable space group: P 21/C
;
_chemical_formula_sum "Si O2"
_cell_formula_units_Z 26
_cell_length_a 15.182963
_cell_length_b 4.951518
_cell_length_c 15.027336
_cell_angle_alpha 90.000000
_cell_angle_beta 60.252317
_cell_angle_gamma 90.000000
_cell_volume 980.857955
_symmetry_space_group_name_H-M "P 21/C"
_symmetry_group_IT_number 14
_symmetry_cell_setting 'monoclinic'
loop_
_space_group_symop_operation_xyz
x,y,z
-x,1/2+y,1/2-z
-x,-y,-z
x,1/2-y,1/2+z
loop_
_atom_site_type_symbol
_atom_site_label
_atom_site_fract_x
_atom_site_fract_y
_atom_site_fract_z
Si Si1 0.096315 0.141135 0.015104
Si Si2 0.672628 0.813237 0.862416
Si Si3 0.826050 0.167808 0.872113
Si Si4 0.500000 0.500000 0.500000
Si Si5 0.381110 0.565840 0.957685
Si Si6 0.107406 0.734446 0.348832
Si Si7 0.280994 0.118936 0.345763
O O1 0.007374 0.349563 0.083486
O O2 0.096545 0.915428 0.091132
O O3 0.212539 0.235818 0.954280
O O4 0.091090 0.028049 0.917682
O O5 0.603569 0.685449 0.978594
O O6 0.688461 0.704995 0.755918
O O7 0.778646 0.895812 0.851787
O O8 0.604464 0.082913 0.888597
O O9 0.730542 0.321727 0.961337
O O10 0.870688 0.317273 0.764598
O O11 0.538615 0.295763 0.562765
O O12 0.373833 0.485718 0.858253
O O13 0.200317 0.900591 0.345759
#
# Coordination Sequence:
#
# PCOD9245801 Si02
#       7
#     4   4   4   2   4   4   4
#     4  11  21  40  61  92 133 173 222 269 320 383
#     4  10  22  43  65  92 126 166 215 267 326 404
#     4  10  21  39  62  92 127 175 216 263 334 382
#     4  10  24  44  66  96 130 162 208 274 332 402
#     4  11  21  42  68  93 133 167 212 271 332 403
#     4  10  23  39  59  93 133 170 224 274 312 385
#     4  11  22  40  67  94 126 178 217 265 333 388
#
# _framework density 26.507408000000002
#
# number of rings (size 3 to 8) (size 9 to 14) (size 15 to 20)
#    0.000    1.538    3.077    1.846    0.000    1.231 
#   13.846    0.000    0.000    0.000    0.000    0.000 
#    0.000    0.000    0.000    0.000    0.000    0.000 
#
# Total GULP energy -144751.118323 kJ/mol
# GULP energy per Si atom -5567.350705 kJ/mol
# Density = 2.644708 g / cm^3
# Si number density = 26.507408 Si / 1000 Ang^3
#
#
#
# Elastic Constant Matrix: (Units=GPa)
#
#
# Indices 1 2 3 4 5 6 
#
# 1 109.7773 23.0737 61.9524 0.0000 25.6820 0.0000
# 2 23.0737 65.0741 33.5312 0.0000 16.7574 0.0000
# 3 61.9524 33.5312 137.4978 0.0000 38.4387 0.0000
# 4 0.0000 0.0000 0.0000 31.3892 0.0000 4.6100
# 5 25.6820 16.7574 38.4387 0.0000 49.5697 0.0000
# 6 0.0000 0.0000 0.0000 4.6100 0.0000 29.1271
#
#
#
# Elastic Compliance Matrix: (Units=1/GPa)
#
#
# Indices 1 2 3 4 5 6 
#
# 1 0.012606 -0.001448 -0.004644 0.000000 -0.002440 0.000000
# 2 -0.001448 0.018187 -0.002903 0.000000 -0.003147 0.000000
# 3 -0.004644 -0.002903 0.011652 0.000000 -0.005648 0.000000
# 4 0.000000 0.000000 0.000000 0.032616 0.000000 -0.005162
# 5 -0.002440 -0.003147 -0.005648 0.000000 0.026881 0.000000
# 6 0.000000 0.000000 0.000000 -0.005162 0.000000 0.035149
#
#
# Mechanical properties :
#
#
# Convention : Reuss Voigt Hill
#
# Bulk Modulus (GPa) = 40.89369 61.05153 50.97261
# Shear Modulus (GPa) = 30.63086 34.93666 32.78376
#
# Velocity S-wave (km/s) = 3.40304 3.63436 3.52060
# Velocity P-wave (km/s) = 5.55893 6.37913 5.98310
#
# Compressibility (1/GPa) = 0.02445365
#
# Stress axis : x y z
#
# Youngs Moduli (GPa) = 79.32968 54.98513 85.81886
#
# Poissons Ratio (x) = 0.07963 0.39858
# Poissons Ratio (y) = 0.11488 0.24913
# Poissons Ratio (z) = 0.36845 0.15962
#
# Static dielectric constant tensor:
#      x y z
#    x 1.955610 0.000000 -0.038980 
#    y 0.000000 1.893840 0.000000 
#    z -0.038980 0.000000 2.059870 
# 
# From -- ./inp_files/45851.got.cif
#   From: 2010.05.17/outbox.cif.g08.bks.cpg/sg14_23_cif.got.tgz:45851.got - 2010.06.03 17:49:19.
