data_PCOD9245636
_publ_section_title
;
Structure prediction by ZEFSAII (Michael W. Deem and Ramdas Pophale) SiO2 
 PCOD9245636
Probable space group: P 21/C
;
_chemical_formula_sum "Si O2"
_cell_formula_units_Z 30
_cell_length_a 9.790238
_cell_length_b 16.806662
_cell_length_c 12.719908
_cell_angle_alpha 90.000000
_cell_angle_beta 41.393383
_cell_angle_gamma 90.000000
_cell_volume 1383.910815
_symmetry_space_group_name_H-M "P 21/C"
_symmetry_group_IT_number 14
_symmetry_cell_setting 'monoclinic'
loop_
_space_group_symop_operation_xyz
x,y,z
-x,1/2+y,1/2-z
-x,-y,-z
x,1/2-y,1/2+z
loop_
_atom_site_type_symbol
_atom_site_label
_atom_site_fract_x
_atom_site_fract_y
_atom_site_fract_z
Si Si1 0.187807 0.604681 0.402540
Si Si2 0.000000 0.500000 0.000000
Si Si3 0.198284 0.196619 0.933970
Si Si4 0.724492 0.810587 0.878997
Si Si5 0.117704 0.888053 0.601173
Si Si6 0.420222 0.359462 0.098763
Si Si7 0.350999 0.128319 0.297330
Si Si8 0.087675 0.481032 0.276370
O O1 0.424706 0.624715 0.280737
O O2 0.162241 0.536862 0.328964
O O3 0.041239 0.675702 0.446524
O O4 0.089263 0.573000 0.568985
O O5 0.788153 0.551901 0.101234
O O6 0.108830 0.581681 0.987938
O O7 0.322629 0.152195 0.770810
O O8 0.243888 0.289853 0.897084
O O9 0.275063 0.163577 0.001032
O O10 0.624965 0.723812 0.930924
O O11 0.624697 0.862353 0.843828
O O12 0.968225 0.813156 0.706291
O O13 0.340030 0.876159 0.523644
O O14 0.015646 0.963453 0.722380
O O15 0.282095 0.428285 0.127483
#
# Coordination Sequence:
#
# PCOD9245636 Si02
#       8
#     4   2   4   4   4   4   4   4
#     4  10  21  42  64  95 126 170 209 266 322 386
#     4  10  24  42  60  96 132 160 214 276 318 376
#     4  10  22  41  63  92 127 167 216 266 313 386
#     4  10  23  41  61  93 129 163 214 267 315 387
#     4  11  22  43  63  93 129 167 211 273 320 381
#     4  10  23  38  65  93 123 171 221 258 324 389
#     4  10  23  41  66  92 133 168 216 267 329 378
#     4  10  21  38  66  92 127 162 220 260 318 392
#
# _framework density 21.677696000000001
#
# number of rings (size 3 to 8) (size 9 to 14) (size 15 to 20)
#    0.000    1.867    1.333    1.200    3.733    8.533 
#    2.400    1.333    0.000    0.000    0.000    0.000 
#    0.000    0.000    0.000    0.000    0.000    0.000 
#
# Total GULP energy -167063.293789 kJ/mol
# GULP energy per Si atom -5568.776460 kJ/mol
# Density = 2.162836 g / cm^3
# Si number density = 21.677696 Si / 1000 Ang^3
#
#
#
# Elastic Constant Matrix: (Units=GPa)
#
#
# Indices 1 2 3 4 5 6 
#
# 1 67.7965 16.5467 17.1144 0.0000 -11.3791 0.0000
# 2 16.5467 67.5179 29.3373 0.0000 -26.1689 0.0000
# 3 17.1144 29.3373 42.8545 0.0000 -23.7406 0.0000
# 4 0.0000 0.0000 0.0000 16.1117 0.0000 -4.7259
# 5 -11.3791 -26.1689 -23.7406 0.0000 41.0633 0.0000
# 6 0.0000 0.0000 0.0000 -4.7259 0.0000 23.4923
#
#
#
# Elastic Compliance Matrix: (Units=1/GPa)
#
#
# Indices 1 2 3 4 5 6 
#
# 1 0.016546 -0.001566 -0.005220 0.000000 0.000569 0.000000
# 2 -0.001566 0.022922 -0.010614 0.000000 0.008037 0.000000
# 3 -0.005220 -0.010614 0.041395 0.000000 0.015722 0.000000
# 4 0.000000 0.000000 0.000000 0.065959 0.000000 0.013269
# 5 0.000569 0.008037 0.015722 0.000000 0.038722 0.000000
# 6 0.000000 0.000000 0.000000 0.013269 0.000000 0.045236
#
#
# Mechanical properties :
#
#
# Convention : Reuss Voigt Hill
#
# Bulk Modulus (GPa) = 21.70998 33.79617 27.75308
# Shear Modulus (GPa) = 17.79781 23.81149 20.80465
#
# Velocity S-wave (km/s) = 2.86845 3.31786 3.10131
# Velocity P-wave (km/s) = 4.58337 5.50470 5.06503
#
# Compressibility (1/GPa) = 0.04606176
#
# Stress axis : x y z
#
# Youngs Moduli (GPa) = 60.43922 43.62695 24.15747
#
# Poissons Ratio (x) = 0.06832 0.12611
# Poissons Ratio (y) = 0.09465 0.25640
# Poissons Ratio (z) = 0.31552 0.46304
#
# Static dielectric constant tensor:
#      x y z
#    x 1.822990 0.000000 0.061270 
#    y 0.000000 1.799040 0.000000 
#    z 0.061270 0.000000 1.823140 
# 
# From -- ./inp_files/41800.got.cif
#   From: 2010.05.17/outbox.cif.g08.bks.cpg/sg14_21_cif.got.tgz:41800.got - 2010.06.03 17:49:19.
