data_PCOD9245955
_publ_section_title
;
Structure prediction by ZEFSAII (Michael W. Deem and Ramdas Pophale) SiO2 
 PCOD9245955
Probable space group: P 21/C
;
_chemical_formula_sum "Si O2"
_cell_formula_units_Z 24
_cell_length_a 13.533176
_cell_length_b 13.383315
_cell_length_c 11.805437
_cell_angle_alpha 90.000000
_cell_angle_beta 30.713333
_cell_angle_gamma 90.000000
_cell_volume 1092.063564
_symmetry_space_group_name_H-M "P 21/C"
_symmetry_group_IT_number 14
_symmetry_cell_setting 'monoclinic'
loop_
_space_group_symop_operation_xyz
x,y,z
-x,1/2+y,1/2-z
-x,-y,-z
x,1/2-y,1/2+z
loop_
_atom_site_type_symbol
_atom_site_label
_atom_site_fract_x
_atom_site_fract_y
_atom_site_fract_z
Si Si1 0.871920 0.679798 0.691924
Si Si2 0.989483 0.399176 0.675542
Si Si3 0.316437 0.500044 0.506539
Si Si4 0.939135 0.169460 0.773081
Si Si5 0.147831 0.405826 0.865894
Si Si6 0.603675 0.973707 0.516871
O O1 0.036126 0.648475 0.619040
O O2 0.895047 0.797271 0.646655
O O3 0.894294 0.619099 0.554611
O O4 0.669519 0.642678 0.944167
O O5 0.130539 0.446955 0.629554
O O6 0.930403 0.287418 0.768825
O O7 0.800443 0.463139 0.836137
O O8 0.331611 0.444544 0.612518
O O9 0.480622 0.500722 0.250103
O O10 0.247194 0.613923 0.592249
O O11 0.123880 0.124624 0.521409
O O12 0.000000 0.500000 0.000000
O O13 0.500000 0.000000 0.500000
#
# Coordination Sequence:
#
# PCOD9245955 Si02
#       6
#     4   4   4   4   4   4
#     4  11  20  38  66  92 124 171 220 267 326 385
#     4  11  22  40  64  91 130 168 214 277 323 382
#     4  11  21  41  62  93 133 165 219 266 334 392
#     4  10  21  39  66  90 123 179 218 260 328 394
#     4   9  21  39  65  90 127 176 214 265 329 396
#     4  12  24  37  64 100 130 163 215 279 330 382
#
# _framework density 21.976742000000002
#
# number of rings (size 3 to 8) (size 9 to 14) (size 15 to 20)
#    0.000    1.333    5.000    1.500    0.000    1.333 
#    0.000    0.833    0.000    0.000    0.000    0.000 
#    0.000    0.000    0.000    0.000    0.000    0.000 
#
# Total GULP energy -133773.059264 kJ/mol
# GULP energy per Si atom -5573.877469 kJ/mol
# Density = 2.192672 g / cm^3
# Si number density = 21.976742 Si / 1000 Ang^3
#
#
#
# Elastic Constant Matrix: (Units=GPa)
#
#
# Indices 1 2 3 4 5 6 
#
# 1 41.5833 18.1754 10.3197 0.0000 3.8585 0.0000
# 2 18.1754 129.1274 34.2699 0.0000 -4.8399 0.0000
# 3 10.3197 34.2699 111.2267 0.0000 15.3979 0.0000
# 4 0.0000 0.0000 0.0000 36.4241 0.0000 10.0626
# 5 3.8585 -4.8399 15.3979 0.0000 33.0729 0.0000
# 6 0.0000 0.0000 0.0000 10.0626 0.0000 19.1679
#
#
#
# Elastic Compliance Matrix: (Units=1/GPa)
#
#
# Indices 1 2 3 4 5 6 
#
# 1 0.026117 -0.003558 -0.000890 0.000000 -0.003153 0.000000
# 2 -0.003558 0.009135 -0.002915 0.000000 0.003109 0.000000
# 3 -0.000890 -0.002915 0.010706 0.000000 -0.005307 0.000000
# 4 0.000000 0.000000 0.000000 0.032111 0.000000 -0.016858
# 5 -0.003153 0.003109 -0.005307 0.000000 0.033530 0.000000
# 6 0.000000 0.000000 0.000000 -0.016858 0.000000 0.061020
#
#
# Mechanical properties :
#
#
# Convention : Reuss Voigt Hill
#
# Bulk Modulus (GPa) = 32.01893 45.27414 38.64654
# Shear Modulus (GPa) = 25.28357 32.34450 28.81403
#
# Velocity S-wave (km/s) = 3.39554 3.84051 3.62486
# Velocity P-wave (km/s) = 5.47485 6.34915 5.92814
#
# Compressibility (1/GPa) = 0.03123152
#
# Stress axis : x y z
#
# Youngs Moduli (GPa) = 38.28960 109.46629 93.40481
#
# Poissons Ratio (x) = 0.38948 0.08317
# Poissons Ratio (y) = 0.13623 0.27227
# Poissons Ratio (z) = 0.03409 0.31909
#
# Static dielectric constant tensor:
#      x y z
#    x 1.824350 0.000000 0.022700 
#    y 0.000000 1.810870 0.000000 
#    z 0.022700 0.000000 1.853660 
# 
# From -- ./inp_files/32679.got.cif
#   From: 2010.05.17/outbox.cif.g08.bks.cpg/sg14_17_cif.got.tgz:32679.got - 2010.06.03 17:49:19.
