data_PCOD9245282
_publ_section_title
;
Structure prediction by ZEFSAII (Michael W. Deem and Ramdas Pophale) SiO2 
 PCOD9245282
Probable space group: P 21/C
;
_chemical_formula_sum "Si O2"
_cell_formula_units_Z 28
_cell_length_a 11.511159
_cell_length_b 21.289834
_cell_length_c 5.093903
_cell_angle_alpha 90.000000
_cell_angle_beta 112.932131
_cell_angle_gamma 90.000000
_cell_volume 1149.704121
_symmetry_space_group_name_H-M "P 21/C"
_symmetry_group_IT_number 14
_symmetry_cell_setting 'monoclinic'
loop_
_space_group_symop_operation_xyz
x,y,z
-x,1/2+y,1/2-z
-x,-y,-z
x,1/2-y,1/2+z
loop_
_atom_site_type_symbol
_atom_site_label
_atom_site_fract_x
_atom_site_fract_y
_atom_site_fract_z
Si Si1 0.151723 0.525520 0.833957
Si Si2 0.186544 0.704286 0.317927
Si Si3 0.105004 0.058272 0.794779
Si Si4 0.296233 0.135939 0.704830
Si Si5 0.071127 0.207740 0.259461
Si Si6 0.412451 0.005159 0.670007
Si Si7 0.451317 0.791112 0.937947
O O1 0.148142 0.493540 0.545478
O O2 0.038326 0.575347 0.755512
O O3 0.109422 0.472966 0.010125
O O4 0.293760 0.542224 0.038464
O O5 0.184398 0.755917 0.548444
O O6 0.323951 0.672175 0.418616
O O7 0.055186 0.669294 0.264348
O O8 0.207782 0.112684 0.866829
O O9 0.200387 0.172821 0.434935
O O10 0.349993 0.073607 0.618658
O O11 0.417488 0.174644 0.898253
O O12 0.067582 0.234154 0.963302
O O13 0.500000 0.000000 0.500000
O O14 0.500000 0.000000 0.000000
O O15 0.448021 0.768759 0.633328
#
# Coordination Sequence:
#
# PCOD9245282 Si02
#       7
#     4   4   4   4   4   4   4
#     4   9  18  38  60  79 114 153 199 244 309 354
#     4   8  16  34  56  80 118 163 192 236 298 361
#     4   9  19  34  60  87 110 152 196 254 294 355
#     4  11  23  39  63  95 121 161 212 254 311 370
#     4  10  21  37  61  90 126 157 198 252 306 367
#     4  11  24  41  61  86 123 166 204 266 315 367
#     4  10  21  37  61  91 129 164 198 245 306 376
#
# _framework density 24.354095000000001
#
# number of rings (size 3 to 8) (size 9 to 14) (size 15 to 20)
#    0.000    2.286    0.000    2.571    0.000    6.857 
#    2.571    0.000    9.429    0.000    0.000    0.000 
#    0.000    0.000    0.000    0.000    0.000    0.000 
#
# Total GULP energy -156424.564653 kJ/mol
# GULP energy per Si atom -5586.591595 kJ/mol
# Density = 2.429866 g / cm^3
# Si number density = 24.354095 Si / 1000 Ang^3
#
#
#
# Elastic Constant Matrix: (Units=GPa)
#
#
# Indices 1 2 3 4 5 6 
#
# 1 168.5546 42.9042 43.9648 0.0000 40.0461 0.0000
# 2 42.9042 31.1313 6.6713 0.0000 -6.4803 0.0000
# 3 43.9648 6.6713 114.6628 0.0000 -7.4897 0.0000
# 4 0.0000 0.0000 0.0000 7.2050 0.0000 -21.9347
# 5 40.0461 -6.4803 -7.4897 0.0000 49.4043 0.0000
# 6 0.0000 0.0000 0.0000 -21.9347 0.0000 18.7333
#
#
#
# Elastic Compliance Matrix: (Units=1/GPa)
#
#
# Indices 1 2 3 4 5 6 
#
# 1 0.022437 -0.034145 -0.008178 0.000000 -0.023905 0.000000
# 2 -0.034145 0.085302 0.010775 0.000000 0.040500 0.000000
# 3 -0.008178 0.010775 0.011873 0.000000 0.009842 0.000000
# 4 0.000000 0.000000 0.000000 -0.054118 0.000000 -0.063366
# 5 -0.023905 0.040500 0.009842 0.000000 0.046423 0.000000
# 6 0.000000 0.000000 0.000000 -0.063366 0.000000 -0.020814
#
#
# Mechanical properties :
#
#
# Convention : Reuss Voigt Hill
#
# Bulk Modulus (GPa) = 17.69461 55.71435 36.70448
# Shear Modulus (GPa) = 28.89558 29.78908 29.34233
#
# Velocity S-wave (km/s) = 3.44826 3.50117 3.47482
# Velocity P-wave (km/s) = 4.80992 6.26664 5.58597
#
# Compressibility (1/GPa) = 0.05651439
#
# Stress axis : x y z
#
# Youngs Moduli (GPa) = 44.56963 11.72308 84.22655
#
# Poissons Ratio (x) = 0.40029 0.68878
# Poissons Ratio (y) = 1.52185 -0.90751
# Poissons Ratio (z) = 0.36448 -0.12631
#
# Static dielectric constant tensor:
#      x y z
#    x 2.016210 0.000000 0.099050 
#    y 0.000000 1.993460 0.000000 
#    z 0.099050 0.000000 1.941840 
# 
# From -- ./inp_files/3259.got.cif
#   From: 2010.05.17/outbox.cif.g08.bks.cpg/sg14_2_cif.got.tgz:3259.got - 2010.06.03 17:49:19.
