data_PCOD9245701
_publ_section_title
;
Structure prediction by ZEFSAII (Michael W. Deem and Ramdas Pophale) SiO2 
 PCOD9245701
Probable space group: P 21/C
;
_chemical_formula_sum "Si O2"
_cell_formula_units_Z 20
_cell_length_a 10.238565
_cell_length_b 9.273233
_cell_length_c 9.519889
_cell_angle_alpha 90.000000
_cell_angle_beta 102.808717
_cell_angle_gamma 90.000000
_cell_volume 881.370010
_symmetry_space_group_name_H-M "P 21/C"
_symmetry_group_IT_number 14
_symmetry_cell_setting 'monoclinic'
loop_
_space_group_symop_operation_xyz
x,y,z
-x,1/2+y,1/2-z
-x,-y,-z
x,1/2-y,1/2+z
loop_
_atom_site_type_symbol
_atom_site_label
_atom_site_fract_x
_atom_site_fract_y
_atom_site_fract_z
Si Si1 0.505015 0.880624 0.287552
Si Si2 0.400487 0.672022 0.065284
Si Si3 0.791765 0.661136 0.724428
Si Si4 0.938374 0.841968 0.990074
Si Si5 0.121136 0.905411 0.587883
O O1 0.398117 0.821042 0.150391
O O2 0.468382 0.815299 0.430490
O O3 0.644026 0.827281 0.252379
O O4 0.520592 0.050606 0.324003
O O5 0.250424 0.608432 0.018816
O O6 0.812934 0.679236 0.565122
O O7 0.832477 0.495132 0.766740
O O8 0.889009 0.770716 0.832570
O O9 0.057292 0.749253 0.088481
O O10 0.000000 0.000000 0.000000
O O11 0.000000 0.000000 0.500000
#
# Coordination Sequence:
#
# PCOD9245701 Si02
#       5
#     4   4   4   4   4
#     4  10  22  39  60  88 118 157 201 247 303 354
#     4  10  22  39  61  87 120 159 201 250 300 359
#     4  10  21  39  58  83 120 153 191 246 298 352
#     4  11  22  36  60  87 114 154 200 243 293 352
#     4   9  21  39  58  83 121 157 193 243 301 354
#
# _framework density 22.691946000000002
#
# number of rings (size 3 to 8) (size 9 to 14) (size 15 to 20)
#    0.000    2.000    0.000    2.400    0.000   10.400 
#    0.000    0.000    0.000    0.000    0.000    0.000 
#    0.000    0.000    0.000    0.000    0.000    0.000 
#
# Total GULP energy -111626.016307 kJ/mol
# GULP energy per Si atom -5581.300815 kJ/mol
# Density = 2.264030 g / cm^3
# Si number density = 22.691946 Si / 1000 Ang^3
#
#
#
# Elastic Constant Matrix: (Units=GPa)
#
#
# Indices 1 2 3 4 5 6 
#
# 1 95.6678 35.7190 33.2451 0.0000 -15.9168 0.0000
# 2 35.7190 102.1782 24.8619 0.0000 -10.1399 0.0000
# 3 33.2451 24.8619 80.3831 0.0000 -34.4103 0.0000
# 4 0.0000 0.0000 0.0000 24.8519 0.0000 3.4115
# 5 -15.9168 -10.1399 -34.4103 0.0000 31.3641 0.0000
# 6 0.0000 0.0000 0.0000 3.4115 0.0000 27.2278
#
#
#
# Elastic Compliance Matrix: (Units=1/GPa)
#
#
# Indices 1 2 3 4 5 6 
#
# 1 0.013356 -0.003603 -0.003784 0.000000 0.001462 0.000000
# 2 -0.003603 0.011557 -0.002390 0.000000 -0.000715 0.000000
# 3 -0.003784 -0.002390 0.025628 0.000000 0.025424 0.000000
# 4 0.000000 0.000000 0.000000 0.040943 0.000000 -0.005130
# 5 0.001462 -0.000715 0.025424 0.000000 0.060288 0.000000
# 6 0.000000 0.000000 0.000000 -0.005130 0.000000 0.037370
#
#
# Mechanical properties :
#
#
# Convention : Reuss Voigt Hill
#
# Bulk Modulus (GPa) = 32.27102 51.76456 42.01779
# Shear Modulus (GPa) = 22.82840 28.98231 25.90535
#
# Velocity S-wave (km/s) = 3.17521 3.57768 3.38244
# Velocity P-wave (km/s) = 5.26259 6.31884 5.81475
#
# Compressibility (1/GPa) = 0.03098755
#
# Stress axis : x y z
#
# Youngs Moduli (GPa) = 74.87125 86.52684 39.01959
#
# Poissons Ratio (x) = 0.31178 0.14763
# Poissons Ratio (y) = 0.26978 0.09326
# Poissons Ratio (z) = 0.28328 0.20681
#
# Static dielectric constant tensor:
#      x y z
#    x 1.836170 0.000000 0.141880 
#    y 0.000000 1.875480 0.000000 
#    z 0.141880 0.000000 1.656810 
# 
# From -- ./inp_files/11842.got.cif
#   From: 2010.05.17/outbox.cif.g08.bks.cpg/sg14_6_cif.got.tgz:11842.got - 2010.06.03 17:49:19.
