data_PCOD9245828
_publ_section_title
;
Structure prediction by ZEFSAII (Michael W. Deem and Ramdas Pophale) SiO2 
 PCOD9245828
Probable space group: P 21/C
;
_chemical_formula_sum "Si O2"
_cell_formula_units_Z 30
_cell_length_a 5.295494
_cell_length_b 31.613582
_cell_length_c 7.183967
_cell_angle_alpha 90.000000
_cell_angle_beta 66.188184
_cell_angle_gamma 90.000000
_cell_volume 1100.289460
_symmetry_space_group_name_H-M "P 21/C"
_symmetry_group_IT_number 14
_symmetry_cell_setting 'monoclinic'
loop_
_space_group_symop_operation_xyz
x,y,z
-x,1/2+y,1/2-z
-x,-y,-z
x,1/2-y,1/2+z
loop_
_atom_site_type_symbol
_atom_site_label
_atom_site_fract_x
_atom_site_fract_y
_atom_site_fract_z
Si Si1 0.278882 0.708890 0.526323
Si Si2 0.500000 0.500000 0.000000
Si Si3 0.154013 0.488834 0.700736
Si Si4 0.203691 0.151867 0.828775
Si Si5 0.250439 0.151107 0.237076
Si Si6 0.305110 0.693048 0.957523
Si Si7 0.551015 0.573539 0.130757
Si Si8 0.942788 0.071136 0.967550
O O1 0.491765 0.683972 0.329880
O O2 0.291659 0.694746 0.736936
O O3 0.339475 0.758383 0.504554
O O4 0.967422 0.694680 0.573498
O O5 0.543374 0.553164 0.932810
O O6 0.165285 0.510924 0.144017
O O7 0.363386 0.473296 0.801806
O O8 0.206539 0.535779 0.613324
O O9 0.157095 0.456139 0.528115
O O10 0.428559 0.162914 0.606655
O O11 0.285895 0.137075 0.011366
O O12 0.018548 0.112247 0.827128
O O13 0.243993 0.108591 0.359829
O O14 0.969429 0.175259 0.368920
O O15 0.271690 0.587888 0.311507
#
# Coordination Sequence:
#
# PCOD9245828 Si02
#       8
#     4   2   4   4   4   4   4   4
#     4  11  24  46  68 102 140 175 229 278 348 419
#     4  10  24  38  58  96 124 176 224 282 342 404
#     4  10  21  39  63  89 130 172 221 283 335 403
#     4  11  23  44  69 101 139 177 233 283 336 422
#     4  11  24  43  71 101 137 185 227 289 342 406
#     4  11  26  43  71 103 134 182 223 283 348 410
#     4  11  21  42  64  92 136 177 229 284 342 400
#     4  10  21  39  64  92 124 178 223 271 344 398
#
# _framework density 27.265554999999999
#
# number of rings (size 3 to 8) (size 9 to 14) (size 15 to 20)
#    0.000    1.333    2.667    2.400    0.000    6.400 
#    0.000    0.000    0.000    0.000    0.000    0.000 
#    0.000    0.000    0.000    0.000    0.000    0.000 
#
# Total GULP energy -167500.342150 kJ/mol
# GULP energy per Si atom -5583.344738 kJ/mol
# Density = 2.720350 g / cm^3
# Si number density = 27.265555 Si / 1000 Ang^3
#
#
#
# Elastic Constant Matrix: (Units=GPa)
#
#
# Indices 1 2 3 4 5 6 
#
# 1 70.9553 8.0953 23.4995 0.0000 -17.8883 0.0000
# 2 8.0953 130.1816 14.0076 0.0000 -2.8970 0.0000
# 3 23.4995 14.0076 131.1422 0.0000 -14.8674 0.0000
# 4 0.0000 0.0000 0.0000 45.4349 0.0000 -1.9047
# 5 -17.8883 -2.8970 -14.8674 0.0000 52.7210 0.0000
# 6 0.0000 0.0000 0.0000 -1.9047 0.0000 38.0852
#
#
#
# Elastic Compliance Matrix: (Units=1/GPa)
#
#
# Indices 1 2 3 4 5 6 
#
# 1 0.016131 -0.000651 -0.002277 0.000000 0.004795 0.000000
# 2 -0.000651 0.007799 -0.000716 0.000000 0.000006 0.000000
# 3 -0.002277 -0.000716 0.008283 0.000000 0.001524 0.000000
# 4 0.000000 0.000000 0.000000 0.022056 0.000000 0.001103
# 5 0.004795 0.000006 0.001524 0.000000 0.021025 0.000000
# 6 0.000000 0.000000 0.000000 0.001103 0.000000 0.026312
#
#
# Mechanical properties :
#
#
# Convention : Reuss Voigt Hill
#
# Bulk Modulus (GPa) = 40.12209 47.05378 43.58793
# Shear Modulus (GPa) = 42.66146 46.36001 44.51074
#
# Velocity S-wave (km/s) = 3.95988 4.12796 4.04479
# Velocity P-wave (km/s) = 5.97116 6.32575 6.15101
#
# Compressibility (1/GPa) = 0.02492393
#
# Stress axis : x y z
#
# Youngs Moduli (GPa) = 61.99318 128.21798 120.73550
#
# Poissons Ratio (x) = 0.08351 0.27495
# Poissons Ratio (y) = 0.04038 0.08641
# Poissons Ratio (z) = 0.14118 0.09176
#
# Static dielectric constant tensor:
#      x y z
#    x 2.712250 0.000000 0.479660 
#    y 0.000000 2.684570 0.000000 
#    z 0.479660 0.000000 2.813120 
# 
# From -- ./inp_files/6930.got.cif
#   From: 2010.05.17/outbox.cif.g08.bks.cpg/sg14_4_cif.got.tgz:6930.got - 2010.06.03 17:49:19.
