data_PCOD9245594
_publ_section_title
;
Structure prediction by ZEFSAII (Michael W. Deem and Ramdas Pophale) SiO2 
 PCOD9245594
Probable space group: P 21/C
;
_chemical_formula_sum "Si O2"
_cell_formula_units_Z 24
_cell_length_a 22.986077
_cell_length_b 4.996117
_cell_length_c 16.218957
_cell_angle_alpha 90.000000
_cell_angle_beta 30.938295
_cell_angle_gamma 90.000000
_cell_volume 957.591661
_symmetry_space_group_name_H-M "P 21/C"
_symmetry_group_IT_number 14
_symmetry_cell_setting 'monoclinic'
loop_
_space_group_symop_operation_xyz
x,y,z
-x,1/2+y,1/2-z
-x,-y,-z
x,1/2-y,1/2+z
loop_
_atom_site_type_symbol
_atom_site_label
_atom_site_fract_x
_atom_site_fract_y
_atom_site_fract_z
Si Si1 0.404573 0.192223 0.283971
Si Si2 0.751140 0.815553 0.365607
Si Si3 0.104458 0.003391 0.041110
Si Si4 0.641444 0.165358 0.941699
Si Si5 0.646385 0.178155 0.258624
Si Si6 0.037461 0.014237 0.315555
O O1 0.325249 0.201326 0.459487
O O2 0.413689 0.482253 0.231354
O O3 0.348885 0.963904 0.293251
O O4 0.537667 0.128708 0.131169
O O5 0.694305 0.626337 0.366840
O O6 0.867976 0.662730 0.244433
O O7 0.736718 0.124868 0.357530
O O8 0.084979 0.018324 0.163758
O O9 0.065988 0.716057 0.056821
O O10 0.237446 0.985804 0.867152
O O11 0.020714 0.223759 0.102304
O O12 0.595985 0.264331 0.909278
#
# Coordination Sequence:
#
# PCOD9245594 Si02
#       6
#     4   4   4   4   4   4
#     4  12  24  43  70  94 129 180 232 262 318 402
#     4  12  24  43  66  97 133 174 219 272 337 393
#     4  10  21  38  64  95 124 162 222 274 319 382
#     4  12  26  43  63  99 140 172 212 279 338 394
#     4  12  24  43  68  98 131 174 222 274 331 393
#     4  10  21  38  64  94 126 162 219 277 316 386
#
# _framework density 25.062873
#
# number of rings (size 3 to 8) (size 9 to 14) (size 15 to 20)
#    0.000    0.667    1.667    7.000    4.667    0.000 
#    0.000    5.000    0.000    0.000    0.000    0.000 
#    0.000    0.000    0.000    0.000    0.000    0.000 
#
# Total GULP energy -134128.732646 kJ/mol
# GULP energy per Si atom -5588.697194 kJ/mol
# Density = 2.500583 g / cm^3
# Si number density = 25.062873 Si / 1000 Ang^3
#
#
#
# Elastic Constant Matrix: (Units=GPa)
#
#
# Indices 1 2 3 4 5 6 
#
# 1 53.7135 10.1094 13.4272 0.0000 12.2157 0.0000
# 2 10.1094 116.8752 19.5107 0.0000 15.2587 0.0000
# 3 13.4272 19.5107 42.1173 0.0000 -10.1715 0.0000
# 4 0.0000 0.0000 0.0000 29.1412 0.0000 -6.7269
# 5 12.2157 15.2587 -10.1715 0.0000 29.8400 0.0000
# 6 0.0000 0.0000 0.0000 -6.7269 0.0000 39.4731
#
#
#
# Elastic Compliance Matrix: (Units=1/GPa)
#
#
# Indices 1 2 3 4 5 6 
#
# 1 0.024924 0.001973 -0.012606 0.000000 -0.015509 0.000000
# 2 0.001973 0.010878 -0.007853 0.000000 -0.009047 0.000000
# 3 -0.012606 -0.007853 0.036631 0.000000 0.021663 0.000000
# 4 0.000000 0.000000 0.000000 0.035721 0.000000 0.006087
# 5 -0.015509 -0.009047 0.021663 0.000000 0.051871 0.000000
# 6 0.000000 0.000000 0.000000 0.006087 0.000000 0.026371
#
#
# Mechanical properties :
#
#
# Convention : Reuss Voigt Hill
#
# Bulk Modulus (GPa) = 28.19874 33.20006 30.69940
# Shear Modulus (GPa) = 21.25957 31.00143 26.13050
#
# Velocity S-wave (km/s) = 2.91563 3.52084 3.23243
# Velocity P-wave (km/s) = 4.75502 5.45929 5.11928
#
# Compressibility (1/GPa) = 0.03546257
#
# Stress axis : x y z
#
# Youngs Moduli (GPa) = 40.12156 91.93282 27.29894
#
# Poissons Ratio (x) = -0.18141 0.34412
# Poissons Ratio (y) = -0.07917 0.21438
# Poissons Ratio (z) = 0.50576 0.72194
#
# Static dielectric constant tensor:
#      x y z
#    x 2.014450 0.000000 -0.006790 
#    y 0.000000 1.925000 0.000000 
#    z -0.006790 0.000000 1.959020 
# 
# From -- ./inp_files/61561.got.cif
#   From: 2010.05.17/outbox.cif.g08.bks.cpg/sg14_31_cif.got.tgz:61561.got - 2010.06.03 17:49:19.
