data_PCOD9245180
_publ_section_title
;
Structure prediction by ZEFSAII (Michael W. Deem and Ramdas Pophale) SiO2 
 PCOD9245180
Probable space group: P 21/C
;
_chemical_formula_sum "Si O2"
_cell_formula_units_Z 32
_cell_length_a 9.565108
_cell_length_b 13.213284
_cell_length_c 10.905787
_cell_angle_alpha 90.000000
_cell_angle_beta 74.873368
_cell_angle_gamma 90.000000
_cell_volume 1330.586484
_symmetry_space_group_name_H-M "P 21/C"
_symmetry_group_IT_number 14
_symmetry_cell_setting 'monoclinic'
loop_
_space_group_symop_operation_xyz
x,y,z
-x,1/2+y,1/2-z
-x,-y,-z
x,1/2-y,1/2+z
loop_
_atom_site_type_symbol
_atom_site_label
_atom_site_fract_x
_atom_site_fract_y
_atom_site_fract_z
Si Si1 0.818383 0.672243 0.745999
Si Si2 0.554417 0.036178 0.752975
Si Si3 0.054782 0.988578 0.669889
Si Si4 0.744994 0.943857 0.050533
Si Si5 0.901380 0.287965 0.739292
Si Si6 0.177578 0.887807 0.404689
Si Si7 0.592056 0.668987 0.356363
Si Si8 0.296598 0.849550 0.051608
O O1 0.836294 0.581267 0.837990
O O2 0.851543 0.625890 0.604501
O O3 0.668982 0.731515 0.790589
O O4 0.941204 0.751381 0.754923
O O5 0.383766 0.040695 0.818313
O O6 0.653317 0.084269 0.624596
O O7 0.618202 0.095695 0.856030
O O8 0.593089 0.918062 0.753747
O O9 0.083631 0.908363 0.770901
O O10 0.091259 0.922412 0.543033
O O11 0.899231 0.041795 0.684702
O O12 0.679026 0.879289 0.952442
O O13 0.784945 0.055082 0.992541
O O14 0.853949 0.226676 0.629103
O O15 0.792011 0.241149 0.866490
O O16 0.426732 0.685423 0.434066
#
# Coordination Sequence:
#
# PCOD9245180 Si02
#       8
#     4   4   4   4   4   4   4   4
#     4  11  23  35  55  88 115 139 184 235 278 327
#     4   8  15  34  60  79 102 143 187 223 270 330
#     4  10  22  37  53  81 112 141 185 229 275 333
#     4   9  19  35  56  84 111 139 185 235 272 320
#     4  10  21  37  57  78 106 148 188 222 272 336
#     4   9  19  37  57  75 108 149 178 222 282 326
#     4   9  18  35  58  79 108 148 187 223 271 334
#     4   8  17  36  58  79 105 145 189 224 268 330
#
# _framework density 24.049544999999998
#
# number of rings (size 3 to 8) (size 9 to 14) (size 15 to 20)
#    0.000    2.750    0.000    2.250    0.000    7.500 
#    0.000    8.750    0.000    0.000    0.000    0.000 
#    0.000    0.000    0.000    0.000    0.000    0.000 
#
# Total GULP energy -178697.278307 kJ/mol
# GULP energy per Si atom -5584.289947 kJ/mol
# Density = 2.399481 g / cm^3
# Si number density = 24.049545 Si / 1000 Ang^3
#
#
#
# Elastic Constant Matrix: (Units=GPa)
#
#
# Indices 1 2 3 4 5 6 
#
# 1 30.7246 12.7526 5.5463 0.0000 -3.4682 0.0000
# 2 12.7526 137.9437 -2.4683 0.0000 -9.1609 0.0000
# 3 5.5463 -2.4683 25.0853 0.0000 -3.4057 0.0000
# 4 0.0000 0.0000 0.0000 25.5178 0.0000 3.0750
# 5 -3.4682 -9.1609 -3.4057 0.0000 22.8863 0.0000
# 6 0.0000 0.0000 0.0000 3.0750 0.0000 28.8924
#
#
#
# Elastic Compliance Matrix: (Units=1/GPa)
#
#
# Indices 1 2 3 4 5 6 
#
# 1 0.035631 -0.003238 -0.007797 0.000000 0.002943 0.000000
# 2 -0.003238 0.007775 0.001875 0.000000 0.002900 0.000000
# 3 -0.007797 0.001875 0.042574 0.000000 0.005904 0.000000
# 4 0.000000 0.000000 0.000000 0.039697 0.000000 -0.004225
# 5 0.002943 0.002900 0.005904 0.000000 0.046180 0.000000
# 6 0.000000 0.000000 0.000000 -0.004225 0.000000 0.035061
#
#
# Mechanical properties :
#
#
# Convention : Reuss Voigt Hill
#
# Bulk Modulus (GPa) = 14.77999 25.04609 19.91304
# Shear Modulus (GPa) = 20.17825 27.32084 23.74955
#
# Velocity S-wave (km/s) = 2.89974 3.37415 3.14590
# Velocity P-wave (km/s) = 4.16777 5.06131 4.63612
#
# Compressibility (1/GPa) = 0.06765907
#
# Stress axis : x y z
#
# Youngs Moduli (GPa) = 28.06550 128.61987 23.48851
#
# Poissons Ratio (x) = 0.41648 0.18314
# Poissons Ratio (y) = 0.09088 -0.04403
# Poissons Ratio (z) = 0.21883 -0.24113
#
# Static dielectric constant tensor:
#      x y z
#    x 1.980170 0.000000 0.018060 
#    y 0.000000 1.914030 0.000000 
#    z 0.018060 0.000000 1.972020 
# 
# From -- ./inp_files/29059.got.cif
#   From: 2010.05.17/outbox.cif.g08.bks.cpg/sg14_15_cif.got.tgz:29059.got - 2010.06.03 17:49:19.
