data_PCOD9245851
_publ_section_title
;
Structure prediction by ZEFSAII (Michael W. Deem and Ramdas Pophale) SiO2 
 PCOD9245851
Probable space group: P 21/C
;
_chemical_formula_sum "Si O2"
_cell_formula_units_Z 26
_cell_length_a 4.960655
_cell_length_b 20.249096
_cell_length_c 9.422725
_cell_angle_alpha 90.000000
_cell_angle_beta 104.566443
_cell_angle_gamma 90.000000
_cell_volume 916.077491
_symmetry_space_group_name_H-M "P 21/C"
_symmetry_group_IT_number 14
_symmetry_cell_setting 'monoclinic'
loop_
_space_group_symop_operation_xyz
x,y,z
-x,1/2+y,1/2-z
-x,-y,-z
x,1/2-y,1/2+z
loop_
_atom_site_type_symbol
_atom_site_label
_atom_site_fract_x
_atom_site_fract_y
_atom_site_fract_z
Si Si1 0.935097 0.228702 0.043845
Si Si2 0.002101 0.448134 0.757554
Si Si3 0.763599 0.186188 0.311478
Si Si4 0.797228 0.901428 0.996658
Si Si5 0.510218 0.606287 0.000943
Si Si6 0.000000 0.500000 0.000000
Si Si7 0.378936 0.627028 0.667769
O O1 0.826584 0.235647 0.188464
O O2 0.179934 0.174611 0.060784
O O3 0.987552 0.295119 0.964307
O O4 0.683014 0.198838 0.912827
O O5 0.164854 0.448575 0.633261
O O6 0.842803 0.504930 0.815792
O O7 0.824532 0.381611 0.733176
O O8 0.216210 0.438114 0.923256
O O9 0.510009 0.162723 0.379437
O O10 0.541891 0.910160 0.064757
O O11 0.073295 0.903946 0.128219
O O12 0.240136 0.560662 0.986499
O O13 0.507615 0.630456 0.839346
#
# Coordination Sequence:
#
# PCOD9245851 Si02
#       7
#     4   4   4   4   4   2   4
#     4   9  22  35  63  95 134 162 218 245 340 384
#     4   9  21  40  64  87 128 166 220 263 327 372
#     4  11  20  39  63  96 123 179 199 276 312 406
#     4   9  21  40  62  92 137 167 209 265 325 388
#     4  10  22  38  65  87 130 163 227 262 326 373
#     4   8  22  42  60  94 116 174 226 274 316 388
#     4  10  21  39  63  95 135 167 212 267 320 395
#
# _framework density 28.381875000000001
#
# number of rings (size 3 to 8) (size 9 to 14) (size 15 to 20)
#    1.846    0.615    0.000    1.846    2.154    1.846 
#    0.000    4.615    0.000    0.000    0.000    0.000 
#    0.000    0.000    0.000    0.000    0.000    0.000 
#
# Total GULP energy -144865.670693 kJ/mol
# GULP energy per Si atom -5571.756565 kJ/mol
# Density = 2.831728 g / cm^3
# Si number density = 28.381875 Si / 1000 Ang^3
#
#
#
# Elastic Constant Matrix: (Units=GPa)
#
#
# Indices 1 2 3 4 5 6 
#
# 1 76.6181 1.5521 48.1068 0.0000 -17.5379 0.0000
# 2 1.5521 66.4537 19.2901 0.0000 -2.6889 0.0000
# 3 48.1068 19.2901 237.2980 0.0000 -17.0404 0.0000
# 4 0.0000 0.0000 0.0000 50.5497 0.0000 -4.7211
# 5 -17.5379 -2.6889 -17.0404 0.0000 55.9491 0.0000
# 6 0.0000 0.0000 0.0000 -4.7211 0.0000 31.2204
#
#
#
# Elastic Compliance Matrix: (Units=1/GPa)
#
#
# Indices 1 2 3 4 5 6 
#
# 1 0.015840 0.000658 -0.002971 0.000000 0.004092 0.000000
# 2 0.000658 0.015446 -0.001350 0.000000 0.000537 0.000000
# 3 -0.002971 -0.001350 0.004963 0.000000 0.000515 0.000000
# 4 0.000000 0.000000 0.000000 0.020066 0.000000 0.003034
# 5 0.004092 0.000537 0.000515 0.000000 0.019339 0.000000
# 6 0.000000 0.000000 0.000000 0.003034 0.000000 0.032489
#
#
# Mechanical properties :
#
#
# Convention : Reuss Voigt Hill
#
# Bulk Modulus (GPa) = 34.57413 57.58531 46.07972
# Shear Modulus (GPa) = 39.96417 48.30524 44.13471
#
# Velocity S-wave (km/s) = 3.75652 4.12998 3.94767
# Velocity P-wave (km/s) = 5.56987 6.56321 6.08684
#
# Compressibility (1/GPa) = 0.02892336
#
# Stress axis : x y z
#
# Youngs Moduli (GPa) = 63.12933 64.73978 201.48311
#
# Poissons Ratio (x) = -0.04260 0.59859
# Poissons Ratio (y) = -0.04154 0.27210
# Poissons Ratio (z) = 0.18755 0.08743
#
# Static dielectric constant tensor:
#      x y z
#    x 2.273130 0.000000 -0.012040 
#    y 0.000000 2.749910 0.000000 
#    z -0.012040 0.000000 2.224470 
# 
# From -- ./inp_files/6437.got.cif
#   From: 2010.05.17/outbox.cif.g08.bks.cpg/sg14_4_cif.got.tgz:6437.got - 2010.06.03 17:49:19.
