data_PCOD9245684
_publ_section_title
;
Structure prediction by ZEFSAII (Michael W. Deem and Ramdas Pophale) SiO2 
 PCOD9245684
Probable space group: P 21/C
;
_chemical_formula_sum "Si O2"
_cell_formula_units_Z 26
_cell_length_a 10.763621
_cell_length_b 14.956601
_cell_length_c 19.131966
_cell_angle_alpha 90.000000
_cell_angle_beta 161.586564
_cell_angle_gamma 90.000000
_cell_volume 972.884773
_symmetry_space_group_name_H-M "P 21/C"
_symmetry_group_IT_number 14
_symmetry_cell_setting 'monoclinic'
loop_
_space_group_symop_operation_xyz
x,y,z
-x,1/2+y,1/2-z
-x,-y,-z
x,1/2-y,1/2+z
loop_
_atom_site_type_symbol
_atom_site_label
_atom_site_fract_x
_atom_site_fract_y
_atom_site_fract_z
Si Si1 0.428329 0.490225 0.801982
Si Si2 0.500000 0.500000 0.000000
Si Si3 0.314662 0.373828 0.400966
Si Si4 0.613255 0.370236 0.775667
Si Si5 0.619166 0.006984 0.945333
Si Si6 0.821598 0.817804 0.632198
Si Si7 0.264247 0.680637 0.702471
O O1 0.583470 0.412471 0.835839
O O2 0.434864 0.586686 0.765380
O O3 0.971591 0.469317 0.580686
O O4 0.615905 0.505427 0.977574
O O5 0.634898 0.606913 0.081257
O O6 0.154722 0.450219 0.370044
O O7 0.405559 0.415033 0.373881
O O8 0.108328 0.278508 0.293951
O O9 0.752751 0.353016 0.663108
O O10 0.701444 0.450051 0.768720
O O11 0.802914 0.272838 0.874604
O O12 0.174407 0.348015 0.512886
O O13 0.533019 0.801333 0.413055
#
# Coordination Sequence:
#
# PCOD9245684 Si02
#       7
#     4   2   4   4   4   4   4
#     4  10  22  44  66  91 132 173 212 271 324 390
#     4  10  22  42  66  92 132 168 226 262 330 386
#     4  11  23  36  63  96 132 169 224 272 328 386
#     4  11  22  43  68  93 131 174 217 269 329 394
#     4  10  21  39  62  93 125 174 218 265 330 389
#     4  11  22  38  64  96 129 176 222 278 319 393
#     4  10  21  38  70  91 125 174 219 258 328 394
#
# _framework density 26.724644999999999
#
# number of rings (size 3 to 8) (size 9 to 14) (size 15 to 20)
#    0.000    1.538    3.077    2.769    4.308    0.000 
#    5.538    0.769    6.769    0.000    0.000    0.000 
#    0.000    0.000    0.000    0.000    0.000    0.000 
#
# Total GULP energy -145106.921533 kJ/mol
# GULP energy per Si atom -5581.035444 kJ/mol
# Density = 2.666382 g / cm^3
# Si number density = 26.724645 Si / 1000 Ang^3
#
#
#
# Elastic Constant Matrix: (Units=GPa)
#
#
# Indices 1 2 3 4 5 6 
#
# 1 125.3902 104.1735 10.8913 0.0000 -27.8173 0.0000
# 2 104.1735 201.3832 -1.7098 0.0000 -11.3561 0.0000
# 3 10.8913 -1.7098 67.6206 0.0000 -8.4313 0.0000
# 4 0.0000 0.0000 0.0000 14.1822 0.0000 6.0076
# 5 -27.8173 -11.3561 -8.4313 0.0000 29.0580 0.0000
# 6 0.0000 0.0000 0.0000 6.0076 0.0000 73.2460
#
#
#
# Elastic Compliance Matrix: (Units=1/GPa)
#
#
# Indices 1 2 3 4 5 6 
#
# 1 0.018469 -0.008787 -0.001474 0.000000 0.013819 0.000000
# 2 -0.008787 0.009268 0.001092 0.000000 -0.004473 0.000000
# 3 -0.001474 0.001092 0.015491 0.000000 0.003511 0.000000
# 4 0.000000 0.000000 0.000000 0.073049 0.000000 -0.005991
# 5 0.013819 -0.004473 0.003511 0.000000 0.046913 0.000000
# 6 0.000000 0.000000 0.000000 -0.005991 0.000000 0.014144
#
#
# Mechanical properties :
#
#
# Convention : Reuss Voigt Hill
#
# Bulk Modulus (GPa) = 40.17656 69.01157 54.59406
# Shear Modulus (GPa) = 24.51351 42.03319 33.27335
#
# Velocity S-wave (km/s) = 3.03192 3.97019 3.53235
# Velocity P-wave (km/s) = 5.22713 6.84805 6.09174
#
# Compressibility (1/GPa) = 0.02489014
#
# Stress axis : x y z
#
# Youngs Moduli (GPa) = 54.14463 107.89604 64.55314
#
# Poissons Ratio (x) = 0.94810 0.09515
# Poissons Ratio (y) = 0.47578 -0.07049
# Poissons Ratio (z) = 0.07980 -0.11781
#
# Static dielectric constant tensor:
#      x y z
#    x 2.071250 0.000000 0.040890 
#    y 0.000000 2.184850 0.000000 
#    z 0.040890 0.000000 1.845260 
# 
# From -- ./inp_files/67526.got.cif
#   From: 2010.05.17/outbox.cif.g08.bks.cpg/sg14_34_cif.got.tgz:67526.got - 2010.06.03 17:49:19.
