data_PCOD9245583
_publ_section_title
;
Structure prediction by ZEFSAII (Michael W. Deem and Ramdas Pophale) SiO2 
 PCOD9245583
Probable space group: P 21/C
;
_chemical_formula_sum "Si O2"
_cell_formula_units_Z 32
_cell_length_a 11.644383
_cell_length_b 17.350827
_cell_length_c 13.939928
_cell_angle_alpha 90.000000
_cell_angle_beta 147.783874
_cell_angle_gamma 90.000000
_cell_volume 1501.473320
_symmetry_space_group_name_H-M "P 21/C"
_symmetry_group_IT_number 14
_symmetry_cell_setting 'monoclinic'
loop_
_space_group_symop_operation_xyz
x,y,z
-x,1/2+y,1/2-z
-x,-y,-z
x,1/2-y,1/2+z
loop_
_atom_site_type_symbol
_atom_site_label
_atom_site_fract_x
_atom_site_fract_y
_atom_site_fract_z
Si Si1 0.359766 0.389449 0.838704
Si Si2 0.790173 0.113998 0.758104
Si Si3 0.319753 0.211573 0.762203
Si Si4 0.884284 0.288093 0.833037
Si Si5 0.442417 0.601522 0.708367
Si Si6 0.175222 0.139895 0.400921
Si Si7 0.759289 0.551093 0.447177
Si Si8 0.605637 0.691462 0.468399
O O1 0.373104 0.301694 0.810067
O O2 0.179825 0.387437 0.794996
O O3 0.315764 0.441443 0.716526
O O4 0.581083 0.407497 0.049482
O O5 0.866931 0.200023 0.784747
O O6 0.723298 0.120675 0.822659
O O7 0.983930 0.056407 0.875661
O O8 0.495786 0.168872 0.821192
O O9 0.084620 0.205410 0.547645
O O10 0.322404 0.177497 0.871032
O O11 0.653135 0.305551 0.714316
O O12 0.949409 0.343959 0.791513
O O13 0.347522 0.526544 0.590289
O O14 0.670076 0.586783 0.924752
O O15 0.297763 0.223931 0.488331
O O16 0.682650 0.625243 0.452232
#
# Coordination Sequence:
#
# PCOD9245583 Si02
#       8
#     4   4   4   4   4   4   4   4
#     4  10  21  38  64  90 116 159 201 254 306 349
#     4  11  21  38  63  94 119 149 210 254 298 371
#     4  10  21  40  62  91 115 163 203 255 302 349
#     4  11  19  38  64  91 117 146 202 262 297 351
#     4  10  22  40  61  87 130 161 200 246 308 371
#     4   9  19  38  58  88 118 148 203 255 292 360
#     4  12  24  40  58  89 131 166 193 251 307 360
#     4  11  22  39  60  90 119 155 209 252 294 358
#
# _framework density 21.312398999999999
#
# number of rings (size 3 to 8) (size 9 to 14) (size 15 to 20)
#    0.000    1.500    6.250    1.125    0.000    4.500 
#    0.000    5.000    0.000    0.000    0.000    0.000 
#    0.000    0.000    0.000    0.000    0.000    0.000 
#
# Total GULP energy -178916.199042 kJ/mol
# GULP energy per Si atom -5591.131220 kJ/mol
# Density = 2.126389 g / cm^3
# Si number density = 21.312399 Si / 1000 Ang^3
#
#
#
# Elastic Constant Matrix: (Units=GPa)
#
#
# Indices 1 2 3 4 5 6 
#
# 1 81.3461 24.1587 37.1853 0.0000 7.6573 0.0000
# 2 24.1587 54.5692 22.6718 0.0000 7.2928 0.0000
# 3 37.1853 22.6718 101.3838 0.0000 0.8240 0.0000
# 4 0.0000 0.0000 0.0000 27.7188 0.0000 -1.6954
# 5 7.6573 7.2928 0.8240 0.0000 35.5935 0.0000
# 6 0.0000 0.0000 0.0000 -1.6954 0.0000 47.2316
#
#
#
# Elastic Compliance Matrix: (Units=1/GPa)
#
#
# Indices 1 2 3 4 5 6 
#
# 1 0.016158 -0.004831 -0.004827 0.000000 -0.002375 0.000000
# 2 -0.004831 0.022243 -0.003174 0.000000 -0.003445 0.000000
# 3 -0.004827 -0.003174 0.012332 0.000000 0.001403 0.000000
# 4 0.000000 0.000000 0.000000 0.036156 0.000000 0.001298
# 5 -0.002375 -0.003445 0.001403 0.000000 0.029279 0.000000
# 6 0.000000 0.000000 0.000000 0.001298 0.000000 0.021219
#
#
# Mechanical properties :
#
#
# Convention : Reuss Voigt Hill
#
# Bulk Modulus (GPa) = 39.88861 45.03674 42.46267
# Shear Modulus (GPa) = 29.17032 32.32769 30.74900
#
# Velocity S-wave (km/s) = 3.70361 3.89890 3.80251
# Velocity P-wave (km/s) = 6.08652 6.43787 6.26466
#
# Compressibility (1/GPa) = 0.02506981
#
# Stress axis : x y z
#
# Youngs Moduli (GPa) = 61.88987 44.95764 81.08786
#
# Poissons Ratio (x) = 0.21717 0.39139
# Poissons Ratio (y) = 0.29896 0.25740
# Poissons Ratio (z) = 0.29873 0.14271
#
# Static dielectric constant tensor:
#      x y z
#    x 1.772860 0.000000 -0.014110 
#    y 0.000000 1.874050 0.000000 
#    z -0.014110 0.000000 1.782780 
# 
# From -- ./inp_files/45455.got.cif
#   From: 2010.05.17/outbox.cif.g08.bks.cpg/sg14_23_cif.got.tgz:45455.got - 2010.06.03 17:49:19.
