data_PCOD9245732
_publ_section_title
;
Structure prediction by ZEFSAII (Michael W. Deem and Ramdas Pophale) SiO2 
 PCOD9245732
Probable space group: P 21/C
;
_chemical_formula_sum "Si O2"
_cell_formula_units_Z 28
_cell_length_a 13.834020
_cell_length_b 11.480864
_cell_length_c 10.574230
_cell_angle_alpha 90.000000
_cell_angle_beta 43.841537
_cell_angle_gamma 90.000000
_cell_volume 1163.310756
_symmetry_space_group_name_H-M "P 21/C"
_symmetry_group_IT_number 14
_symmetry_cell_setting 'monoclinic'
loop_
_space_group_symop_operation_xyz
x,y,z
-x,1/2+y,1/2-z
-x,-y,-z
x,1/2-y,1/2+z
loop_
_atom_site_type_symbol
_atom_site_label
_atom_site_fract_x
_atom_site_fract_y
_atom_site_fract_z
Si Si1 0.699641 0.479540 0.692465
Si Si2 0.782715 0.464816 0.225470
Si Si3 0.896627 0.809679 0.014101
Si Si4 0.981134 0.856386 0.658282
Si Si5 0.598743 0.049523 0.562140
Si Si6 0.678742 0.289216 0.514324
Si Si7 0.360523 0.360857 0.800257
O O1 0.828563 0.563465 0.599055
O O2 0.567246 0.547034 0.753481
O O3 0.733911 0.370114 0.574043
O O4 0.630089 0.433096 0.885901
O O5 0.846855 0.558138 0.265007
O O6 0.748407 0.344066 0.325235
O O7 0.654537 0.532201 0.283333
O O8 0.896701 0.438630 0.010418
O O9 0.964309 0.750673 0.074324
O O10 0.764792 0.726389 0.106592
O O11 0.986644 0.817131 0.799301
O O12 0.682949 0.154617 0.544554
O O13 0.653170 0.923174 0.551287
O O14 0.512981 0.307932 0.650275
#
# Coordination Sequence:
#
# PCOD9245732 Si02
#       7
#     4   4   4   4   4   4   4
#     4  10  21  39  60  89 131 164 210 258 321 386
#     4  10  22  41  59  90 123 167 216 260 308 385
#     4  11  20  43  67  95 124 177 213 265 324 388
#     4  10  23  40  68  87 128 168 220 262 313 377
#     4  10  22  37  57  96 129 162 204 265 319 389
#     4  11  21  38  62  91 127 169 201 264 327 379
#     4  10  22  38  63  94 127 163 212 262 323 384
#
# _framework density 24.069237000000001
#
# number of rings (size 3 to 8) (size 9 to 14) (size 15 to 20)
#    0.000    1.714    2.857    1.286    2.000    1.143 
#    0.000    0.000    0.000    5.143    0.000    0.000 
#    0.000    0.000    0.000    0.000    0.000    0.000 
#
# Total GULP energy -156534.532000 kJ/mol
# GULP energy per Si atom -5590.519000 kJ/mol
# Density = 2.401445 g / cm^3
# Si number density = 24.069237 Si / 1000 Ang^3
#
#
#
# Elastic Constant Matrix: (Units=GPa)
#
#
# Indices 1 2 3 4 5 6 
#
# 1 45.6227 7.0914 -4.3095 0.0000 -4.4524 0.0000
# 2 7.0914 75.5828 5.0415 0.0000 -6.4887 0.0000
# 3 -4.3095 5.0415 73.5707 0.0000 9.0505 0.0000
# 4 0.0000 0.0000 0.0000 29.1672 0.0000 5.7848
# 5 -4.4524 -6.4887 9.0505 0.0000 19.4229 0.0000
# 6 0.0000 0.0000 0.0000 5.7848 0.0000 31.1923
#
#
#
# Elastic Compliance Matrix: (Units=1/GPa)
#
#
# Indices 1 2 3 4 5 6 
#
# 1 0.022699 -0.001836 0.000945 0.000000 0.004149 0.000000
# 2 -0.001836 0.013946 -0.001681 0.000000 0.005021 0.000000
# 3 0.000945 -0.001681 0.014645 0.000000 -0.007169 0.000000
# 4 0.000000 0.000000 0.000000 0.035594 0.000000 -0.006601
# 5 0.004149 0.005021 -0.007169 0.000000 0.057455 0.000000
# 6 0.000000 0.000000 0.000000 -0.006601 0.000000 0.033283
#
#
# Mechanical properties :
#
#
# Convention : Reuss Voigt Hill
#
# Bulk Modulus (GPa) = 21.67102 23.38034 22.52568
# Shear Modulus (GPa) = 25.23362 28.42000 26.82681
#
# Velocity S-wave (km/s) = 3.24138 3.43995 3.34214
# Velocity P-wave (km/s) = 4.79915 5.05099 4.92668
#
# Compressibility (1/GPa) = 0.04614457
#
# Stress axis : x y z
#
# Youngs Moduli (GPa) = 44.05564 71.70510 68.28359
#
# Poissons Ratio (x) = 0.13168 -0.06453
# Poissons Ratio (y) = 0.08091 0.11478
# Poissons Ratio (z) = -0.04163 0.12053
#
# Static dielectric constant tensor:
#      x y z
#    x 1.983140 0.000000 0.002860 
#    y 0.000000 1.922160 0.000000 
#    z 0.002860 0.000000 1.901380 
# 
# From -- ./inp_files/33799.got.cif
#   From: 2010.05.17/outbox.cif.g08.bks.cpg/sg14_17_cif.got.tgz:33799.got - 2010.06.03 17:49:19.
