data_PCOD9245940
_publ_section_title
;
Structure prediction by ZEFSAII (Michael W. Deem and Ramdas Pophale) SiO2 
 PCOD9245940
Probable space group: P 21/C
;
_chemical_formula_sum "Si O2"
_cell_formula_units_Z 32
_cell_length_a 17.958848
_cell_length_b 14.398842
_cell_length_c 11.888345
_cell_angle_alpha 90.000000
_cell_angle_beta 29.923682
_cell_angle_gamma 90.000000
_cell_volume 1533.535889
_symmetry_space_group_name_H-M "P 21/C"
_symmetry_group_IT_number 14
_symmetry_cell_setting 'monoclinic'
loop_
_space_group_symop_operation_xyz
x,y,z
-x,1/2+y,1/2-z
-x,-y,-z
x,1/2-y,1/2+z
loop_
_atom_site_type_symbol
_atom_site_label
_atom_site_fract_x
_atom_site_fract_y
_atom_site_fract_z
Si Si1 0.321358 0.345262 0.055689
Si Si2 0.044392 0.317868 0.567820
Si Si3 0.331705 0.010367 0.175975
Si Si4 0.859756 0.148714 0.085639
Si Si5 0.574868 0.465221 0.015693
Si Si6 0.131352 0.362655 0.089039
Si Si7 0.784922 0.157334 0.573032
Si Si8 0.520519 0.653141 0.667699
O O1 0.202044 0.356925 0.314037
O O2 0.407792 0.442694 0.930347
O O3 0.229555 0.323277 0.062921
O O4 0.427488 0.256773 0.929855
O O5 0.086015 0.216842 0.561171
O O6 0.939816 0.316586 0.594554
O O7 0.940011 0.361920 0.802896
O O8 0.228967 0.060799 0.401396
O O9 0.254457 0.909978 0.270332
O O10 0.356758 0.081528 0.042067
O O11 0.500000 0.000000 0.000000
O O12 0.736367 0.075049 0.277875
O O13 0.794920 0.237758 0.105017
O O14 0.982900 0.102216 0.844313
O O15 0.500000 0.500000 0.000000
O O16 0.494378 0.380118 0.184407
O O17 0.644417 0.143444 0.672419
#
# Coordination Sequence:
#
# PCOD9245940 Si02
#       8
#     4   4   4   4   4   4   4   4
#     4  11  24  40  69  96 133 180 220 284 339 404
#     4  10  21  42  66  93 135 173 229 270 343 394
#     4  10  21  39  65  97 126 171 225 269 340 408
#     4  10  23  42  66  99 135 176 228 283 334 406
#     4  12  27  44  68 105 135 178 228 279 344 406
#     4  10  22  40  67  96 131 175 228 273 342 400
#     4  10  21  41  68  92 133 181 218 280 340 401
#     4  11  23  43  65  97 135 172 223 278 337 411
#
# _framework density 20.866807999999999
#
# number of rings (size 3 to 8) (size 9 to 14) (size 15 to 20)
#    0.000    1.500    2.500    2.250    3.500    4.000 
#    4.500    0.625    0.000    0.000    0.000    0.000 
#    0.000    0.000    0.000    0.000    0.000    0.000 
#
# Total GULP energy -178493.409883 kJ/mol
# GULP energy per Si atom -5577.919059 kJ/mol
# Density = 2.081931 g / cm^3
# Si number density = 20.866808 Si / 1000 Ang^3
#
#
#
# Elastic Constant Matrix: (Units=GPa)
#
#
# Indices 1 2 3 4 5 6 
#
# 1 52.3099 13.5819 9.2418 0.0000 -2.0078 0.0000
# 2 13.5819 86.3529 53.0659 0.0000 -6.1351 0.0000
# 3 9.2418 53.0659 106.3942 0.0000 0.5506 0.0000
# 4 0.0000 0.0000 0.0000 40.1267 0.0000 -2.9787
# 5 -2.0078 -6.1351 0.5506 0.0000 18.5330 0.0000
# 6 0.0000 0.0000 0.0000 -2.9787 0.0000 21.4867
#
#
#
# Elastic Compliance Matrix: (Units=1/GPa)
#
#
# Indices 1 2 3 4 5 6 
#
# 1 0.019962 -0.002860 -0.000314 0.000000 0.001225 0.000000
# 2 -0.002860 0.017750 -0.008635 0.000000 0.005823 0.000000
# 3 -0.000314 -0.008635 0.013750 0.000000 -0.003301 0.000000
# 4 0.000000 0.000000 0.000000 0.025180 0.000000 0.003491
# 5 0.001225 0.005823 -0.003301 0.000000 0.056116 0.000000
# 6 0.000000 0.000000 0.000000 0.003491 0.000000 0.047024
#
#
# Mechanical properties :
#
#
# Convention : Reuss Voigt Hill
#
# Bulk Modulus (GPa) = 35.91303 44.09288 40.00296
# Shear Modulus (GPa) = 23.50929 27.30711 25.40820
#
# Velocity S-wave (km/s) = 3.36018 3.62144 3.49325
# Velocity P-wave (km/s) = 5.68352 6.21795 5.95673
#
# Compressibility (1/GPa) = 0.02784504
#
# Stress axis : x y z
#
# Youngs Moduli (GPa) = 50.09560 56.33722 72.72618
#
# Poissons Ratio (x) = 0.16111 0.02284
# Poissons Ratio (y) = 0.14326 0.62799
# Poissons Ratio (z) = 0.01573 0.48647
#
# Static dielectric constant tensor:
#      x y z
#    x 1.737370 0.000000 0.019900 
#    y 0.000000 1.711720 0.000000 
#    z 0.019900 0.000000 1.777490 
# 
# From -- ./inp_files/34221.got.cif
#   From: 2010.05.17/outbox.cif.g08.bks.cpg/sg14_18_cif.got.tgz:34221.got - 2010.06.03 17:49:19.
