data_PCOD9245733
_publ_section_title
;
Structure prediction by ZEFSAII (Michael W. Deem and Ramdas Pophale) SiO2 
 PCOD9245733
Probable space group: P 21/C
;
_chemical_formula_sum "Si O2"
_cell_formula_units_Z 32
_cell_length_a 24.536993
_cell_length_b 8.253677
_cell_length_c 14.539783
_cell_angle_alpha 90.000000
_cell_angle_beta 151.065623
_cell_angle_gamma 90.000000
_cell_volume 1424.621159
_symmetry_space_group_name_H-M "P 21/C"
_symmetry_group_IT_number 14
_symmetry_cell_setting 'monoclinic'
loop_
_space_group_symop_operation_xyz
x,y,z
-x,1/2+y,1/2-z
-x,-y,-z
x,1/2-y,1/2+z
loop_
_atom_site_type_symbol
_atom_site_label
_atom_site_fract_x
_atom_site_fract_y
_atom_site_fract_z
Si Si1 0.968120 0.097205 0.196357
Si Si2 0.799740 0.316377 0.293977
Si Si3 0.563216 0.173181 0.961538
Si Si4 0.589920 0.684470 0.419539
Si Si5 0.958936 0.168070 0.397125
Si Si6 0.427648 0.163552 0.408557
Si Si7 0.184905 0.187482 0.238341
Si Si8 0.827072 0.768376 0.983178
O O1 0.952125 0.157978 0.277286
O O2 0.100418 0.122262 0.365680
O O3 0.892911 0.191242 0.011246
O O4 0.915346 0.917408 0.117502
O O5 0.841603 0.214295 0.269135
O O6 0.789740 0.501487 0.245742
O O7 0.683606 0.250466 0.159783
O O8 0.502654 0.279264 0.793398
O O9 0.488610 0.193158 0.942390
O O10 0.579428 0.995283 0.943996
O O11 0.574378 0.799884 0.485711
O O12 0.712545 0.729594 0.557265
O O13 0.055213 0.293585 0.574060
O O14 0.000000 0.000000 0.500000
O O15 0.297903 0.165923 0.179882
O O16 0.500000 0.000000 0.500000
O O17 0.187335 0.282422 0.144480
#
# Coordination Sequence:
#
# PCOD9245733 Si02
#       8
#     4   4   4   4   4   4   4   4
#     4  10  21  39  60  90 128 161 205 262 317 377
#     4  11  23  40  62  90 126 171 213 262 329 395
#     4  12  25  42  66  94 125 171 219 270 331 399
#     4  11  24  44  65  91 126 165 217 277 331 391
#     4  11  22  37  62  95 125 164 213 263 322 391
#     4  11  23  43  67  95 131 171 217 268 328 397
#     4   9  20  41  61  85 123 162 209 267 323 390
#     4   9  20  38  63  90 122 165 204 255 319 380
#
# _framework density 22.462112999999999
#
# number of rings (size 3 to 8) (size 9 to 14) (size 15 to 20)
#    0.000    1.500    0.000    6.000    0.000    7.000 
#    0.000    6.250    0.000    0.000    0.000    0.000 
#    0.000    0.000    0.000    0.000    0.000    0.000 
#
# Total GULP energy -178696.274924 kJ/mol
# GULP energy per Si atom -5584.258591 kJ/mol
# Density = 2.241099 g / cm^3
# Si number density = 22.462113 Si / 1000 Ang^3
#
#
#
# Elastic Constant Matrix: (Units=GPa)
#
#
# Indices 1 2 3 4 5 6 
#
# 1 62.3946 -2.8601 31.9903 0.0000 -5.5108 0.0000
# 2 -2.8601 64.7602 24.9178 0.0000 8.8737 0.0000
# 3 31.9903 24.9178 113.5323 0.0000 18.4360 0.0000
# 4 0.0000 0.0000 0.0000 25.1236 0.0000 4.9516
# 5 -5.5108 8.8737 18.4360 0.0000 43.2453 0.0000
# 6 0.0000 0.0000 0.0000 4.9516 0.0000 27.8801
#
#
#
# Elastic Compliance Matrix: (Units=1/GPa)
#
#
# Indices 1 2 3 4 5 6 
#
# 1 0.020295 0.002972 -0.007189 0.000000 0.005041 0.000000
# 2 0.002972 0.017467 -0.004459 0.000000 -0.001304 0.000000
# 3 -0.007189 -0.004459 0.012691 0.000000 -0.005412 0.000000
# 4 0.000000 0.000000 0.000000 0.041247 0.000000 -0.007326
# 5 0.005041 -0.001304 -0.005412 0.000000 0.026341 0.000000
# 6 0.000000 0.000000 0.000000 -0.007326 0.000000 0.037169
#
#
# Mechanical properties :
#
#
# Convention : Reuss Voigt Hill
#
# Bulk Modulus (GPa) = 30.21182 38.75366 34.48274
# Shear Modulus (GPa) = 27.23357 31.69240 29.46299
#
# Velocity S-wave (km/s) = 3.48576 3.76031 3.62563
# Velocity P-wave (km/s) = 5.44794 6.01195 5.73688
#
# Compressibility (1/GPa) = 0.03309963
#
# Stress axis : x y z
#
# Youngs Moduli (GPa) = 49.27436 57.24964 78.79423
#
# Poissons Ratio (x) = -0.17013 0.56648
# Poissons Ratio (y) = -0.14643 0.35136
# Poissons Ratio (z) = 0.35425 0.25529
#
# Static dielectric constant tensor:
#      x y z
#    x 1.822600 0.000000 -0.008120 
#    y 0.000000 1.858750 0.000000 
#    z -0.008120 0.000000 1.792980 
# 
# From -- ./inp_files/51275.got.cif
#   From: 2010.05.17/outbox.cif.g08.bks.cpg/sg14_26_cif.got.tgz:51275.got - 2010.06.03 17:49:19.
