data_PCOD9245443
_publ_section_title
;
Structure prediction by ZEFSAII (Michael W. Deem and Ramdas Pophale) SiO2 
 PCOD9245443
Probable space group: P 21/C
;
_chemical_formula_sum "Si O2"
_cell_formula_units_Z 28
_cell_length_a 14.288934
_cell_length_b 12.609365
_cell_length_c 7.210972
_cell_angle_alpha 90.000000
_cell_angle_beta 55.943981
_cell_angle_gamma 90.000000
_cell_volume 1076.401662
_symmetry_space_group_name_H-M "P 21/C"
_symmetry_group_IT_number 14
_symmetry_cell_setting 'monoclinic'
loop_
_space_group_symop_operation_xyz
x,y,z
-x,1/2+y,1/2-z
-x,-y,-z
x,1/2-y,1/2+z
loop_
_atom_site_type_symbol
_atom_site_label
_atom_site_fract_x
_atom_site_fract_y
_atom_site_fract_z
Si Si1 0.600503 0.157310 0.287849
Si Si2 0.100503 0.657310 0.287849
Si Si3 0.653179 0.390811 0.135964
Si Si4 0.750000 0.710404 0.750000
Si Si5 0.117523 0.118506 0.215976
Si Si6 0.846821 0.109189 0.864036
Si Si7 0.382476 0.381494 0.784024
O O1 0.620683 0.284092 0.278610
O O2 0.589039 0.111522 0.508051
O O3 0.715829 0.115452 0.067195
O O4 0.495278 0.133320 0.275364
O O5 0.089039 0.611522 0.508051
O O6 0.995278 0.633321 0.275364
O O7 0.215829 0.615453 0.067194
O O8 0.120683 0.784092 0.278610
O O9 0.626039 0.498367 0.272880
O O10 0.779628 0.638072 0.543591
O O11 0.855933 0.788935 0.667817
O O12 0.644067 0.788935 0.832183
O O13 0.720372 0.638072 0.956409
O O14 0.126039 0.998367 0.272880
#
# Coordination Sequence:
#
# PCOD9245443 Si02
#       7
#     4   4   4   4   4   4   4
#     4  10  21  38  60  86 115 151 194 234 282 343
#     4  10  21  38  60  86 115 151 194 234 282 343
#     4  10  22  38  60  88 116 149 193 235 283 343
#     4  10  24  38  58  90 114 148 202 228 278 360
#     4  11  22  41  60  83 119 154 186 241 288 330
#     4  10  22  38  60  88 116 149 193 235 283 343
#     4  11  22  41  60  83 119 154 186 241 288 330
#
# _framework density 26.012595000000001
#
# number of rings (size 3 to 8) (size 9 to 14) (size 15 to 20)
#    0.000    1.714    0.000    4.286    0.000    9.143 
#    0.000    4.286    0.000    0.000    0.000    0.000 
#    0.000    0.000    0.000    0.000    0.000    0.000 
#
# Total GULP energy -157103.535175 kJ/mol
# GULP energy per Si atom -5610.840542 kJ/mol
# Density = 2.595339 g / cm^3
# Si number density = 26.012595 Si / 1000 Ang^3
#
#
#
# Elastic Constant Matrix: (Units=GPa)
#
#
# Indices 1 2 3 4 5 6 
#
# 1 158.3867 16.6185 -3.4066 0.0000 0.0578 0.0000
# 2 16.6185 164.7352 10.5779 0.0000 -10.1771 0.0000
# 3 -3.4066 10.5779 63.2701 0.0000 1.8092 0.0000
# 4 0.0000 0.0000 0.0000 12.0433 0.0000 10.2403
# 5 0.0578 -10.1771 1.8092 0.0000 26.6972 0.0000
# 6 0.0000 0.0000 0.0000 10.2403 0.0000 21.7152
#
#
#
# Elastic Compliance Matrix: (Units=1/GPa)
#
#
# Indices 1 2 3 4 5 6 
#
# 1 0.006397 -0.000695 0.000469 0.000000 -0.000310 0.000000
# 2 -0.000695 0.006371 -0.001174 0.000000 0.002510 0.000000
# 3 0.000469 -0.001174 0.016071 0.000000 -0.001538 0.000000
# 4 0.000000 0.000000 0.000000 0.138616 0.000000 -0.065367
# 5 -0.000310 0.002510 -0.001538 0.000000 0.038519 0.000000
# 6 0.000000 0.000000 0.000000 -0.065367 0.000000 0.076876
#
#
# Mechanical properties :
#
#
# Convention : Reuss Voigt Hill
#
# Bulk Modulus (GPa) = 38.40324 48.21906 43.31115
# Shear Modulus (GPa) = 16.98785 36.26460 26.62623
#
# Velocity S-wave (km/s) = 2.55828 3.73784 3.20283
# Velocity P-wave (km/s) = 4.84993 6.09964 5.51033
#
# Compressibility (1/GPa) = 0.02603947
#
# Stress axis : x y z
#
# Youngs Moduli (GPa) = 156.32929 156.96443 62.22456
#
# Poissons Ratio (x) = 0.10903 -0.02921
# Poissons Ratio (y) = 0.10859 0.07307
# Poissons Ratio (z) = -0.07338 0.18432
#
# Static dielectric constant tensor:
#      x y z
#    x 2.039070 0.000000 -0.001670 
#    y 0.000000 1.987180 0.000000 
#    z -0.001670 0.000000 2.003440 
# 
# From -- ./inp_files/15448.got.cif
#   From: 2010.05.17/outbox.cif.g08.bks.cpg/sg14_8_cif.got.tgz:15448.got - 2010.06.03 17:49:19.
