data_PCOD9245859
_publ_section_title
;
Structure prediction by ZEFSAII (Michael W. Deem and Ramdas Pophale) SiO2 
 PCOD9245859
Probable space group: P 21/C
;
_chemical_formula_sum "Si O2"
_cell_formula_units_Z 20
_cell_length_a 10.636927
_cell_length_b 10.483579
_cell_length_c 13.389477
_cell_angle_alpha 90.000000
_cell_angle_beta 30.845886
_cell_angle_gamma 90.000000
_cell_volume 765.558899
_symmetry_space_group_name_H-M "P 21/C"
_symmetry_group_IT_number 14
_symmetry_cell_setting 'monoclinic'
loop_
_space_group_symop_operation_xyz
x,y,z
-x,1/2+y,1/2-z
-x,-y,-z
x,1/2-y,1/2+z
loop_
_atom_site_type_symbol
_atom_site_label
_atom_site_fract_x
_atom_site_fract_y
_atom_site_fract_z
Si Si1 0.112067 0.550859 0.588965
Si Si2 0.657783 0.834618 0.955023
Si Si3 0.411955 0.360436 0.838254
Si Si4 0.115524 0.863687 0.303336
Si Si5 0.175295 0.207354 0.853140
O O1 0.142699 0.414783 0.619889
O O2 0.353159 0.567038 0.357378
O O3 0.122766 0.647029 0.677147
O O4 0.889841 0.583353 0.666522
O O5 0.601619 0.697535 0.042599
O O6 0.392377 0.904041 0.138002
O O7 0.763516 0.811312 0.773526
O O8 0.394254 0.231178 0.781399
O O9 0.150361 0.432703 0.999897
O O10 0.055524 0.746943 0.419840
#
# Coordination Sequence:
#
# PCOD9245859 Si02
#       5
#     4   4   4   4   4
#     4  12  23  39  64  91 118 158 202 243 295 355
#     4  12  23  39  64  91 118 158 202 243 295 355
#     4  10  22  40  61  85 127 154 194 247 296 348
#     4  10  21  39  64  86 120 159 193 250 299 344
#     4  10  22  40  61  85 127 154 194 247 296 348
#
# _framework density 26.124704000000001
#
# number of rings (size 3 to 8) (size 9 to 14) (size 15 to 20)
#    1.200    0.000    6.000    0.600    0.000    4.000 
#    0.000    0.000    0.000    4.800    0.000    0.000 
#    0.000    0.000    0.000    0.000    0.000    0.000 
#
# Total GULP energy -111357.920469 kJ/mol
# GULP energy per Si atom -5567.896023 kJ/mol
# Density = 2.606524 g / cm^3
# Si number density = 26.124704 Si / 1000 Ang^3
#
#
#
# Elastic Constant Matrix: (Units=GPa)
#
#
# Indices 1 2 3 4 5 6 
#
# 1 74.3767 18.1460 27.3310 0.0000 30.8240 0.0000
# 2 18.1460 48.7836 33.9308 0.0000 16.0295 0.0000
# 3 27.3310 33.9308 121.9352 0.0000 23.7993 0.0000
# 4 0.0000 0.0000 0.0000 32.1654 0.0000 13.0821
# 5 30.8240 16.0295 23.7993 0.0000 51.3111 0.0000
# 6 0.0000 0.0000 0.0000 13.0821 0.0000 37.9497
#
#
#
# Elastic Compliance Matrix: (Units=1/GPa)
#
#
# Indices 1 2 3 4 5 6 
#
# 1 0.018675 -0.002694 -0.001551 0.000000 -0.009657 0.000000
# 2 -0.002694 0.027094 -0.006157 0.000000 -0.003990 0.000000
# 3 -0.001551 -0.006157 0.010671 0.000000 -0.002094 0.000000
# 4 0.000000 0.000000 0.000000 0.036159 0.000000 -0.012465
# 5 -0.009657 -0.003990 -0.002094 0.000000 0.027508 0.000000
# 6 0.000000 0.000000 0.000000 -0.012465 0.000000 0.030648
#
#
# Mechanical properties :
#
#
# Convention : Reuss Voigt Hill
#
# Bulk Modulus (GPa) = 28.06223 44.87900 36.47061
# Shear Modulus (GPa) = 27.25728 35.33107 31.29418
#
# Velocity S-wave (km/s) = 3.23360 3.68149 3.46479
# Velocity P-wave (km/s) = 4.97057 5.94030 5.47694
#
# Compressibility (1/GPa) = 0.03563509
#
# Stress axis : x y z
#
# Youngs Moduli (GPa) = 53.54846 36.90822 93.71406
#
# Poissons Ratio (x) = 0.09944 0.14537
# Poissons Ratio (y) = 0.14428 0.57698
# Poissons Ratio (z) = 0.08306 0.22724
#
# Static dielectric constant tensor:
#      x y z
#    x 2.110610 0.000000 -0.029060 
#    y 0.000000 2.195000 0.000000 
#    z -0.029060 0.000000 1.998450 
# 
# From -- ./inp_files/44221.got.cif
#   From: 2010.05.17/outbox.cif.g08.bks.cpg/sg14_23_cif.got.tgz:44221.got - 2010.06.03 17:49:19.
