data_PCOD9245450
_publ_section_title
;
Structure prediction by ZEFSAII (Michael W. Deem and Ramdas Pophale) SiO2 
 PCOD9245450
Probable space group: P 21/C
;
_chemical_formula_sum "Si O2"
_cell_formula_units_Z 24
_cell_length_a 19.970906
_cell_length_b 9.181007
_cell_length_c 9.268886
_cell_angle_alpha 90.000000
_cell_angle_beta 136.960763
_cell_angle_gamma 90.000000
_cell_volume 1159.892320
_symmetry_space_group_name_H-M "P 21/C"
_symmetry_group_IT_number 14
_symmetry_cell_setting 'monoclinic'
loop_
_space_group_symop_operation_xyz
x,y,z
-x,1/2+y,1/2-z
-x,-y,-z
x,1/2-y,1/2+z
loop_
_atom_site_type_symbol
_atom_site_label
_atom_site_fract_x
_atom_site_fract_y
_atom_site_fract_z
Si Si1 0.696322 0.830390 0.433506
Si Si2 0.497830 0.652403 0.078762
Si Si3 0.573209 0.399813 0.709088
Si Si4 0.087022 0.911969 0.556314
Si Si5 0.021391 0.854312 0.124918
Si Si6 0.816013 0.808551 0.353215
O O1 0.602958 0.734024 0.238266
O O2 0.790046 0.809061 0.479791
O O3 0.728244 0.776900 0.639415
O O4 0.667046 0.999055 0.379955
O O5 0.471043 0.633898 0.203917
O O6 0.500000 0.500000 0.000000
O O7 0.419456 0.753979 0.872350
O O8 0.500000 0.500000 0.500000
O O9 0.061720 0.888127 0.348035
O O10 0.090532 0.757773 0.644373
O O11 0.176460 0.026956 0.696697
O O12 0.000000 0.000000 0.500000
O O13 0.917820 0.772508 0.985895
O O14 0.000000 0.000000 0.000000
#
# Coordination Sequence:
#
# PCOD9245450 Si02
#       6
#     4   4   4   4   4   4
#     4  11  22  39  61  89 121 155 201 260 308 353
#     4  11  21  39  64  87 119 165 206 248 304 376
#     4  10  21  38  60  89 121 162 205 241 300 377
#     4  10  21  38  60  87 119 162 205 242 301 378
#     4  11  21  39  64  89 122 165 206 248 305 379
#     4  11  22  39  61  89 120 155 202 261 309 353
#
# _framework density 20.691576000000001
#
# number of rings (size 3 to 8) (size 9 to 14) (size 15 to 20)
#    0.000    1.333    0.000   10.000    0.000    0.000 
#    0.000    8.333    0.000    0.000    0.000    0.000 
#    0.000    0.000    0.000    0.000    0.000    0.000 
#
# Total GULP energy -134028.574973 kJ/mol
# GULP energy per Si atom -5584.523957 kJ/mol
# Density = 2.064448 g / cm^3
# Si number density = 20.691576 Si / 1000 Ang^3
#
#
#
# Elastic Constant Matrix: (Units=GPa)
#
#
# Indices 1 2 3 4 5 6 
#
# 1 86.9076 27.2702 22.3422 0.0000 -31.1890 0.0000
# 2 27.2702 134.6855 40.5625 0.0000 -17.6852 0.0000
# 3 22.3422 40.5625 81.0928 0.0000 -26.4136 0.0000
# 4 0.0000 0.0000 0.0000 40.4673 0.0000 -3.1848
# 5 -31.1890 -17.6852 -26.4136 0.0000 44.1834 0.0000
# 6 0.0000 0.0000 0.0000 -3.1848 0.0000 38.5676
#
#
#
# Elastic Compliance Matrix: (Units=1/GPa)
#
#
# Indices 1 2 3 4 5 6 
#
# 1 0.015829 -0.001820 -0.000060 0.000000 0.010409 0.000000
# 2 -0.001820 0.008994 -0.004027 0.000000 -0.000092 0.000000
# 3 -0.000060 -0.004027 0.017166 0.000000 0.008608 0.000000
# 4 0.000000 0.000000 0.000000 0.024873 0.000000 0.002054
# 5 0.010409 -0.000092 0.008608 0.000000 0.035089 0.000000
# 6 0.000000 0.000000 0.000000 0.002054 0.000000 0.026098
#
#
# Mechanical properties :
#
#
# Convention : Reuss Voigt Hill
#
# Bulk Modulus (GPa) = 33.14155 53.67064 43.40610
# Shear Modulus (GPa) = 33.35053 38.81105 36.08079
#
# Velocity S-wave (km/s) = 4.01907 4.33563 4.18035
# Velocity P-wave (km/s) = 6.13098 7.14551 6.65760
#
# Compressibility (1/GPa) = 0.03017361
#
# Stress axis : x y z
#
# Youngs Moduli (GPa) = 63.17714 111.18536 58.25326
#
# Poissons Ratio (x) = 0.20235 0.00351
# Poissons Ratio (y) = 0.11498 0.23461
# Poissons Ratio (z) = 0.00381 0.44779
#
# Static dielectric constant tensor:
#      x y z
#    x 1.710630 0.000000 0.017740 
#    y 0.000000 1.725970 0.000000 
#    z 0.017740 0.000000 1.730020 
# 
# From -- ./inp_files/15055.got.cif
#   From: 2010.05.17/outbox.cif.g08.bks.cpg/sg14_8_cif.got.tgz:15055.got - 2010.06.03 17:49:19.
