data_PCOD9245287
_publ_section_title
;
Structure prediction by ZEFSAII (Michael W. Deem and Ramdas Pophale) SiO2 
 PCOD9245287
Probable space group: P 21/C
;
_chemical_formula_sum "Si O2"
_cell_formula_units_Z 28
_cell_length_a 9.135579
_cell_length_b 9.297235
_cell_length_c 19.503690
_cell_angle_alpha 90.000000
_cell_angle_beta 130.231147
_cell_angle_gamma 90.000000
_cell_volume 1264.691052
_symmetry_space_group_name_H-M "P 21/C"
_symmetry_group_IT_number 14
_symmetry_cell_setting 'monoclinic'
loop_
_space_group_symop_operation_xyz
x,y,z
-x,1/2+y,1/2-z
-x,-y,-z
x,1/2-y,1/2+z
loop_
_atom_site_type_symbol
_atom_site_label
_atom_site_fract_x
_atom_site_fract_y
_atom_site_fract_z
Si Si1 0.859200 0.536101 0.210513
Si Si2 0.475876 0.753432 0.325277
Si Si3 0.020852 0.703326 0.670933
Si Si4 0.097680 0.609138 0.082234
Si Si5 0.378070 0.456121 0.246563
Si Si6 0.515904 0.292608 0.878835
Si Si7 0.601519 0.148516 0.552524
O O1 0.001335 0.460912 0.308568
O O2 0.648271 0.583696 0.175126
O O3 0.807003 0.408419 0.140749
O O4 0.929276 0.680617 0.194711
O O5 0.251123 0.783470 0.244526
O O6 0.508178 0.594153 0.304899
O O7 0.582049 0.868109 0.310655
O O8 0.499835 0.774941 0.413755
O O9 0.977775 0.760128 0.580457
O O10 0.166626 0.515770 0.168688
O O11 0.293730 0.668113 0.106817
O O12 0.000000 0.500000 0.000000
O O13 0.412437 0.345647 0.317228
O O14 0.585950 0.265687 0.977541
O O15 0.500000 0.000000 0.500000
#
# Coordination Sequence:
#
# PCOD9245287 Si02
#       7
#     4   4   4   4   4   4   4
#     4  10  22  38  63  93 133 172 221 269 334 396
#     4  10  22  38  65  98 130 175 227 271 331 403
#     4  10  21  37  61  94 131 167 222 272 327 394
#     4  11  23  40  68  98 126 173 230 271 327 407
#     4  11  21  39  69  95 133 171 224 271 337 393
#     4  11  22  39  70  94 131 175 221 276 336 397
#     4   9  19  37  61  92 124 167 218 266 321 400
#
# _framework density 22.139793000000001
#
# number of rings (size 3 to 8) (size 9 to 14) (size 15 to 20)
#    0.000    1.714    2.857    3.429    4.000    1.714 
#    0.000    0.000    6.286    1.714    0.000    0.000 
#    0.000    0.000    0.000    0.000    0.000    0.000 
#
# Total GULP energy -155979.746469 kJ/mol
# GULP energy per Si atom -5570.705231 kJ/mol
# Density = 2.208940 g / cm^3
# Si number density = 22.139793 Si / 1000 Ang^3
#
#
#
# Elastic Constant Matrix: (Units=GPa)
#
#
# Indices 1 2 3 4 5 6 
#
# 1 88.0621 29.5301 13.2347 0.0000 -19.4292 0.0000
# 2 29.5301 96.7721 28.5688 0.0000 -24.0874 0.0000
# 3 13.2347 28.5688 67.6659 0.0000 -25.6649 0.0000
# 4 0.0000 0.0000 0.0000 40.2057 0.0000 -8.9050
# 5 -19.4292 -24.0874 -25.6649 0.0000 39.2079 0.0000
# 6 0.0000 0.0000 0.0000 -8.9050 0.0000 26.8732
#
#
#
# Elastic Compliance Matrix: (Units=1/GPa)
#
#
# Indices 1 2 3 4 5 6 
#
# 1 0.013413 -0.002974 0.000612 0.000000 0.005220 0.000000
# 2 -0.002974 0.013358 -0.003332 0.000000 0.004552 0.000000
# 3 0.000612 -0.003332 0.020492 0.000000 0.011670 0.000000
# 4 0.000000 0.000000 0.000000 0.026842 0.000000 0.008895
# 5 0.005220 0.004552 0.011670 0.000000 0.038527 0.000000
# 6 0.000000 0.000000 0.000000 0.008895 0.000000 0.040159
#
#
# Mechanical properties :
#
#
# Convention : Reuss Voigt Hill
#
# Bulk Modulus (GPa) = 27.87455 43.90745 35.89100
# Shear Modulus (GPa) = 28.38713 33.33513 30.86113
#
# Velocity S-wave (km/s) = 3.58463 3.88450 3.73758
# Velocity P-wave (km/s) = 5.45439 6.32409 5.90527
#
# Compressibility (1/GPa) = 0.03587502
#
# Stress axis : x y z
#
# Youngs Moduli (GPa) = 74.55616 74.86354 48.80016
#
# Poissons Ratio (x) = 0.22267 -0.02988
# Poissons Ratio (y) = 0.22175 0.16258
# Poissons Ratio (z) = -0.04565 0.24941
#
# Static dielectric constant tensor:
#      x y z
#    x 1.918650 0.000000 -0.055180 
#    y 0.000000 1.955790 0.000000 
#    z -0.055180 0.000000 1.891190 
# 
# From -- ./inp_files/65047.got.cif
#   From: 2010.05.17/outbox.cif.g08.bks.cpg/sg14_33_cif.got.tgz:65047.got - 2010.06.03 17:49:19.
