data_PCOD9245289
_publ_section_title
;
Structure prediction by ZEFSAII (Michael W. Deem and Ramdas Pophale) SiO2 
 PCOD9245289
Probable space group: P 21/C
;
_chemical_formula_sum "Si O2"
_cell_formula_units_Z 12
_cell_length_a 9.631316
_cell_length_b 5.158651
_cell_length_c 9.248279
_cell_angle_alpha 90.000000
_cell_angle_beta 69.461335
_cell_angle_gamma 90.000000
_cell_volume 430.289392
_symmetry_space_group_name_H-M "P 21/C"
_symmetry_group_IT_number 14
_symmetry_cell_setting 'monoclinic'
loop_
_space_group_symop_operation_xyz
x,y,z
-x,1/2+y,1/2-z
-x,-y,-z
x,1/2-y,1/2+z
loop_
_atom_site_type_symbol
_atom_site_label
_atom_site_fract_x
_atom_site_fract_y
_atom_site_fract_z
Si Si1 0.446614 0.447996 0.682575
Si Si2 0.830837 0.402743 0.074579
Si Si3 0.102922 0.975304 0.738676
O O1 0.504308 0.183496 0.730872
O O2 0.500000 0.500000 0.500000
O O3 0.268754 0.453867 0.770328
O O4 0.836526 0.104184 0.125647
O O5 0.774728 0.462535 0.933082
O O6 0.000000 0.500000 0.000000
O O7 0.001289 0.721790 0.738486
#
# Coordination Sequence:
#
# PCOD9245289 Si02
#       3
#     4   4   4
#     4  12  28  49  72 104 146 189 232 289 358 422
#     4  10  23  42  69  97 130 175 228 281 334 407
#     4  10  21  37  61  97 130 164 217 284 340 393
#
# _framework density 27.888211999999999
#
# number of rings (size 3 to 8) (size 9 to 14) (size 15 to 20)
#    0.000    1.333    0.000    4.000    0.000   21.333 
#    0.000    0.000    0.000    0.000    0.000    0.000 
#    0.000    0.000    0.000    0.000    0.000    0.000 
#
# Total GULP energy -67177.560919 kJ/mol
# GULP energy per Si atom -5598.130077 kJ/mol
# Density = 2.782474 g / cm^3
# Si number density = 27.888212 Si / 1000 Ang^3
#
#
#
# Elastic Constant Matrix: (Units=GPa)
#
#
# Indices 1 2 3 4 5 6 
#
# 1 74.4326 13.4826 37.6122 0.0000 -24.4189 0.0000
# 2 13.4826 138.9060 23.0179 0.0000 -0.1031 0.0000
# 3 37.6122 23.0179 265.0281 0.0000 4.9736 0.0000
# 4 0.0000 0.0000 0.0000 48.7608 0.0000 11.7854
# 5 -24.4189 -0.1031 4.9736 0.0000 63.1309 0.0000
# 6 0.0000 0.0000 0.0000 11.7854 0.0000 55.1060
#
#
#
# Elastic Compliance Matrix: (Units=1/GPa)
#
#
# Indices 1 2 3 4 5 6 
#
# 1 0.017138 -0.001252 -0.002451 0.000000 0.006820 0.000000
# 2 -0.001252 0.007396 -0.000456 0.000000 -0.000436 0.000000
# 3 -0.002451 -0.000456 0.004185 0.000000 -0.001279 0.000000
# 4 0.000000 0.000000 0.000000 0.021626 0.000000 -0.004625
# 5 0.006820 -0.000436 -0.001279 0.000000 0.018578 0.000000
# 6 0.000000 0.000000 0.000000 -0.004625 0.000000 0.019136
#
#
# Mechanical properties :
#
#
# Convention : Reuss Voigt Hill
#
# Bulk Modulus (GPa) = 49.02304 69.62134 59.32219
# Shear Modulus (GPa) = 48.45972 60.34983 54.40477
#
# Velocity S-wave (km/s) = 4.17303 4.65692 4.42160
# Velocity P-wave (km/s) = 6.39026 7.34401 6.88367
#
# Compressibility (1/GPa) = 0.02039857
#
# Stress axis : x y z
#
# Youngs Moduli (GPa) = 58.34999 135.20887 238.96452
#
# Poissons Ratio (x) = 0.16930 0.58580
# Poissons Ratio (y) = 0.07306 0.10908
# Poissons Ratio (z) = 0.14304 0.06172
#
# Static dielectric constant tensor:
#      x y z
#    x 2.539350 0.000000 0.153120 
#    y 0.000000 2.297840 0.000000 
#    z 0.153120 0.000000 2.374230 
# 
# From -- ./inp_files/14796.got.cif
#   From: 2010.05.17/outbox.cif.g08.bks.cpg/sg14_8_cif.got.tgz:14796.got - 2010.06.03 17:49:19.
