data_PCOD9245916
_publ_section_title
;
Structure prediction by ZEFSAII (Michael W. Deem and Ramdas Pophale) SiO2 
 PCOD9245916
Probable space group: P 21/C
;
_chemical_formula_sum "Si O2"
_cell_formula_units_Z 32
_cell_length_a 14.420673
_cell_length_b 11.402102
_cell_length_c 17.190948
_cell_angle_alpha 90.000000
_cell_angle_beta 34.423305
_cell_angle_gamma 90.000000
_cell_volume 1597.906038
_symmetry_space_group_name_H-M "P 21/C"
_symmetry_group_IT_number 14
_symmetry_cell_setting 'monoclinic'
loop_
_space_group_symop_operation_xyz
x,y,z
-x,1/2+y,1/2-z
-x,-y,-z
x,1/2-y,1/2+z
loop_
_atom_site_type_symbol
_atom_site_label
_atom_site_fract_x
_atom_site_fract_y
_atom_site_fract_z
Si Si1 0.058029 0.898608 0.213241
Si Si2 0.523398 0.839405 0.561050
Si Si3 0.831102 0.941921 0.643119
Si Si4 0.219488 0.987813 0.811285
Si Si5 0.765951 0.666264 0.026798
Si Si6 0.635781 0.400400 0.386450
Si Si7 0.152934 0.286372 0.262936
Si Si8 0.902544 0.924443 0.951075
O O1 0.230849 0.883899 0.137035
O O2 0.912623 0.899732 0.378014
O O3 0.999253 0.800955 0.190957
O O4 0.068474 0.012988 0.151462
O O5 0.392100 0.945625 0.656161
O O6 0.597780 0.837048 0.595942
O O7 0.433769 0.723852 0.591855
O O8 0.689024 0.831341 0.395057
O O9 0.751362 0.885070 0.622472
O O10 0.842363 0.841244 0.701870
O O11 0.727412 0.046418 0.749563
O O12 0.000000 0.000000 0.500000
O O13 0.078668 0.906940 0.870875
O O14 0.158108 0.116904 0.827347
O O15 0.203771 0.994956 0.915617
O O16 0.819374 0.800870 0.995541
O O17 0.500000 0.500000 0.500000
#
# Coordination Sequence:
#
# PCOD9245916 Si02
#       8
#     4   4   4   4   4   4   4   4
#     4  10  23  39  67  96 125 179 228 268 340 406
#     4  11  24  40  66  97 135 176 222 277 345 400
#     4  12  25  44  70  96 135 181 227 279 342 408
#     4  10  21  40  67  92 128 172 224 280 341 396
#     4  11  23  42  65  94 135 176 222 277 341 405
#     4  12  24  43  66 101 140 176 220 284 343 405
#     4  10  22  45  65  97 133 175 226 287 333 407
#     4  10  21  39  65  91 129 173 226 281 331 406
#
# _framework density 20.026209000000001
#
# number of rings (size 3 to 8) (size 9 to 14) (size 15 to 20)
#    0.000    1.250    3.750    1.875    1.750    2.000 
#    0.000    1.250    0.000    0.000    0.000    0.000 
#    0.000    0.000    0.000    0.000    0.000    0.000 
#
# Total GULP energy -178472.397717 kJ/mol
# GULP energy per Si atom -5577.262429 kJ/mol
# Density = 1.998063 g / cm^3
# Si number density = 20.026209 Si / 1000 Ang^3
#
#
#
# Elastic Constant Matrix: (Units=GPa)
#
#
# Indices 1 2 3 4 5 6 
#
# 1 139.6860 33.1128 26.7960 0.0000 -5.8083 0.0000
# 2 33.1128 45.6109 2.5020 0.0000 -6.8470 0.0000
# 3 26.7960 2.5020 77.0059 0.0000 -3.4072 0.0000
# 4 0.0000 0.0000 0.0000 37.4553 0.0000 1.8785
# 5 -5.8083 -6.8470 -3.4072 0.0000 33.1796 0.0000
# 6 0.0000 0.0000 0.0000 1.8785 0.0000 18.4014
#
#
#
# Elastic Compliance Matrix: (Units=1/GPa)
#
#
# Indices 1 2 3 4 5 6 
#
# 1 0.009300 -0.006592 -0.003024 0.000000 -0.000043 0.000000
# 2 -0.006592 0.027320 0.001612 0.000000 0.004649 0.000000
# 3 -0.003024 0.001612 0.014041 0.000000 0.001245 0.000000
# 4 0.000000 0.000000 0.000000 0.026836 0.000000 -0.002739
# 5 -0.000043 0.004649 0.001245 0.000000 0.031219 0.000000
# 6 0.000000 0.000000 0.000000 -0.002739 0.000000 0.054623
#
#
# Mechanical properties :
#
#
# Convention : Reuss Voigt Hill
#
# Bulk Modulus (GPa) = 28.85781 43.01383 35.93582
# Shear Modulus (GPa) = 26.19208 31.13342 28.66275
#
# Velocity S-wave (km/s) = 3.62040 3.94716 3.78731
# Velocity P-wave (km/s) = 5.64957 6.50376 6.09166
#
# Compressibility (1/GPa) = 0.03465267
#
# Stress axis : x y z
#
# Youngs Moduli (GPa) = 107.52850 36.60342 71.22033
#
# Poissons Ratio (x) = 0.24129 0.21536
# Poissons Ratio (y) = 0.70884 -0.11480
# Poissons Ratio (z) = 0.32515 -0.05900
#
# Static dielectric constant tensor:
#      x y z
#    x 1.726480 0.000000 0.022520 
#    y 0.000000 1.690600 0.000000 
#    z 0.022520 0.000000 1.726690 
# 
# From -- ./inp_files/59380.got.cif
#   From: 2010.05.17/outbox.cif.g08.bks.cpg/sg14_30_cif.got.tgz:59380.got - 2010.06.03 17:49:19.
