data_PCOD9245908
_publ_section_title
;
Structure prediction by ZEFSAII (Michael W. Deem and Ramdas Pophale) SiO2 
 PCOD9245908
Probable space group: P 21/C
;
_chemical_formula_sum "Si O2"
_cell_formula_units_Z 24
_cell_length_a 8.858868
_cell_length_b 7.662229
_cell_length_c 18.661966
_cell_angle_alpha 90.000000
_cell_angle_beta 57.487431
_cell_angle_gamma 90.000000
_cell_volume 1068.216384
_symmetry_space_group_name_H-M "P 21/C"
_symmetry_group_IT_number 14
_symmetry_cell_setting 'monoclinic'
loop_
_space_group_symop_operation_xyz
x,y,z
-x,1/2+y,1/2-z
-x,-y,-z
x,1/2-y,1/2+z
loop_
_atom_site_type_symbol
_atom_site_label
_atom_site_fract_x
_atom_site_fract_y
_atom_site_fract_z
Si Si1 0.560017 0.220602 0.149777
Si Si2 0.792021 0.939896 0.018805
Si Si3 0.600612 0.743292 0.445594
Si Si4 0.238758 0.613696 0.102449
Si Si5 0.383853 0.553371 0.215234
Si Si6 0.082239 0.160149 0.872836
O O1 0.405493 0.163201 0.132589
O O2 0.546980 0.429512 0.148645
O O3 0.727392 0.112615 0.077278
O O4 0.551833 0.169261 0.235010
O O5 0.833112 0.799242 0.070368
O O6 0.646971 0.877774 0.999679
O O7 0.956033 0.997251 0.927523
O O8 0.399990 0.811598 0.512825
O O9 0.739678 0.904617 0.410191
O O10 0.295961 0.650619 0.170378
O O11 0.049948 0.696382 0.127407
O O12 0.235734 0.415470 0.282615
#
# Coordination Sequence:
#
# PCOD9245908 Si02
#       6
#     4   4   4   4   4   4
#     4  10  21  40  60  94 120 168 208 254 301 381
#     4  10  21  39  65  88 121 163 208 253 303 378
#     4  10  21  39  67  90 116 164 217 244 306 378
#     4  10  22  40  61  91 124 158 205 263 302 374
#     4  10  24  38  61  92 133 159 211 260 317 365
#     4  10  22  40  58  91 125 156 204 260 313 357
#
# _framework density 22.467358000000001
#
# number of rings (size 3 to 8) (size 9 to 14) (size 15 to 20)
#    0.000    2.000    1.667    0.500    4.667    3.333 
#    0.000    5.000    0.000    0.000    0.000    0.000 
#    0.000    0.000    0.000    0.000    0.000    0.000 
#
# Total GULP energy -133804.284325 kJ/mol
# GULP energy per Si atom -5575.178514 kJ/mol
# Density = 2.241622 g / cm^3
# Si number density = 22.467358 Si / 1000 Ang^3
#
#
#
# Elastic Constant Matrix: (Units=GPa)
#
#
# Indices 1 2 3 4 5 6 
#
# 1 104.1177 41.3822 40.8965 0.0000 29.8580 0.0000
# 2 41.3822 39.7462 17.0324 0.0000 6.6507 0.0000
# 3 40.8965 17.0324 102.9618 0.0000 28.5557 0.0000
# 4 0.0000 0.0000 0.0000 27.3211 0.0000 5.6694
# 5 29.8580 6.6507 28.5557 0.0000 49.9402 0.0000
# 6 0.0000 0.0000 0.0000 5.6694 0.0000 49.2624
#
#
#
# Elastic Compliance Matrix: (Units=1/GPa)
#
#
# Indices 1 2 3 4 5 6 
#
# 1 0.020507 -0.018797 -0.002769 0.000000 -0.008174 0.000000
# 2 -0.018797 0.044374 -0.001607 0.000000 0.006248 0.000000
# 3 -0.002769 -0.001607 0.012550 0.000000 -0.005306 0.000000
# 4 0.000000 0.000000 0.000000 0.037497 0.000000 -0.004315
# 5 -0.008174 0.006248 -0.005306 0.000000 0.027113 0.000000
# 6 0.000000 0.000000 0.000000 -0.004315 0.000000 0.020796
#
#
# Mechanical properties :
#
#
# Convention : Reuss Voigt Hill
#
# Bulk Modulus (GPa) = 32.17039 49.49423 40.83231
# Shear Modulus (GPa) = 22.77441 35.13906 28.95673
#
# Velocity S-wave (km/s) = 3.18727 3.95904 3.59393
# Velocity P-wave (km/s) = 5.28154 6.55560 5.95276
#
# Compressibility (1/GPa) = 0.03108448
#
# Stress axis : x y z
#
# Youngs Moduli (GPa) = 48.76325 22.53592 79.68313
#
# Poissons Ratio (x) = 0.42361 0.22064
# Poissons Ratio (y) = 0.91660 0.12806
# Poissons Ratio (z) = 0.13502 0.03622
#
# Static dielectric constant tensor:
#      x y z
#    x 1.891740 0.000000 0.032090 
#    y 0.000000 1.863420 0.000000 
#    z 0.032090 0.000000 1.858630 
# 
# From -- ./inp_files/54489.got.cif
#   From: 2010.05.17/outbox.cif.g08.bks.cpg/sg14_28_cif.got.tgz:54489.got - 2010.06.03 17:49:19.
