data_PCOD9245256
_publ_section_title
;
Structure prediction by ZEFSAII (Michael W. Deem and Ramdas Pophale) SiO2 
 PCOD9245256
Probable space group: P 21/C
;
_chemical_formula_sum "Si O2"
_cell_formula_units_Z 20
_cell_length_a 8.710730
_cell_length_b 11.691656
_cell_length_c 11.752011
_cell_angle_alpha 90.000000
_cell_angle_beta 128.358796
_cell_angle_gamma 90.000000
_cell_volume 938.504483
_symmetry_space_group_name_H-M "P 21/C"
_symmetry_group_IT_number 14
_symmetry_cell_setting 'monoclinic'
loop_
_space_group_symop_operation_xyz
x,y,z
-x,1/2+y,1/2-z
-x,-y,-z
x,1/2-y,1/2+z
loop_
_atom_site_type_symbol
_atom_site_label
_atom_site_fract_x
_atom_site_fract_y
_atom_site_fract_z
Si Si1 0.149136 0.384609 0.150426
Si Si2 0.379595 0.168299 0.345325
Si Si3 0.469332 0.033077 0.163457
Si Si4 0.680118 0.162735 0.060891
Si Si5 0.063037 0.405459 0.860964
O O1 0.244121 0.278593 0.257177
O O2 0.330695 0.469855 0.209706
O O3 0.002721 0.462539 0.155772
O O4 0.061963 0.354567 0.987790
O O5 0.382593 0.093103 0.233335
O O6 0.592716 0.219840 0.472532
O O7 0.273622 0.105534 0.400193
O O8 0.533099 0.123033 0.095019
O O9 0.337789 0.936275 0.042960
O O10 0.896863 0.158041 0.210664
#
# Coordination Sequence:
#
# PCOD9245256 Si02
#       5
#     4   4   4   4   4
#     4   9  21  40  56  82 121 150 185 241 287 334
#     4  11  21  37  62  86 112 154 196 233 283 342
#     4   9  19  38  59  81 114 152 189 235 288 338
#     4   9  20  38  57  82 118 151 186 238 289 336
#     4  10  21  37  60  86 117 153 192 235 285 338
#
# _framework density 21.310499
#
# number of rings (size 3 to 8) (size 9 to 14) (size 15 to 20)
#    0.000    2.400    0.000    2.400    0.000    6.400 
#    0.000    8.000    0.000    0.000    0.000    0.000 
#    0.000    0.000    0.000    0.000    0.000    0.000 
#
# Total GULP energy -111747.393139 kJ/mol
# GULP energy per Si atom -5587.369657 kJ/mol
# Density = 2.126200 g / cm^3
# Si number density = 21.310499 Si / 1000 Ang^3
#
#
#
# Elastic Constant Matrix: (Units=GPa)
#
#
# Indices 1 2 3 4 5 6 
#
# 1 60.0414 40.9516 15.6793 0.0000 -19.3753 0.0000
# 2 40.9516 49.4037 17.7244 0.0000 -9.5284 0.0000
# 3 15.6793 17.7244 115.0740 0.0000 6.3113 0.0000
# 4 0.0000 0.0000 0.0000 -4.3754 0.0000 -13.3773
# 5 -19.3753 -9.5284 6.3113 0.0000 26.7343 0.0000
# 6 0.0000 0.0000 0.0000 -13.3773 0.0000 6.9656
#
#
#
# Elastic Compliance Matrix: (Units=1/GPa)
#
#
# Indices 1 2 3 4 5 6 
#
# 1 0.048734 -0.034960 -0.002542 0.000000 0.023459 0.000000
# 2 -0.034960 0.048611 -0.002315 0.000000 -0.007465 0.000000
# 3 -0.002542 -0.002315 0.009664 0.000000 -0.004949 0.000000
# 4 0.000000 0.000000 0.000000 -0.033260 0.000000 -0.063875
# 5 0.023459 -0.007465 -0.004949 0.000000 0.052915 0.000000
# 6 0.000000 0.000000 0.000000 -0.063875 0.000000 0.020892
#
#
# Mechanical properties :
#
#
# Convention : Reuss Voigt Hill
#
# Bulk Modulus (GPa) = 36.52804 41.46997 38.99901
# Shear Modulus (GPa) = 21.15835 15.87584 18.51709
#
# Velocity S-wave (km/s) = 3.15439 2.73239 2.95094
# Velocity P-wave (km/s) = 5.51769 5.42740 5.47274
#
# Compressibility (1/GPa) = 0.02737623
#
# Stress axis : x y z
#
# Youngs Moduli (GPa) = 20.51965 20.57156 103.47309
#
# Poissons Ratio (x) = 0.71918 0.26304
# Poissons Ratio (y) = 0.71736 0.23949
# Poissons Ratio (z) = 0.05216 0.04761
#
# Static dielectric constant tensor:
#      x y z
#    x 1.744240 0.000000 0.011800 
#    y 0.000000 1.773880 0.000000 
#    z 0.011800 0.000000 1.784230 
# 
# From -- ./inp_files/23954.got.cif
#   From: 2010.05.17/outbox.cif.g08.bks.cpg/sg14_12_cif.got.tgz:23954.got - 2010.06.03 17:49:19.
