data_PCOD9245415
_publ_section_title
;
Structure prediction by ZEFSAII (Michael W. Deem and Ramdas Pophale) SiO2 
 PCOD9245415
Probable space group: P 21/C
;
_chemical_formula_sum "Si O2"
_cell_formula_units_Z 24
_cell_length_a 8.850332
_cell_length_b 17.367928
_cell_length_c 17.139979
_cell_angle_alpha 90.000000
_cell_angle_beta 149.629594
_cell_angle_gamma 90.000000
_cell_volume 1332.032389
_symmetry_space_group_name_H-M "P 21/C"
_symmetry_group_IT_number 14
_symmetry_cell_setting 'monoclinic'
loop_
_space_group_symop_operation_xyz
x,y,z
-x,1/2+y,1/2-z
-x,-y,-z
x,1/2-y,1/2+z
loop_
_atom_site_type_symbol
_atom_site_label
_atom_site_fract_x
_atom_site_fract_y
_atom_site_fract_z
Si Si1 0.252084 0.658250 0.728744
Si Si2 0.451363 0.313938 0.604546
Si Si3 0.595354 0.928795 0.785001
Si Si4 0.316447 0.578509 0.427913
Si Si5 0.663517 0.991150 0.654965
Si Si6 0.318446 0.912280 0.100940
O O1 0.432544 0.727366 0.847251
O O2 0.270565 0.576241 0.780775
O O3 0.384757 0.644456 0.701272
O O4 0.904459 0.680459 0.566484
O O5 0.518602 0.355198 0.718043
O O6 0.606596 0.364031 0.606721
O O7 0.497546 0.946486 0.652643
O O8 0.544033 0.004687 0.815199
O O9 0.957270 0.922123 0.941545
O O10 0.500000 0.500000 0.500000
O O11 0.401004 0.611579 0.550834
O O12 0.971094 0.553873 0.276314
O O13 0.500000 0.000000 0.500000
#
# Coordination Sequence:
#
# PCOD9245415 Si02
#       6
#     4   4   4   4   4   4
#     4  10  22  38  55  81 117 151 182 237 287 341
#     4  11  21  37  58  84 114 145 192 235 293 332
#     4   8  15  33  58  74 104 146 182 221 273 336
#     4  11  18  35  63  85 105 149 197 233 271 342
#     4  10  21  38  59  83 115 151 194 233 278 334
#     4   8  15  33  56  78 100 143 188 220 268 332
#
# _framework density 18.017579999999999
#
# number of rings (size 3 to 8) (size 9 to 14) (size 15 to 20)
#    0.000    2.333    3.333    2.000    2.333    0.000 
#    3.000    4.167    0.000    0.000    0.000    0.000 
#    0.000    0.000    0.000    0.000    0.000    0.000 
#
# Total GULP energy -133743.958919 kJ/mol
# GULP energy per Si atom -5572.664955 kJ/mol
# Density = 1.797657 g / cm^3
# Si number density = 18.017580 Si / 1000 Ang^3
#
#
#
# Elastic Constant Matrix: (Units=GPa)
#
#
# Indices 1 2 3 4 5 6 
#
# 1 86.5131 12.7077 21.0994 0.0000 -15.1503 0.0000
# 2 12.7077 56.3967 4.1863 0.0000 4.3921 0.0000
# 3 21.0994 4.1863 43.6382 0.0000 -17.6222 0.0000
# 4 0.0000 0.0000 0.0000 25.7729 0.0000 -4.0369
# 5 -15.1503 4.3921 -17.6222 0.0000 23.7676 0.0000
# 6 0.0000 0.0000 0.0000 -4.0369 0.0000 26.6958
#
#
#
# Elastic Compliance Matrix: (Units=1/GPa)
#
#
# Indices 1 2 3 4 5 6 
#
# 1 0.014189 -0.003458 -0.003737 0.000000 0.006913 0.000000
# 2 -0.003458 0.019439 -0.003616 0.000000 -0.008478 0.000000
# 3 -0.003737 -0.003616 0.034796 0.000000 0.024085 0.000000
# 4 0.000000 0.000000 0.000000 0.039742 0.000000 0.006010
# 5 0.006913 -0.008478 0.024085 0.000000 0.065905 0.000000
# 6 0.000000 0.000000 0.000000 0.006010 0.000000 0.038368
#
#
# Mechanical properties :
#
#
# Convention : Reuss Voigt Hill
#
# Bulk Modulus (GPa) = 21.36724 29.17051 25.26887
# Shear Modulus (GPa) = 20.02708 25.15090 22.58899
#
# Velocity S-wave (km/s) = 3.33758 3.74024 3.54463
# Velocity P-wave (km/s) = 5.17082 5.90573 5.55046
#
# Compressibility (1/GPa) = 0.04680062
#
# Stress axis : x y z
#
# Youngs Moduli (GPa) = 70.47765 51.44182 28.73914
#
# Poissons Ratio (x) = 0.17789 0.10740
# Poissons Ratio (y) = 0.24372 0.10393
# Poissons Ratio (z) = 0.26339 0.18604
#
# Static dielectric constant tensor:
#      x y z
#    x 1.640930 0.000000 -0.024820 
#    y 0.000000 1.606880 0.000000 
#    z -0.024820 0.000000 1.662910 
# 
# From -- ./inp_files/9662.got.cif
#   From: 2010.05.17/outbox.cif.g08.bks.cpg/sg14_5_cif.got.tgz:9662.got - 2010.06.03 17:49:19.
