data_PCOD9245331
_publ_section_title
;
Structure prediction by ZEFSAII (Michael W. Deem and Ramdas Pophale) SiO2 
 PCOD9245331
Probable space group: P 21/C
;
_chemical_formula_sum "Si O2"
_cell_formula_units_Z 30
_cell_length_a 10.581666
_cell_length_b 19.223234
_cell_length_c 8.121023
_cell_angle_alpha 90.000000
_cell_angle_beta 59.062567
_cell_angle_gamma 90.000000
_cell_volume 1416.907318
_symmetry_space_group_name_H-M "P 21/C"
_symmetry_group_IT_number 14
_symmetry_cell_setting 'monoclinic'
loop_
_space_group_symop_operation_xyz
x,y,z
-x,1/2+y,1/2-z
-x,-y,-z
x,1/2-y,1/2+z
loop_
_atom_site_type_symbol
_atom_site_label
_atom_site_fract_x
_atom_site_fract_y
_atom_site_fract_z
Si Si1 0.000000 0.000000 0.000000
Si Si2 0.556845 0.005057 0.704177
Si Si3 0.925456 0.600671 0.195565
Si Si4 0.302855 0.932814 0.686271
Si Si5 0.037190 0.558486 0.762678
Si Si6 0.295043 0.662908 0.646692
Si Si7 0.600942 0.601425 0.455140
Si Si8 0.208967 0.807600 0.572132
O O1 0.954897 0.928689 0.147472
O O2 0.833448 0.033404 0.131907
O O3 0.453845 0.953088 0.672087
O O4 0.615456 0.963839 0.821201
O O5 0.685815 0.034175 0.504488
O O6 0.455114 0.067905 0.837095
O O7 0.947295 0.526695 0.279869
O O8 0.765094 0.630308 0.343623
O O9 0.049568 0.656062 0.159525
O O10 0.951008 0.577632 0.987660
O O11 0.284861 0.851218 0.667674
O O12 0.194500 0.595214 0.679864
O O13 0.464795 0.648894 0.488093
O O14 0.217962 0.726957 0.607346
O O15 0.287099 0.679060 0.845768
#
# Coordination Sequence:
#
# PCOD9245331 Si02
#       8
#     2   4   4   4   4   4   4   4
#     4  12  20  32  64  98 122 164 210 264 328 368
#     4  10  22  36  63  96 130 158 212 267 335 372
#     4  10  21  40  67  94 130 161 221 276 326 376
#     4  11  22  39  59  98 131 166 209 277 316 388
#     4  10  21  37  63  97 126 167 210 273 320 382
#     4  11  25  42  65  89 133 179 220 256 338 400
#     4  11  20  39  65  96 122 169 210 273 318 398
#     4  11  25  44  63  92 130 180 215 267 328 406
#
# _framework density 21.172872000000002
#
# number of rings (size 3 to 8) (size 9 to 14) (size 15 to 20)
#    0.000    1.333    2.667    4.000    5.600    0.000 
#    0.000    2.667    5.867    0.000    0.000    0.000 
#    0.000    0.000    0.000    0.000    0.000    0.000 
#
# Total GULP energy -167142.844936 kJ/mol
# GULP energy per Si atom -5571.428165 kJ/mol
# Density = 2.112468 g / cm^3
# Si number density = 21.172872 Si / 1000 Ang^3
#
#
#
# Elastic Constant Matrix: (Units=GPa)
#
#
# Indices 1 2 3 4 5 6 
#
# 1 51.6179 40.6627 18.3701 0.0000 -15.8763 0.0000
# 2 40.6627 86.2473 31.3100 0.0000 -13.3087 0.0000
# 3 18.3701 31.3100 105.6177 0.0000 -20.2234 0.0000
# 4 0.0000 0.0000 0.0000 18.9215 0.0000 5.2900
# 5 -15.8763 -13.3087 -20.2234 0.0000 37.5484 0.0000
# 6 0.0000 0.0000 0.0000 5.2900 0.0000 34.1501
#
#
#
# Elastic Compliance Matrix: (Units=1/GPa)
#
#
# Indices 1 2 3 4 5 6 
#
# 1 0.033505 -0.014461 0.000212 0.000000 0.009156 0.000000
# 2 -0.014461 0.019508 -0.003473 0.000000 -0.001070 0.000000
# 3 0.000212 -0.003473 0.011420 0.000000 0.005010 0.000000
# 4 0.000000 0.000000 0.000000 0.055242 0.000000 -0.008557
# 5 0.009156 -0.001070 0.005010 0.000000 0.032822 0.000000
# 6 0.000000 0.000000 0.000000 -0.008557 0.000000 0.030608
#
#
# Mechanical properties :
#
#
# Convention : Reuss Voigt Hill
#
# Bulk Modulus (GPa) = 34.49410 47.12984 40.81197
# Shear Modulus (GPa) = 21.90942 28.33333 25.12138
#
# Velocity S-wave (km/s) = 3.22030 3.66210 3.44828
# Velocity P-wave (km/s) = 5.49128 6.33949 5.93057
#
# Compressibility (1/GPa) = 0.02899047
#
# Stress axis : x y z
#
# Youngs Moduli (GPa) = 29.84590 51.26101 87.56643
#
# Poissons Ratio (x) = 0.74129 -0.01860
# Poissons Ratio (y) = 0.43160 0.30410
# Poissons Ratio (z) = -0.00634 0.17802
#
# Static dielectric constant tensor:
#      x y z
#    x 1.405040 0.000000 -0.328320 
#    y 0.000000 1.729150 0.000000 
#    z -0.328320 0.000000 1.475190 
# 
# From -- ./inp_files/14144.got.cif
#   From: 2010.05.17/outbox.cif.g08.bks.cpg/sg14_8_cif.got.tgz:14144.got - 2010.06.03 17:49:19.
