data_PCOD9245447
_publ_section_title
;
Structure prediction by ZEFSAII (Michael W. Deem and Ramdas Pophale) SiO2 
 PCOD9245447
Probable space group: P 21/C
;
_chemical_formula_sum "Si O2"
_cell_formula_units_Z 32
_cell_length_a 18.868341
_cell_length_b 8.786852
_cell_length_c 8.928560
_cell_angle_alpha 90.000000
_cell_angle_beta 83.753985
_cell_angle_gamma 90.000000
_cell_volume 1471.508433
_symmetry_space_group_name_H-M "P 21/C"
_symmetry_group_IT_number 14
_symmetry_cell_setting 'monoclinic'
loop_
_space_group_symop_operation_xyz
x,y,z
-x,1/2+y,1/2-z
-x,-y,-z
x,1/2-y,1/2+z
loop_
_atom_site_type_symbol
_atom_site_label
_atom_site_fract_x
_atom_site_fract_y
_atom_site_fract_z
Si Si1 0.518197 0.407849 0.347314
Si Si2 0.188481 0.061508 0.719194
Si Si3 0.959094 0.673772 0.634371
Si Si4 0.074523 0.454747 0.678012
Si Si5 0.776345 0.638473 0.453719
Si Si6 0.560558 0.443996 0.875806
Si Si7 0.677388 0.051195 0.797418
Si Si8 0.290424 0.647056 0.038364
O O1 0.500000 0.500000 0.500000
O O2 0.451029 0.445849 0.260662
O O3 0.536670 0.229687 0.348395
O O4 0.594690 0.472240 0.276477
O O5 0.104911 0.073273 0.777940
O O6 0.203292 0.188928 0.589590
O O7 0.221357 0.908383 0.644966
O O8 0.226098 0.105988 0.868898
O O9 0.941761 0.847633 0.677276
O O10 0.955631 0.639377 0.458935
O O11 0.033018 0.612822 0.683890
O O12 0.158529 0.462768 0.628478
O O13 0.709127 0.596406 0.368580
O O14 0.640566 0.444602 0.916544
O O15 0.500000 0.500000 0.000000
O O16 0.714162 0.111944 0.636886
O O17 0.689488 0.180631 0.922274
#
# Coordination Sequence:
#
# PCOD9245447 Si02
#       8
#     4   4   4   4   4   4   4   4
#     4  11  25  40  66  90 122 161 199 255 307 366
#     4  10  21  38  60  87 118 157 196 248 291 353
#     4   9  19  36  57  84 118 151 196 238 293 343
#     4   9  19  36  57  84 117 154 191 244 287 349
#     4  10  21  38  60  86 120 154 200 243 297 350
#     4  11  23  44  62  90 122 157 205 249 307 369
#     4  11  24  42  61  87 118 158 197 244 301 355
#     4  11  24  41  63  84 121 157 196 247 297 357
#
# _framework density 21.746393000000001
#
# number of rings (size 3 to 8) (size 9 to 14) (size 15 to 20)
#    0.000    1.750    1.250    2.250    7.000    4.500 
#    0.000    2.500    0.000    0.000    0.000    0.000 
#    0.000    0.000    0.000    0.000    0.000    0.000 
#
# Total GULP energy -178609.615661 kJ/mol
# GULP energy per Si atom -5581.550489 kJ/mol
# Density = 2.169690 g / cm^3
# Si number density = 21.746393 Si / 1000 Ang^3
#
#
#
# Elastic Constant Matrix: (Units=GPa)
#
#
# Indices 1 2 3 4 5 6 
#
# 1 46.2281 5.8220 -21.2130 0.0000 7.2466 0.0000
# 2 5.8220 14.2497 -9.8298 0.0000 -3.4890 0.0000
# 3 -21.2130 -9.8298 65.0524 0.0000 0.2032 0.0000
# 4 0.0000 0.0000 0.0000 23.9567 0.0000 1.7179
# 5 7.2466 -3.4890 0.2032 0.0000 19.4054 0.0000
# 6 0.0000 0.0000 0.0000 1.7179 0.0000 34.0921
#
#
#
# Elastic Compliance Matrix: (Units=1/GPa)
#
#
# Indices 1 2 3 4 5 6 
#
# 1 0.028337 -0.009144 0.007897 0.000000 -0.012309 0.000000
# 2 -0.009144 0.085268 0.009845 0.000000 0.018642 0.000000
# 3 0.007897 0.009845 0.019439 0.000000 -0.001383 0.000000
# 4 0.000000 0.000000 0.000000 0.041893 0.000000 -0.002111
# 5 -0.012309 0.018642 -0.001383 0.000000 0.059495 0.000000
# 6 0.000000 0.000000 0.000000 -0.002111 0.000000 0.029439
#
#
# Mechanical properties :
#
#
# Convention : Reuss Voigt Hill
#
# Bulk Modulus (GPa) = 6.65597 8.34317 7.49957
# Shear Modulus (GPa) = 16.84892 25.54091 21.19491
#
# Velocity S-wave (km/s) = 2.78653 3.43080 3.12531
# Velocity P-wave (km/s) = 3.66338 4.42027 4.05950
#
# Compressibility (1/GPa) = 0.15024108
#
# Stress axis : x y z
#
# Youngs Moduli (GPa) = 35.29000 11.72767 51.44214
#
# Poissons Ratio (x) = 0.10723 -0.40624
# Poissons Ratio (y) = 0.32267 -0.50644
# Poissons Ratio (z) = -0.27869 -0.11546
#
# Static dielectric constant tensor:
#      x y z
#    x 1.832110 0.000000 0.068060 
#    y 0.000000 1.782950 0.000000 
#    z 0.068060 0.000000 1.884780 
# 
# From -- ./inp_files/18597.got.cif
#   From: 2010.05.17/outbox.cif.g08.bks.cpg/sg14_10_cif.got.tgz:18597.got - 2010.06.03 17:49:19.
