data_PCOD9245209
_publ_section_title
;
Structure prediction by ZEFSAII (Michael W. Deem and Ramdas Pophale) SiO2 
 PCOD9245209
Probable space group: P 21/C
;
_chemical_formula_sum "Si O2"
_cell_formula_units_Z 28
_cell_length_a 31.342919
_cell_length_b 6.745822
_cell_length_c 9.141475
_cell_angle_alpha 90.000000
_cell_angle_beta 144.890363
_cell_angle_gamma 90.000000
_cell_volume 1111.645520
_symmetry_space_group_name_H-M "P 21/C"
_symmetry_group_IT_number 14
_symmetry_cell_setting 'monoclinic'
loop_
_space_group_symop_operation_xyz
x,y,z
-x,1/2+y,1/2-z
-x,-y,-z
x,1/2-y,1/2+z
loop_
_atom_site_type_symbol
_atom_site_label
_atom_site_fract_x
_atom_site_fract_y
_atom_site_fract_z
Si Si1 0.151561 0.086313 0.560316
Si Si2 0.536220 0.689462 0.022695
Si Si3 0.724956 0.500415 0.135363
Si Si4 0.245680 0.179772 0.559746
Si Si5 0.893196 0.141637 0.085634
Si Si6 0.007989 0.820919 0.907882
Si Si7 0.409333 0.521871 0.092410
O O1 0.182279 0.079811 0.480496
O O2 0.208273 0.169209 0.839245
O O3 0.078407 0.223125 0.361933
O O4 0.131526 0.861979 0.534894
O O5 0.594922 0.594235 0.073597
O O6 0.472853 0.811121 0.757213
O O7 0.500000 0.500000 0.000000
O O8 0.566129 0.856271 0.218421
O O9 0.710888 0.531032 0.924040
O O10 0.713259 0.697395 0.200867
O O11 0.813069 0.457655 0.389534
O O12 0.664010 0.369723 0.046363
O O13 0.940911 0.161337 0.367400
O O14 0.951514 0.096732 0.120761
O O15 0.000000 0.000000 0.000000
#
# Coordination Sequence:
#
# PCOD9245209 Si02
#       7
#     4   4   4   4   4   4   4
#     4  10  21  40  61  87 120 172 215 276 326 376
#     4  11  23  47  73 106 142 174 237 278 329 412
#     4  11  23  43  62  97 131 173 210 265 339 394
#     4  10  22  40  61  88 134 163 215 266 326 397
#     4  11  22  39  60  90 126 158 224 266 316 405
#     4  10  21  37  58  85 117 162 213 274 325 369
#     4  11  24  45  73 106 140 187 224 287 341 407
#
# _framework density 25.187884
#
# number of rings (size 3 to 8) (size 9 to 14) (size 15 to 20)
#    0.000    1.429    1.429    4.286    0.000    3.429 
#   12.857    7.143    0.000    0.000    0.000    0.000 
#    0.000    0.000    0.000    0.000    0.000    0.000 
#
# Total GULP energy -156432.533909 kJ/mol
# GULP energy per Si atom -5586.876211 kJ/mol
# Density = 2.513056 g / cm^3
# Si number density = 25.187884 Si / 1000 Ang^3
#
#
#
# Elastic Constant Matrix: (Units=GPa)
#
#
# Indices 1 2 3 4 5 6 
#
# 1 234.1635 26.7237 28.2821 0.0000 8.3580 0.0000
# 2 26.7237 38.8498 5.2351 0.0000 -2.5573 0.0000
# 3 28.2821 5.2351 59.8902 0.0000 11.0781 0.0000
# 4 0.0000 0.0000 0.0000 27.7289 0.0000 -7.7312
# 5 8.3580 -2.5573 11.0781 0.0000 42.2065 0.0000
# 6 0.0000 0.0000 0.0000 -7.7312 0.0000 35.5194
#
#
#
# Elastic Compliance Matrix: (Units=1/GPa)
#
#
# Indices 1 2 3 4 5 6 
#
# 1 0.004884 -0.003145 -0.001910 0.000000 -0.000656 0.000000
# 2 -0.003145 0.028284 -0.001492 0.000000 0.002728 0.000000
# 3 -0.001910 -0.001492 0.018578 0.000000 -0.004589 0.000000
# 4 0.000000 0.000000 0.000000 0.038393 0.000000 0.008357
# 5 -0.000656 0.002728 -0.004589 0.000000 0.025193 0.000000
# 6 0.000000 0.000000 0.000000 0.008357 0.000000 0.029973
#
#
# Mechanical properties :
#
#
# Convention : Reuss Voigt Hill
#
# Bulk Modulus (GPa) = 25.87153 50.37615 38.12384
# Shear Modulus (GPa) = 29.19158 39.26847 34.23002
#
# Velocity S-wave (km/s) = 3.40803 3.95273 3.69044
# Velocity P-wave (km/s) = 5.07740 6.39341 5.77302
#
# Compressibility (1/GPa) = 0.03865253
#
# Stress axis : x y z
#
# Youngs Moduli (GPa) = 204.76917 35.35548 53.82634
#
# Poissons Ratio (x) = 0.11120 0.10280
# Poissons Ratio (y) = 0.64402 0.08030
# Poissons Ratio (z) = 0.39108 0.05274
#
# Static dielectric constant tensor:
#      x y z
#    x 2.092970 0.000000 0.176060 
#    y 0.000000 2.093480 0.000000 
#    z 0.176060 0.000000 2.158400 
# 
# From -- ./inp_files/19763.got.cif
#   From: 2010.05.17/outbox.cif.g08.bks.cpg/sg14_10_cif.got.tgz:19763.got - 2010.06.03 17:49:19.
