data_PCOD9245915
_publ_section_title
;
Structure prediction by ZEFSAII (Michael W. Deem and Ramdas Pophale) SiO2 
 PCOD9245915
Probable space group: P 21/C
;
_chemical_formula_sum "Si O2"
_cell_formula_units_Z 26
_cell_length_a 19.162071
_cell_length_b 10.538720
_cell_length_c 12.912814
_cell_angle_alpha 90.000000
_cell_angle_beta 154.956470
_cell_angle_gamma 90.000000
_cell_volume 1103.840561
_symmetry_space_group_name_H-M "P 21/C"
_symmetry_group_IT_number 14
_symmetry_cell_setting 'monoclinic'
loop_
_space_group_symop_operation_xyz
x,y,z
-x,1/2+y,1/2-z
-x,-y,-z
x,1/2-y,1/2+z
loop_
_atom_site_type_symbol
_atom_site_label
_atom_site_fract_x
_atom_site_fract_y
_atom_site_fract_z
Si Si1 0.722180 0.986445 0.532053
Si Si2 0.818051 0.363756 0.823604
Si Si3 0.174665 0.272694 0.240331
Si Si4 0.354432 0.494202 0.593056
Si Si5 0.169974 0.871893 0.031523
Si Si6 0.174071 0.114946 0.534458
Si Si7 0.000000 0.500000 0.500000
O O1 0.829403 0.875987 0.737272
O O2 0.551102 0.012949 0.354331
O O3 0.705812 0.927381 0.396584
O O4 0.864872 0.087147 0.738023
O O5 0.699828 0.412855 0.574025
O O6 0.753879 0.253354 0.812952
O O7 0.860257 0.485227 0.950550
O O8 0.991195 0.323337 0.006545
O O9 0.282062 0.356086 0.464526
O O10 0.239931 0.293055 0.212305
O O11 0.282174 0.553617 0.600454
O O12 0.112452 0.959091 0.048089
O O13 0.996232 0.834918 0.742504
#
# Coordination Sequence:
#
# PCOD9245915 Si02
#       7
#     4   4   4   4   4   4   2
#     4  11  26  42  65  99 132 171 213 272 328 372
#     4  11  21  40  69  95 126 177 223 257 323 397
#     4  11  21  42  66  94 129 176 219 260 330 394
#     4  11  25  42  65  98 132 166 223 270 317 389
#     4  11  22  39  68  96 127 170 210 272 318 372
#     4  10  21  39  65  91 127 174 217 260 316 396
#     4  10  24  42  60  92 124 162 210 246 324 388
#
# _framework density 23.554127000000001
#
# number of rings (size 3 to 8) (size 9 to 14) (size 15 to 20)
#    0.000    1.231    6.154    0.923    0.000   12.923 
#    0.000    0.000    0.000    0.000    0.000    0.000 
#    0.000    0.000    0.000    0.000    0.000    0.000 
#
# Total GULP energy -145034.795111 kJ/mol
# GULP energy per Si atom -5578.261350 kJ/mol
# Density = 2.350052 g / cm^3
# Si number density = 23.554127 Si / 1000 Ang^3
#
#
#
# Elastic Constant Matrix: (Units=GPa)
#
#
# Indices 1 2 3 4 5 6 
#
# 1 111.0563 48.1165 13.3163 0.0000 -23.2462 0.0000
# 2 48.1165 100.6110 29.6707 0.0000 -9.3391 0.0000
# 3 13.3163 29.6707 74.0328 0.0000 11.4104 0.0000
# 4 0.0000 0.0000 0.0000 16.1176 0.0000 -8.1481
# 5 -23.2462 -9.3391 11.4104 0.0000 41.3104 0.0000
# 6 0.0000 0.0000 0.0000 -8.1481 0.0000 17.6184
#
#
#
# Elastic Compliance Matrix: (Units=1/GPa)
#
#
# Indices 1 2 3 4 5 6 
#
# 1 0.012693 -0.005130 -0.001200 0.000000 0.006314 0.000000
# 2 -0.005130 0.014003 -0.004943 0.000000 0.001644 0.000000
# 3 -0.001200 -0.004943 0.016691 0.000000 -0.006403 0.000000
# 4 0.000000 0.000000 0.000000 0.080976 0.000000 0.037450
# 5 0.006314 0.001644 -0.006403 0.000000 0.029900 0.000000
# 6 0.000000 0.000000 0.000000 0.037450 0.000000 0.074078
#
#
# Mechanical properties :
#
#
# Convention : Reuss Voigt Hill
#
# Bulk Modulus (GPa) = 47.98273 51.98967 49.98620
# Shear Modulus (GPa) = 19.39223 27.98238 23.68731
#
# Velocity S-wave (km/s) = 2.87244 3.45048 3.17465
# Velocity P-wave (km/s) = 5.60506 6.16399 5.89116
#
# Compressibility (1/GPa) = 0.02084083
#
# Stress axis : x y z
#
# Youngs Moduli (GPa) = 78.78526 71.41332 59.91172
#
# Poissons Ratio (x) = 0.36636 0.07190
# Poissons Ratio (y) = 0.40418 0.29613
# Poissons Ratio (z) = 0.09455 0.35298
#
# Static dielectric constant tensor:
#      x y z
#    x 1.873060 0.000000 -0.064160 
#    y 0.000000 2.089800 0.000000 
#    z -0.064160 0.000000 2.073440 
# 
# From -- ./inp_files/29008.got.cif
#   From: 2010.05.17/outbox.cif.g08.bks.cpg/sg14_15_cif.got.tgz:29008.got - 2010.06.03 17:49:19.
