data_PCOD9245398
_publ_section_title
;
Structure prediction by ZEFSAII (Michael W. Deem and Ramdas Pophale) SiO2 
 PCOD9245398
Probable space group: P 21/C
;
_chemical_formula_sum "Si O2"
_cell_formula_units_Z 24
_cell_length_a 14.215142
_cell_length_b 7.077460
_cell_length_c 15.121890
_cell_angle_alpha 90.000000
_cell_angle_beta 137.610164
_cell_angle_gamma 90.000000
_cell_volume 1025.663761
_symmetry_space_group_name_H-M "P 21/C"
_symmetry_group_IT_number 14
_symmetry_cell_setting 'monoclinic'
loop_
_space_group_symop_operation_xyz
x,y,z
-x,1/2+y,1/2-z
-x,-y,-z
x,1/2-y,1/2+z
loop_
_atom_site_type_symbol
_atom_site_label
_atom_site_fract_x
_atom_site_fract_y
_atom_site_fract_z
Si Si1 0.613362 0.235345 0.133425
Si Si2 0.139382 0.253799 0.089997
Si Si3 0.183255 0.637983 0.878599
Si Si4 0.171916 0.706171 0.071547
Si Si5 0.867413 0.702912 0.608543
Si Si6 0.322055 0.176298 0.873970
O O1 0.696365 0.310819 0.106072
O O2 0.701703 0.284774 0.281785
O O3 0.617581 0.006331 0.134003
O O4 0.450287 0.281102 0.010302
O O5 0.155386 0.480089 0.081595
O O6 0.237282 0.209028 0.241122
O O7 0.174566 0.160250 0.020776
O O8 0.979322 0.216103 0.005140
O O9 0.175387 0.415805 0.895163
O O10 0.033025 0.687209 0.732540
O O11 0.195074 0.730579 0.983569
O O12 0.787586 0.593922 0.630617
#
# Coordination Sequence:
#
# PCOD9245398 Si02
#       6
#     4   4   4   4   4   4
#     4  10  21  38  58  81 111 146 182 222 272 328
#     4   9  17  33  56  79 108 145 179 217 274 329
#     4  11  21  35  58  83 110 144 185 226 270 321
#     4   9  17  33  56  79 108 145 179 217 274 329
#     4  11  21  35  58  83 110 144 185 226 270 321
#     4  10  21  38  58  81 111 146 182 222 272 328
#
# _framework density 23.399481999999999
#
# number of rings (size 3 to 8) (size 9 to 14) (size 15 to 20)
#    0.000    2.000    3.333    1.000    0.000    2.000 
#    0.000    5.000    0.000    0.000    0.000    0.000 
#    0.000    0.000    0.000    0.000    0.000    0.000 
#
# Total GULP energy -134229.014689 kJ/mol
# GULP energy per Si atom -5592.875612 kJ/mol
# Density = 2.334622 g / cm^3
# Si number density = 23.399482 Si / 1000 Ang^3
#
#
#
# Elastic Constant Matrix: (Units=GPa)
#
#
# Indices 1 2 3 4 5 6 
#
# 1 86.4362 -7.6456 68.6531 0.0000 -4.2059 0.0000
# 2 -7.6456 60.9557 2.6876 0.0000 0.5293 0.0000
# 3 68.6531 2.6876 217.6068 0.0000 -7.1878 0.0000
# 4 0.0000 0.0000 0.0000 6.3854 0.0000 -5.2219
# 5 -4.2059 0.5293 -7.1878 0.0000 51.8719 0.0000
# 6 0.0000 0.0000 0.0000 -5.2219 0.0000 31.3928
#
#
#
# Elastic Compliance Matrix: (Units=1/GPa)
#
#
# Indices 1 2 3 4 5 6 
#
# 1 0.015742 0.002189 -0.004975 0.000000 0.000565 0.000000
# 2 0.002189 0.016721 -0.000901 0.000000 -0.000118 0.000000
# 3 -0.004975 -0.000901 0.006191 0.000000 0.000464 0.000000
# 4 0.000000 0.000000 0.000000 0.181266 0.000000 0.030152
# 5 0.000565 -0.000118 0.000464 0.000000 0.019389 0.000000
# 6 0.000000 0.000000 0.000000 0.030152 0.000000 0.036870
#
#
# Mechanical properties :
#
#
# Convention : Reuss Voigt Hill
#
# Bulk Modulus (GPa) = 31.96933 54.70987 43.33960
# Shear Modulus (GPa) = 17.00803 38.01693 27.51248
#
# Velocity S-wave (km/s) = 2.69895 4.03512 3.43267
# Velocity P-wave (km/s) = 4.83782 6.71872 5.85430
#
# Compressibility (1/GPa) = 0.03127998
#
# Stress axis : x y z
#
# Youngs Moduli (GPa) = 63.52611 59.80623 161.51511
#
# Poissons Ratio (x) = -0.13091 0.80349
# Poissons Ratio (y) = -0.13905 0.14552
# Poissons Ratio (z) = 0.31602 0.05388
#
# Static dielectric constant tensor:
#      x y z
#    x 1.843780 0.000000 -0.012450 
#    y 0.000000 1.984520 0.000000 
#    z -0.012450 0.000000 1.863660 
# 
# From -- ./inp_files/46617.got.cif
#   From: 2010.05.17/outbox.cif.g08.bks.cpg/sg14_24_cif.got.tgz:46617.got - 2010.06.03 17:49:19.
