data_PCOD9245842
_publ_section_title
;
Structure prediction by ZEFSAII (Michael W. Deem and Ramdas Pophale) SiO2 
 PCOD9245842
Probable space group: P 21/C
;
_chemical_formula_sum "Si O2"
_cell_formula_units_Z 32
_cell_length_a 11.638013
_cell_length_b 7.128319
_cell_length_c 28.173509
_cell_angle_alpha 90.000000
_cell_angle_beta 151.220314
_cell_angle_gamma 90.000000
_cell_volume 1125.257043
_symmetry_space_group_name_H-M "P 21/C"
_symmetry_group_IT_number 14
_symmetry_cell_setting 'monoclinic'
loop_
_space_group_symop_operation_xyz
x,y,z
-x,1/2+y,1/2-z
-x,-y,-z
x,1/2-y,1/2+z
loop_
_atom_site_type_symbol
_atom_site_label
_atom_site_fract_x
_atom_site_fract_y
_atom_site_fract_z
Si Si1 0.316152 0.260354 0.377016
Si Si2 0.080745 0.776315 0.702690
Si Si3 0.516115 0.121385 0.216032
Si Si4 0.228238 0.828981 0.998745
Si Si5 0.855741 0.778918 0.993735
Si Si6 0.536034 0.155598 0.579877
Si Si7 0.063987 0.790339 0.341004
Si Si8 0.631791 0.297179 0.856610
O O1 0.518437 0.399167 0.431059
O O2 0.159839 0.325685 0.365544
O O3 0.130323 0.217180 0.266762
O O4 0.453707 0.062410 0.431375
O O5 0.231083 0.788432 0.708673
O O6 0.282854 0.701553 0.811646
O O7 0.997260 0.988912 0.682120
O O8 0.317320 0.236537 0.114876
O O9 0.484535 0.105081 0.261181
O O10 0.488608 0.909967 0.186672
O O11 0.312915 0.671735 0.067774
O O12 0.108697 0.998902 0.983645
O O13 0.063476 0.773027 0.895157
O O14 0.721802 0.706436 0.992582
O O15 0.103512 0.693581 0.068699
O O16 0.675627 0.250782 0.586697
#
# Coordination Sequence:
#
# PCOD9245842 Si02
#       8
#     4   4   4   4   4   4   4   4
#     4  10  21  39  63  93 126 161 208 256 305 375
#     4   9  20  39  63  89 124 162 200 254 315 363
#     4  10  22  42  65  87 120 164 206 258 313 362
#     4  11  24  39  62  91 122 163 209 251 305 379
#     4  10  23  43  61  89 128 162 206 260 309 364
#     4   9  20  39  63  94 127 161 207 256 310 373
#     4  10  21  39  64  90 125 168 203 253 317 370
#     4  11  25  43  65  90 122 165 213 259 306 368
#
# _framework density 28.437946
#
# number of rings (size 3 to 8) (size 9 to 14) (size 15 to 20)
#    0.000    2.000    0.000    3.750    0.000   13.500 
#    0.000    1.875    0.000    0.000    0.000    0.000 
#    0.000    0.000    0.000    0.000    0.000    0.000 
#
# Total GULP energy -179085.941224 kJ/mol
# GULP energy per Si atom -5596.435663 kJ/mol
# Density = 2.837322 g / cm^3
# Si number density = 28.437946 Si / 1000 Ang^3
#
#
#
# Elastic Constant Matrix: (Units=GPa)
#
#
# Indices 1 2 3 4 5 6 
#
# 1 150.2321 21.3434 64.6308 0.0000 -11.1280 0.0000
# 2 21.3434 54.8968 13.9577 0.0000 -11.0774 0.0000
# 3 64.6308 13.9577 120.0506 0.0000 -0.2340 0.0000
# 4 0.0000 0.0000 0.0000 31.4755 0.0000 -5.1698
# 5 -11.1280 -11.0774 -0.2340 0.0000 77.5802 0.0000
# 6 0.0000 0.0000 0.0000 -5.1698 0.0000 43.4738
#
#
#
# Elastic Compliance Matrix: (Units=1/GPa)
#
#
# Indices 1 2 3 4 5 6 
#
# 1 0.009012 -0.002137 -0.004601 0.000000 0.000974 0.000000
# 2 -0.002137 0.019849 -0.001152 0.000000 0.002524 0.000000
# 3 -0.004601 -0.001152 0.010939 0.000000 -0.000792 0.000000
# 4 0.000000 0.000000 0.000000 0.032404 0.000000 0.003853
# 5 0.000974 0.002524 -0.000792 0.000000 0.013388 0.000000
# 6 0.000000 0.000000 0.000000 0.003853 0.000000 0.023461
#
#
# Mechanical properties :
#
#
# Convention : Reuss Voigt Hill
#
# Bulk Modulus (GPa) = 41.63393 58.33814 49.98604
# Shear Modulus (GPa) = 37.63944 45.52241 41.58092
#
# Velocity S-wave (km/s) = 3.64203 4.00529 3.82797
# Velocity P-wave (km/s) = 5.68840 6.47677 6.09534
#
# Compressibility (1/GPa) = 0.02401887
#
# Stress axis : x y z
#
# Youngs Moduli (GPa) = 110.96883 50.37975 91.41354
#
# Poissons Ratio (x) = 0.10768 0.42060
# Poissons Ratio (y) = 0.23717 0.10533
# Poissons Ratio (z) = 0.51058 0.05805
#
# Static dielectric constant tensor:
#      x y z
#    x 2.242070 0.000000 -0.021510 
#    y 0.000000 2.232240 0.000000 
#    z -0.021510 0.000000 2.198700 
# 
# From -- ./inp_files/79972.got.cif
#   From: 2010.05.17/outbox.cif.g08.bks.cpg/sg14_40_cif.got.tgz:79972.got - 2010.06.03 17:49:19.
