data_PCOD9245167
_publ_section_title
;
Structure prediction by ZEFSAII (Michael W. Deem and Ramdas Pophale) SiO2 
 PCOD9245167
Probable space group: P 21/C
;
_chemical_formula_sum "Si O2"
_cell_formula_units_Z 24
_cell_length_a 10.357665
_cell_length_b 11.074625
_cell_length_c 7.667932
_cell_angle_alpha 90.000000
_cell_angle_beta 86.524589
_cell_angle_gamma 90.000000
_cell_volume 877.949830
_symmetry_space_group_name_H-M "P 21/C"
_symmetry_group_IT_number 14
_symmetry_cell_setting 'monoclinic'
loop_
_space_group_symop_operation_xyz
x,y,z
-x,1/2+y,1/2-z
-x,-y,-z
x,1/2-y,1/2+z
loop_
_atom_site_type_symbol
_atom_site_label
_atom_site_fract_x
_atom_site_fract_y
_atom_site_fract_z
Si Si1 0.120276 0.785197 0.010852
Si Si2 0.472212 0.432660 0.759541
Si Si3 0.450168 0.315144 0.379249
Si Si4 0.807912 0.004651 0.764673
Si Si5 0.831855 0.653119 0.618508
Si Si6 0.903461 0.057960 0.338924
O O1 0.156766 0.644997 0.009799
O O2 0.970380 0.784296 0.088549
O O3 0.197583 0.863861 0.144306
O O4 0.119154 0.858201 0.831994
O O5 0.475747 0.374224 0.564751
O O6 0.536455 0.565979 0.746654
O O7 0.522375 0.314298 0.859203
O O8 0.325022 0.469737 0.813404
O O9 0.300847 0.276475 0.363501
O O10 0.943388 0.970139 0.662216
O O11 0.819111 0.924159 0.942740
O O12 0.841734 0.568013 0.787191
#
# Coordination Sequence:
#
# PCOD9245167 Si02
#       6
#     4   4   4   4   4   4
#     4   9  16  28  47  69  95 126 160 199 244 295
#     4  10  21  37  56  77 103 136 174 215 258 305
#     4  10  21  37  56  77 103 136 174 215 258 305
#     4   8  16  31  48  67  95 131 163 195 245 302
#     4   8  16  31  48  67  95 131 163 195 245 302
#     4   9  16  28  47  69  95 126 160 199 244 295
#
# _framework density 27.336416
#
# number of rings (size 3 to 8) (size 9 to 14) (size 15 to 20)
#    0.000    3.000    0.000    3.000    0.000    2.000 
#    0.000    5.000    0.000    0.000    0.000    0.000 
#    0.000    0.000    0.000    0.000    0.000    0.000 
#
# Total GULP energy -134116.195737 kJ/mol
# GULP energy per Si atom -5588.174822 kJ/mol
# Density = 2.727420 g / cm^3
# Si number density = 27.336416 Si / 1000 Ang^3
#
#
#
# Elastic Constant Matrix: (Units=GPa)
#
#
# Indices 1 2 3 4 5 6 
#
# 1 61.8627 8.2590 2.5614 0.0000 -3.6242 0.0000
# 2 8.2590 135.2848 18.6888 0.0000 -6.2643 0.0000
# 3 2.5614 18.6888 55.6701 0.0000 -5.8377 0.0000
# 4 0.0000 0.0000 0.0000 49.2871 0.0000 1.9332
# 5 -3.6242 -6.2643 -5.8377 0.0000 13.1740 0.0000
# 6 0.0000 0.0000 0.0000 1.9332 0.0000 18.4159
#
#
#
# Elastic Compliance Matrix: (Units=1/GPa)
#
#
# Indices 1 2 3 4 5 6 
#
# 1 0.016517 -0.000809 -0.000055 0.000000 0.004135 0.000000
# 2 -0.000809 0.007881 -0.002348 0.000000 0.002484 0.000000
# 3 -0.000055 -0.002348 0.019543 0.000000 0.007529 0.000000
# 4 0.000000 0.000000 0.000000 0.020373 0.000000 -0.002139
# 5 0.004135 0.002484 0.007529 0.000000 0.081562 0.000000
# 6 0.000000 0.000000 0.000000 -0.002139 0.000000 0.054525
#
#
# Mechanical properties :
#
#
# Convention : Reuss Voigt Hill
#
# Bulk Modulus (GPa) = 26.65428 34.64843 30.65136
# Shear Modulus (GPa) = 22.79658 31.06264 26.92961
#
# Velocity S-wave (km/s) = 2.89091 3.37458 3.14206
# Velocity P-wave (km/s) = 4.57327 5.28072 4.93968
#
# Compressibility (1/GPa) = 0.03751742
#
# Stress axis : x y z
#
# Youngs Moduli (GPa) = 60.54225 126.89402 51.16896
#
# Poissons Ratio (x) = 0.10270 0.00280
# Poissons Ratio (y) = 0.04900 0.12014
# Poissons Ratio (z) = 0.00331 0.29792
#
# Static dielectric constant tensor:
#      x y z
#    x 2.070550 0.000000 -0.061900 
#    y 0.000000 2.178530 0.000000 
#    z -0.061900 0.000000 2.308230 
# 
# From -- ./inp_files/19463.got.cif
#   From: 2010.05.17/outbox.cif.g08.bks.cpg/sg14_10_cif.got.tgz:19463.got - 2010.06.03 17:49:19.
