data_PCOD9245302
_publ_section_title
;
Structure prediction by ZEFSAII (Michael W. Deem and Ramdas Pophale) SiO2 
 PCOD9245302
Probable space group: P 21/C
;
_chemical_formula_sum "Si O2"
_cell_formula_units_Z 28
_cell_length_a 8.249113
_cell_length_b 19.449387
_cell_length_c 14.582471
_cell_angle_alpha 90.000000
_cell_angle_beta 33.253659
_cell_angle_gamma 90.000000
_cell_volume 1282.919702
_symmetry_space_group_name_H-M "P 21/C"
_symmetry_group_IT_number 14
_symmetry_cell_setting 'monoclinic'
loop_
_space_group_symop_operation_xyz
x,y,z
-x,1/2+y,1/2-z
-x,-y,-z
x,1/2-y,1/2+z
loop_
_atom_site_type_symbol
_atom_site_label
_atom_site_fract_x
_atom_site_fract_y
_atom_site_fract_z
Si Si1 0.186062 0.447532 0.550676
Si Si2 0.298164 0.349577 0.339006
Si Si3 0.653685 0.097588 0.984527
Si Si4 0.225750 0.175863 0.683481
Si Si5 0.868016 0.258308 0.109955
Si Si6 0.770004 0.338350 0.820475
Si Si7 0.172756 0.178539 0.302850
O O1 0.291510 0.415777 0.405431
O O2 0.182792 0.529001 0.559561
O O3 0.430082 0.421859 0.508695
O O4 0.885545 0.407763 0.718941
O O5 0.341197 0.370001 0.213915
O O6 0.546387 0.293996 0.253901
O O7 0.981329 0.309714 0.500195
O O8 0.439944 0.126498 0.164171
O O9 0.886678 0.153217 0.836963
O O10 0.420931 0.167668 0.501178
O O11 0.276983 0.250456 0.704766
O O12 0.887617 0.225978 0.203131
O O13 0.066352 0.312500 0.957569
O O14 0.909671 0.338581 0.856299
#
# Coordination Sequence:
#
# PCOD9245302 Si02
#       7
#     4   4   4   4   4   4   4
#     4   9  22  43  60  88 125 173 207 250 303 381
#     4  10  22  38  59  89 127 156 209 252 311 365
#     4  10  22  40  68  85 125 170 210 249 314 364
#     4  11  22  35  63  93 120 161 205 266 307 366
#     4  10  22  36  58  91 123 157 200 262 307 360
#     4  10  21  37  62  90 127 159 206 261 311 366
#     4  10  21  39  59  91 124 160 206 256 311 370
#
# _framework density 21.825216999999999
#
# number of rings (size 3 to 8) (size 9 to 14) (size 15 to 20)
#    0.000    2.000    1.429    0.857   14.000    1.143 
#    0.000    0.714    0.000    0.000    0.000    0.000 
#    0.000    0.000    0.000    0.000    0.000    0.000 
#
# Total GULP energy -155982.254742 kJ/mol
# GULP energy per Si atom -5570.794812 kJ/mol
# Density = 2.177554 g / cm^3
# Si number density = 21.825217 Si / 1000 Ang^3
#
#
#
# Elastic Constant Matrix: (Units=GPa)
#
#
# Indices 1 2 3 4 5 6 
#
# 1 32.0409 10.8523 21.1816 0.0000 9.4608 0.0000
# 2 10.8523 68.0539 26.2701 0.0000 3.3065 0.0000
# 3 21.1816 26.2701 120.1409 0.0000 17.7068 0.0000
# 4 0.0000 0.0000 0.0000 26.1387 0.0000 -1.9532
# 5 9.4608 3.3065 17.7068 0.0000 23.4475 0.0000
# 6 0.0000 0.0000 0.0000 -1.9532 0.0000 15.6914
#
#
#
# Elastic Compliance Matrix: (Units=1/GPa)
#
#
# Indices 1 2 3 4 5 6 
#
# 1 0.038877 -0.003990 -0.004223 0.000000 -0.011935 0.000000
# 2 -0.003990 0.016462 -0.003141 0.000000 0.001660 0.000000
# 3 -0.004223 -0.003141 0.010621 0.000000 -0.005873 0.000000
# 4 0.000000 0.000000 0.000000 0.038617 0.000000 0.004807
# 5 -0.011935 0.001660 -0.005873 0.000000 0.051665 0.000000
# 6 0.000000 0.000000 0.000000 0.004807 0.000000 0.064328
#
#
# Mechanical properties :
#
#
# Convention : Reuss Voigt Hill
#
# Bulk Modulus (GPa) = 23.11979 37.42708 30.27343
# Shear Modulus (GPa) = 19.40286 23.85098 21.62692
#
# Velocity S-wave (km/s) = 2.98486 3.30937 3.15129
# Velocity P-wave (km/s) = 4.74293 5.63811 5.20978
#
# Compressibility (1/GPa) = 0.04325299
#
# Stress axis : x y z
#
# Youngs Moduli (GPa) = 25.72206 60.74513 94.15715
#
# Poissons Ratio (x) = 0.24235 0.39762
# Poissons Ratio (y) = 0.10262 0.29574
# Poissons Ratio (z) = 0.10862 0.19080
#
# Static dielectric constant tensor:
#      x y z
#    x 1.897940 0.000000 -0.009680 
#    y 0.000000 1.799280 0.000000 
#    z -0.009680 0.000000 1.813080 
# 
# From -- ./inp_files/42089.got.cif
#   From: 2010.05.17/outbox.cif.g08.bks.cpg/sg14_22_cif.got.tgz:42089.got - 2010.06.03 17:49:19.
