data_PCOD9245617
_publ_section_title
;
Structure prediction by ZEFSAII (Michael W. Deem and Ramdas Pophale) SiO2 
 PCOD9245617
Probable space group: P 21/C
;
_chemical_formula_sum "Si O2"
_cell_formula_units_Z 28
_cell_length_a 11.969219
_cell_length_b 26.446068
_cell_length_c 9.050835
_cell_angle_alpha 90.000000
_cell_angle_beta 155.622965
_cell_angle_gamma 90.000000
_cell_volume 1182.473672
_symmetry_space_group_name_H-M "P 21/C"
_symmetry_group_IT_number 14
_symmetry_cell_setting 'monoclinic'
loop_
_space_group_symop_operation_xyz
x,y,z
-x,1/2+y,1/2-z
-x,-y,-z
x,1/2-y,1/2+z
loop_
_atom_site_type_symbol
_atom_site_label
_atom_site_fract_x
_atom_site_fract_y
_atom_site_fract_z
Si Si1 0.508300 0.512065 0.341433
Si Si2 0.616561 0.836780 0.330319
Si Si3 0.153236 0.428827 0.741753
Si Si4 0.073949 0.721361 0.220760
Si Si5 0.411979 0.627980 0.259555
Si Si6 0.794961 0.493264 0.427985
Si Si7 0.114569 0.315361 0.326809
O O1 0.500000 0.500000 0.500000
O O2 0.463281 0.571317 0.271079
O O3 0.784302 0.499592 0.588811
O O4 0.296056 0.473119 0.012453
O O5 0.685589 0.878063 0.539017
O O6 0.903165 0.814135 0.625101
O O7 0.392119 0.794963 0.108891
O O8 0.512096 0.862668 0.050677
O O9 0.089396 0.456127 0.510833
O O10 0.865854 0.434919 0.476566
O O11 0.955797 0.775562 0.128465
O O12 0.989094 0.710619 0.950080
O O13 0.094965 0.640222 0.886641
O O14 0.588369 0.664136 0.361437
O O15 0.500000 0.500000 0.000000
#
# Coordination Sequence:
#
# PCOD9245617 Si02
#       7
#     4   4   4   4   4   4   4
#     4  11  22  37  62  93 127 169 214 249 325 378
#     4  10  21  38  65  92 121 166 207 252 323 384
#     4  10  21  40  60  87 130 169 211 262 308 381
#     4  10  22  41  64  89 119 160 207 260 324 375
#     4  10  22  39  62  94 127 162 203 267 314 378
#     4   9  22  39  57  81 128 170 209 258 308 361
#     4  10  22  43  62  86 129 156 210 266 317 373
#
# _framework density 23.679175000000001
#
# number of rings (size 3 to 8) (size 9 to 14) (size 15 to 20)
#    0.000    2.000    1.429    0.857    6.000    1.714 
#    5.143    0.000    0.000    0.000    0.000    0.000 
#    0.000    0.000    0.000    0.000    0.000    0.000 
#
# Total GULP energy -155880.572874 kJ/mol
# GULP energy per Si atom -5567.163317 kJ/mol
# Density = 2.362528 g / cm^3
# Si number density = 23.679175 Si / 1000 Ang^3
#
#
#
# Elastic Constant Matrix: (Units=GPa)
#
#
# Indices 1 2 3 4 5 6 
#
# 1 99.0684 5.0025 5.1971 0.0000 20.4343 0.0000
# 2 5.0025 65.4399 -1.1360 0.0000 2.8273 0.0000
# 3 5.1971 -1.1360 27.2011 0.0000 13.7078 0.0000
# 4 0.0000 0.0000 0.0000 26.3003 0.0000 3.2414
# 5 20.4343 2.8273 13.7078 0.0000 14.9977 0.0000
# 6 0.0000 0.0000 0.0000 3.2414 0.0000 35.1088
#
#
#
# Elastic Compliance Matrix: (Units=1/GPa)
#
#
# Indices 1 2 3 4 5 6 
#
# 1 0.017018 0.000603 0.015788 0.000000 -0.037730 0.000000
# 2 0.000603 0.015655 0.004524 0.000000 -0.007908 0.000000
# 3 0.015788 0.004524 0.083808 0.000000 -0.098964 0.000000
# 4 0.000000 0.000000 0.000000 0.038460 0.000000 -0.003551
# 5 -0.037730 -0.007908 -0.098964 0.000000 0.210028 0.000000
# 6 0.000000 0.000000 0.000000 -0.003551 0.000000 0.028811
#
#
# Mechanical properties :
#
#
# Convention : Reuss Voigt Hill
#
# Bulk Modulus (GPa) = 6.31669 23.31517 14.81593
# Shear Modulus (GPa) = 12.35422 27.45777 19.90599
#
# Velocity S-wave (km/s) = 2.28663 3.40895 2.90255
# Velocity P-wave (km/s) = 3.10563 5.03609 4.18373
#
# Compressibility (1/GPa) = 0.15831066
#
# Stress axis : x y z
#
# Youngs Moduli (GPa) = 58.76196 63.87627 11.93204
#
# Poissons Ratio (x) = -0.03854 -0.18838
# Poissons Ratio (y) = -0.03545 -0.05398
# Poissons Ratio (z) = -0.92772 -0.28896
#
# Static dielectric constant tensor:
#      x y z
#    x 2.334790 0.000000 0.231650 
#    y 0.000000 1.963800 0.000000 
#    z 0.231650 0.000000 1.988800 
# 
# From -- ./inp_files/14644.got.cif
#   From: 2010.05.17/outbox.cif.g08.bks.cpg/sg14_8_cif.got.tgz:14644.got - 2010.06.03 17:49:19.
