data_PCOD9245008
_publ_section_title
;
Structure prediction by ZEFSAII (Michael W. Deem and Ramdas Pophale) SiO2 
 PCOD9245008
Probable space group: P 21/C
;
_chemical_formula_sum "Si O2"
_cell_formula_units_Z 32
_cell_length_a 4.937527
_cell_length_b 26.032019
_cell_length_c 13.748420
_cell_angle_alpha 90.000000
_cell_angle_beta 96.410144
_cell_angle_gamma 90.000000
_cell_volume 1756.088780
_symmetry_space_group_name_H-M "P 21/C"
_symmetry_group_IT_number 14
_symmetry_cell_setting 'monoclinic'
loop_
_space_group_symop_operation_xyz
x,y,z
-x,1/2+y,1/2-z
-x,-y,-z
x,1/2-y,1/2+z
loop_
_atom_site_type_symbol
_atom_site_label
_atom_site_fract_x
_atom_site_fract_y
_atom_site_fract_z
Si Si1 0.052602 0.312798 0.789521
Si Si2 0.237820 0.058733 0.059421
Si Si3 0.488126 0.851162 0.812812
Si Si4 0.970987 0.197115 0.708968
Si Si5 0.711739 0.443286 0.422647
Si Si6 0.509497 0.851662 0.191681
Si Si7 0.641354 0.711143 0.507320
Si Si8 0.144330 0.722207 0.015613
O O1 0.830499 0.346119 0.721139
O O2 0.345599 0.335719 0.776747
O O3 0.054223 0.254076 0.749416
O O4 0.951364 0.310652 0.896254
O O5 0.440273 0.053435 0.976259
O O6 0.952646 0.078166 0.002290
O O7 0.387274 0.096432 0.139997
O O8 0.198941 0.001286 0.099919
O O9 0.553894 0.809392 0.899117
O O10 0.203719 0.155686 0.743069
O O11 0.920190 0.198973 0.592063
O O12 0.701247 0.183422 0.758050
O O13 0.633634 0.406381 0.330902
O O14 0.571996 0.830311 0.086249
O O15 0.956626 0.726501 0.517149
O O16 0.457713 0.760316 0.527747
#
# Coordination Sequence:
#
# PCOD9245008 Si02
#       8
#     4   4   4   4   4   4   4   4
#     4  12  23  37  52  80 108 148 191 221 269 322
#     4  10  21  36  56  84 114 142 178 226 278 334
#     4  12  22  35  56  81 109 150 181 216 274 336
#     4  12  23  37  52  80 108 148 191 221 269 322
#     4  10  21  36  56  84 114 142 178 226 278 334
#     4  12  22  35  56  81 109 150 181 216 274 336
#     4  12  20  32  55  78 110 146 181 216 268 320
#     4  12  24  36  52  74 114 148 184 234 256 310
#
# _framework density 18.222311000000001
#
# number of rings (size 3 to 8) (size 9 to 14) (size 15 to 20)
#    0.000    0.500    6.250    3.750    1.750    0.000 
#    0.000    0.000    0.000    0.000    0.000    5.250 
#    0.000    0.000    0.000    0.000    0.000    0.000 
#
# Total GULP energy -178786.880124 kJ/mol
# GULP energy per Si atom -5587.090004 kJ/mol
# Density = 1.818084 g / cm^3
# Si number density = 18.222311 Si / 1000 Ang^3
#
#
#
# Elastic Constant Matrix: (Units=GPa)
#
#
# Indices 1 2 3 4 5 6 
#
# 1 65.0622 5.2321 -3.4196 0.0000 3.4411 0.0000
# 2 5.2321 51.3931 24.3298 0.0000 -1.0798 0.0000
# 3 -3.4196 24.3298 66.8499 0.0000 -5.6847 0.0000
# 4 0.0000 0.0000 0.0000 14.5461 0.0000 6.7811
# 5 3.4411 -1.0798 -5.6847 0.0000 27.0955 0.0000
# 6 0.0000 0.0000 0.0000 6.7811 0.0000 20.8429
#
#
#
# Elastic Compliance Matrix: (Units=1/GPa)
#
#
# Indices 1 2 3 4 5 6 
#
# 1 0.015732 -0.002354 0.001511 0.000000 -0.001775 0.000000
# 2 -0.002354 0.023881 -0.008863 0.000000 -0.000609 0.000000
# 3 0.001511 -0.008863 0.018547 0.000000 0.003346 0.000000
# 4 0.000000 0.000000 0.000000 0.081038 0.000000 -0.026365
# 5 -0.001775 -0.000609 0.003346 0.000000 0.037810 0.000000
# 6 0.000000 0.000000 0.000000 -0.026365 0.000000 0.056556
#
#
# Mechanical properties :
#
#
# Convention : Reuss Voigt Hill
#
# Bulk Modulus (GPa) = 25.80923 26.17663 25.99293
# Shear Modulus (GPa) = 18.80462 22.97443 20.88953
#
# Velocity S-wave (km/s) = 3.21589 3.55461 3.38948
# Velocity P-wave (km/s) = 5.28995 5.58957 5.44182
#
# Compressibility (1/GPa) = 0.03874582
#
# Stress axis : x y z
#
# Youngs Moduli (GPa) = 63.56273 41.87476 53.91847
#
# Poissons Ratio (x) = 0.09858 -0.08145
# Poissons Ratio (y) = 0.14963 0.47791
# Poissons Ratio (z) = -0.09602 0.37116
#
# Static dielectric constant tensor:
#      x y z
#    x 1.634150 0.000000 0.011110 
#    y 0.000000 1.663810 0.000000 
#    z 0.011110 0.000000 1.626480 
# 
# From -- ./inp_files/22272.got.cif
#   From: 2010.05.17/outbox.cif.g08.bks.cpg/sg14_12_cif.got.tgz:22272.got - 2010.06.03 17:49:19.
