data_PCOD9245610
_publ_section_title
;
Structure prediction by ZEFSAII (Michael W. Deem and Ramdas Pophale) SiO2 
 PCOD9245610
Probable space group: P 21/C
;
_chemical_formula_sum "Si O2"
_cell_formula_units_Z 28
_cell_length_a 8.123903
_cell_length_b 5.000326
_cell_length_c 30.423074
_cell_angle_alpha 90.000000
_cell_angle_beta 81.029144
_cell_angle_gamma 90.000000
_cell_volume 1220.733886
_symmetry_space_group_name_H-M "P 21/C"
_symmetry_group_IT_number 14
_symmetry_cell_setting 'monoclinic'
loop_
_space_group_symop_operation_xyz
x,y,z
-x,1/2+y,1/2-z
-x,-y,-z
x,1/2-y,1/2+z
loop_
_atom_site_type_symbol
_atom_site_label
_atom_site_fract_x
_atom_site_fract_y
_atom_site_fract_z
Si Si1 0.454635 0.924800 0.778308
Si Si2 0.099953 0.949409 0.390668
Si Si3 0.815610 0.103019 0.518386
Si Si4 0.875692 0.065759 0.891549
Si Si5 0.213784 0.387634 0.696497
Si Si6 0.868681 0.119152 0.704165
Si Si7 0.319193 0.396022 0.518312
O O1 0.505720 0.729839 0.735485
O O2 0.588744 0.828633 0.809233
O O3 0.259157 0.871015 0.793175
O O4 0.214674 0.946480 0.428604
O O5 0.171617 0.028774 0.339979
O O6 0.023784 0.652632 0.389029
O O7 0.948350 0.154226 0.404472
O O8 0.798149 0.412079 0.506526
O O9 0.700682 0.910546 0.494224
O O10 0.000000 0.000000 0.500000
O O11 0.816368 0.079463 0.843717
O O12 0.734010 0.956050 0.929689
O O13 0.170607 0.493847 0.747012
O O14 0.067312 0.170826 0.695569
O O15 0.500000 0.500000 0.500000
#
# Coordination Sequence:
#
# PCOD9245610 Si02
#       7
#     4   4   4   4   4   4   4
#     4  10  22  39  60  87 122 165 209 257 312 371
#     4  11  23  38  67  94 119 163 217 258 303 388
#     4  12  22  43  69  89 124 173 212 263 324 379
#     4  11  22  40  62  94 123 165 208 254 322 379
#     4  10  21  38  65  88 130 168 203 264 318 366
#     4  10  21  39  62  95 124 165 217 253 312 384
#     4  12  25  42  65  98 133 165 212 272 329 389
#
# _framework density 22.937024999999998
#
# number of rings (size 3 to 8) (size 9 to 14) (size 15 to 20)
#    0.000    1.143    2.857    3.429    0.000    8.000 
#    0.000    7.143    0.000    0.000    0.000    0.000 
#    0.000    0.000    0.000    0.000    0.000    0.000 
#
# Total GULP energy -156303.387229 kJ/mol
# GULP energy per Si atom -5582.263830 kJ/mol
# Density = 2.288482 g / cm^3
# Si number density = 22.937025 Si / 1000 Ang^3
#
#
#
# Elastic Constant Matrix: (Units=GPa)
#
#
# Indices 1 2 3 4 5 6 
#
# 1 64.3891 7.4508 -0.8147 0.0000 7.3052 0.0000
# 2 7.4508 67.1450 11.8797 0.0000 2.5463 0.0000
# 3 -0.8147 11.8797 148.9693 0.0000 -9.0367 0.0000
# 4 0.0000 0.0000 0.0000 29.3520 0.0000 1.3618
# 5 7.3052 2.5463 -9.0367 0.0000 19.7749 0.0000
# 6 0.0000 0.0000 0.0000 1.3618 0.0000 24.4253
#
#
#
# Elastic Compliance Matrix: (Units=1/GPa)
#
#
# Indices 1 2 3 4 5 6 
#
# 1 0.016381 -0.001568 -0.000144 0.000000 -0.005916 0.000000
# 2 -0.001568 0.015384 -0.001358 0.000000 -0.002022 0.000000
# 3 -0.000144 -0.001358 0.007029 0.000000 0.003440 0.000000
# 4 0.000000 0.000000 0.000000 0.034158 0.000000 -0.001904
# 5 -0.005916 -0.002022 0.003440 0.000000 0.054587 0.000000
# 6 0.000000 0.000000 0.000000 -0.001904 0.000000 0.041047
#
#
# Mechanical properties :
#
#
# Convention : Reuss Voigt Hill
#
# Bulk Modulus (GPa) = 30.62411 35.28165 32.95288
# Shear Modulus (GPa) = 26.93799 32.17629 29.55714
#
# Velocity S-wave (km/s) = 3.43072 3.74947 3.59363
# Velocity P-wave (km/s) = 5.39198 5.84466 5.62288
#
# Compressibility (1/GPa) = 0.03265401
#
# Stress axis : x y z
#
# Youngs Moduli (GPa) = 61.04506 65.00219 142.26788
#
# Poissons Ratio (x) = 0.10192 0.02052
# Poissons Ratio (y) = 0.09571 0.19321
# Poissons Ratio (z) = 0.00880 0.08828
#
# Static dielectric constant tensor:
#      x y z
#    x 1.968670 0.000000 0.022840 
#    y 0.000000 1.913290 0.000000 
#    z 0.022840 0.000000 1.916740 
# 
# From -- ./inp_files/79026.got.cif
#   From: 2010.05.17/outbox.cif.g08.bks.cpg/sg14_40_cif.got.tgz:79026.got - 2010.06.03 17:49:19.
