data_PCOD9245554
_publ_section_title
;
Structure prediction by ZEFSAII (Michael W. Deem and Ramdas Pophale) SiO2 
 PCOD9245554
Probable space group: P 21/C
;
_chemical_formula_sum "Si O2"
_cell_formula_units_Z 32
_cell_length_a 16.621063
_cell_length_b 5.346924
_cell_length_c 24.662238
_cell_angle_alpha 90.000000
_cell_angle_beta 134.714376
_cell_angle_gamma 90.000000
_cell_volume 1557.523216
_symmetry_space_group_name_H-M "P 21/C"
_symmetry_group_IT_number 14
_symmetry_cell_setting 'monoclinic'
loop_
_space_group_symop_operation_xyz
x,y,z
-x,1/2+y,1/2-z
-x,-y,-z
x,1/2-y,1/2+z
loop_
_atom_site_type_symbol
_atom_site_label
_atom_site_fract_x
_atom_site_fract_y
_atom_site_fract_z
Si Si1 0.292806 0.976168 0.332922
Si Si2 0.022163 0.073694 0.101973
Si Si3 0.036501 0.464170 0.735842
Si Si4 0.740099 0.825379 0.795063
Si Si5 0.475295 0.514583 0.320197
Si Si6 0.350750 0.708440 0.671149
Si Si7 0.894958 0.188829 0.448004
Si Si8 0.423323 0.490543 0.411614
O O1 0.171870 0.052644 0.298305
O O2 0.277062 0.966417 0.260277
O O3 0.377447 0.206821 0.384362
O O4 0.328107 0.705085 0.370729
O O5 0.998078 0.027247 0.153833
O O6 0.130748 0.263335 0.150506
O O7 0.077324 0.848560 0.092950
O O8 0.917868 0.157818 0.015042
O O9 0.006343 0.718071 0.753343
O O10 0.645076 0.626131 0.736749
O O11 0.707103 0.952417 0.835741
O O12 0.578004 0.342224 0.348762
O O13 0.447682 0.719656 0.261180
O O14 0.491654 0.580146 0.390314
O O15 0.238453 0.883215 0.614635
O O16 0.000000 0.000000 0.500000
O O17 0.500000 0.500000 0.500000
#
# Coordination Sequence:
#
# PCOD9245554 Si02
#       8
#     4   4   4   4   4   4   4   4
#     4  10  21  41  65  93 119 169 221 259 315 387
#     4   9  21  39  61  89 123 162 212 257 321 393
#     4  11  24  42  68  97 131 170 217 277 328 386
#     4   9  18  35  60  84 115 157 203 257 306 376
#     4  11  21  35  59  89 122 158 208 264 317 377
#     4  11  20  35  58  87 122 156 200 263 317 380
#     4  10  21  38  63  90 123 166 209 261 323 394
#     4  11  23  41  65  90 127 171 219 264 317 386
#
# _framework density 20.545438000000001
#
# number of rings (size 3 to 8) (size 9 to 14) (size 15 to 20)
#    0.000    1.750    2.500    1.875    1.750    0.000 
#    4.500    0.000    0.000    0.000    0.000    0.000 
#    0.000    0.000    0.000    0.000    0.000    0.000 
#
# Total GULP energy -178256.549766 kJ/mol
# GULP energy per Si atom -5570.517180 kJ/mol
# Density = 2.049868 g / cm^3
# Si number density = 20.545438 Si / 1000 Ang^3
#
#
#
# Elastic Constant Matrix: (Units=GPa)
#
#
# Indices 1 2 3 4 5 6 
#
# 1 99.9319 17.8112 50.4406 0.0000 -11.3158 0.0000
# 2 17.8112 59.6936 18.6309 0.0000 -10.2874 0.0000
# 3 50.4406 18.6309 121.8360 0.0000 -20.3966 0.0000
# 4 0.0000 0.0000 0.0000 30.2150 0.0000 5.0051
# 5 -11.3158 -10.2874 -20.3966 0.0000 31.7174 0.0000
# 6 0.0000 0.0000 0.0000 5.0051 0.0000 26.2716
#
#
#
# Elastic Compliance Matrix: (Units=1/GPa)
#
#
# Indices 1 2 3 4 5 6 
#
# 1 0.012960 -0.002207 -0.004901 0.000000 0.000756 0.000000
# 2 -0.002207 0.018548 -0.001174 0.000000 0.004474 0.000000
# 3 -0.004901 -0.001174 0.011274 0.000000 0.005120 0.000000
# 4 0.000000 0.000000 0.000000 0.034175 0.000000 -0.006511
# 5 0.000756 0.004474 0.005120 0.000000 0.036542 0.000000
# 6 0.000000 0.000000 0.000000 -0.006511 0.000000 0.039304
#
#
# Mechanical properties :
#
#
# Convention : Reuss Voigt Hill
#
# Bulk Modulus (GPa) = 38.14246 50.58076 44.36161
# Shear Modulus (GPa) = 28.07328 30.61272 29.34300
#
# Velocity S-wave (km/s) = 3.70049 3.86424 3.78325
# Velocity P-wave (km/s) = 6.07153 6.67699 6.38144
#
# Compressibility (1/GPa) = 0.02621750
#
# Stress axis : x y z
#
# Youngs Moduli (GPa) = 77.16228 53.91417 88.70257
#
# Poissons Ratio (x) = 0.11898 0.43476
# Poissons Ratio (y) = 0.17029 0.10411
# Poissons Ratio (z) = 0.37820 0.06328
#
# Static dielectric constant tensor:
#      x y z
#    x 1.751560 0.000000 0.010760 
#    y 0.000000 1.869290 0.000000 
#    z 0.010760 0.000000 1.817720 
# 
# From -- ./inp_files/73564.got.cif
#   From: 2010.05.17/outbox.cif.g08.bks.cpg/sg14_37_cif.got.tgz:73564.got - 2010.06.03 17:49:19.
