data_PCOD9245142
_publ_section_title
;
Structure prediction by ZEFSAII (Michael W. Deem and Ramdas Pophale) SiO2 
 PCOD9245142
Probable space group: P 21/C
;
_chemical_formula_sum "Si O2"
_cell_formula_units_Z 32
_cell_length_a 9.743847
_cell_length_b 9.425863
_cell_length_c 13.747439
_cell_angle_alpha 90.000000
_cell_angle_beta 88.096871
_cell_angle_gamma 90.000000
_cell_volume 1261.925625
_symmetry_space_group_name_H-M "P 21/C"
_symmetry_group_IT_number 14
_symmetry_cell_setting 'monoclinic'
loop_
_space_group_symop_operation_xyz
x,y,z
-x,1/2+y,1/2-z
-x,-y,-z
x,1/2-y,1/2+z
loop_
_atom_site_type_symbol
_atom_site_label
_atom_site_fract_x
_atom_site_fract_y
_atom_site_fract_z
Si Si1 0.660093 0.429441 0.584898
Si Si2 0.748443 0.175276 0.697768
Si Si3 0.909240 0.756314 0.634502
Si Si4 0.988355 0.506877 0.749090
Si Si5 0.857972 0.595914 0.446284
Si Si6 0.498890 0.310853 0.316555
Si Si7 0.591772 0.729890 0.900766
Si Si8 0.636424 0.569845 0.081464
O O1 0.735692 0.338241 0.667305
O O2 0.773513 0.471785 0.503518
O O3 0.588262 0.571302 0.626209
O O4 0.530169 0.332525 0.556690
O O5 0.896390 0.109028 0.705500
O O6 0.657549 0.148338 0.796209
O O7 0.671839 0.085997 0.614978
O O8 0.938912 0.682753 0.529099
O O9 0.769882 0.841324 0.615558
O O10 0.884031 0.627797 0.712033
O O11 0.017438 0.871606 0.676879
O O12 0.051098 0.447271 0.646969
O O13 0.735639 0.690953 0.407066
O O14 0.440106 0.299171 0.209389
O O15 0.483506 0.154878 0.361271
O O16 0.611522 0.594508 0.968978
#
# Coordination Sequence:
#
# PCOD9245142 Si02
#       8
#     4   4   4   4   4   4   4   4
#     4  11  22  36  62  96 131 158 212 258 296 378
#     4  10  23  39  59  94 129 167 202 262 302 369
#     4  10  23  43  67  90 121 162 212 262 304 375
#     4  11  24  43  70  88 124 168 205 261 323 358
#     4  11  22  40  66  94 123 162 214 251 316 376
#     4  11  20  37  61  92 124 164 207 246 303 373
#     4  10  21  36  64  89 127 173 197 248 312 367
#     4  10  21  41  61  86 130 160 207 252 310 368
#
# _framework density 25.358072
#
# number of rings (size 3 to 8) (size 9 to 14) (size 15 to 20)
#    0.000    1.500    2.500    4.500    3.500    2.000 
#    2.250    0.625    2.750    0.000    0.000    0.000 
#    0.000    0.000    0.000    0.000    0.000    0.000 
#
# Total GULP energy -179033.635882 kJ/mol
# GULP energy per Si atom -5594.801121 kJ/mol
# Density = 2.530036 g / cm^3
# Si number density = 25.358072 Si / 1000 Ang^3
#
#
#
# Elastic Constant Matrix: (Units=GPa)
#
#
# Indices 1 2 3 4 5 6 
#
# 1 45.3053 22.1351 20.2204 0.0000 5.2748 0.0000
# 2 22.1351 127.0960 41.5061 0.0000 16.0956 0.0000
# 3 20.2204 41.5061 116.1240 0.0000 19.6145 0.0000
# 4 0.0000 0.0000 0.0000 41.3204 0.0000 12.8721
# 5 5.2748 16.0956 19.6145 0.0000 34.2116 0.0000
# 6 0.0000 0.0000 0.0000 12.8721 0.0000 41.6728
#
#
#
# Elastic Compliance Matrix: (Units=1/GPa)
#
#
# Indices 1 2 3 4 5 6 
#
# 1 0.025132 -0.003293 -0.003107 0.000000 -0.000544 0.000000
# 2 -0.003293 0.009557 -0.002401 0.000000 -0.002612 0.000000
# 3 -0.003107 -0.002401 0.010783 0.000000 -0.004574 0.000000
# 4 0.000000 0.000000 0.000000 0.026778 0.000000 -0.008271
# 5 -0.000544 -0.002612 -0.004574 0.000000 0.033165 0.000000
# 6 0.000000 0.000000 0.000000 -0.008271 0.000000 0.026551
#
#
# Mechanical properties :
#
#
# Convention : Reuss Voigt Hill
#
# Bulk Modulus (GPa) = 35.88322 50.69428 43.28875
# Shear Modulus (GPa) = 31.47468 37.08521 34.27995
#
# Velocity S-wave (km/s) = 3.52690 3.82836 3.68072
# Velocity P-wave (km/s) = 5.54678 6.29099 5.93057
#
# Compressibility (1/GPa) = 0.02786818
#
# Stress axis : x y z
#
# Youngs Moduli (GPa) = 39.79058 104.64031 92.73597
#
# Poissons Ratio (x) = 0.34462 0.28814
# Poissons Ratio (y) = 0.13104 0.22268
# Poissons Ratio (z) = 0.12363 0.25126
#
# Static dielectric constant tensor:
#      x y z
#    x 2.195590 0.000000 0.192100 
#    y 0.000000 2.020450 0.000000 
#    z 0.192100 0.000000 2.150790 
# 
# From -- ./inp_files/43740.got.cif
#   From: 2010.05.17/outbox.cif.g08.bks.cpg/sg14_22_cif.got.tgz:43740.got - 2010.06.03 17:49:19.
