data_PCOD9245628
_publ_section_title
;
Structure prediction by ZEFSAII (Michael W. Deem and Ramdas Pophale) SiO2 
 PCOD9245628
Probable space group: P 21/C
;
_chemical_formula_sum "Si O2"
_cell_formula_units_Z 32
_cell_length_a 21.006878
_cell_length_b 8.095508
_cell_length_c 14.050374
_cell_angle_alpha 90.000000
_cell_angle_beta 34.169098
_cell_angle_gamma 90.000000
_cell_volume 1341.990319
_symmetry_space_group_name_H-M "P 21/C"
_symmetry_group_IT_number 14
_symmetry_cell_setting 'monoclinic'
loop_
_space_group_symop_operation_xyz
x,y,z
-x,1/2+y,1/2-z
-x,-y,-z
x,1/2-y,1/2+z
loop_
_atom_site_type_symbol
_atom_site_label
_atom_site_fract_x
_atom_site_fract_y
_atom_site_fract_z
Si Si1 0.665837 0.393188 0.861063
Si Si2 0.422945 0.309706 0.157737
Si Si3 0.193983 0.535667 0.128001
Si Si4 0.740780 0.640696 0.255804
Si Si5 0.939255 0.527449 0.253109
Si Si6 0.286490 0.331814 0.508950
Si Si7 0.837323 0.323622 0.047387
Si Si8 0.041141 0.326328 0.568583
O O1 0.614207 0.558354 0.877148
O O2 0.712630 0.410376 0.910020
O O3 0.766126 0.331294 0.669304
O O4 0.555606 0.275938 0.994971
O O5 0.342790 0.159301 0.229401
O O6 0.378564 0.367370 0.315363
O O7 0.222431 0.343727 0.072381
O O8 0.071908 0.580179 0.327277
O O9 0.188113 0.625139 0.031307
O O10 0.668786 0.662449 0.439868
O O11 0.797076 0.465141 0.169969
O O12 0.843944 0.776052 0.128871
O O13 0.815497 0.537211 0.363719
O O14 0.996862 0.353345 0.159801
O O15 0.925060 0.566539 0.381511
O O16 0.026680 0.668909 0.109684
#
# Coordination Sequence:
#
# PCOD9245628 Si02
#       8
#     4   4   4   4   4   4   4   4
#     4  11  27  46  71  96 132 182 231 278 340 401
#     4  11  25  49  66  96 135 173 230 285 329 402
#     4  11  24  44  65 103 134 175 224 276 333 408
#     4  11  23  42  68 100 133 181 214 275 350 397
#     4  10  21  38  66 100 138 176 211 277 338 397
#     4  12  24  42  69  97 136 178 225 273 338 402
#     4  10  24  43  66 100 139 166 226 281 330 409
#     4  10  22  39  66 101 143 169 222 273 334 408
#
# _framework density 23.845181
#
# number of rings (size 3 to 8) (size 9 to 14) (size 15 to 20)
#    0.000    1.250    3.750    1.500    7.000    4.000 
#    2.250    0.000    0.000    0.000    0.000    0.000 
#    0.000    0.000    0.000    0.000    0.000    0.000 
#
# Total GULP energy -178800.032242 kJ/mol
# GULP energy per Si atom -5587.501008 kJ/mol
# Density = 2.379091 g / cm^3
# Si number density = 23.845181 Si / 1000 Ang^3
#
#
#
# Elastic Constant Matrix: (Units=GPa)
#
#
# Indices 1 2 3 4 5 6 
#
# 1 80.2166 0.5722 38.3938 0.0000 9.5448 0.0000
# 2 0.5722 32.6626 -3.2928 0.0000 -9.6310 0.0000
# 3 38.3938 -3.2928 85.7854 0.0000 -4.0312 0.0000
# 4 0.0000 0.0000 0.0000 24.3610 0.0000 7.2789
# 5 9.5448 -9.6310 -4.0312 0.0000 36.3063 0.0000
# 6 0.0000 0.0000 0.0000 7.2789 0.0000 16.6165
#
#
#
# Elastic Compliance Matrix: (Units=1/GPa)
#
#
# Indices 1 2 3 4 5 6 
#
# 1 0.017068 -0.002925 -0.008040 0.000000 -0.006156 0.000000
# 2 -0.002925 0.033963 0.003088 0.000000 0.010121 0.000000
# 3 -0.008040 0.003088 0.015593 0.000000 0.004664 0.000000
# 4 0.000000 0.000000 0.000000 0.047231 0.000000 -0.020690
# 5 -0.006156 0.010121 0.004664 0.000000 0.032364 0.000000
# 6 0.000000 0.000000 0.000000 -0.020690 0.000000 0.069244
#
#
# Mechanical properties :
#
#
# Convention : Reuss Voigt Hill
#
# Bulk Modulus (GPa) = 19.65777 30.00123 24.82950
# Shear Modulus (GPa) = 20.14710 26.32285 23.23498
#
# Velocity S-wave (km/s) = 2.90989 3.32611 3.12494
# Velocity P-wave (km/s) = 4.42174 5.23065 4.84311
#
# Compressibility (1/GPa) = 0.05087048
#
# Stress axis : x y z
#
# Youngs Moduli (GPa) = 58.58945 29.44379 64.13029
#
# Poissons Ratio (x) = 0.08611 0.51563
# Poissons Ratio (y) = 0.17136 -0.19805
# Poissons Ratio (z) = 0.47108 -0.09093
#
# Static dielectric constant tensor:
#      x y z
#    x 1.972310 0.000000 -0.019280 
#    y 0.000000 2.003290 0.000000 
#    z -0.019280 0.000000 1.885980 
# 
# From -- ./inp_files/51358.got.cif
#   From: 2010.05.17/outbox.cif.g08.bks.cpg/sg14_26_cif.got.tgz:51358.got - 2010.06.03 17:49:19.
