data_PCOD9245445
_publ_section_title
;
Structure prediction by ZEFSAII (Michael W. Deem and Ramdas Pophale) SiO2 
 PCOD9245445
Probable space group: P 21/C
;
_chemical_formula_sum "Si O2"
_cell_formula_units_Z 32
_cell_length_a 8.381090
_cell_length_b 7.307658
_cell_length_c 20.759131
_cell_angle_alpha 90.000000
_cell_angle_beta 92.316362
_cell_angle_gamma 90.000000
_cell_volume 1270.377749
_symmetry_space_group_name_H-M "P 21/C"
_symmetry_group_IT_number 14
_symmetry_cell_setting 'monoclinic'
loop_
_space_group_symop_operation_xyz
x,y,z
-x,1/2+y,1/2-z
-x,-y,-z
x,1/2-y,1/2+z
loop_
_atom_site_type_symbol
_atom_site_label
_atom_site_fract_x
_atom_site_fract_y
_atom_site_fract_z
Si Si1 0.105349 0.577267 0.662714
Si Si2 0.188425 0.455626 0.524849
Si Si3 0.332574 0.043793 0.532275
Si Si4 0.640864 0.977719 0.229860
Si Si5 0.774781 0.588247 0.607103
Si Si6 0.305608 0.905234 0.285212
Si Si7 0.828930 0.497766 0.847639
Si Si8 0.852061 0.007214 0.586430
O O1 0.198859 0.534941 0.597376
O O2 0.176386 0.517411 0.732251
O O3 0.108868 0.796988 0.668759
O O4 0.927440 0.505190 0.646635
O O5 0.274879 0.255769 0.534526
O O6 0.272290 0.517659 0.458557
O O7 0.000000 0.500000 0.500000
O O8 0.201715 0.939122 0.485655
O O9 0.500000 0.000000 0.500000
O O10 0.317028 0.977826 0.604998
O O11 0.682528 0.187887 0.219617
O O12 0.769697 0.901709 0.283037
O O13 0.643616 0.886251 0.159928
O O14 0.472625 0.975376 0.261713
O O15 0.840965 0.785583 0.585381
O O16 0.266587 0.944210 0.358141
O O17 0.976494 0.581818 0.889427
#
# Coordination Sequence:
#
# PCOD9245445 Si02
#       8
#     4   4   4   4   4   4   4   4
#     4   9  20  38  60  86 116 153 201 250 303 365
#     4   9  20  39  62  88 120 161 207 254 307 375
#     4  11  23  38  61  93 127 162 203 258 319 373
#     4  11  23  38  57  84 119 155 197 249 308 365
#     4   9  19  38  60  84 115 151 195 251 301 361
#     4  11  23  37  56  85 117 155 197 247 307 366
#     4  10  22  40  61  86 119 160 205 251 299 370
#     4  10  21  38  60  86 118 157 202 248 299 367
#
# _framework density 25.189357000000001
#
# number of rings (size 3 to 8) (size 9 to 14) (size 15 to 20)
#    0.000    2.000    0.000    3.375    0.000    9.000 
#    0.000    1.250    0.000    0.000    0.000    0.000 
#    0.000    0.000    0.000    0.000    0.000    0.000 
#
# Total GULP energy -178564.534075 kJ/mol
# GULP energy per Si atom -5580.141690 kJ/mol
# Density = 2.513202 g / cm^3
# Si number density = 25.189357 Si / 1000 Ang^3
#
#
#
# Elastic Constant Matrix: (Units=GPa)
#
#
# Indices 1 2 3 4 5 6 
#
# 1 57.8021 6.8471 2.9680 0.0000 -23.3161 0.0000
# 2 6.8471 73.8764 -17.2076 0.0000 0.8177 0.0000
# 3 2.9680 -17.2076 119.3500 0.0000 -20.4748 0.0000
# 4 0.0000 0.0000 0.0000 26.2493 0.0000 -13.2501
# 5 -23.3161 0.8177 -20.4748 0.0000 38.3683 0.0000
# 6 0.0000 0.0000 0.0000 -13.2501 0.0000 18.5384
#
#
#
# Elastic Compliance Matrix: (Units=1/GPa)
#
#
# Indices 1 2 3 4 5 6 
#
# 1 0.023629 -0.001949 0.001763 0.000000 0.015342 0.000000
# 2 -0.001949 0.014193 0.002025 0.000000 -0.000406 0.000000
# 3 0.001763 0.002025 0.009690 0.000000 0.006200 0.000000
# 4 0.000000 0.000000 0.000000 0.059599 0.000000 0.042598
# 5 0.015342 -0.000406 0.006200 0.000000 0.038703 0.000000
# 6 0.000000 0.000000 0.000000 0.042598 0.000000 0.084389
#
#
# Mechanical properties :
#
#
# Convention : Reuss Voigt Hill
#
# Bulk Modulus (GPa) = 19.53462 26.24927 22.89195
# Shear Modulus (GPa) = 20.52640 33.85925 27.19283
#
# Velocity S-wave (km/s) = 2.85771 3.67030 3.28919
# Velocity P-wave (km/s) = 4.31980 5.32962 4.85106
#
# Compressibility (1/GPa) = 0.05119117
#
# Stress axis : x y z
#
# Youngs Moduli (GPa) = 42.32020 70.45747 103.19507
#
# Poissons Ratio (x) = 0.13733 -0.18196
# Poissons Ratio (y) = 0.08249 -0.20898
# Poissons Ratio (z) = -0.07462 -0.14268
#
# Static dielectric constant tensor:
#      x y z
#    x 2.045960 0.000000 0.027490 
#    y 0.000000 2.152190 0.000000 
#    z 0.027490 0.000000 2.093110 
# 
# From -- ./inp_files/64843.got.cif
#   From: 2010.05.17/outbox.cif.g08.bks.cpg/sg14_33_cif.got.tgz:64843.got - 2010.06.03 17:49:19.
