data_PCOD9245370
_publ_section_title
;
Structure prediction by ZEFSAII (Michael W. Deem and Ramdas Pophale) SiO2 
 PCOD9245370
Probable space group: P 21/C
;
_chemical_formula_sum "Si O2"
_cell_formula_units_Z 32
_cell_length_a 12.102004
_cell_length_b 7.644496
_cell_length_c 19.207581
_cell_angle_alpha 90.000000
_cell_angle_beta 42.221553
_cell_angle_gamma 90.000000
_cell_volume 1194.118939
_symmetry_space_group_name_H-M "P 21/C"
_symmetry_group_IT_number 14
_symmetry_cell_setting 'monoclinic'
loop_
_space_group_symop_operation_xyz
x,y,z
-x,1/2+y,1/2-z
-x,-y,-z
x,1/2-y,1/2+z
loop_
_atom_site_type_symbol
_atom_site_label
_atom_site_fract_x
_atom_site_fract_y
_atom_site_fract_z
Si Si1 0.132898 0.686367 0.350533
Si Si2 0.437206 0.592783 0.657432
Si Si3 0.064336 0.460386 0.683347
Si Si4 0.312121 0.126680 0.837176
Si Si5 0.353191 0.203999 0.678687
Si Si6 0.977510 0.189912 0.363527
Si Si7 0.818679 0.571240 0.023157
Si Si8 0.639011 0.683158 0.972301
O O1 0.284267 0.818576 0.268583
O O2 0.078754 0.608504 0.300895
O O3 0.182381 0.528857 0.380147
O O4 0.971991 0.794935 0.445617
O O5 0.590194 0.583746 0.638832
O O6 0.415545 0.398738 0.640231
O O7 0.480875 0.714509 0.572288
O O8 0.114445 0.649584 0.630708
O O9 0.000917 0.458775 0.792652
O O10 0.214841 0.326476 0.608246
O O11 0.424101 0.120968 0.715590
O O12 0.270639 0.333964 0.870732
O O13 0.161348 0.236155 0.787318
O O14 0.378353 0.101268 0.595840
O O15 0.900890 0.117658 0.470613
O O16 0.702928 0.578291 0.009004
#
# Coordination Sequence:
#
# PCOD9245370 Si02
#       8
#     4   4   4   4   4   4   4   4
#     4  11  21  41  65  91 127 172 210 262 324 381
#     4  11  23  42  63  89 133 171 214 263 322 384
#     4  10  21  37  68  94 127 163 216 268 330 377
#     4  11  24  41  62  91 130 171 216 260 319 381
#     4  11  21  40  64  90 126 169 216 264 319 389
#     4  11  20  39  65  98 124 164 214 275 324 378
#     4  10  22  41  65  95 129 161 216 272 316 383
#     4   9  22  41  65  95 126 167 212 273 320 387
#
# _framework density 26.798002
#
# number of rings (size 3 to 8) (size 9 to 14) (size 15 to 20)
#    0.000    1.500    2.500    3.750    1.750    0.500 
#    0.000    4.375    0.000    0.000    0.000    0.000 
#    0.000    0.000    0.000    0.000    0.000    0.000 
#
# Total GULP energy -179026.059964 kJ/mol
# GULP energy per Si atom -5594.564374 kJ/mol
# Density = 2.673701 g / cm^3
# Si number density = 26.798002 Si / 1000 Ang^3
#
#
#
# Elastic Constant Matrix: (Units=GPa)
#
#
# Indices 1 2 3 4 5 6 
#
# 1 95.1314 15.8082 16.9292 0.0000 36.5921 0.0000
# 2 15.8082 101.6918 12.6062 0.0000 9.7280 0.0000
# 3 16.9292 12.6062 74.1370 0.0000 21.1987 0.0000
# 4 0.0000 0.0000 0.0000 42.9214 0.0000 8.0150
# 5 36.5921 9.7280 21.1987 0.0000 39.3752 0.0000
# 6 0.0000 0.0000 0.0000 8.0150 0.0000 40.8725
#
#
#
# Elastic Compliance Matrix: (Units=1/GPa)
#
#
# Indices 1 2 3 4 5 6 
#
# 1 0.016531 -0.001191 0.000870 0.000000 -0.015537 0.000000
# 2 -0.001191 0.010246 -0.001256 0.000000 -0.000748 0.000000
# 3 0.000870 -0.001256 0.016129 0.000000 -0.009182 0.000000
# 4 0.000000 0.000000 0.000000 0.024184 0.000000 -0.004742
# 5 -0.015537 -0.000748 -0.009182 0.000000 0.044963 0.000000
# 6 0.000000 0.000000 0.000000 -0.004742 0.000000 0.025396
#
#
# Mechanical properties :
#
#
# Convention : Reuss Voigt Hill
#
# Bulk Modulus (GPa) = 25.15648 40.18305 32.66977
# Shear Modulus (GPa) = 32.49812 39.67494 36.08653
#
# Velocity S-wave (km/s) = 3.48617 3.85193 3.67360
# Velocity P-wave (km/s) = 5.06086 5.90004 5.49649
#
# Compressibility (1/GPa) = 0.03975119
#
# Stress axis : x y z
#
# Youngs Moduli (GPa) = 60.49213 97.59796 62.00058
#
# Poissons Ratio (x) = 0.11628 -0.05396
# Poissons Ratio (y) = 0.07207 0.07789
# Poissons Ratio (z) = -0.05265 0.12262
#
# Static dielectric constant tensor:
#      x y z
#    x 2.118850 0.000000 -0.029830 
#    y 0.000000 2.146100 0.000000 
#    z -0.029830 0.000000 2.082550 
# 
# From -- ./inp_files/67031.got.cif
#   From: 2010.05.17/outbox.cif.g08.bks.cpg/sg14_34_cif.got.tgz:67031.got - 2010.06.03 17:49:19.
