data_PCOD9245183
_publ_section_title
;
Structure prediction by ZEFSAII (Michael W. Deem and Ramdas Pophale) SiO2 
 PCOD9245183
Probable space group: P 21/C
;
_chemical_formula_sum "Si O2"
_cell_formula_units_Z 24
_cell_length_a 11.428174
_cell_length_b 14.319716
_cell_length_c 8.022499
_cell_angle_alpha 90.000000
_cell_angle_beta 135.815168
_cell_angle_gamma 90.000000
_cell_volume 915.036255
_symmetry_space_group_name_H-M "P 21/C"
_symmetry_group_IT_number 14
_symmetry_cell_setting 'monoclinic'
loop_
_space_group_symop_operation_xyz
x,y,z
-x,1/2+y,1/2-z
-x,-y,-z
x,1/2-y,1/2+z
loop_
_atom_site_type_symbol
_atom_site_label
_atom_site_fract_x
_atom_site_fract_y
_atom_site_fract_z
Si Si1 0.621274 0.358309 0.123752
Si Si2 0.687416 0.947604 0.859395
Si Si3 0.017913 0.651734 0.086715
Si Si4 0.982159 0.144505 0.813693
Si Si5 0.617938 0.147814 0.100401
Si Si6 0.701161 0.948900 0.272510
O O1 0.626299 0.451032 0.240917
O O2 0.799626 0.364330 0.209034
O O3 0.613014 0.250236 0.176872
O O4 0.451179 0.373907 0.844066
O O5 0.708142 0.940961 0.079102
O O6 0.872663 0.925310 0.979243
O O7 0.886921 0.576339 0.023051
O O8 0.029171 0.643785 0.898385
O O9 0.953035 0.752580 0.070439
O O10 0.212095 0.646531 0.337243
O O11 0.643930 0.055113 0.242074
O O12 0.443331 0.124648 0.829087
#
# Coordination Sequence:
#
# PCOD9245183 Si02
#       6
#     4   4   4   4   4   4
#     4  10  21  37  57  82 112 150 192 234 282 338
#     4  10  21  37  57  83 115 150 190 236 284 336
#     4  10  21  38  60  87 118 151 189 232 281 337
#     4  10  21  38  60  87 118 151 189 232 281 337
#     4  10  21  37  57  82 112 150 192 234 282 338
#     4  10  21  37  57  83 115 150 190 236 284 336
#
# _framework density 26.228470000000002
#
# number of rings (size 3 to 8) (size 9 to 14) (size 15 to 20)
#    0.000    2.000    0.000    3.000    0.000    6.667 
#    0.000   11.667    0.000    0.000    0.000    0.000 
#    0.000    0.000    0.000    0.000    0.000    0.000 
#
# Total GULP energy -134250.535646 kJ/mol
# GULP energy per Si atom -5593.772319 kJ/mol
# Density = 2.616877 g / cm^3
# Si number density = 26.228470 Si / 1000 Ang^3
#
#
#
# Elastic Constant Matrix: (Units=GPa)
#
#
# Indices 1 2 3 4 5 6 
#
# 1 67.1984 31.5319 35.7554 0.0000 31.4670 0.0000
# 2 31.5319 163.2028 66.0779 0.0000 27.2796 0.0000
# 3 35.7554 66.0779 111.3967 0.0000 33.9343 0.0000
# 4 0.0000 0.0000 0.0000 50.4693 0.0000 14.4887
# 5 31.4670 27.2796 33.9343 0.0000 38.9083 0.0000
# 6 0.0000 0.0000 0.0000 14.4887 0.0000 37.5473
#
#
#
# Elastic Compliance Matrix: (Units=1/GPa)
#
#
# Indices 1 2 3 4 5 6 
#
# 1 0.024578 -0.001040 -0.001959 0.000000 -0.017439 0.000000
# 2 -0.001040 0.008226 -0.004147 0.000000 -0.001310 0.000000
# 3 -0.001959 -0.004147 0.014568 0.000000 -0.008213 0.000000
# 4 0.000000 0.000000 0.000000 0.022282 0.000000 -0.008598
# 5 -0.017439 -0.001310 -0.008213 0.000000 0.047887 0.000000
# 6 0.000000 0.000000 0.000000 -0.008598 0.000000 0.029951
#
#
# Mechanical properties :
#
#
# Convention : Reuss Voigt Hill
#
# Bulk Modulus (GPa) = 30.23053 67.61427 48.92240
# Shear Modulus (GPa) = 28.93320 39.28050 34.10685
#
# Velocity S-wave (km/s) = 3.32493 3.87412 3.60998
# Velocity P-wave (km/s) = 5.12748 6.77102 6.00574
#
# Compressibility (1/GPa) = 0.03307915
#
# Stress axis : x y z
#
# Youngs Moduli (GPa) = 40.68610 121.56305 68.64579
#
# Poissons Ratio (x) = 0.12647 0.13451
# Poissons Ratio (y) = 0.04233 0.28465
# Poissons Ratio (z) = 0.07972 0.50409
#
# Static dielectric constant tensor:
#      x y z
#    x 2.071530 0.000000 0.008890 
#    y 0.000000 2.053510 0.000000 
#    z 0.008890 0.000000 2.122840 
# 
# From -- ./inp_files/32644.got.cif
#   From: 2010.05.17/outbox.cif.g08.bks.cpg/sg14_17_cif.got.tgz:32644.got - 2010.06.03 17:49:19.
