data_PCOD9245243
_publ_section_title
;
Structure prediction by ZEFSAII (Michael W. Deem and Ramdas Pophale) SiO2 
 PCOD9245243
Probable space group: P 21/C
;
_chemical_formula_sum "Si O2"
_cell_formula_units_Z 24
_cell_length_a 19.974501
_cell_length_b 5.494913
_cell_length_c 10.123709
_cell_angle_alpha 90.000000
_cell_angle_beta 60.887103
_cell_angle_gamma 90.000000
_cell_volume 970.778661
_symmetry_space_group_name_H-M "P 21/C"
_symmetry_group_IT_number 14
_symmetry_cell_setting 'monoclinic'
loop_
_space_group_symop_operation_xyz
x,y,z
-x,1/2+y,1/2-z
-x,-y,-z
x,1/2-y,1/2+z
loop_
_atom_site_type_symbol
_atom_site_label
_atom_site_fract_x
_atom_site_fract_y
_atom_site_fract_z
Si Si1 0.748307 0.617034 0.759712
Si Si2 0.463672 0.705411 0.441841
Si Si3 0.786594 0.111112 0.808079
Si Si4 0.603940 0.003858 0.245919
Si Si5 0.110885 0.091073 0.055034
Si Si6 0.930793 0.406618 0.975449
O O1 0.730406 0.884364 0.832754
O O2 0.689682 0.574385 0.696088
O O3 0.835006 0.630335 0.623738
O O4 0.748982 0.378092 0.851684
O O5 0.500000 0.500000 0.500000
O O6 0.404877 0.651702 0.380184
O O7 0.423602 0.875466 0.589383
O O8 0.538947 0.799997 0.292104
O O9 0.835533 0.023872 0.884875
O O10 0.849952 0.126672 0.629919
O O11 0.082488 0.365030 0.110686
O O12 0.052366 0.869484 0.086616
O O13 0.000000 0.500000 0.000000
#
# Coordination Sequence:
#
# PCOD9245243 Si02
#       6
#     4   4   4   4   4   4
#     4  10  24  39  63  90 120 165 205 261 316 378
#     4  11  24  45  64  97 131 165 223 273 328 402
#     4  10  22  41  58  91 124 158 213 254 310 382
#     4  11  25  42  68  94 129 174 216 276 334 394
#     4  10  21  39  59  88 123 159 207 257 308 381
#     4  10  21  37  59  89 123 160 206 256 309 372
#
# _framework density 24.722422999999999
#
# number of rings (size 3 to 8) (size 9 to 14) (size 15 to 20)
#    0.000    1.667    1.667    1.500    4.667    1.333 
#    0.000    0.000    0.000    0.000    0.000    0.000 
#    0.000    0.000    0.000    0.000    0.000    0.000 
#
# Total GULP energy -133927.491558 kJ/mol
# GULP energy per Si atom -5580.312148 kJ/mol
# Density = 2.466615 g / cm^3
# Si number density = 24.722423 Si / 1000 Ang^3
#
#
#
# Elastic Constant Matrix: (Units=GPa)
#
#
# Indices 1 2 3 4 5 6 
#
# 1 80.2474 -0.9357 5.5948 0.0000 6.0096 0.0000
# 2 -0.9357 83.1328 9.2637 0.0000 -19.4024 0.0000
# 3 5.5948 9.2637 57.9484 0.0000 -0.1567 0.0000
# 4 0.0000 0.0000 0.0000 5.2427 0.0000 11.4345
# 5 6.0096 -19.4024 -0.1567 0.0000 46.8901 0.0000
# 6 0.0000 0.0000 0.0000 11.4345 0.0000 37.5483
#
#
#
# Elastic Compliance Matrix: (Units=1/GPa)
#
#
# Indices 1 2 3 4 5 6 
#
# 1 0.012670 -0.000113 -0.001210 0.000000 -0.001675 0.000000
# 2 -0.000113 0.013580 -0.002145 0.000000 0.005626 0.000000
# 3 -0.001210 -0.002145 0.017715 0.000000 -0.000673 0.000000
# 4 0.000000 0.000000 0.000000 0.567985 0.000000 -0.172967
# 5 -0.001675 0.005626 -0.000673 0.000000 0.023867 0.000000
# 6 0.000000 0.000000 0.000000 -0.172967 0.000000 0.079305
#
#
# Mechanical properties :
#
#
# Convention : Reuss Voigt Hill
#
# Bulk Modulus (GPa) = 27.00615 27.68602 27.34608
# Shear Modulus (GPa) = 6.80828 31.76327 19.28577
#
# Velocity S-wave (km/s) = 1.66128 3.58829 2.79604
# Velocity P-wave (km/s) = 3.82456 5.32831 4.63779
#
# Compressibility (1/GPa) = 0.03702861
#
# Stress axis : x y z
#
# Youngs Moduli (GPa) = 78.92719 73.63861 56.45075
#
# Poissons Ratio (x) = 0.00836 0.06829
# Poissons Ratio (y) = 0.00896 0.12107
# Poissons Ratio (z) = 0.09547 0.15793
#
# Static dielectric constant tensor:
#      x y z
#    x 1.809040 0.000000 -0.141850 
#    y 0.000000 2.109720 0.000000 
#    z -0.141850 0.000000 1.972240 
# 
# From -- ./inp_files/33374.got.cif
#   From: 2010.05.17/outbox.cif.g08.bks.cpg/sg14_17_cif.got.tgz:33374.got - 2010.06.03 17:49:19.
