data_PCOD9245672
_publ_section_title
;
Structure prediction by ZEFSAII (Michael W. Deem and Ramdas Pophale) SiO2 
 PCOD9245672
Probable space group: P 21/C
;
_chemical_formula_sum "Si O2"
_cell_formula_units_Z 32
_cell_length_a 18.426359
_cell_length_b 14.065834
_cell_length_c 7.470229
_cell_angle_alpha 90.000000
_cell_angle_beta 137.035627
_cell_angle_gamma 90.000000
_cell_volume 1319.570172
_symmetry_space_group_name_H-M "P 21/C"
_symmetry_group_IT_number 14
_symmetry_cell_setting 'monoclinic'
loop_
_space_group_symop_operation_xyz
x,y,z
-x,1/2+y,1/2-z
-x,-y,-z
x,1/2-y,1/2+z
loop_
_atom_site_type_symbol
_atom_site_label
_atom_site_fract_x
_atom_site_fract_y
_atom_site_fract_z
Si Si1 0.122497 0.570836 0.997279
Si Si2 0.652291 0.642580 0.029606
Si Si3 0.286576 0.998920 0.074042
Si Si4 0.293664 0.357743 0.275692
Si Si5 0.959242 0.885136 0.712680
Si Si6 0.587630 0.171105 0.793376
Si Si7 0.923800 0.261875 0.286930
Si Si8 0.295045 0.836094 0.623140
O O1 0.179179 0.538198 0.282952
O O2 0.212360 0.574651 0.995531
O O3 0.030534 0.497469 0.785834
O O4 0.082123 0.678946 0.917278
O O5 0.719535 0.564251 0.261197
O O6 0.692748 0.749658 0.134379
O O7 0.650784 0.625132 0.814580
O O8 0.533866 0.643945 0.897294
O O9 0.359572 0.906347 0.245241
O O10 0.331172 0.069725 0.998582
O O11 0.167246 0.369742 0.017153
O O12 0.011146 0.831150 0.640083
O O13 0.014691 0.837312 0.981140
O O14 0.606428 0.284296 0.797968
O O15 0.652651 0.153265 0.090462
O O16 0.796540 0.257509 0.085404
#
# Coordination Sequence:
#
# PCOD9245672 Si02
#       8
#     4   4   4   4   4   4   4   4
#     4   8  21  40  66  94 138 170 221 289 330 406
#     4  12  23  42  71  99 134 187 223 276 352 402
#     4  10  23  44  66  98 141 168 231 290 326 412
#     4  11  24  42  67  99 138 178 225 281 337 404
#     4  11  21  41  65  95 132 174 225 275 337 410
#     4  11  22  44  65 100 134 176 230 283 338 411
#     4  10  21  38  68  92 130 175 219 275 344 402
#     4   9  21  40  65  92 136 174 219 283 340 393
#
# _framework density 24.250322000000001
#
# number of rings (size 3 to 8) (size 9 to 14) (size 15 to 20)
#    0.750    1.000    1.250    3.000    1.750    0.500 
#    6.750    1.875    0.000    0.000    0.000    0.000 
#    0.000    0.000    0.000    0.000    0.000    0.000 
#
# Total GULP energy -178246.692017 kJ/mol
# GULP energy per Si atom -5570.209126 kJ/mol
# Density = 2.419513 g / cm^3
# Si number density = 24.250322 Si / 1000 Ang^3
#
#
#
# Elastic Constant Matrix: (Units=GPa)
#
#
# Indices 1 2 3 4 5 6 
#
# 1 47.6155 11.8637 4.1837 0.0000 -0.1768 0.0000
# 2 11.8637 90.1164 17.8640 0.0000 7.6086 0.0000
# 3 4.1837 17.8640 59.0386 0.0000 3.2898 0.0000
# 4 0.0000 0.0000 0.0000 17.2912 0.0000 10.5406
# 5 -0.1768 7.6086 3.2898 0.0000 31.7447 0.0000
# 6 0.0000 0.0000 0.0000 10.5406 0.0000 27.9574
#
#
#
# Elastic Compliance Matrix: (Units=1/GPa)
#
#
# Indices 1 2 3 4 5 6 
#
# 1 0.021766 -0.002791 -0.000746 0.000000 0.000867 0.000000
# 2 -0.002791 0.012359 -0.003396 0.000000 -0.002626 0.000000
# 3 -0.000746 -0.003396 0.018078 0.000000 -0.001064 0.000000
# 4 0.000000 0.000000 0.000000 0.075091 0.000000 -0.028311
# 5 0.000867 -0.002626 -0.001064 0.000000 0.032246 0.000000
# 6 0.000000 0.000000 0.000000 -0.028311 0.000000 0.046443
#
#
# Mechanical properties :
#
#
# Convention : Reuss Voigt Hill
#
# Bulk Modulus (GPa) = 26.08433 29.39925 27.74179
# Shear Modulus (GPa) = 21.49376 26.25594 23.87485
#
# Velocity S-wave (km/s) = 2.98036 3.29402 3.14111
# Velocity P-wave (km/s) = 4.75637 5.15916 4.96185
#
# Compressibility (1/GPa) = 0.03833719
#
# Stress axis : x y z
#
# Youngs Moduli (GPa) = 45.94389 80.91292 55.31697
#
# Poissons Ratio (x) = 0.22581 0.04128
# Poissons Ratio (y) = 0.12822 0.18783
# Poissons Ratio (z) = 0.03429 0.27474
#
# Static dielectric constant tensor:
#      x y z
#    x 2.066760 0.000000 -0.064950 
#    y 0.000000 2.124030 0.000000 
#    z -0.064950 0.000000 1.915600 
# 
# From -- ./inp_files/19071.got.cif
#   From: 2010.05.17/outbox.cif.g08.bks.cpg/sg14_10_cif.got.tgz:19071.got - 2010.06.03 17:49:19.
