data_PCOD9245588
_publ_section_title
;
Structure prediction by ZEFSAII (Michael W. Deem and Ramdas Pophale) SiO2 
 PCOD9245588
Probable space group: P 21/C
;
_chemical_formula_sum "Si O2"
_cell_formula_units_Z 28
_cell_length_a 11.583317
_cell_length_b 7.873932
_cell_length_c 13.151872
_cell_angle_alpha 90.000000
_cell_angle_beta 81.608103
_cell_angle_gamma 90.000000
_cell_volume 1186.689511
_symmetry_space_group_name_H-M "P 21/C"
_symmetry_group_IT_number 14
_symmetry_cell_setting 'monoclinic'
loop_
_space_group_symop_operation_xyz
x,y,z
-x,1/2+y,1/2-z
-x,-y,-z
x,1/2-y,1/2+z
loop_
_atom_site_type_symbol
_atom_site_label
_atom_site_fract_x
_atom_site_fract_y
_atom_site_fract_z
Si Si1 0.188453 0.482313 0.732997
Si Si2 0.042005 0.948749 0.607327
Si Si3 0.118185 0.580301 0.530019
Si Si4 0.289174 0.717654 0.876076
Si Si5 0.527102 0.557180 0.833843
Si Si6 0.353478 0.253022 0.340419
Si Si7 0.733601 0.598172 0.964776
O O1 0.176429 0.478243 0.614608
O O2 0.245430 0.655822 0.771099
O O3 0.271551 0.335391 0.766452
O O4 0.062043 0.468118 0.800452
O O5 0.079841 0.754184 0.592474
O O6 0.149642 0.074571 0.615192
O O7 0.000000 0.000000 0.500000
O O8 0.211493 0.631293 0.430846
O O9 0.000000 0.500000 0.500000
O O10 0.429214 0.705109 0.857660
O O11 0.259100 0.561441 0.957416
O O12 0.592010 0.582523 0.717985
O O13 0.458909 0.380086 0.847185
O O14 0.621378 0.574592 0.909712
O O15 0.282594 0.252981 0.454502
#
# Coordination Sequence:
#
# PCOD9245588 Si02
#       7
#     4   4   4   4   4   4   4
#     4  10  22  41  62  90 128 162 201 256 317 366
#     4  11  20  42  66  89 125 167 206 250 317 380
#     4  11  25  40  64  94 127 160 213 262 309 378
#     4   9  20  42  62  86 125 168 202 252 316 371
#     4  10  21  38  64  91 118 162 212 249 314 368
#     4  10  21  40  61  87 123 157 205 260 302 374
#     4   9  19  37  64  85 119 168 204 241 309 386
#
# _framework density 23.595050000000001
#
# number of rings (size 3 to 8) (size 9 to 14) (size 15 to 20)
#    0.000    2.286    4.286    1.714    2.000    9.143 
#    2.571    1.429    0.000    0.000    0.000    0.000 
#    0.000    0.000    0.000    0.000    0.000    0.000 
#
# Total GULP energy -156522.123544 kJ/mol
# GULP energy per Si atom -5590.075841 kJ/mol
# Density = 2.354135 g / cm^3
# Si number density = 23.595050 Si / 1000 Ang^3
#
#
#
# Elastic Constant Matrix: (Units=GPa)
#
#
# Indices 1 2 3 4 5 6 
#
# 1 137.7908 14.3755 50.5418 0.0000 18.4792 0.0000
# 2 14.3755 60.6292 29.3868 0.0000 5.8199 0.0000
# 3 50.5418 29.3868 110.0774 0.0000 15.2654 0.0000
# 4 0.0000 0.0000 0.0000 27.5133 0.0000 -16.6785
# 5 18.4792 5.8199 15.2654 0.0000 44.0167 0.0000
# 6 0.0000 0.0000 0.0000 -16.6785 0.0000 13.0989
#
#
#
# Elastic Compliance Matrix: (Units=1/GPa)
#
#
# Indices 1 2 3 4 5 6 
#
# 1 0.008973 -0.000069 -0.003761 0.000000 -0.002454 0.000000
# 2 -0.000069 0.018972 -0.004926 0.000000 -0.000771 0.000000
# 3 -0.003761 -0.004926 0.012414 0.000000 -0.002075 0.000000
# 4 0.000000 0.000000 0.000000 0.159311 0.000000 0.202845
# 5 -0.002454 -0.000771 -0.002075 0.000000 0.024570 0.000000
# 6 0.000000 0.000000 0.000000 0.202845 0.000000 0.334619
#
#
# Mechanical properties :
#
#
# Convention : Reuss Voigt Hill
#
# Bulk Modulus (GPa) = 43.77060 55.23396 49.50228
# Shear Modulus (GPa) = 8.56182 31.20534 19.88358
#
# Velocity S-wave (km/s) = 1.90697 3.64062 2.90608
# Velocity P-wave (km/s) = 4.84146 6.41343 5.68207
#
# Compressibility (1/GPa) = 0.02284639
#
# Stress axis : x y z
#
# Youngs Moduli (GPa) = 111.44158 52.70985 80.55135
#
# Poissons Ratio (x) = 0.00363 0.30299
# Poissons Ratio (y) = 0.00768 0.39681
# Poissons Ratio (z) = 0.41918 0.25966
#
# Static dielectric constant tensor:
#      x y z
#    x 1.904650 0.000000 -0.044340 
#    y 0.000000 2.114320 0.000000 
#    z -0.044340 0.000000 1.893340 
# 
# From -- ./inp_files/43156.got.cif
#   From: 2010.05.17/outbox.cif.g08.bks.cpg/sg14_22_cif.got.tgz:43156.got - 2010.06.03 17:49:19.
