data_PCOD9245709
_publ_section_title
;
Structure prediction by ZEFSAII (Michael W. Deem and Ramdas Pophale) SiO2 
 PCOD9245709
Probable space group: P 21/C
;
_chemical_formula_sum "Si O2"
_cell_formula_units_Z 32
_cell_length_a 19.178012
_cell_length_b 12.087573
_cell_length_c 16.438701
_cell_angle_alpha 90.000000
_cell_angle_beta 156.132268
_cell_angle_gamma 90.000000
_cell_volume 1541.929987
_symmetry_space_group_name_H-M "P 21/C"
_symmetry_group_IT_number 14
_symmetry_cell_setting 'monoclinic'
loop_
_space_group_symop_operation_xyz
x,y,z
-x,1/2+y,1/2-z
-x,-y,-z
x,1/2-y,1/2+z
loop_
_atom_site_type_symbol
_atom_site_label
_atom_site_fract_x
_atom_site_fract_y
_atom_site_fract_z
Si Si1 0.623417 0.624736 0.683118
Si Si2 0.246561 0.860683 0.861082
Si Si3 0.770517 0.248756 0.984122
Si Si4 0.229842 0.070840 0.923286
Si Si5 0.072211 0.288260 0.523691
Si Si6 0.042183 0.954085 0.231785
Si Si7 0.892781 0.814381 0.749464
Si Si8 0.459390 0.591887 0.335987
O O1 0.432349 0.649529 0.516078
O O2 0.770898 0.717084 0.849067
O O3 0.586955 0.605080 0.548907
O O4 0.668396 0.506438 0.772665
O O5 0.270883 0.821938 0.980607
O O6 0.099966 0.786762 0.663736
O O7 0.171471 0.985322 0.790112
O O8 0.845676 0.362677 0.101913
O O9 0.913848 0.198503 0.078669
O O10 0.617184 0.289217 0.764206
O O11 0.127152 0.033730 0.892770
O O12 0.197530 0.201440 0.876356
O O13 0.434839 0.056944 0.131488
O O14 0.025578 0.397534 0.423135
O O15 0.116427 0.315087 0.663449
O O16 0.151033 0.065142 0.332971
#
# Coordination Sequence:
#
# PCOD9245709 Si02
#       8
#     4   4   4   4   4   4   4   4
#     4  10  22  39  62  94 126 160 204 263 307 373
#     4  10  22  41  61  94 127 154 211 257 311 369
#     4  10  22  38  63  86 122 164 200 262 306 361
#     4  10  21  39  60  87 121 160 206 261 306 366
#     4  11  23  39  67  90 125 170 197 257 316 373
#     4  10  23  39  59  92 123 163 213 247 310 381
#     4  11  21  40  62  86 122 161 211 252 308 373
#     4  10  21  39  58  92 127 154 209 261 312 367
#
# _framework density 20.753212000000001
#
# number of rings (size 3 to 8) (size 9 to 14) (size 15 to 20)
#    0.000    1.750    2.500    1.125    5.250    0.500 
#    2.250    0.000    0.000    3.000    0.000    0.000 
#    0.000    0.000    0.000    0.000    0.000    0.000 
#
# Total GULP energy -178333.947588 kJ/mol
# GULP energy per Si atom -5572.935862 kJ/mol
# Density = 2.070598 g / cm^3
# Si number density = 20.753212 Si / 1000 Ang^3
#
#
#
# Elastic Constant Matrix: (Units=GPa)
#
#
# Indices 1 2 3 4 5 6 
#
# 1 93.8194 30.8960 9.8237 0.0000 8.5807 0.0000
# 2 30.8960 99.3396 9.0252 0.0000 0.5875 0.0000
# 3 9.8237 9.0252 22.7027 0.0000 3.2304 0.0000
# 4 0.0000 0.0000 0.0000 15.5402 0.0000 -3.1600
# 5 8.5807 0.5875 3.2304 0.0000 26.4841 0.0000
# 6 0.0000 0.0000 0.0000 -3.1600 0.0000 21.8378
#
#
#
# Elastic Compliance Matrix: (Units=1/GPa)
#
#
# Indices 1 2 3 4 5 6 
#
# 1 0.012521 -0.003555 -0.003499 0.000000 -0.003551 0.000000
# 2 -0.003555 0.011455 -0.003199 0.000000 0.001288 0.000000
# 3 -0.003499 -0.003199 0.047486 0.000000 -0.004587 0.000000
# 4 0.000000 0.000000 0.000000 0.066300 0.000000 0.009594
# 5 -0.003551 0.001288 -0.004587 0.000000 0.039440 0.000000
# 6 0.000000 0.000000 0.000000 0.009594 0.000000 0.047180
#
#
# Mechanical properties :
#
#
# Convention : Reuss Voigt Hill
#
# Bulk Modulus (GPa) = 19.62490 35.03905 27.33197
# Shear Modulus (GPa) = 19.09314 23.84688 21.47001
#
# Velocity S-wave (km/s) = 3.03646 3.39347 3.21991
# Velocity P-wave (km/s) = 4.66586 5.68107 5.19831
#
# Compressibility (1/GPa) = 0.05095567
#
# Stress axis : x y z
#
# Youngs Moduli (GPa) = 79.86757 87.29663 21.05874
#
# Poissons Ratio (x) = 0.31036 0.07369
# Poissons Ratio (y) = 0.28395 0.06736
# Poissons Ratio (z) = 0.27948 0.27924
#
# Static dielectric constant tensor:
#      x y z
#    x 1.741200 0.000000 0.027660 
#    y 0.000000 1.822450 0.000000 
#    z 0.027660 0.000000 1.809110 
# 
# From -- ./inp_files/48942.got.cif
#   From: 2010.05.17/outbox.cif.g08.bks.cpg/sg14_25_cif.got.tgz:48942.got - 2010.06.03 17:49:19.
