data_PCOD9245260
_publ_section_title
;
Structure prediction by ZEFSAII (Michael W. Deem and Ramdas Pophale) SiO2 
 PCOD9245260
Probable space group: P 21/C
;
_chemical_formula_sum "Si O2"
_cell_formula_units_Z 32
_cell_length_a 7.769690
_cell_length_b 19.305439
_cell_length_c 9.715613
_cell_angle_alpha 90.000000
_cell_angle_beta 118.773197
_cell_angle_gamma 90.000000
_cell_volume 1277.383585
_symmetry_space_group_name_H-M "P 21/C"
_symmetry_group_IT_number 14
_symmetry_cell_setting 'monoclinic'
loop_
_space_group_symop_operation_xyz
x,y,z
-x,1/2+y,1/2-z
-x,-y,-z
x,1/2-y,1/2+z
loop_
_atom_site_type_symbol
_atom_site_label
_atom_site_fract_x
_atom_site_fract_y
_atom_site_fract_z
Si Si1 0.164620 0.555202 0.114559
Si Si2 0.969614 0.183621 0.624716
Si Si3 0.638748 0.871966 0.248055
Si Si4 0.092260 0.746797 0.149368
Si Si5 0.545613 0.194086 0.050415
Si Si6 0.622808 0.916559 0.807726
Si Si7 0.263294 0.493466 0.408226
Si Si8 0.689023 0.833853 0.561903
O O1 0.404831 0.550604 0.191483
O O2 0.154816 0.553398 0.280005
O O3 0.108834 0.621008 0.998319
O O4 0.000000 0.500000 0.000000
O O5 0.204169 0.189735 0.707987
O O6 0.892626 0.249753 0.508639
O O7 0.912084 0.184169 0.761021
O O8 0.449777 0.849253 0.089923
O O9 0.752998 0.931220 0.209054
O O10 0.624190 0.879962 0.404541
O O11 0.895130 0.703977 0.110006
O O12 0.270692 0.704629 0.281667
O O13 0.465767 0.270961 0.988784
O O14 0.405316 0.146493 0.093266
O O15 0.697055 0.881931 0.697497
O O16 0.764599 0.970044 0.944857
O O17 0.500000 0.500000 0.500000
#
# Coordination Sequence:
#
# PCOD9245260 Si02
#       8
#     4   4   4   4   4   4   4   4
#     4  11  20  39  65  92 122 166 223 256 305 381
#     4  11  22  40  61  96 125 164 208 260 317 380
#     4  10  21  37  60  87 125 164 203 260 315 369
#     4  11  25  39  63  92 134 165 208 260 323 379
#     4  11  21  39  59  91 127 170 206 254 323 389
#     4  10  22  40  62  92 125 164 215 260 316 383
#     4   9  20  38  63  84 115 165 209 254 304 372
#     4  11  23  39  61  93 133 164 205 269 322 384
#
# _framework density 25.051207999999999
#
# number of rings (size 3 to 8) (size 9 to 14) (size 15 to 20)
#    0.000    1.500    3.750    1.500    3.500    0.000 
#    0.000    2.500    0.000    4.500    0.000    0.000 
#    0.000    0.000    0.000    0.000    0.000    0.000 
#
# Total GULP energy -178335.616359 kJ/mol
# GULP energy per Si atom -5572.988011 kJ/mol
# Density = 2.499419 g / cm^3
# Si number density = 25.051208 Si / 1000 Ang^3
#
#
#
# Elastic Constant Matrix: (Units=GPa)
#
#
# Indices 1 2 3 4 5 6 
#
# 1 21.9604 -3.6657 -2.1480 0.0000 11.3842 0.0000
# 2 -3.6657 44.4758 9.6906 0.0000 2.7351 0.0000
# 3 -2.1480 9.6906 138.5567 0.0000 5.7621 0.0000
# 4 0.0000 0.0000 0.0000 48.6609 0.0000 0.5207
# 5 11.3842 2.7351 5.7621 0.0000 42.0312 0.0000
# 6 0.0000 0.0000 0.0000 0.5207 0.0000 19.3480
#
#
#
# Elastic Compliance Matrix: (Units=1/GPa)
#
#
# Indices 1 2 3 4 5 6 
#
# 1 0.054402 0.005177 0.001114 0.000000 -0.015225 0.000000
# 2 0.005177 0.023393 -0.001442 0.000000 -0.002727 0.000000
# 3 0.001114 -0.001442 0.007386 0.000000 -0.001221 0.000000
# 4 0.000000 0.000000 0.000000 0.020556 0.000000 -0.000553
# 5 -0.015225 -0.002727 -0.001221 0.000000 0.028260 0.000000
# 6 0.000000 0.000000 0.000000 -0.000553 0.000000 0.051700
#
#
# Mechanical properties :
#
#
# Convention : Reuss Voigt Hill
#
# Bulk Modulus (GPa) = 10.53969 23.63852 17.08910
# Shear Modulus (GPa) = 24.08184 35.41576 29.74880
#
# Velocity S-wave (km/s) = 3.10385 3.76405 3.44978
# Velocity P-wave (km/s) = 4.13057 5.32422 4.76492
#
# Compressibility (1/GPa) = 0.09487946
#
# Stress axis : x y z
#
# Youngs Moduli (GPa) = 18.38167 42.74815 135.38798
#
# Poissons Ratio (x) = -0.22132 -0.15088
# Poissons Ratio (y) = -0.09517 0.19529
# Poissons Ratio (z) = -0.02048 0.06166
#
# Static dielectric constant tensor:
#      x y z
#    x 2.044590 0.000000 -0.001340 
#    y 0.000000 2.245440 0.000000 
#    z -0.001340 0.000000 2.017600 
# 
# From -- ./inp_files/10825.got.cif
#   From: 2010.05.17/outbox.cif.g08.bks.cpg/sg14_6_cif.got.tgz:10825.got - 2010.06.03 17:49:19.
