data_PCOD9245039
_publ_section_title
;
Structure prediction by ZEFSAII (Michael W. Deem and Ramdas Pophale) SiO2 
 PCOD9245039
Probable space group: P 21/C
;
_chemical_formula_sum "Si O2"
_cell_formula_units_Z 28
_cell_length_a 6.664385
_cell_length_b 29.552251
_cell_length_c 7.068190
_cell_angle_alpha 90.000000
_cell_angle_beta 132.694265
_cell_angle_gamma 90.000000
_cell_volume 1023.141833
_symmetry_space_group_name_H-M "P 21/C"
_symmetry_group_IT_number 14
_symmetry_cell_setting 'monoclinic'
loop_
_space_group_symop_operation_xyz
x,y,z
-x,1/2+y,1/2-z
-x,-y,-z
x,1/2-y,1/2+z
loop_
_atom_site_type_symbol
_atom_site_label
_atom_site_fract_x
_atom_site_fract_y
_atom_site_fract_z
Si Si1 0.924977 0.481077 0.160329
Si Si2 0.421341 0.650004 0.964533
Si Si3 0.354066 0.439827 0.908273
Si Si4 0.120522 0.290435 0.706049
Si Si5 0.098485 0.313884 0.251322
Si Si6 0.446002 0.447287 0.419758
Si Si7 0.322491 0.857816 0.977342
O O1 0.625057 0.459821 0.983584
O O2 0.154710 0.443125 0.340749
O O3 0.898902 0.525889 0.275579
O O4 0.000000 0.500000 0.000000
O O5 0.648796 0.612113 0.154636
O O6 0.178356 0.657442 0.955664
O O7 0.301037 0.634061 0.689001
O O8 0.575393 0.697388 0.029541
O O9 0.401925 0.442042 0.166266
O O10 0.120243 0.307257 0.490772
O O11 0.066414 0.237446 0.661833
O O12 0.908389 0.319504 0.696748
O O13 0.375951 0.337114 0.362105
O O14 0.500000 0.500000 0.500000
O O15 0.660740 0.407705 0.606760
#
# Coordination Sequence:
#
# PCOD9245039 Si02
#       7
#     4   4   4   4   4   4   4
#     4   9  18  35  56  81 113 158 202 244 296 358
#     4  10  22  40  64  89 124 163 203 257 314 369
#     4   9  19  37  57  83 118 157 203 254 302 365
#     4  11  24  40  65  93 121 161 206 256 316 382
#     4  11  23  42  62  91 123 158 203 255 317 375
#     4  10  21  36  57  87 123 162 201 253 311 361
#     4  10  23  42  62  93 130 161 213 260 308 380
#
# _framework density 27.366685
#
# number of rings (size 3 to 8) (size 9 to 14) (size 15 to 20)
#    0.000    2.000    0.000    2.571    2.000    5.143 
#    7.714    0.000    0.000    0.000    0.000    0.000 
#    0.000    0.000    0.000    0.000    0.000    0.000 
#
# Total GULP energy -156601.815340 kJ/mol
# GULP energy per Si atom -5592.921976 kJ/mol
# Density = 2.730440 g / cm^3
# Si number density = 27.366685 Si / 1000 Ang^3
#
#
#
# Elastic Constant Matrix: (Units=GPa)
#
#
# Indices 1 2 3 4 5 6 
#
# 1 165.7294 48.3320 13.1061 0.0000 12.4562 0.0000
# 2 48.3320 155.7315 14.8509 0.0000 16.9767 0.0000
# 3 13.1061 14.8509 39.6822 0.0000 -1.9504 0.0000
# 4 0.0000 0.0000 0.0000 41.6790 0.0000 7.8181
# 5 12.4562 16.9767 -1.9504 0.0000 51.9332 0.0000
# 6 0.0000 0.0000 0.0000 7.8181 0.0000 44.4687
#
#
#
# Elastic Compliance Matrix: (Units=1/GPa)
#
#
# Indices 1 2 3 4 5 6 
#
# 1 0.006777 -0.001832 -0.001606 0.000000 -0.001087 0.000000
# 2 -0.001832 0.007433 -0.002279 0.000000 -0.002076 0.000000
# 3 -0.001606 -0.002279 0.026688 0.000000 0.002133 0.000000
# 4 0.000000 0.000000 0.000000 0.024811 0.000000 -0.004362
# 5 -0.001087 -0.002076 0.002133 0.000000 0.020275 0.000000
# 6 0.000000 0.000000 0.000000 -0.004362 0.000000 0.023255
#
#
# Mechanical properties :
#
#
# Convention : Reuss Voigt Hill
#
# Bulk Modulus (GPa) = 33.93851 57.08012 45.50931
# Shear Modulus (GPa) = 38.31574 46.60646 42.46110
#
# Velocity S-wave (km/s) = 3.74583 4.13126 3.94326
# Velocity P-wave (km/s) = 5.58002 6.60751 6.11539
#
# Compressibility (1/GPa) = 0.02946506
#
# Stress axis : x y z
#
# Youngs Moduli (GPa) = 147.56260 134.52783 37.46941
#
# Poissons Ratio (x) = 0.24639 0.06018
# Poissons Ratio (y) = 0.27027 0.08540
# Poissons Ratio (z) = 0.23701 0.30660
#
# Static dielectric constant tensor:
#      x y z
#    x 2.127210 0.000000 0.085910 
#    y 0.000000 2.165120 0.000000 
#    z 0.085910 0.000000 2.417530 
# 
# From -- ./inp_files/6861.got.cif
#   From: 2010.05.17/outbox.cif.g08.bks.cpg/sg14_4_cif.got.tgz:6861.got - 2010.06.03 17:49:19.
