data_PCOD9245508
_publ_section_title
;
Structure prediction by ZEFSAII (Michael W. Deem and Ramdas Pophale) SiO2 
 PCOD9245508
Probable space group: P 21/C
;
_chemical_formula_sum "Si O2"
_cell_formula_units_Z 32
_cell_length_a 13.851449
_cell_length_b 19.949388
_cell_length_c 14.752466
_cell_angle_alpha 90.000000
_cell_angle_beta 160.343574
_cell_angle_gamma 90.000000
_cell_volume 1371.255849
_symmetry_space_group_name_H-M "P 21/C"
_symmetry_group_IT_number 14
_symmetry_cell_setting 'monoclinic'
loop_
_space_group_symop_operation_xyz
x,y,z
-x,1/2+y,1/2-z
-x,-y,-z
x,1/2-y,1/2+z
loop_
_atom_site_type_symbol
_atom_site_label
_atom_site_fract_x
_atom_site_fract_y
_atom_site_fract_z
Si Si1 0.578903 0.931322 0.680311
Si Si2 0.656410 0.842097 0.924499
Si Si3 0.865756 0.741648 0.851624
Si Si4 0.505139 0.426922 0.193675
Si Si5 0.149855 0.628112 0.655414
Si Si6 0.148438 0.748377 0.913849
Si Si7 0.369271 0.651620 0.359398
Si Si8 0.133612 0.894955 0.822364
O O1 0.615921 0.897104 0.811515
O O2 0.351311 0.892497 0.416701
O O3 0.484129 0.007062 0.613677
O O4 0.894184 0.925285 0.914598
O O5 0.549850 0.867122 0.929338
O O6 0.451629 0.779877 0.715574
O O7 0.974543 0.812574 0.214655
O O8 0.953498 0.764155 0.828844
O O9 0.547155 0.713417 0.561978
O O10 0.965103 0.803601 0.000488
O O11 0.066034 0.679858 0.056790
O O12 0.639672 0.371222 0.245437
O O13 0.723308 0.435684 0.469597
O O14 0.203318 0.408737 0.971467
O O15 0.170100 0.816039 0.877296
O O16 0.295483 0.596850 0.369959
#
# Coordination Sequence:
#
# PCOD9245508 Si02
#       8
#     4   4   4   4   4   4   4   4
#     4  12  26  43  66  94 132 183 225 272 320 387
#     4  10  23  42  62  95 131 165 216 273 326 381
#     4  10  21  38  61  95 130 163 204 263 331 397
#     4  12  26  45  63  94 135 176 230 266 321 391
#     4  12  24  41  66  97 131 177 217 272 328 395
#     4  10  21  38  63  90 129 166 204 267 331 387
#     4  10  23  40  64  96 134 163 209 274 329 394
#     4  12  24  41  67  93 130 173 219 267 330 391
#
# _framework density 23.336271
#
# number of rings (size 3 to 8) (size 9 to 14) (size 15 to 20)
#    0.000    1.000    1.250    5.250    8.750    0.000 
#    0.000    1.250    0.000    0.000    0.000    0.000 
#    0.000    0.000    0.000    0.000    0.000    0.000 
#
# Total GULP energy -179076.195599 kJ/mol
# GULP energy per Si atom -5596.131112 kJ/mol
# Density = 2.328316 g / cm^3
# Si number density = 23.336271 Si / 1000 Ang^3
#
#
#
# Elastic Constant Matrix: (Units=GPa)
#
#
# Indices 1 2 3 4 5 6 
#
# 1 68.8330 15.4088 23.7274 0.0000 -6.9558 0.0000
# 2 15.4088 19.6675 4.9197 0.0000 2.2419 0.0000
# 3 23.7274 4.9197 112.9642 0.0000 -0.1197 0.0000
# 4 0.0000 0.0000 0.0000 19.5117 0.0000 -3.3179
# 5 -6.9558 2.2419 -0.1197 0.0000 29.6724 0.0000
# 6 0.0000 0.0000 0.0000 -3.3179 0.0000 21.7840
#
#
#
# Elastic Compliance Matrix: (Units=1/GPa)
#
#
# Indices 1 2 3 4 5 6 
#
# 1 0.019717 -0.015236 -0.003472 0.000000 0.005759 0.000000
# 2 -0.015236 0.063632 0.000420 0.000000 -0.008378 0.000000
# 3 -0.003472 0.000420 0.009562 0.000000 -0.000807 0.000000
# 4 0.000000 0.000000 0.000000 0.052614 0.000000 0.008014
# 5 0.005759 -0.008378 -0.000807 0.000000 0.035681 0.000000
# 6 0.000000 0.000000 0.000000 0.008014 0.000000 0.047126
#
#
# Mechanical properties :
#
#
# Convention : Reuss Voigt Hill
#
# Bulk Modulus (GPa) = 17.75053 32.17517 24.96285
# Shear Modulus (GPa) = 17.62508 24.68756 21.15632
#
# Velocity S-wave (km/s) = 2.75119 3.25607 3.01422
# Velocity P-wave (km/s) = 4.20892 5.28711 4.77852
#
# Compressibility (1/GPa) = 0.05633634
#
# Stress axis : x y z
#
# Youngs Moduli (GPa) = 50.71669 15.71541 104.57569
#
# Poissons Ratio (x) = 0.23944 0.36307
# Poissons Ratio (y) = 0.77271 -0.04393
# Poissons Ratio (z) = 0.17608 -0.00660
#
# Static dielectric constant tensor:
#      x y z
#    x 1.940540 0.000000 -0.017570 
#    y 0.000000 1.875840 0.000000 
#    z -0.017570 0.000000 1.839310 
# 
# From -- ./inp_files/47683.got.cif
#   From: 2010.05.17/outbox.cif.g08.bks.cpg/sg14_24_cif.got.tgz:47683.got - 2010.06.03 17:49:19.
