data_PCOD9245203
_publ_section_title
;
Structure prediction by ZEFSAII (Michael W. Deem and Ramdas Pophale) SiO2 
 PCOD9245203
Probable space group: P 21/C
;
_chemical_formula_sum "Si O2"
_cell_formula_units_Z 24
_cell_length_a 16.040258
_cell_length_b 8.351496
_cell_length_c 7.761833
_cell_angle_alpha 90.000000
_cell_angle_beta 93.550361
_cell_angle_gamma 90.000000
_cell_volume 1037.780730
_symmetry_space_group_name_H-M "P 21/C"
_symmetry_group_IT_number 14
_symmetry_cell_setting 'monoclinic'
loop_
_space_group_symop_operation_xyz
x,y,z
-x,1/2+y,1/2-z
-x,-y,-z
x,1/2-y,1/2+z
loop_
_atom_site_type_symbol
_atom_site_label
_atom_site_fract_x
_atom_site_fract_y
_atom_site_fract_z
Si Si1 0.926681 0.003290 0.239737
Si Si2 0.234596 0.835518 0.640246
Si Si3 0.408174 0.866935 0.842225
Si Si4 0.575296 0.014136 0.763900
Si Si5 0.088133 0.174929 0.125723
Si Si6 0.247480 0.007848 0.274624
O O1 0.928660 0.863467 0.381349
O O2 0.850608 0.119600 0.274298
O O3 0.911172 0.908397 0.059702
O O4 0.012368 0.096436 0.222368
O O5 0.317882 0.896253 0.747622
O O6 0.233778 0.919932 0.455052
O O7 0.241373 0.642243 0.640062
O O8 0.419851 0.675859 0.845966
O O9 0.485730 0.932564 0.740966
O O10 0.414507 0.937021 0.034075
O O11 0.659301 0.919744 0.724036
O O12 0.176407 0.134737 0.224614
#
# Coordination Sequence:
#
# PCOD9245203 Si02
#       6
#     4   4   4   4   4   4
#     4  11  24  41  62  88 118 152 192 237 286 342
#     4  11  22  38  61  86 117 154 193 239 289 343
#     4  10  21  37  58  84 115 151 193 239 287 342
#     4  10  21  37  58  84 115 151 193 239 287 342
#     4  11  24  41  62  88 118 152 192 237 286 342
#     4  11  22  38  61  86 117 154 193 239 289 343
#
# _framework density 23.126275
#
# number of rings (size 3 to 8) (size 9 to 14) (size 15 to 20)
#    0.000    1.333    0.000    8.000    0.000    9.333 
#    0.000    3.333    0.000    0.000    0.000    0.000 
#    0.000    0.000    0.000    0.000    0.000    0.000 
#
# Total GULP energy -134392.509275 kJ/mol
# GULP energy per Si atom -5599.687886 kJ/mol
# Density = 2.307364 g / cm^3
# Si number density = 23.126275 Si / 1000 Ang^3
#
#
#
# Elastic Constant Matrix: (Units=GPa)
#
#
# Indices 1 2 3 4 5 6 
#
# 1 134.9663 6.1685 7.2276 0.0000 -36.3176 0.0000
# 2 6.1685 23.6345 -15.6787 0.0000 -1.4134 0.0000
# 3 7.2276 -15.6787 72.6225 0.0000 -4.5401 0.0000
# 4 0.0000 0.0000 0.0000 18.8075 0.0000 -5.5677
# 5 -36.3176 -1.4134 -4.5401 0.0000 22.4956 0.0000
# 6 0.0000 0.0000 0.0000 -5.5677 0.0000 42.8856
#
#
#
# Elastic Compliance Matrix: (Units=1/GPa)
#
#
# Indices 1 2 3 4 5 6 
#
# 1 0.013230 -0.002557 -0.000550 0.000000 0.021087 0.000000
# 2 -0.002557 0.050515 0.011243 0.000000 0.001315 0.000000
# 3 -0.000550 0.011243 0.016448 0.000000 0.003137 0.000000
# 4 0.000000 0.000000 0.000000 0.055296 0.000000 0.007179
# 5 0.021087 0.001315 0.003137 0.000000 0.079212 0.000000
# 6 0.000000 0.000000 0.000000 0.007179 0.000000 0.024250
#
#
# Mechanical properties :
#
#
# Convention : Reuss Voigt Hill
#
# Bulk Modulus (GPa) = 10.36666 25.18422 17.77544
# Shear Modulus (GPa) = 19.62058 32.40480 26.01269
#
# Velocity S-wave (km/s) = 2.91591 3.74734 3.35746
# Velocity P-wave (km/s) = 3.97858 5.44398 4.76791
#
# Compressibility (1/GPa) = 0.09646305
#
# Stress axis : x y z
#
# Youngs Moduli (GPa) = 75.58703 19.79608 60.79785
#
# Poissons Ratio (x) = 0.05062 0.03346
# Poissons Ratio (y) = 0.19328 -0.68352
# Poissons Ratio (z) = 0.04161 -0.22256
#
# Static dielectric constant tensor:
#      x y z
#    x 1.864540 0.000000 -0.016210 
#    y 0.000000 1.865780 0.000000 
#    z -0.016210 0.000000 1.905690 
# 
# From -- ./inp_files/15132.got.cif
#   From: 2010.05.17/outbox.cif.g08.bks.cpg/sg14_8_cif.got.tgz:15132.got - 2010.06.03 17:49:19.
