data_PCOD9245730
_publ_section_title
;
Structure prediction by ZEFSAII (Michael W. Deem and Ramdas Pophale) SiO2 
 PCOD9245730
Probable space group: P 21/C
;
_chemical_formula_sum "Si O2"
_cell_formula_units_Z 32
_cell_length_a 15.800799
_cell_length_b 6.445986
_cell_length_c 26.508359
_cell_angle_alpha 90.000000
_cell_angle_beta 35.198723
_cell_angle_gamma 90.000000
_cell_volume 1556.273235
_symmetry_space_group_name_H-M "P 21/C"
_symmetry_group_IT_number 14
_symmetry_cell_setting 'monoclinic'
loop_
_space_group_symop_operation_xyz
x,y,z
-x,1/2+y,1/2-z
-x,-y,-z
x,1/2-y,1/2+z
loop_
_atom_site_type_symbol
_atom_site_label
_atom_site_fract_x
_atom_site_fract_y
_atom_site_fract_z
Si Si1 0.287181 0.788923 0.243642
Si Si2 0.793092 0.581772 0.647549
Si Si3 0.524509 0.825990 0.813916
Si Si4 0.076787 0.819267 0.761988
Si Si5 0.970484 0.334373 0.386296
Si Si6 0.747621 0.900274 0.060604
Si Si7 0.581037 0.558031 0.076938
Si Si8 0.173025 0.998150 0.614095
O O1 0.223971 0.651741 0.321191
O O2 0.165958 0.811046 0.259894
O O3 0.420415 0.657109 0.154839
O O4 0.362577 0.002531 0.221294
O O5 0.629567 0.680134 0.730081
O O6 0.906484 0.693499 0.630448
O O7 0.839477 0.617042 0.567309
O O8 0.448042 0.676551 0.891737
O O9 0.388761 0.951771 0.857450
O O10 0.926122 0.698160 0.826246
O O11 0.045585 0.037487 0.804483
O O12 0.163691 0.856407 0.668156
O O13 0.846849 0.483878 0.470949
O O14 0.897306 0.130988 0.398372
O O15 0.677956 0.692229 0.070146
O O16 0.667257 0.562648 0.982642
#
# Coordination Sequence:
#
# PCOD9245730 Si02
#       8
#     4   4   4   4   4   4   4   4
#     4   9  22  42  60  90 124 156 202 256 293 357
#     4  10  23  37  62  90 122 162 204 244 297 356
#     4  10  21  39  60  88 123 162 198 246 301 347
#     4  11  23  40  66  89 117 157 204 251 310 365
#     4  11  22  42  59  90 125 156 199 258 299 357
#     4  11  22  37  63  87 125 163 202 243 298 359
#     4  10  22  39  61  89 125 159 201 247 300 360
#     4  12  22  40  65  90 117 162 201 251 310 361
#
# _framework density 20.561942999999999
#
# number of rings (size 3 to 8) (size 9 to 14) (size 15 to 20)
#    0.000    1.500    3.750    1.125    5.250    0.500 
#    0.000    1.250    0.000    0.000    0.000    0.000 
#    0.000    0.000    0.000    0.000    0.000    0.000 
#
# Total GULP energy -178575.372270 kJ/mol
# GULP energy per Si atom -5580.480383 kJ/mol
# Density = 2.051514 g / cm^3
# Si number density = 20.561943 Si / 1000 Ang^3
#
#
#
# Elastic Constant Matrix: (Units=GPa)
#
#
# Indices 1 2 3 4 5 6 
#
# 1 40.2836 -2.1394 6.0203 0.0000 9.1225 0.0000
# 2 -2.1394 36.5005 -0.3255 0.0000 6.3602 0.0000
# 3 6.0203 -0.3255 55.4017 0.0000 10.0859 0.0000
# 4 0.0000 0.0000 0.0000 31.9361 0.0000 -8.6862
# 5 9.1225 6.3602 10.0859 0.0000 29.1662 0.0000
# 6 0.0000 0.0000 0.0000 -8.6862 0.0000 16.4619
#
#
#
# Elastic Compliance Matrix: (Units=1/GPa)
#
#
# Indices 1 2 3 4 5 6 
#
# 1 0.027161 0.003097 -0.001349 0.000000 -0.008704 0.000000
# 2 0.003097 0.028932 0.001236 0.000000 -0.007705 0.000000
# 3 -0.001349 0.001236 0.019397 0.000000 -0.006555 0.000000
# 4 0.000000 0.000000 0.000000 0.036559 0.000000 0.019291
# 5 -0.008704 -0.007705 -0.006555 0.000000 0.040956 0.000000
# 6 0.000000 0.000000 0.000000 0.019291 0.000000 0.070925
#
#
# Mechanical properties :
#
#
# Convention : Reuss Voigt Hill
#
# Bulk Modulus (GPa) = 12.27613 15.47741 13.87677
# Shear Modulus (GPa) = 20.39858 24.08820 22.24339
#
# Velocity S-wave (km/s) = 3.15311 3.42642 3.29260
# Velocity P-wave (km/s) = 4.38627 4.81637 4.60634
#
# Compressibility (1/GPa) = 0.08145890
#
# Stress axis : x y z
#
# Youngs Moduli (GPa) = 36.81727 34.56371 51.55381
#
# Poissons Ratio (x) = -0.10703 0.06953
# Poissons Ratio (y) = -0.11401 -0.06373
# Poissons Ratio (z) = 0.04965 -0.04273
#
# Static dielectric constant tensor:
#      x y z
#    x 1.740580 0.000000 0.001460 
#    y 0.000000 1.755540 0.000000 
#    z 0.001460 0.000000 1.751130 
# 
# From -- ./inp_files/80328.got.cif
#   From: 2010.05.17/outbox.cif.g08.bks.cpg/sg14_41_cif.got.tgz:80328.got - 2010.06.03 17:49:19.
