data_PCOD9245403
_publ_section_title
;
Structure prediction by ZEFSAII (Michael W. Deem and Ramdas Pophale) SiO2 
 PCOD9245403
Probable space group: P 21/C
;
_chemical_formula_sum "Si O2"
_cell_formula_units_Z 24
_cell_length_a 16.725064
_cell_length_b 14.858516
_cell_length_c 10.748432
_cell_angle_alpha 90.000000
_cell_angle_beta 18.559419
_cell_angle_gamma 90.000000
_cell_volume 850.175405
_symmetry_space_group_name_H-M "P 21/C"
_symmetry_group_IT_number 14
_symmetry_cell_setting 'monoclinic'
loop_
_space_group_symop_operation_xyz
x,y,z
-x,1/2+y,1/2-z
-x,-y,-z
x,1/2-y,1/2+z
loop_
_atom_site_type_symbol
_atom_site_label
_atom_site_fract_x
_atom_site_fract_y
_atom_site_fract_z
Si Si1 0.311532 0.980781 0.667289
Si Si2 0.385822 0.808015 0.936365
Si Si3 0.885822 0.191986 0.936365
Si Si4 0.968354 0.860526 0.866453
Si Si5 0.188468 0.980781 0.332711
Si Si6 0.468353 0.139474 0.866453
O O1 0.108521 0.905703 0.009143
O O2 0.483933 0.929687 0.314839
O O3 0.500000 0.000000 0.500000
O O4 0.195654 0.077423 0.801494
O O5 0.250000 0.750000 0.250000
O O6 0.391479 0.905704 0.990857
O O7 0.250000 0.824762 1.000000
O O8 0.608143 0.737598 0.571584
O O9 0.108143 0.262403 0.571584
O O10 0.016067 0.929687 0.685160
O O11 0.250000 0.847374 0.500000
O O12 0.000000 0.000000 0.500000
O O13 0.304346 0.077423 0.198506
#
# Coordination Sequence:
#
# PCOD9245403 Si02
#       6
#     4   4   4   4   4   4
#     4  11  21  38  62  87 116 154 199 244 291 349
#     4   9  19  36  56  82 116 150 192 239 289 347
#     4   9  19  36  56  82 116 150 192 239 289 347
#     4  10  21  38  58  85 119 154 193 243 296 350
#     4  11  21  38  62  87 116 154 199 244 291 349
#     4  10  21  38  58  85 119 154 193 243 296 350
#
# _framework density 28.229469000000002
#
# number of rings (size 3 to 8) (size 9 to 14) (size 15 to 20)
#    0.000    2.000    0.000    4.000    0.000    0.000 
#    0.000   25.000    0.000    0.000    0.000    0.000 
#    0.000    0.000    0.000    0.000    0.000    0.000 
#
# Total GULP energy -133859.325473 kJ/mol
# GULP energy per Si atom -5577.471895 kJ/mol
# Density = 2.816522 g / cm^3
# Si number density = 28.229469 Si / 1000 Ang^3
#
#
#
# Elastic Constant Matrix: (Units=GPa)
#
#
# Indices 1 2 3 4 5 6 
#
# 1 131.4776 -11.0597 2.7998 0.0000 11.6859 0.0000
# 2 -11.0597 268.1197 35.1592 0.0000 4.0550 0.0000
# 3 2.7998 35.1592 93.3634 0.0000 26.5487 0.0000
# 4 0.0000 0.0000 0.0000 37.0661 0.0000 13.4154
# 5 11.6859 4.0550 26.5487 0.0000 52.9855 0.0000
# 6 0.0000 0.0000 0.0000 13.4154 0.0000 34.1614
#
#
#
# Elastic Compliance Matrix: (Units=1/GPa)
#
#
# Indices 1 2 3 4 5 6 
#
# 1 0.007792 0.000328 0.000162 0.000000 -0.001825 0.000000
# 2 0.000328 0.003949 -0.001622 0.000000 0.000438 0.000000
# 3 0.000162 -0.001622 0.013168 0.000000 -0.006509 0.000000
# 4 0.000000 0.000000 0.000000 0.031449 0.000000 -0.012350
# 5 -0.001825 0.000438 -0.006509 0.000000 0.022504 0.000000
# 6 0.000000 0.000000 0.000000 -0.012350 0.000000 0.034123
#
#
# Mechanical properties :
#
#
# Convention : Reuss Voigt Hill
#
# Bulk Modulus (GPa) = 44.15997 60.75102 52.45549
# Shear Modulus (GPa) = 40.71781 55.91336 48.31559
#
# Velocity S-wave (km/s) = 3.80200 4.45530 4.14155
# Velocity P-wave (km/s) = 5.91192 6.93062 6.44144
#
# Compressibility (1/GPa) = 0.02264494
#
# Stress axis : x y z
#
# Youngs Moduli (GPa) = 128.33396 253.21465 75.94387
#
# Poissons Ratio (x) = -0.08301 -0.01228
# Poissons Ratio (y) = -0.04207 0.12315
# Poissons Ratio (z) = -0.02076 0.41061
#
# Static dielectric constant tensor:
#      x y z
#    x 2.277590 0.000000 0.054100 
#    y 0.000000 2.310660 0.000000 
#    z 0.054100 0.000000 2.405190 
# 
# From -- ./inp_files/34375.got.cif
#   From: 2010.05.17/outbox.cif.g08.bks.cpg/sg14_18_cif.got.tgz:34375.got - 2010.06.03 17:49:19.
