data_PCOD9245948
_publ_section_title
;
Structure prediction by ZEFSAII (Michael W. Deem and Ramdas Pophale) SiO2 
 PCOD9245948
Probable space group: P 21/C
;
_chemical_formula_sum "Si O2"
_cell_formula_units_Z 20
_cell_length_a 5.132123
_cell_length_b 8.209353
_cell_length_c 22.451983
_cell_angle_alpha 90.000000
_cell_angle_beta 105.162974
_cell_angle_gamma 90.000000
_cell_volume 913.001692
_symmetry_space_group_name_H-M "P 21/C"
_symmetry_group_IT_number 14
_symmetry_cell_setting 'monoclinic'
loop_
_space_group_symop_operation_xyz
x,y,z
-x,1/2+y,1/2-z
-x,-y,-z
x,1/2-y,1/2+z
loop_
_atom_site_type_symbol
_atom_site_label
_atom_site_fract_x
_atom_site_fract_y
_atom_site_fract_z
Si Si1 0.516317 0.137021 0.449777
Si Si2 0.913004 0.814176 0.004753
Si Si3 0.334417 0.848578 0.249131
Si Si4 0.653637 0.639514 0.876404
Si Si5 0.872649 0.013017 0.282596
O O1 0.287885 0.269196 0.452543
O O2 0.810941 0.215729 0.470327
O O3 0.500000 0.000000 0.500000
O O4 0.511668 0.027323 0.390433
O O5 0.761351 0.746553 0.936665
O O6 0.000000 0.000000 0.000000
O O7 0.442891 0.777566 0.319095
O O8 0.193329 0.700052 0.208442
O O9 0.603529 0.927706 0.238942
O O10 0.119771 0.986092 0.253599
O O11 0.894374 0.581368 0.846920
#
# Coordination Sequence:
#
# PCOD9245948 Si02
#       5
#     4   4   4   4   4
#     4  10  21  39  66  86 123 162 198 240 302 372
#     4  11  23  40  61  95 126 153 205 260 290 357
#     4  10  22  40  62  84 122 152 206 250 299 357
#     4   9  23  39  66  83 125 162 204 233 322 359
#     4  10  22  40  62  86 121 157 201 255 301 357
#
# _framework density 21.905763
#
# number of rings (size 3 to 8) (size 9 to 14) (size 15 to 20)
#    1.200    0.800    0.000    4.200    8.400    0.000 
#    3.600    0.000    0.000    0.000    0.000    0.000 
#    0.000    0.000    0.000    0.000    0.000    0.000 
#
# Total GULP energy -111466.442834 kJ/mol
# GULP energy per Si atom -5573.322142 kJ/mol
# Density = 2.185590 g / cm^3
# Si number density = 21.905763 Si / 1000 Ang^3
#
#
#
# Elastic Constant Matrix: (Units=GPa)
#
#
# Indices 1 2 3 4 5 6 
#
# 1 109.7313 -0.1484 7.7302 0.0000 7.7623 0.0000
# 2 -0.1484 71.1770 13.3104 0.0000 7.4881 0.0000
# 3 7.7302 13.3104 36.8416 0.0000 -2.4767 0.0000
# 4 0.0000 0.0000 0.0000 26.8262 0.0000 2.1154
# 5 7.7623 7.4881 -2.4767 0.0000 10.4104 0.0000
# 6 0.0000 0.0000 0.0000 2.1154 0.0000 41.5674
#
#
#
# Elastic Compliance Matrix: (Units=1/GPa)
#
#
# Indices 1 2 3 4 5 6 
#
# 1 0.010017 0.001636 -0.003327 0.000000 -0.009438 0.000000
# 2 0.001636 0.017072 -0.007539 0.000000 -0.015293 0.000000
# 3 -0.003327 -0.007539 0.031602 0.000000 0.015422 0.000000
# 4 0.000000 0.000000 0.000000 0.037427 0.000000 -0.001905
# 5 -0.009438 -0.015293 0.015422 0.000000 0.117764 0.000000
# 6 0.000000 0.000000 0.000000 -0.001905 0.000000 0.024154
#
#
# Mechanical properties :
#
#
# Convention : Reuss Voigt Hill
#
# Bulk Modulus (GPa) = 24.85709 28.83714 26.84712
# Shear Modulus (GPa) = 18.52489 28.88464 23.70476
#
# Velocity S-wave (km/s) = 2.91118 3.63517 3.29313
# Velocity P-wave (km/s) = 4.76150 5.55086 5.17127
#
# Compressibility (1/GPa) = 0.04022996
#
# Stress axis : x y z
#
# Youngs Moduli (GPa) = 99.82649 58.57683 31.64362
#
# Poissons Ratio (x) = -0.09583 0.10529
# Poissons Ratio (y) = -0.16332 0.23856
# Poissons Ratio (z) = 0.33216 0.44162
#
# Static dielectric constant tensor:
#      x y z
#    x 1.826580 0.000000 -0.001440 
#    y 0.000000 1.809680 0.000000 
#    z -0.001440 0.000000 1.854680 
# 
# From -- ./inp_files/70898.got.cif
#   From: 2010.05.17/outbox.cif.g08.bks.cpg/sg14_36_cif.got.tgz:70898.got - 2010.06.03 17:49:19.
