data_PCOD9245471
_publ_section_title
;
Structure prediction by ZEFSAII (Michael W. Deem and Ramdas Pophale) SiO2 
 PCOD9245471
Probable space group: P 21/C
;
_chemical_formula_sum "Si O2"
_cell_formula_units_Z 20
_cell_length_a 8.765431
_cell_length_b 18.047672
_cell_length_c 5.205099
_cell_angle_alpha 90.000000
_cell_angle_beta 97.908711
_cell_angle_gamma 90.000000
_cell_volume 815.591932
_symmetry_space_group_name_H-M "P 21/C"
_symmetry_group_IT_number 14
_symmetry_cell_setting 'monoclinic'
loop_
_space_group_symop_operation_xyz
x,y,z
-x,1/2+y,1/2-z
-x,-y,-z
x,1/2-y,1/2+z
loop_
_atom_site_type_symbol
_atom_site_label
_atom_site_fract_x
_atom_site_fract_y
_atom_site_fract_z
Si Si1 0.286572 0.775572 0.259211
Si Si2 0.060805 0.213098 0.274459
Si Si3 0.843024 0.579499 0.563787
Si Si4 0.394798 0.011122 0.727505
Si Si5 0.826271 0.438966 0.183303
O O1 0.373375 0.755911 0.537292
O O2 0.247213 0.861945 0.237793
O O3 0.125386 0.727381 0.247075
O O4 0.114893 0.225934 0.576627
O O5 0.110049 0.139513 0.139064
O O6 0.694871 0.586081 0.713584
O O7 0.810795 0.505758 0.384020
O O8 0.991321 0.572410 0.781246
O O9 0.500000 0.000000 0.500000
O O10 0.252767 0.958147 0.606139
O O11 0.500000 0.000000 0.000000
#
# Coordination Sequence:
#
# PCOD9245471 Si02
#       5
#     4   4   4   4   4
#     4  10  21  38  62 101 144 174 218 296 370 406
#     4  10  21  38  61 101 144 173 220 296 370 406
#     4  11  24  42  75 110 136 183 247 303 350 421
#     4  12  27  48  66 100 145 190 228 289 355 425
#     4  11  24  42  76 109 139 177 251 296 354 419
#
# _framework density 24.522067
#
# number of rings (size 3 to 8) (size 9 to 14) (size 15 to 20)
#    0.000    1.200    6.000    0.600    5.600    1.600 
#    0.000    0.000    0.000    7.200    0.000    0.000 
#    0.000    0.000    0.000    0.000    0.000    0.000 
#
# Total GULP energy -111558.945755 kJ/mol
# GULP energy per Si atom -5577.947288 kJ/mol
# Density = 2.446625 g / cm^3
# Si number density = 24.522067 Si / 1000 Ang^3
#
#
#
# Elastic Constant Matrix: (Units=GPa)
#
#
# Indices 1 2 3 4 5 6 
#
# 1 61.6064 -0.3767 31.4228 0.0000 7.4106 0.0000
# 2 -0.3767 106.8677 22.1603 0.0000 7.7405 0.0000
# 3 31.4228 22.1603 178.4718 0.0000 7.1033 0.0000
# 4 0.0000 0.0000 0.0000 37.2907 0.0000 -8.2429
# 5 7.4106 7.7405 7.1033 0.0000 40.0051 0.0000
# 6 0.0000 0.0000 0.0000 -8.2429 0.0000 13.1889
#
#
#
# Elastic Compliance Matrix: (Units=1/GPa)
#
#
# Indices 1 2 3 4 5 6 
#
# 1 0.018234 0.000946 -0.003209 0.000000 -0.002991 0.000000
# 2 0.000946 0.009764 -0.001306 0.000000 -0.001833 0.000000
# 3 -0.003209 -0.001306 0.006341 0.000000 -0.000279 0.000000
# 4 0.000000 0.000000 0.000000 0.031115 0.000000 0.019446
# 5 -0.002991 -0.001833 -0.000279 0.000000 0.025955 0.000000
# 6 0.000000 0.000000 0.000000 0.019446 0.000000 0.087975
#
#
# Mechanical properties :
#
#
# Convention : Reuss Voigt Hill
#
# Bulk Modulus (GPa) = 36.76099 50.37317 43.56708
# Shear Modulus (GPa) = 25.56377 37.67958 31.62167
#
# Velocity S-wave (km/s) = 3.23225 3.92415 3.59488
# Velocity P-wave (km/s) = 5.38084 6.41237 5.91912
#
# Compressibility (1/GPa) = 0.02720275
#
# Stress axis : x y z
#
# Youngs Moduli (GPa) = 54.84139 102.41421 157.69451
#
# Poissons Ratio (x) = -0.09692 0.50603
# Poissons Ratio (y) = -0.05190 0.20596
# Poissons Ratio (z) = 0.17598 0.13376
#
# Static dielectric constant tensor:
#      x y z
#    x 2.025550 0.000000 -0.038140 
#    y 0.000000 2.041370 0.000000 
#    z -0.038140 0.000000 2.070340 
# 
# From -- ./inp_files/1201.got.cif
#   From: 2010.05.17/outbox.cif.g08.bks.cpg/sg14_1_cif.got.tgz:1201.got - 2010.06.03 17:49:19.
