data_PCOD9245263
_publ_section_title
;
Structure prediction by ZEFSAII (Michael W. Deem and Ramdas Pophale) SiO2 
 PCOD9245263
Probable space group: P 21/C
;
_chemical_formula_sum "Si O2"
_cell_formula_units_Z 28
_cell_length_a 9.505471
_cell_length_b 7.933867
_cell_length_c 18.554033
_cell_angle_alpha 90.000000
_cell_angle_beta 94.202650
_cell_angle_gamma 90.000000
_cell_volume 1395.492574
_symmetry_space_group_name_H-M "P 21/C"
_symmetry_group_IT_number 14
_symmetry_cell_setting 'monoclinic'
loop_
_space_group_symop_operation_xyz
x,y,z
-x,1/2+y,1/2-z
-x,-y,-z
x,1/2-y,1/2+z
loop_
_atom_site_type_symbol
_atom_site_label
_atom_site_fract_x
_atom_site_fract_y
_atom_site_fract_z
Si Si1 0.798257 0.769471 0.920565
Si Si2 0.029705 0.864169 0.709887
Si Si3 0.587815 0.871569 0.699398
Si Si4 0.694489 0.952505 0.284956
Si Si5 0.066512 0.916556 0.431886
Si Si6 0.648407 0.565770 0.036918
Si Si7 0.184391 0.987093 0.196458
O O1 0.737542 0.629340 0.862966
O O2 0.968680 0.748698 0.924984
O O3 0.769296 0.946927 0.880342
O O4 0.722665 0.713619 0.991740
O O5 0.092239 0.682009 0.692314
O O6 0.165834 0.966286 0.741827
O O7 0.965202 0.965319 0.638973
O O8 0.914203 0.871141 0.768288
O O9 0.631937 0.694727 0.734433
O O10 0.621275 0.874627 0.616750
O O11 0.424977 0.910405 0.706064
O O12 0.680698 0.012102 0.745706
O O13 0.233437 0.917430 0.451693
O O14 0.000000 0.000000 0.500000
O O15 0.500000 0.500000 0.000000
#
# Coordination Sequence:
#
# PCOD9245263 Si02
#       7
#     4   4   4   4   4   4   4
#     4   9  20  38  57  89 121 153 200 251 293 365
#     4  11  21  38  63  90 116 158 201 258 306 356
#     4  11  21  37  61  91 120 162 200 249 300 363
#     4  10  21  37  60  88 122 151 203 249 299 360
#     4   9  19  36  59  85 119 157 199 242 304 365
#     4  11  20  36  63  87 122 166 202 241 307 366
#     4  11  22  37  63  89 121 152 210 256 302 357
#
# _framework density 20.064599999999999
#
# number of rings (size 3 to 8) (size 9 to 14) (size 15 to 20)
#    0.000    1.714    2.857    3.429    0.000    0.000 
#    0.000    2.857    3.143    9.429    0.000    0.000 
#    0.000    0.000    0.000    0.000    0.000    0.000 
#
# Total GULP energy -156119.564869 kJ/mol
# GULP energy per Si atom -5575.698745 kJ/mol
# Density = 2.001893 g / cm^3
# Si number density = 20.064600 Si / 1000 Ang^3
#
#
#
# Elastic Constant Matrix: (Units=GPa)
#
#
# Indices 1 2 3 4 5 6 
#
# 1 133.5091 16.7962 32.9444 0.0000 11.6667 0.0000
# 2 16.7962 43.5846 -11.4256 0.0000 2.8137 0.0000
# 3 32.9444 -11.4256 64.9608 0.0000 -5.3576 0.0000
# 4 0.0000 0.0000 0.0000 14.5262 0.0000 1.0311
# 5 11.6667 2.8137 -5.3576 0.0000 28.0022 0.0000
# 6 0.0000 0.0000 0.0000 1.0311 0.0000 28.2920
#
#
#
# Elastic Compliance Matrix: (Units=1/GPa)
#
#
# Indices 1 2 3 4 5 6 
#
# 1 0.010202 -0.005320 -0.006519 0.000000 -0.004963 0.000000
# 2 -0.005320 0.026901 0.007508 0.000000 0.000950 0.000000
# 3 -0.006519 0.007508 0.020506 0.000000 0.005885 0.000000
# 4 0.000000 0.000000 0.000000 0.069020 0.000000 -0.002515
# 5 -0.004963 0.000950 0.005885 0.000000 0.038810 0.000000
# 6 0.000000 0.000000 0.000000 -0.002515 0.000000 0.035437
#
#
# Mechanical properties :
#
#
# Convention : Reuss Voigt Hill
#
# Bulk Modulus (GPa) = 20.43049 35.40938 27.91994
# Shear Modulus (GPa) = 22.13840 27.74671 24.94256
#
# Velocity S-wave (km/s) = 3.32528 3.72273 3.52961
# Velocity P-wave (km/s) = 4.99478 6.01367 5.52775
#
# Compressibility (1/GPa) = 0.04894644
#
# Stress axis : x y z
#
# Youngs Moduli (GPa) = 98.02364 37.17357 48.76704
#
# Poissons Ratio (x) = 0.19776 0.31790
# Poissons Ratio (y) = 0.52147 -0.36613
# Poissons Ratio (z) = 0.63898 -0.27909
#
# Static dielectric constant tensor:
#      x y z
#    x 1.744850 0.000000 0.038160 
#    y 0.000000 1.751420 0.000000 
#    z 0.038160 0.000000 1.727640 
# 
# From -- ./inp_files/54862.got.cif
#   From: 2010.05.17/outbox.cif.g08.bks.cpg/sg14_28_cif.got.tgz:54862.got - 2010.06.03 17:49:19.
