data_PCOD9245782
_publ_section_title
;
Structure prediction by ZEFSAII (Michael W. Deem and Ramdas Pophale) SiO2 
 PCOD9245782
Probable space group: P 21/C
;
_chemical_formula_sum "Si O2"
_cell_formula_units_Z 24
_cell_length_a 10.115614
_cell_length_b 16.175688
_cell_length_c 6.810121
_cell_angle_alpha 90.000000
_cell_angle_beta 88.544725
_cell_angle_gamma 90.000000
_cell_volume 1113.960358
_symmetry_space_group_name_H-M "P 21/C"
_symmetry_group_IT_number 14
_symmetry_cell_setting 'monoclinic'
loop_
_space_group_symop_operation_xyz
x,y,z
-x,1/2+y,1/2-z
-x,-y,-z
x,1/2-y,1/2+z
loop_
_atom_site_type_symbol
_atom_site_label
_atom_site_fract_x
_atom_site_fract_y
_atom_site_fract_z
Si Si1 0.321711 0.072616 0.489424
Si Si2 0.598307 0.385889 0.075392
Si Si3 0.148101 0.474331 0.356030
Si Si4 0.782143 0.134898 0.893390
Si Si5 0.934556 0.599063 0.257878
Si Si6 0.854046 0.311564 0.985633
O O1 0.450929 0.129284 0.508290
O O2 0.256708 0.058858 0.704626
O O3 0.203497 0.097159 0.350070
O O4 0.374920 0.983873 0.414736
O O5 0.639478 0.354951 0.291593
O O6 0.712836 0.351203 0.927574
O O7 0.096467 0.404669 0.508619
O O8 0.029885 0.518030 0.238174
O O9 0.873602 0.357028 0.194073
O O10 0.821001 0.215595 0.013182
O O11 0.797919 0.050013 0.009509
O O12 0.023701 0.669815 0.157927
#
# Coordination Sequence:
#
# PCOD9245782 Si02
#       6
#     4   4   4   4   4   4
#     4  11  21  41  59  94 131 150 202 263 318 358
#     4   9  22  38  62  90 122 161 195 263 305 371
#     4  11  22  34  67  94 122 161 204 259 309 362
#     4  10  21  39  62  94 115 170 211 246 313 367
#     4  11  22  37  61  98 122 159 205 262 303 361
#     4  10  21  39  62  87 124 158 211 255 294 375
#
# _framework density 21.544753
#
# number of rings (size 3 to 8) (size 9 to 14) (size 15 to 20)
#    1.000    0.667    3.333    1.500    4.667    0.667 
#    0.000    0.000    7.333    0.000    0.000    0.000 
#    0.000    0.000    0.000    0.000    0.000    0.000 
#
# Total GULP energy -133756.049415 kJ/mol
# GULP energy per Si atom -5573.168726 kJ/mol
# Density = 2.149572 g / cm^3
# Si number density = 21.544753 Si / 1000 Ang^3
#
#
#
# Elastic Constant Matrix: (Units=GPa)
#
#
# Indices 1 2 3 4 5 6 
#
# 1 139.3015 15.8240 48.8806 0.0000 38.7371 0.0000
# 2 15.8240 27.3539 16.7657 0.0000 7.0843 0.0000
# 3 48.8806 16.7657 97.3184 0.0000 16.0004 0.0000
# 4 0.0000 0.0000 0.0000 20.7361 0.0000 1.7589
# 5 38.7371 7.0843 16.0004 0.0000 30.3154 0.0000
# 6 0.0000 0.0000 0.0000 1.7589 0.0000 22.6763
#
#
#
# Elastic Compliance Matrix: (Units=1/GPa)
#
#
# Indices 1 2 3 4 5 6 
#
# 1 0.012435 -0.001361 -0.003779 0.000000 -0.013576 0.000000
# 2 -0.001361 0.042185 -0.005748 0.000000 -0.005085 0.000000
# 3 -0.003779 -0.005748 0.013304 0.000000 -0.000850 0.000000
# 4 0.000000 0.000000 0.000000 0.048545 0.000000 -0.003765
# 5 -0.013576 -0.005085 -0.000850 0.000000 0.051971 0.000000
# 6 0.000000 0.000000 0.000000 -0.003765 0.000000 0.044391
#
#
# Mechanical properties :
#
#
# Convention : Reuss Voigt Hill
#
# Bulk Modulus (GPa) = 21.66954 47.43495 34.55225
# Shear Modulus (GPa) = 20.00092 26.91246 23.45669
#
# Velocity S-wave (km/s) = 3.05018 3.53815 3.30319
# Velocity P-wave (km/s) = 4.74179 6.22544 5.53356
#
# Compressibility (1/GPa) = 0.04614772
#
# Stress axis : x y z
#
# Youngs Moduli (GPa) = 80.42026 23.70496 75.16787
#
# Poissons Ratio (x) = 0.03226 0.28406
# Poissons Ratio (y) = 0.10945 0.43205
# Poissons Ratio (z) = 0.30391 0.13625
#
# Static dielectric constant tensor:
#      x y z
#    x 1.816660 0.000000 0.030980 
#    y 0.000000 1.827350 0.000000 
#    z 0.030980 0.000000 1.846810 
# 
# From -- ./inp_files/8627.got.cif
#   From: 2010.05.17/outbox.cif.g08.bks.cpg/sg14_5_cif.got.tgz:8627.got - 2010.06.03 17:49:19.
