data_PCOD9245925
_publ_section_title
;
Structure prediction by ZEFSAII (Michael W. Deem and Ramdas Pophale) SiO2 
 PCOD9245925
Probable space group: P 21/C
;
_chemical_formula_sum "Si O2"
_cell_formula_units_Z 32
_cell_length_a 8.193872
_cell_length_b 16.787577
_cell_length_c 18.232160
_cell_angle_alpha 90.000000
_cell_angle_beta 34.945401
_cell_angle_gamma 90.000000
_cell_volume 1436.530907
_symmetry_space_group_name_H-M "P 21/C"
_symmetry_group_IT_number 14
_symmetry_cell_setting 'monoclinic'
loop_
_space_group_symop_operation_xyz
x,y,z
-x,1/2+y,1/2-z
-x,-y,-z
x,1/2-y,1/2+z
loop_
_atom_site_type_symbol
_atom_site_label
_atom_site_fract_x
_atom_site_fract_y
_atom_site_fract_z
Si Si1 0.375681 0.562598 0.401790
Si Si2 0.503494 0.109116 0.300794
Si Si3 0.974882 0.269173 0.605619
Si Si4 0.335684 0.793718 0.017995
Si Si5 0.899022 0.813782 0.298693
Si Si6 0.731506 0.605130 0.594380
Si Si7 0.561772 0.570608 0.823661
Si Si8 0.076732 0.816592 0.504703
O O1 0.549080 0.591242 0.266929
O O2 0.397555 0.618296 0.464179
O O3 0.411755 0.468076 0.396912
O O4 0.057811 0.579599 0.489047
O O5 0.780613 0.162575 0.213865
O O6 0.216991 0.156319 0.423026
O O7 0.547895 0.024264 0.322916
O O8 0.778435 0.234124 0.613630
O O9 0.041646 0.198691 0.637327
O O10 0.231194 0.316728 0.469593
O O11 0.196179 0.793437 0.149146
O O12 0.623955 0.745242 0.894215
O O13 0.082880 0.747740 0.066785
O O14 0.789529 0.893325 0.297226
O O15 0.614230 0.602408 0.720845
O O16 0.259496 0.607215 0.958373
#
# Coordination Sequence:
#
# PCOD9245925 Si02
#       8
#     4   4   4   4   4   4   4   4
#     4   9  16  32  62  91 110 150 205 261 301 357
#     4  10  21  39  65  93 124 157 212 264 313 369
#     4  11  24  37  62  92 125 164 204 257 311 372
#     4  11  21  39  62  90 124 163 211 258 313 376
#     4  11  25  38  61  89 130 168 208 254 318 382
#     4   9  17  33  61  90 114 150 205 255 307 358
#     4  10  21  40  67  91 121 166 208 261 314 376
#     4  11  22  36  66  93 123 160 214 259 312 376
#
# _framework density 22.275887000000001
#
# number of rings (size 3 to 8) (size 9 to 14) (size 15 to 20)
#    0.000    1.750    3.750    1.875    5.250    0.000 
#    0.000    1.250    8.250    0.000    0.000    0.000 
#    0.000    0.000    0.000    0.000    0.000    0.000 
#
# Total GULP energy -178190.655414 kJ/mol
# GULP energy per Si atom -5568.457982 kJ/mol
# Density = 2.222519 g / cm^3
# Si number density = 22.275887 Si / 1000 Ang^3
#
#
#
# Elastic Constant Matrix: (Units=GPa)
#
#
# Indices 1 2 3 4 5 6 
#
# 1 29.3610 -11.5479 2.7086 0.0000 2.3578 0.0000
# 2 -11.5479 66.1283 18.9615 0.0000 -4.4640 0.0000
# 3 2.7086 18.9615 35.9384 0.0000 12.0319 0.0000
# 4 0.0000 0.0000 0.0000 22.1684 0.0000 4.9789
# 5 2.3578 -4.4640 12.0319 0.0000 25.8457 0.0000
# 6 0.0000 0.0000 0.0000 4.9789 0.0000 6.5952
#
#
#
# Elastic Compliance Matrix: (Units=1/GPa)
#
#
# Indices 1 2 3 4 5 6 
#
# 1 0.038313 0.009251 -0.008450 0.000000 0.002037 0.000000
# 2 0.009251 0.021932 -0.015702 0.000000 0.010254 0.000000
# 3 -0.008450 -0.015702 0.044301 0.000000 -0.022565 0.000000
# 4 0.000000 0.000000 0.000000 0.054320 0.000000 -0.041008
# 5 0.002037 0.010254 -0.022565 0.000000 0.050781 0.000000
# 6 0.000000 0.000000 0.000000 -0.041008 0.000000 0.182584
#
#
# Mechanical properties :
#
#
# Convention : Reuss Voigt Hill
#
# Bulk Modulus (GPa) = 13.37889 16.85245 15.11567
# Shear Modulus (GPa) = 11.18699 19.00889 15.09794
#
# Velocity S-wave (km/s) = 2.24342 2.92437 2.60623
# Velocity P-wave (km/s) = 3.56786 4.35710 3.98208
#
# Compressibility (1/GPa) = 0.07474460
#
# Stress axis : x y z
#
# Youngs Moduli (GPa) = 26.10058 45.59530 22.57279
#
# Poissons Ratio (x) = -0.42181 0.19075
# Poissons Ratio (y) = -0.24146 0.35443
# Poissons Ratio (z) = 0.22056 0.71592
#
# Static dielectric constant tensor:
#      x y z
#    x 1.859890 0.000000 -0.027660 
#    y 0.000000 1.869570 0.000000 
#    z -0.027660 0.000000 1.907410 
# 
# From -- ./inp_files/56091.got.cif
#   From: 2010.05.17/outbox.cif.g08.bks.cpg/sg14_29_cif.got.tgz:56091.got - 2010.06.03 17:49:19.
