data_PCOD9245023
_publ_section_title
;
Structure prediction by ZEFSAII (Michael W. Deem and Ramdas Pophale) SiO2 
 PCOD9245023
Probable space group: P 21/C
;
_chemical_formula_sum "Si O2"
_cell_formula_units_Z 32
_cell_length_a 13.555038
_cell_length_b 7.624975
_cell_length_c 14.413239
_cell_angle_alpha 90.000000
_cell_angle_beta 65.521553
_cell_angle_gamma 90.000000
_cell_volume 1355.807633
_symmetry_space_group_name_H-M "P 21/C"
_symmetry_group_IT_number 14
_symmetry_cell_setting 'monoclinic'
loop_
_space_group_symop_operation_xyz
x,y,z
-x,1/2+y,1/2-z
-x,-y,-z
x,1/2-y,1/2+z
loop_
_atom_site_type_symbol
_atom_site_label
_atom_site_fract_x
_atom_site_fract_y
_atom_site_fract_z
Si Si1 0.505257 0.889454 0.849022
Si Si2 0.646124 0.428055 0.435303
Si Si3 0.753434 0.721888 0.503417
Si Si4 0.649097 0.574810 0.727470
Si Si5 0.814781 0.057181 0.564602
Si Si6 0.030356 0.266224 0.183078
Si Si7 0.214673 0.782439 0.748607
Si Si8 0.988910 0.645352 0.115184
O O1 0.593817 0.745095 0.791550
O O2 0.563902 0.046307 0.882062
O O3 0.446703 0.959086 0.780432
O O4 0.412044 0.828698 0.957444
O O5 0.674694 0.621624 0.462732
O O6 0.749600 0.329939 0.354231
O O7 0.726177 0.630610 0.611856
O O8 0.744374 0.932121 0.525222
O O9 0.871563 0.686791 0.413618
O O10 0.716988 0.458488 0.771689
O O11 0.894263 0.911214 0.582076
O O12 0.760837 0.165164 0.668619
O O13 0.899641 0.188321 0.481096
O O14 0.913248 0.186629 0.205496
O O15 0.049448 0.263490 0.285721
O O16 0.019180 0.464719 0.154542
#
# Coordination Sequence:
#
# PCOD9245023 Si02
#       8
#     4   4   4   4   4   4   4   4
#     4  10  23  44  66  90 121 156 209 268 313 363
#     4  10  22  43  66  91 124 160 204 262 317 363
#     4  10  21  38  63  91 122 165 205 242 304 370
#     4  11  24  41  66  93 117 161 208 256 319 367
#     4   9  19  36  56  83 121 164 209 248 288 355
#     4  10  21  36  56  89 131 165 200 248 296 366
#     4  11  23  38  61  93 129 165 201 250 310 371
#     4   9  19  34  54  80 121 174 206 240 293 338
#
# _framework density 23.602167999999999
#
# number of rings (size 3 to 8) (size 9 to 14) (size 15 to 20)
#    0.000    2.000    0.000    3.750    0.000    7.000 
#    0.000    1.250    0.000    0.000    0.000    0.000 
#    0.000    0.000    0.000    0.000    0.000    0.000 
#
# Total GULP energy -178897.423891 kJ/mol
# GULP energy per Si atom -5590.544497 kJ/mol
# Density = 2.354845 g / cm^3
# Si number density = 23.602168 Si / 1000 Ang^3
#
#
#
# Elastic Constant Matrix: (Units=GPa)
#
#
# Indices 1 2 3 4 5 6 
#
# 1 46.8616 2.6582 16.3570 0.0000 -8.0639 0.0000
# 2 2.6582 23.8624 16.1742 0.0000 -3.7676 0.0000
# 3 16.3570 16.1742 122.9585 0.0000 -7.2157 0.0000
# 4 0.0000 0.0000 0.0000 16.1684 0.0000 8.8510
# 5 -8.0639 -3.7676 -7.2157 0.0000 28.0141 0.0000
# 6 0.0000 0.0000 0.0000 8.8510 0.0000 34.8711
#
#
#
# Elastic Compliance Matrix: (Units=1/GPa)
#
#
# Indices 1 2 3 4 5 6 
#
# 1 0.023335 0.000238 -0.002782 0.000000 0.006033 0.000000
# 2 0.000238 0.046629 -0.005882 0.000000 0.004825 0.000000
# 3 -0.002782 -0.005882 0.009324 0.000000 0.000810 0.000000
# 4 0.000000 0.000000 0.000000 0.071830 0.000000 -0.018232
# 5 0.006033 0.004825 0.000810 0.000000 0.038290 0.000000
# 6 0.000000 0.000000 0.000000 -0.018232 0.000000 0.033305
#
#
# Mechanical properties :
#
#
# Convention : Reuss Voigt Hill
#
# Bulk Modulus (GPa) = 16.01604 29.34014 22.67809
# Shear Modulus (GPa) = 19.20300 26.37693 22.78996
#
# Velocity S-wave (km/s) = 2.85548 3.34663 3.11076
# Velocity P-wave (km/s) = 4.20384 5.23367 4.74677
#
# Compressibility (1/GPa) = 0.06243742
#
# Stress axis : x y z
#
# Youngs Moduli (GPa) = 42.85426 21.44577 107.24844
#
# Poissons Ratio (x) = -0.00511 0.29832
# Poissons Ratio (y) = -0.01022 0.63087
# Poissons Ratio (z) = 0.11920 0.12615
#
# Static dielectric constant tensor:
#      x y z
#    x 1.926390 0.000000 -0.010670 
#    y 0.000000 1.907500 0.000000 
#    z -0.010670 0.000000 1.948470 
# 
# From -- ./inp_files/46501.got.cif
#   From: 2010.05.17/outbox.cif.g08.bks.cpg/sg14_24_cif.got.tgz:46501.got - 2010.06.03 17:49:19.
