data_PCOD9245558
_publ_section_title
;
Structure prediction by ZEFSAII (Michael W. Deem and Ramdas Pophale) SiO2 
 PCOD9245558
Probable space group: P 21/C
;
_chemical_formula_sum "Si O2"
_cell_formula_units_Z 24
_cell_length_a 5.103105
_cell_length_b 15.033593
_cell_length_c 13.579219
_cell_angle_alpha 90.000000
_cell_angle_beta 109.780030
_cell_angle_gamma 90.000000
_cell_volume 980.304834
_symmetry_space_group_name_H-M "P 21/C"
_symmetry_group_IT_number 14
_symmetry_cell_setting 'monoclinic'
loop_
_space_group_symop_operation_xyz
x,y,z
-x,1/2+y,1/2-z
-x,-y,-z
x,1/2-y,1/2+z
loop_
_atom_site_type_symbol
_atom_site_label
_atom_site_fract_x
_atom_site_fract_y
_atom_site_fract_z
Si Si1 0.020557 0.325674 0.741723
Si Si2 0.564277 0.983284 0.393226
Si Si3 0.024483 0.036400 0.710615
Si Si4 0.995318 0.309294 0.505471
Si Si5 0.436740 0.408631 0.435086
Si Si6 0.620732 0.187133 0.347745
O O1 0.007235 0.430322 0.769758
O O2 0.024187 0.315753 0.625854
O O3 0.748488 0.286421 0.758932
O O4 0.303722 0.281330 0.819242
O O5 0.844422 0.944249 0.380850
O O6 0.580191 0.081844 0.349862
O O7 0.291873 0.930674 0.322340
O O8 0.500000 0.000000 0.500000
O O9 0.235616 0.072851 0.818071
O O10 0.738294 0.373240 0.441854
O O11 0.861152 0.216637 0.453426
O O12 0.275872 0.342554 0.489402
O O13 0.500000 0.500000 0.500000
#
# Coordination Sequence:
#
# PCOD9245558 Si02
#       6
#     4   4   4   4   4   4
#     4  10  21  40  66  86 124 174 207 251 331 386
#     4  10  21  41  66  90 124 171 219 258 317 377
#     4  10  21  38  63  91 126 160 208 270 314 384
#     4  12  24  41  65  94 133 168 214 273 322 395
#     4  12  24  39  66 100 128 162 215 269 336 383
#     4  10  23  42  61  92 127 168 216 258 320 393
#
# _framework density 24.482178000000001
#
# number of rings (size 3 to 8) (size 9 to 14) (size 15 to 20)
#    0.000    1.333    1.667    4.000    4.667    0.000 
#    9.000    0.000    0.000    0.000    0.000    0.000 
#    0.000    0.000    0.000    0.000    0.000    0.000 
#
# Total GULP energy -134106.532596 kJ/mol
# GULP energy per Si atom -5587.772191 kJ/mol
# Density = 2.442646 g / cm^3
# Si number density = 24.482178 Si / 1000 Ang^3
#
#
#
# Elastic Constant Matrix: (Units=GPa)
#
#
# Indices 1 2 3 4 5 6 
#
# 1 118.4559 29.6491 39.1723 0.0000 -15.6547 0.0000
# 2 29.6491 39.7251 6.9189 0.0000 1.5928 0.0000
# 3 39.1723 6.9189 116.1422 0.0000 -23.5188 0.0000
# 4 0.0000 0.0000 0.0000 29.6833 0.0000 10.3836
# 5 -15.6547 1.5928 -23.5188 0.0000 41.9933 0.0000
# 6 0.0000 0.0000 0.0000 10.3836 0.0000 29.0456
#
#
#
# Elastic Compliance Matrix: (Units=1/GPa)
#
#
# Indices 1 2 3 4 5 6 
#
# 1 0.011952 -0.008546 -0.002881 0.000000 0.003166 0.000000
# 2 -0.008546 0.031704 0.000118 0.000000 -0.004322 0.000000
# 3 -0.002881 0.000118 0.010553 0.000000 0.004832 0.000000
# 4 0.000000 0.000000 0.000000 0.038504 0.000000 -0.013765
# 5 0.003166 -0.004322 0.004832 0.000000 0.027864 0.000000
# 6 0.000000 0.000000 0.000000 -0.013765 0.000000 0.039349
#
#
# Mechanical properties :
#
#
# Convention : Reuss Voigt Hill
#
# Bulk Modulus (GPa) = 31.65293 47.31154 39.48223
# Shear Modulus (GPa) = 25.89684 33.38330 29.64007
#
# Velocity S-wave (km/s) = 3.25589 3.69667 3.48326
# Velocity P-wave (km/s) = 5.20494 6.13085 5.68677
#
# Compressibility (1/GPa) = 0.03159265
#
# Stress axis : x y z
#
# Youngs Moduli (GPa) = 83.66762 31.54195 94.75771
#
# Poissons Ratio (x) = 0.26955 0.27299
# Poissons Ratio (y) = 0.71500 -0.01122
# Poissons Ratio (z) = 0.24104 -0.00373
#
# Static dielectric constant tensor:
#      x y z
#    x 1.969360 0.000000 -0.046950 
#    y 0.000000 2.066530 0.000000 
#    z -0.046950 0.000000 2.091430 
# 
# From -- ./inp_files/21285.got.cif
#   From: 2010.05.17/outbox.cif.g08.bks.cpg/sg14_11_cif.got.tgz:21285.got - 2010.06.03 17:49:19.
