data_PCOD9245102
_publ_section_title
;
Structure prediction by ZEFSAII (Michael W. Deem and Ramdas Pophale) SiO2 
 PCOD9245102
Probable space group: P 21/C
;
_chemical_formula_sum "Si O2"
_cell_formula_units_Z 32
_cell_length_a 6.651141
_cell_length_b 21.127473
_cell_length_c 11.402085
_cell_angle_alpha 90.000000
_cell_angle_beta 116.334594
_cell_angle_gamma 90.000000
_cell_volume 1435.958901
_symmetry_space_group_name_H-M "P 21/C"
_symmetry_group_IT_number 14
_symmetry_cell_setting 'monoclinic'
loop_
_space_group_symop_operation_xyz
x,y,z
-x,1/2+y,1/2-z
-x,-y,-z
x,1/2-y,1/2+z
loop_
_atom_site_type_symbol
_atom_site_label
_atom_site_fract_x
_atom_site_fract_y
_atom_site_fract_z
Si Si1 0.328749 0.948748 0.590449
Si Si2 0.601293 0.154753 0.018053
Si Si3 0.082070 0.931143 0.758966
Si Si4 0.656957 0.657645 0.133657
Si Si5 0.773053 0.799922 0.219191
Si Si6 0.580596 0.723849 0.886819
Si Si7 0.248308 0.960551 0.298115
Si Si8 0.176766 0.670416 0.650984
O O1 0.149762 0.952059 0.646291
O O2 0.476250 0.885576 0.650249
O O3 0.232407 0.945241 0.433564
O O4 0.508720 0.005709 0.647411
O O5 0.701429 0.096777 0.117357
O O6 0.483053 0.208946 0.068669
O O7 0.402754 0.146240 0.870320
O O8 0.811100 0.174962 0.987352
O O9 0.896354 0.876076 0.700458
O O10 0.947805 0.989113 0.782232
O O11 0.682684 0.728569 0.182483
O O12 0.570166 0.668732 0.980106
O O13 0.801038 0.796336 0.367319
O O14 0.970158 0.806311 0.176192
O O15 0.377824 0.713589 0.746679
O O16 0.220076 0.900965 0.206422
#
# Coordination Sequence:
#
# PCOD9245102 Si02
#       8
#     4   4   4   4   4   4   4   4
#     4  10  21  41  63  89 128 156 211 270 312 363
#     4  10  24  42  59  93 132 166 208 256 314 384
#     4  11  23  38  64  90 123 166 210 258 319 366
#     4  10  21  36  60  94 117 156 204 260 313 371
#     4  10  23  38  62  92 125 168 208 249 313 387
#     4  10  21  39  62  90 126 162 208 258 316 373
#     4  10  23  40  62  94 118 167 214 261 308 372
#     4  11  23  42  65  90 129 167 207 260 313 374
#
# _framework density 22.284761
#
# number of rings (size 3 to 8) (size 9 to 14) (size 15 to 20)
#    0.000    1.750    1.250    1.875    1.750   10.500 
#    0.000    1.250    0.000    0.000    0.000    0.000 
#    0.000    0.000    0.000    0.000    0.000    0.000 
#
# Total GULP energy -178226.541902 kJ/mol
# GULP energy per Si atom -5569.579434 kJ/mol
# Density = 2.223404 g / cm^3
# Si number density = 22.284761 Si / 1000 Ang^3
#
#
#
# Elastic Constant Matrix: (Units=GPa)
#
#
# Indices 1 2 3 4 5 6 
#
# 1 58.9183 -7.5864 10.5702 0.0000 -20.4314 0.0000
# 2 -7.5864 63.2988 11.8866 0.0000 0.5328 0.0000
# 3 10.5702 11.8866 39.3111 0.0000 -20.5068 0.0000
# 4 0.0000 0.0000 0.0000 32.8450 0.0000 -1.9664
# 5 -20.4314 0.5328 -20.5068 0.0000 29.7812 0.0000
# 6 0.0000 0.0000 0.0000 -1.9664 0.0000 8.0745
#
#
#
# Elastic Compliance Matrix: (Units=1/GPa)
#
#
# Indices 1 2 3 4 5 6 
#
# 1 0.022787 0.002194 0.002098 0.000000 0.017038 0.000000
# 2 0.002194 0.017654 -0.008283 0.000000 -0.004514 0.000000
# 3 0.002098 -0.008283 0.044018 0.000000 0.031897 0.000000
# 4 0.000000 0.000000 0.000000 0.030896 0.000000 0.007524
# 5 0.017038 -0.004514 0.031897 0.000000 0.067312 0.000000
# 6 0.000000 0.000000 0.000000 0.007524 0.000000 0.125680
#
#
# Mechanical properties :
#
#
# Convention : Reuss Voigt Hill
#
# Bulk Modulus (GPa) = 13.07596 21.25210 17.16403
# Shear Modulus (GPa) = 14.62746 23.91733 19.27239
#
# Velocity S-wave (km/s) = 2.56479 3.27962 2.94398
# Velocity P-wave (km/s) = 3.82770 4.88861 4.39032
#
# Compressibility (1/GPa) = 0.07647621
#
# Stress axis : x y z
#
# Youngs Moduli (GPa) = 43.88421 56.64303 22.71806
#
# Poissons Ratio (x) = -0.12426 -0.04765
# Poissons Ratio (y) = -0.09627 0.18817
# Poissons Ratio (z) = -0.09205 0.46917
#
# Static dielectric constant tensor:
#      x y z
#    x 1.960880 0.000000 -0.092870 
#    y 0.000000 1.803930 0.000000 
#    z -0.092870 0.000000 1.970210 
# 
# From -- ./inp_files/22192.got.cif
#   From: 2010.05.17/outbox.cif.g08.bks.cpg/sg14_12_cif.got.tgz:22192.got - 2010.06.03 17:49:19.
