data_PCOD9245824
_publ_section_title
;
Structure prediction by ZEFSAII (Michael W. Deem and Ramdas Pophale) SiO2 
 PCOD9245824
Probable space group: P 21/C
;
_chemical_formula_sum "Si O2"
_cell_formula_units_Z 30
_cell_length_a 5.181836
_cell_length_b 9.723550
_cell_length_c 28.291076
_cell_angle_alpha 90.000000
_cell_angle_beta 113.025852
_cell_angle_gamma 90.000000
_cell_volume 1311.900307
_symmetry_space_group_name_H-M "P 21/C"
_symmetry_group_IT_number 14
_symmetry_cell_setting 'monoclinic'
loop_
_space_group_symop_operation_xyz
x,y,z
-x,1/2+y,1/2-z
-x,-y,-z
x,1/2-y,1/2+z
loop_
_atom_site_type_symbol
_atom_site_label
_atom_site_fract_x
_atom_site_fract_y
_atom_site_fract_z
Si Si1 0.853151 0.377192 0.738946
Si Si2 0.076430 0.472711 0.161832
Si Si3 0.923015 0.868640 0.189698
Si Si4 0.901337 0.128904 0.435126
Si Si5 0.735038 0.109186 0.877345
Si Si6 0.299803 0.199271 0.140896
Si Si7 0.500000 0.500000 0.000000
Si Si8 0.478173 0.916296 0.412999
O O1 0.788360 0.464118 0.782020
O O2 0.012899 0.484057 0.716804
O O3 0.575712 0.330365 0.691990
O O4 0.029973 0.247190 0.767933
O O5 0.160827 0.552530 0.119878
O O6 0.123397 0.309886 0.158324
O O7 0.739374 0.485331 0.138554
O O8 0.598911 0.879807 0.152656
O O9 0.110795 0.834046 0.158305
O O10 0.821995 0.287451 0.424971
O O11 0.221103 0.108480 0.470794
O O12 0.675593 0.039771 0.450525
O O13 0.816369 0.948224 0.883304
O O14 0.383746 0.287826 0.101058
O O15 0.334228 0.615683 0.952272
#
# Coordination Sequence:
#
# PCOD9245824 Si02
#       8
#     4   4   4   4   4   4   2   4
#     4  11  23  39  62  94 133 182 231 275 321 393
#     4  10  21  39  63  88 132 178 220 271 326 389
#     4  11  26  40  61  93 135 180 232 272 330 389
#     4  10  21  41  69  97 130 163 219 275 343 405
#     4  11  25  43  63  95 134 178 217 278 338 400
#     4  10  25  38  62  91 136 176 223 273 333 394
#     4  10  22  40  76 102 124 162 226 284 348 418
#     4  10  21  43  65 100 126 173 217 285 337 406
#
# _framework density 22.867591999999998
#
# number of rings (size 3 to 8) (size 9 to 14) (size 15 to 20)
#    0.000    1.600    1.333    2.000   11.200    2.133 
#    0.000    0.667    0.000    8.000    0.000    0.000 
#    0.000    0.000    0.000    0.000    0.000    0.000 
#
# Total GULP energy -167222.214194 kJ/mol
# GULP energy per Si atom -5574.073806 kJ/mol
# Density = 2.281554 g / cm^3
# Si number density = 22.867592 Si / 1000 Ang^3
#
#
#
# Elastic Constant Matrix: (Units=GPa)
#
#
# Indices 1 2 3 4 5 6 
#
# 1 106.4745 4.8217 18.9886 0.0000 9.2155 0.0000
# 2 4.8217 138.1578 36.7873 0.0000 6.7667 0.0000
# 3 18.9886 36.7873 92.2669 0.0000 0.2961 0.0000
# 4 0.0000 0.0000 0.0000 24.3224 0.0000 -6.3760
# 5 9.2155 6.7667 0.2961 0.0000 27.5644 0.0000
# 6 0.0000 0.0000 0.0000 -6.3760 0.0000 136.0800
#
#
#
# Elastic Compliance Matrix: (Units=1/GPa)
#
#
# Indices 1 2 3 4 5 6 
#
# 1 0.010068 0.000409 -0.002224 0.000000 -0.003443 0.000000
# 2 0.000409 0.008221 -0.003355 0.000000 -0.002119 0.000000
# 3 -0.002224 -0.003355 0.012629 0.000000 0.001432 0.000000
# 4 0.000000 0.000000 0.000000 0.041626 0.000000 0.001950
# 5 -0.003443 -0.002119 0.001432 0.000000 0.037934 0.000000
# 6 0.000000 0.000000 0.000000 0.001950 0.000000 0.007440
#
#
# Mechanical properties :
#
#
# Convention : Reuss Voigt Hill
#
# Bulk Modulus (GPa) = 48.59536 50.89938 49.74737
# Shear Modulus (GPa) = 37.00488 56.01347 46.50918
#
# Velocity S-wave (km/s) = 4.02708 4.95458 4.51471
# Velocity P-wave (km/s) = 6.55134 7.41870 6.99847
#
# Compressibility (1/GPa) = 0.02057810
#
# Stress axis : x y z
#
# Youngs Moduli (GPa) = 99.32452 121.63985 79.18268
#
# Poissons Ratio (x) = -0.04981 0.17612
# Poissons Ratio (y) = -0.04067 0.26568
# Poissons Ratio (z) = 0.22092 0.40813
#
# Static dielectric constant tensor:
#      x y z
#    x 1.876770 0.000000 -0.028570 
#    y 0.000000 1.889490 0.000000 
#    z -0.028570 0.000000 1.836940 
# 
# From -- ./inp_files/78836.got.cif
#   From: 2010.05.17/outbox.cif.g08.bks.cpg/sg14_40_cif.got.tgz:78836.got - 2010.06.03 17:49:19.
