data_PCOD9245476
_publ_section_title
;
Structure prediction by ZEFSAII (Michael W. Deem and Ramdas Pophale) SiO2 
 PCOD9245476
Probable space group: P 21/C
;
_chemical_formula_sum "Si O2"
_cell_formula_units_Z 24
_cell_length_a 14.887587
_cell_length_b 8.803152
_cell_length_c 10.012477
_cell_angle_alpha 90.000000
_cell_angle_beta 79.856940
_cell_angle_gamma 90.000000
_cell_volume 1291.703697
_symmetry_space_group_name_H-M "P 21/C"
_symmetry_group_IT_number 14
_symmetry_cell_setting 'monoclinic'
loop_
_space_group_symop_operation_xyz
x,y,z
-x,1/2+y,1/2-z
-x,-y,-z
x,1/2-y,1/2+z
loop_
_atom_site_type_symbol
_atom_site_label
_atom_site_fract_x
_atom_site_fract_y
_atom_site_fract_z
Si Si1 0.085791 0.571650 0.299108
Si Si2 0.065920 0.669563 0.599096
Si Si3 0.729463 0.105308 0.911394
Si Si4 0.292294 0.608401 0.274161
Si Si5 0.529107 0.926888 0.352714
Si Si6 0.435156 0.070480 0.130699
O O1 0.067970 0.673009 0.437488
O O2 0.066109 0.669443 0.172678
O O3 0.193090 0.533938 0.274875
O O4 0.020011 0.428793 0.331901
O O5 0.161104 0.588511 0.617592
O O6 0.704863 0.242370 0.818485
O O7 0.668887 0.961463 0.885375
O O8 0.703336 0.147766 0.070174
O O9 0.374641 0.498913 0.216061
O O10 0.540056 0.746265 0.358503
O O11 0.500000 0.000000 0.500000
O O12 0.457280 0.979560 0.259906
O O13 0.500000 0.000000 0.000000
#
# Coordination Sequence:
#
# PCOD9245476 Si02
#       6
#     4   4   4   4   4   4
#     4   9  19  36  59  84 118 152 192 237 291 343
#     4   9  19  36  58  86 115 155 191 239 288 344
#     4  10  21  38  61  85 118 153 197 242 295 347
#     4  10  21  39  60  87 115 154 196 244 293 349
#     4  12  26  40  62  88 118 155 198 243 293 347
#     4  12  24  42  60  86 118 156 196 244 293 347
#
# _framework density 18.580113000000001
#
# number of rings (size 3 to 8) (size 9 to 14) (size 15 to 20)
#    0.000    1.667    1.667    3.000    2.333    2.000 
#    0.000    0.000    0.000    0.000    0.000    0.000 
#    0.000    0.000    0.000    0.000    0.000    0.000 
#
# Total GULP energy -134026.582283 kJ/mol
# GULP energy per Si atom -5584.440928 kJ/mol
# Density = 1.853782 g / cm^3
# Si number density = 18.580113 Si / 1000 Ang^3
#
#
#
# Elastic Constant Matrix: (Units=GPa)
#
#
# Indices 1 2 3 4 5 6 
#
# 1 71.2825 25.0827 29.9865 0.0000 -9.2619 0.0000
# 2 25.0827 65.8846 21.7803 0.0000 6.5666 0.0000
# 3 29.9865 21.7803 95.1001 0.0000 7.7749 0.0000
# 4 0.0000 0.0000 0.0000 26.6638 0.0000 -0.1249
# 5 -9.2619 6.5666 7.7749 0.0000 32.1808 0.0000
# 6 0.0000 0.0000 0.0000 -0.1249 0.0000 31.0911
#
#
#
# Elastic Compliance Matrix: (Units=1/GPa)
#
#
# Indices 1 2 3 4 5 6 
#
# 1 0.019671 -0.006536 -0.005384 0.000000 0.008296 0.000000
# 2 -0.006536 0.018791 -0.001811 0.000000 -0.005278 0.000000
# 3 -0.005384 -0.001811 0.012981 0.000000 -0.004316 0.000000
# 4 0.000000 0.000000 0.000000 0.037505 0.000000 0.000151
# 5 0.008296 -0.005278 -0.004316 0.000000 0.035582 0.000000
# 6 0.000000 0.000000 0.000000 0.000151 0.000000 0.032164
#
#
# Mechanical properties :
#
#
# Convention : Reuss Voigt Hill
#
# Bulk Modulus (GPa) = 41.70044 42.88515 42.29280
# Shear Modulus (GPa) = 26.02131 28.34830 27.18481
#
# Velocity S-wave (km/s) = 3.74638 3.91030 3.82922
# Velocity P-wave (km/s) = 6.41920 6.59686 6.50864
#
# Compressibility (1/GPa) = 0.02398056
#
# Stress axis : x y z
#
# Youngs Moduli (GPa) = 50.83519 53.21648 77.03808
#
# Poissons Ratio (x) = 0.34782 0.41478
# Poissons Ratio (y) = 0.33226 0.13953
# Poissons Ratio (z) = 0.27370 0.09639
#
# Static dielectric constant tensor:
#      x y z
#    x 1.796470 0.000000 0.214930 
#    y 0.000000 1.595160 0.000000 
#    z 0.214930 0.000000 1.947490 
# 
# From -- ./inp_files/15030.got.cif
#   From: 2010.05.17/outbox.cif.g08.bks.cpg/sg14_8_cif.got.tgz:15030.got - 2010.06.03 17:49:19.
