data_PCOD9245393
_publ_section_title
;
Structure prediction by ZEFSAII (Michael W. Deem and Ramdas Pophale) SiO2 
 PCOD9245393
Probable space group: P 21/C
;
_chemical_formula_sum "Si O2"
_cell_formula_units_Z 30
_cell_length_a 11.721967
_cell_length_b 13.113640
_cell_length_c 7.464913
_cell_angle_alpha 90.000000
_cell_angle_beta 105.769919
_cell_angle_gamma 90.000000
_cell_volume 1104.298372
_symmetry_space_group_name_H-M "P 21/C"
_symmetry_group_IT_number 14
_symmetry_cell_setting 'monoclinic'
loop_
_space_group_symop_operation_xyz
x,y,z
-x,1/2+y,1/2-z
-x,-y,-z
x,1/2-y,1/2+z
loop_
_atom_site_type_symbol
_atom_site_label
_atom_site_fract_x
_atom_site_fract_y
_atom_site_fract_z
Si Si1 0.075094 0.726363 0.642994
Si Si2 0.673680 0.150090 0.736456
Si Si3 0.333798 0.078802 0.632850
Si Si4 0.500000 0.500000 0.500000
Si Si5 0.976031 0.084441 0.220629
Si Si6 0.752259 0.568864 0.280976
Si Si7 0.400436 0.864855 0.661306
Si Si8 0.846471 0.631942 0.672150
O O1 0.198405 0.690427 0.783560
O O2 0.065793 0.654222 0.465493
O O3 0.062140 0.848257 0.624486
O O4 0.956093 0.705759 0.703985
O O5 0.635602 0.248461 0.829047
O O6 0.578994 0.128577 0.541267
O O7 0.701844 0.039970 0.834158
O O8 0.327958 0.102167 0.419991
O O9 0.232801 0.141658 0.688789
O O10 0.302542 0.956342 0.633848
O O11 0.446219 0.075318 0.814231
O O12 0.512434 0.402703 0.646755
O O13 0.114922 0.060538 0.247054
O O14 0.905585 0.979704 0.189501
O O15 0.766813 0.638230 0.460154
#
# Coordination Sequence:
#
# PCOD9245393 Si02
#       8
#     4   4   4   2   4   4   4   4
#     4  11  22  34  58  90 128 166 210 241 307 373
#     4  11  18  35  59  92 116 160 198 253 300 364
#     4   9  21  39  63  81 119 165 197 258 314 359
#     4   8  20  42  58  86 116 158 198 274 312 352
#     4  11  22  37  53  86 134 164 202 259 288 372
#     4  10  21  38  57  88 128 159 201 252 303 360
#     4   9  21  34  63  87 121 151 203 263 309 361
#     4  11  21  39  60  87 128 169 200 254 308 366
#
# _framework density 27.166573
#
# number of rings (size 3 to 8) (size 9 to 14) (size 15 to 20)
#    0.800    1.067    2.667    2.400    3.733    1.600 
#    0.000    0.667    5.867    0.000    0.000    0.000 
#    0.000    0.000    0.000    0.000    0.000    0.000 
#
# Total GULP energy -167144.229632 kJ/mol
# GULP energy per Si atom -5571.474321 kJ/mol
# Density = 2.710474 g / cm^3
# Si number density = 27.166573 Si / 1000 Ang^3
#
#
#
# Elastic Constant Matrix: (Units=GPa)
#
#
# Indices 1 2 3 4 5 6 
#
# 1 65.1731 16.5863 11.1123 0.0000 25.5412 0.0000
# 2 16.5863 118.3678 33.9005 0.0000 4.0488 0.0000
# 3 11.1123 33.9005 174.7627 0.0000 19.4762 0.0000
# 4 0.0000 0.0000 0.0000 36.3616 0.0000 -4.9479
# 5 25.5412 4.0488 19.4762 0.0000 32.6327 0.0000
# 6 0.0000 0.0000 0.0000 -4.9479 0.0000 24.2696
#
#
#
# Elastic Compliance Matrix: (Units=1/GPa)
#
#
# Indices 1 2 3 4 5 6 
#
# 1 0.023111 -0.002939 0.001152 0.000000 -0.018412 0.000000
# 2 -0.002939 0.009319 -0.001873 0.000000 0.002262 0.000000
# 3 0.001152 -0.001873 0.006520 0.000000 -0.004561 0.000000
# 4 0.000000 0.000000 0.000000 0.028286 0.000000 0.005767
# 5 -0.018412 0.002262 -0.004561 0.000000 0.047496 0.000000
# 6 0.000000 0.000000 0.000000 0.005767 0.000000 0.042380
#
#
# Mechanical properties :
#
#
# Convention : Reuss Voigt Hill
#
# Bulk Modulus (GPa) = 31.61384 53.50022 42.55703
# Shear Modulus (GPa) = 28.57563 38.43307 33.50435
#
# Velocity S-wave (km/s) = 3.24677 3.76536 3.51564
# Velocity P-wave (km/s) = 5.07126 6.21611 5.67264
#
# Compressibility (1/GPa) = 0.03163172
#
# Stress axis : x y z
#
# Youngs Moduli (GPa) = 43.27022 107.30696 153.36518
#
# Poissons Ratio (x) = 0.31534 -0.17674
# Poissons Ratio (y) = 0.12716 0.28724
# Poissons Ratio (z) = -0.04986 0.20098
#
# Static dielectric constant tensor:
#      x y z
#    x 2.244280 0.000000 -0.021690 
#    y 0.000000 2.172610 0.000000 
#    z -0.021690 0.000000 2.156240 
# 
# From -- ./inp_files/17937.got.cif
#   From: 2010.05.17/outbox.cif.g08.bks.cpg/sg14_9_cif.got.tgz:17937.got - 2010.06.03 17:49:19.
