data_PCOD9245361
_publ_section_title
;
Structure prediction by ZEFSAII (Michael W. Deem and Ramdas Pophale) SiO2 
 PCOD9245361
Probable space group: P 21/C
;
_chemical_formula_sum "Si O2"
_cell_formula_units_Z 16
_cell_length_a 7.994074
_cell_length_b 9.463263
_cell_length_c 15.440552
_cell_angle_alpha 90.000000
_cell_angle_beta 33.296078
_cell_angle_gamma 90.000000
_cell_volume 641.234722
_symmetry_space_group_name_H-M "P 21/C"
_symmetry_group_IT_number 14
_symmetry_cell_setting 'monoclinic'
loop_
_space_group_symop_operation_xyz
x,y,z
-x,1/2+y,1/2-z
-x,-y,-z
x,1/2-y,1/2+z
loop_
_atom_site_type_symbol
_atom_site_label
_atom_site_fract_x
_atom_site_fract_y
_atom_site_fract_z
Si Si1 0.273095 0.900633 0.545221
Si Si2 0.423076 0.393052 0.632593
Si Si3 0.924059 0.898115 0.950474
Si Si4 0.604158 0.613781 0.147115
O O1 0.416690 0.746107 0.474161
O O2 0.935582 0.901580 0.730778
O O3 0.500000 0.000000 0.500000
O O4 0.266454 0.971563 0.452020
O O5 0.651959 0.523532 0.517498
O O6 0.411415 0.382318 0.742851
O O7 0.254073 0.874783 0.766449
O O8 0.796316 0.747651 0.033992
O O9 0.000000 0.000000 0.000000
#
# Coordination Sequence:
#
# PCOD9245361 Si02
#       4
#     4   4   4   4
#     4  12  27  44  67 101 137 175 219 279 340 391
#     4  11  22  44  68  95 132 176 225 273 327 401
#     4  10  21  37  66  99 128 167 222 278 321 379
#     4  11  21  41  68  99 129 174 225 270 326 399
#
# _framework density 24.951861000000001
#
# number of rings (size 3 to 8) (size 9 to 14) (size 15 to 20)
#    0.000    1.000    0.000    9.750    0.000    4.000 
#    0.000    3.750    0.000    0.000    0.000    0.000 
#    0.000    0.000    0.000    0.000    0.000    0.000 
#
# Total GULP energy -89690.814588 kJ/mol
# GULP energy per Si atom -5605.675912 kJ/mol
# Density = 2.489507 g / cm^3
# Si number density = 24.951861 Si / 1000 Ang^3
#
#
#
# Elastic Constant Matrix: (Units=GPa)
#
#
# Indices 1 2 3 4 5 6 
#
# 1 94.6884 0.9910 31.5653 0.0000 -23.6917 0.0000
# 2 0.9910 127.7702 72.5639 0.0000 -7.9682 0.0000
# 3 31.5653 72.5639 246.4332 0.0000 -30.4862 0.0000
# 4 0.0000 0.0000 0.0000 61.2739 0.0000 -3.1165
# 5 -23.6917 -7.9682 -30.4862 0.0000 50.6740 0.0000
# 6 0.0000 0.0000 0.0000 -3.1165 0.0000 35.5536
#
#
#
# Elastic Compliance Matrix: (Units=1/GPa)
#
#
# Indices 1 2 3 4 5 6 
#
# 1 0.012238 0.000906 -0.001198 0.000000 0.005143 0.000000
# 2 0.000906 0.009467 -0.002882 0.000000 0.000179 0.000000
# 3 -0.001198 -0.002882 0.005331 0.000000 0.002194 0.000000
# 4 0.000000 0.000000 0.000000 0.016393 0.000000 0.001437
# 5 0.005143 0.000179 0.002194 0.000000 0.023487 0.000000
# 6 0.000000 0.000000 0.000000 0.001437 0.000000 0.028253
#
#
# Mechanical properties :
#
#
# Convention : Reuss Voigt Hill
#
# Bulk Modulus (GPa) = 48.33417 75.45915 61.89666
# Shear Modulus (GPa) = 46.12025 53.75173 49.93599
#
# Velocity S-wave (km/s) = 4.30393 4.64639 4.47843
# Velocity P-wave (km/s) = 6.64164 7.68718 7.18346
#
# Compressibility (1/GPa) = 0.02068930
#
# Stress axis : x y z
#
# Youngs Moduli (GPa) = 81.71444 105.62740 187.57087
#
# Poissons Ratio (x) = -0.09573 0.22473
# Poissons Ratio (y) = -0.07406 0.54052
# Poissons Ratio (z) = 0.09790 0.30438
#
# Static dielectric constant tensor:
#      x y z
#    x 2.127510 0.000000 -0.004600 
#    y 0.000000 1.867360 0.000000 
#    z -0.004600 0.000000 1.925550 
# 
# From -- ./inp_files/17426.got.cif
#   From: 2010.05.17/outbox.cif.g08.bks.cpg/sg14_9_cif.got.tgz:17426.got - 2010.06.03 17:49:19.
