data_PCOD9245233
_publ_section_title
;
Structure prediction by ZEFSAII (Michael W. Deem and Ramdas Pophale) SiO2 
 PCOD9245233
Probable space group: P 21/C
;
_chemical_formula_sum "Si O2"
_cell_formula_units_Z 32
_cell_length_a 6.340508
_cell_length_b 28.699276
_cell_length_c 8.446295
_cell_angle_alpha 90.000000
_cell_angle_beta 84.208415
_cell_angle_gamma 90.000000
_cell_volume 1529.109990
_symmetry_space_group_name_H-M "P 21/C"
_symmetry_group_IT_number 14
_symmetry_cell_setting 'monoclinic'
loop_
_space_group_symop_operation_xyz
x,y,z
-x,1/2+y,1/2-z
-x,-y,-z
x,1/2-y,1/2+z
loop_
_atom_site_type_symbol
_atom_site_label
_atom_site_fract_x
_atom_site_fract_y
_atom_site_fract_z
Si Si1 0.889492 0.386519 0.447686
Si Si2 0.306385 0.621975 0.862465
Si Si3 0.944789 0.208952 0.082066
Si Si4 0.569937 0.282394 0.023084
Si Si5 0.724303 0.567164 0.771268
Si Si6 0.984771 0.946391 0.550835
Si Si7 0.145065 0.528218 0.367203
Si Si8 0.749094 0.752467 0.198418
O O1 0.106325 0.409636 0.362755
O O2 0.760785 0.429596 0.535876
O O3 0.803307 0.363517 0.293473
O O4 0.894814 0.345358 0.574161
O O5 0.328400 0.667264 0.967903
O O6 0.514270 0.596620 0.783766
O O7 0.179116 0.583280 0.968995
O O8 0.130908 0.216937 0.939379
O O9 0.745096 0.242521 0.052218
O O10 0.062477 0.223044 0.235026
O O11 0.374632 0.281916 0.161798
O O12 0.444938 0.274724 0.869537
O O13 0.711196 0.512142 0.724619
O O14 0.796865 0.571144 0.950661
O O15 0.001678 0.948214 0.739305
O O16 0.000000 0.000000 0.500000
O O17 0.000000 0.500000 0.500000
#
# Coordination Sequence:
#
# PCOD9245233 Si02
#       8
#     4   4   4   4   4   4   4   4
#     4  10  21  37  59  85 114 153 194 238 302 362
#     4  11  22  37  61  86 115 157 198 243 298 354
#     4  11  22  40  62  85 124 164 195 251 308 351
#     4  11  23  40  60  91 124 156 208 254 295 367
#     4   9  20  39  60  83 114 151 193 245 299 356
#     4   9  20  38  59  84 115 150 194 240 291 356
#     4   9  19  37  58  83 115 146 188 244 292 348
#     4  10  23  39  61  87 120 163 204 246 303 363
#
# _framework density 20.927205000000001
#
# number of rings (size 3 to 8) (size 9 to 14) (size 15 to 20)
#    0.000    2.000    0.000    3.750    0.000    9.500 
#    0.000    2.500    0.000    1.500    0.000    0.000 
#    0.000    0.000    0.000    0.000    0.000    0.000 
#
# Total GULP energy -178251.825483 kJ/mol
# GULP energy per Si atom -5570.369546 kJ/mol
# Density = 2.087957 g / cm^3
# Si number density = 20.927205 Si / 1000 Ang^3
#
#
#
# Elastic Constant Matrix: (Units=GPa)
#
#
# Indices 1 2 3 4 5 6 
#
# 1 39.8018 23.0800 1.3684 0.0000 16.2930 0.0000
# 2 23.0800 107.0924 -4.3255 0.0000 10.6873 0.0000
# 3 1.3684 -4.3255 67.1632 0.0000 5.3415 0.0000
# 4 0.0000 0.0000 0.0000 22.3011 0.0000 4.5123
# 5 16.2930 10.6873 5.3415 0.0000 23.7301 0.0000
# 6 0.0000 0.0000 0.0000 4.5123 0.0000 19.2251
#
#
#
# Elastic Compliance Matrix: (Units=1/GPa)
#
#
# Indices 1 2 3 4 5 6 
#
# 1 0.038215 -0.005833 0.000737 0.000000 -0.023777 0.000000
# 2 -0.005833 0.010734 0.000892 0.000000 -0.001030 0.000000
# 3 0.000737 0.000892 0.015277 0.000000 -0.004346 0.000000
# 4 0.000000 0.000000 0.000000 0.047076 0.000000 -0.011049
# 5 -0.023777 -0.001030 -0.004346 0.000000 0.059908 0.000000
# 6 0.000000 0.000000 0.000000 -0.011049 0.000000 0.054609
#
#
# Mechanical properties :
#
#
# Convention : Reuss Voigt Hill
#
# Bulk Modulus (GPa) = 17.91581 28.25590 23.08585
# Shear Modulus (GPa) = 19.77588 25.98023 22.87806
#
# Velocity S-wave (km/s) = 3.07739 3.52725 3.30998
# Velocity P-wave (km/s) = 4.60508 5.48817 5.06590
#
# Compressibility (1/GPa) = 0.05581662
#
# Stress axis : x y z
#
# Youngs Moduli (GPa) = 26.16789 93.16460 65.45697
#
# Poissons Ratio (x) = 0.54346 -0.04822
# Poissons Ratio (y) = 0.15264 -0.05839
# Poissons Ratio (z) = -0.01928 -0.08311
#
# Static dielectric constant tensor:
#      x y z
#    x 1.777130 0.000000 0.065910 
#    y 0.000000 1.747590 0.000000 
#    z 0.065910 0.000000 1.845310 
# 
# From -- ./inp_files/6790.got.cif
#   From: 2010.05.17/outbox.cif.g08.bks.cpg/sg14_4_cif.got.tgz:6790.got - 2010.06.03 17:49:19.
