data_PCOD9245977
_publ_section_title
;
Structure prediction by ZEFSAII (Michael W. Deem and Ramdas Pophale) SiO2 
 PCOD9245977
Probable space group: P 21/C
;
_chemical_formula_sum "Si O2"
_cell_formula_units_Z 32
_cell_length_a 12.863421
_cell_length_b 17.661892
_cell_length_c 7.287192
_cell_angle_alpha 90.000000
_cell_angle_beta 46.656036
_cell_angle_gamma 90.000000
_cell_volume 1204.024830
_symmetry_space_group_name_H-M "P 21/C"
_symmetry_group_IT_number 14
_symmetry_cell_setting 'monoclinic'
loop_
_space_group_symop_operation_xyz
x,y,z
-x,1/2+y,1/2-z
-x,-y,-z
x,1/2-y,1/2+z
loop_
_atom_site_type_symbol
_atom_site_label
_atom_site_fract_x
_atom_site_fract_y
_atom_site_fract_z
Si Si1 0.375467 0.645784 0.168454
Si Si2 0.999849 0.316343 0.657170
Si Si3 0.992955 0.354646 0.061682
Si Si4 0.725445 0.311087 0.181442
Si Si5 0.089706 0.060826 0.774215
Si Si6 0.374253 0.151158 0.912002
Si Si7 0.668603 0.985114 0.294299
Si Si8 0.419895 0.179394 0.245709
O O1 0.281115 0.719731 0.317122
O O2 0.283971 0.570334 0.308123
O O3 0.513414 0.650093 0.142487
O O4 0.456733 0.645910 0.870631
O O5 0.023153 0.227319 0.614065
O O6 0.066243 0.360439 0.408924
O O7 0.057852 0.348155 0.779020
O O8 0.828282 0.331548 0.884474
O O9 0.039579 0.424186 0.129971
O O10 0.824758 0.149333 0.714791
O O11 0.333231 0.355993 0.678392
O O12 0.566690 0.320457 0.449755
O O13 0.254157 0.037980 0.610283
O O14 0.000000 0.000000 0.000000
O O15 0.351272 0.238904 0.877950
O O16 0.309607 0.080261 0.880115
O O17 0.500000 0.000000 0.500000
#
# Coordination Sequence:
#
# PCOD9245977 Si02
#       8
#     4   4   4   4   4   4   4   4
#     4  10  21  39  67 102 133 178 230 301 341 417
#     4  10  22  39  65 103 137 182 233 292 349 432
#     4  10  22  40  67 104 141 179 240 295 358 425
#     4   9  20  33  66 104 136 160 240 300 339 396
#     4  12  27  47  72 104 144 196 228 296 381 430
#     4  10  21  40  58 101 130 176 229 296 345 408
#     4  10  26  48  70  99 149 184 238 286 366 426
#     4  11  19  34  66  99 130 178 238 286 344 413
#
# _framework density 26.577525000000001
#
# number of rings (size 3 to 8) (size 9 to 14) (size 15 to 20)
#    0.750    1.000    3.750    0.750    7.000    2.000 
#    2.250    5.000    0.000    0.000    0.000    0.000 
#    0.000    0.000    0.000    0.000    0.000    0.000 
#
# Total GULP energy -178404.146459 kJ/mol
# GULP energy per Si atom -5575.129577 kJ/mol
# Density = 2.651703 g / cm^3
# Si number density = 26.577525 Si / 1000 Ang^3
#
#
#
# Elastic Constant Matrix: (Units=GPa)
#
#
# Indices 1 2 3 4 5 6 
#
# 1 44.9652 -10.8942 -15.6744 0.0000 17.1073 0.0000
# 2 -10.8942 54.1846 -15.3706 0.0000 -0.6748 0.0000
# 3 -15.6744 -15.3706 68.5881 0.0000 -7.0871 0.0000
# 4 0.0000 0.0000 0.0000 24.5028 0.0000 -3.7482
# 5 17.1073 -0.6748 -7.0871 0.0000 52.5271 0.0000
# 6 0.0000 0.0000 0.0000 -3.7482 0.0000 45.0280
#
#
#
# Elastic Compliance Matrix: (Units=1/GPa)
#
#
# Indices 1 2 3 4 5 6 
#
# 1 0.030276 0.008209 0.007860 0.000000 -0.008694 0.000000
# 2 0.008209 0.021972 0.006645 0.000000 -0.001495 0.000000
# 3 0.007860 0.006645 0.017859 0.000000 -0.000065 0.000000
# 4 0.000000 0.000000 0.000000 0.041338 0.000000 0.003441
# 5 -0.008694 -0.001495 -0.000065 0.000000 0.021841 0.000000
# 6 0.000000 0.000000 0.000000 0.003441 0.000000 0.022495
#
#
# Mechanical properties :
#
#
# Convention : Reuss Voigt Hill
#
# Bulk Modulus (GPa) = 8.65535 9.31772 8.98654
# Shear Modulus (GPa) = 33.58755 38.39006 35.98881
#
# Velocity S-wave (km/s) = 3.55879 3.80472 3.68381
# Velocity P-wave (km/s) = 4.48892 4.77647 4.63493
#
# Compressibility (1/GPa) = 0.11553547
#
# Stress axis : x y z
#
# Youngs Moduli (GPa) = 33.02941 45.51179 55.99541
#
# Poissons Ratio (x) = -0.37359 -0.44013
# Poissons Ratio (y) = -0.27113 -0.37212
# Poissons Ratio (z) = -0.25962 -0.30245
#
# Static dielectric constant tensor:
#      x y z
#    x 2.368440 0.000000 -0.091030 
#    y 0.000000 2.140360 0.000000 
#    z -0.091030 0.000000 2.149390 
# 
# From -- ./inp_files/34424.got.cif
#   From: 2010.05.17/outbox.cif.g08.bks.cpg/sg14_18_cif.got.tgz:34424.got - 2010.06.03 17:49:19.
