data_PCOD9245028
_publ_section_title
;
Structure prediction by ZEFSAII (Michael W. Deem and Ramdas Pophale) SiO2 
 PCOD9245028
Probable space group: P 21/C
;
_chemical_formula_sum "Si O2"
_cell_formula_units_Z 20
_cell_length_a 26.329587
_cell_length_b 7.468925
_cell_length_c 5.188588
_cell_angle_alpha 90.000000
_cell_angle_beta 90.051152
_cell_angle_gamma 90.000000
_cell_volume 1020.354676
_symmetry_space_group_name_H-M "P 21/C"
_symmetry_group_IT_number 14
_symmetry_cell_setting 'monoclinic'
loop_
_space_group_symop_operation_xyz
x,y,z
-x,1/2+y,1/2-z
-x,-y,-z
x,1/2-y,1/2+z
loop_
_atom_site_type_symbol
_atom_site_label
_atom_site_fract_x
_atom_site_fract_y
_atom_site_fract_z
Si Si1 0.338278 0.376804 0.510545
Si Si2 0.241914 0.871450 0.967191
Si Si3 0.951324 0.372847 0.532150
Si Si4 0.451656 0.126509 0.002485
Si Si5 0.854278 0.627733 0.465421
O O1 0.333125 0.239863 0.270747
O O2 0.295210 0.525714 0.493563
O O3 0.395228 0.458430 0.502150
O O4 0.237623 0.723257 0.190720
O O5 0.197245 0.015264 0.003844
O O6 0.952001 0.223724 0.308347
O O7 0.901278 0.493304 0.500615
O O8 0.000000 0.500000 0.500000
O O9 0.454159 0.248338 0.254183
O O10 0.500000 0.000000 0.000000
O O11 0.856490 0.777235 0.688404
#
# Coordination Sequence:
#
# PCOD9245028 Si02
#       5
#     4   4   4   4   4
#     4  10  21  39  58  81 113 153 190 231 285 347
#     4  12  24  39  60  89 117 149 192 243 289 339
#     4  12  24  42  64  92 124 157 198 243 288 342
#     4  10  21  36  57  82 113 148 189 234 285 340
#     4  12  24  42  64  88 119 159 196 237 291 346
#
# _framework density 19.601026999999998
#
# number of rings (size 3 to 8) (size 9 to 14) (size 15 to 20)
#    0.000    0.800    0.000    8.400    0.000    1.600 
#    0.000    0.000    0.000    0.000    0.000    0.000 
#    0.000    0.000    0.000    0.000    0.000    0.000 
#
# Total GULP energy -111932.903222 kJ/mol
# GULP energy per Si atom -5596.645161 kJ/mol
# Density = 1.955641 g / cm^3
# Si number density = 19.601027 Si / 1000 Ang^3
#
#
#
# Elastic Constant Matrix: (Units=GPa)
#
#
# Indices 1 2 3 4 5 6 
#
# 1 152.1264 37.1935 -6.8514 0.0000 -10.8637 0.0000
# 2 37.1935 35.1682 -19.5917 0.0000 -6.1228 0.0000
# 3 -6.8514 -19.5917 70.3208 0.0000 2.9292 0.0000
# 4 0.0000 0.0000 0.0000 51.3717 0.0000 0.3731
# 5 -10.8637 -6.1228 2.9292 0.0000 27.4632 0.0000
# 6 0.0000 0.0000 0.0000 0.3731 0.0000 66.4074
#
#
#
# Elastic Compliance Matrix: (Units=1/GPa)
#
#
# Indices 1 2 3 4 5 6 
#
# 1 0.009186 -0.010644 -0.002132 0.000000 0.001488 0.000000
# 2 -0.010644 0.047201 0.011903 0.000000 0.005043 0.000000
# 3 -0.002132 0.011903 0.017331 0.000000 -0.000038 0.000000
# 4 0.000000 0.000000 0.000000 0.019467 0.000000 -0.000109
# 5 0.001488 0.005043 -0.000038 0.000000 0.038130 0.000000
# 6 0.000000 0.000000 0.000000 -0.000109 0.000000 0.015059
#
#
# Mechanical properties :
#
#
# Convention : Reuss Voigt Hill
#
# Bulk Modulus (GPa) = 13.89443 31.01293 22.45368
# Shear Modulus (GPa) = 29.05125 45.50612 37.27868
#
# Velocity S-wave (km/s) = 3.85402 4.82355 4.36578
# Velocity P-wave (km/s) = 5.18735 6.84679 6.07401
#
# Compressibility (1/GPa) = 0.07197127
#
# Stress axis : x y z
#
# Youngs Moduli (GPa) = 108.86055 21.18609 57.70116
#
# Poissons Ratio (x) = 0.22550 0.12304
# Poissons Ratio (y) = 1.15870 -0.68683
# Poissons Ratio (z) = 0.23214 -0.25218
#
# Static dielectric constant tensor:
#      x y z
#    x 1.683780 0.000000 -0.003360 
#    y 0.000000 1.643250 0.000000 
#    z -0.003360 0.000000 1.653110 
# 
# From -- ./inp_files/4326.got.cif
#   From: 2010.05.17/outbox.cif.g08.bks.cpg/sg14_3_cif.got.tgz:4326.got - 2010.06.03 17:49:19.
