data_PCOD9245674
_publ_section_title
;
Structure prediction by ZEFSAII (Michael W. Deem and Ramdas Pophale) SiO2 
 PCOD9245674
Probable space group: P 21/C
;
_chemical_formula_sum "Si O2"
_cell_formula_units_Z 28
_cell_length_a 24.759765
_cell_length_b 7.353611
_cell_length_c 17.638053
_cell_angle_alpha 90.000000
_cell_angle_beta 21.577848
_cell_angle_gamma 90.000000
_cell_volume 1181.049958
_symmetry_space_group_name_H-M "P 21/C"
_symmetry_group_IT_number 14
_symmetry_cell_setting 'monoclinic'
loop_
_space_group_symop_operation_xyz
x,y,z
-x,1/2+y,1/2-z
-x,-y,-z
x,1/2-y,1/2+z
loop_
_atom_site_type_symbol
_atom_site_label
_atom_site_fract_x
_atom_site_fract_y
_atom_site_fract_z
Si Si1 0.442359 0.231754 0.684690
Si Si2 0.755568 0.245510 0.329795
Si Si3 0.761870 0.459917 0.615301
Si Si4 0.740087 0.425923 0.094692
Si Si5 0.933916 0.001974 0.485540
Si Si6 0.961119 0.414313 0.661451
Si Si7 0.765267 0.968089 0.942659
O O1 0.612388 0.190696 0.470190
O O2 0.358125 0.119795 0.728583
O O3 0.396330 0.440415 0.738307
O O4 0.366571 0.161244 0.861926
O O5 0.853956 0.074298 0.228217
O O6 0.711852 0.360759 0.463042
O O7 0.837403 0.398440 0.173783
O O8 0.688263 0.266245 0.696467
O O9 0.830458 0.484397 0.441069
O O10 0.894423 0.472619 0.501931
O O11 0.845086 0.494529 0.024077
O O12 0.846580 0.421684 0.881977
O O13 0.978775 0.790862 0.432943
O O14 0.088651 0.112023 0.285000
#
# Coordination Sequence:
#
# PCOD9245674 Si02
#       7
#     4   4   4   4   4   4   4
#     4  10  24  41  66 100 129 181 221 277 340 412
#     4  11  24  40  69  99 144 171 218 290 360 389
#     4  10  21  38  68  95 124 169 241 271 314 396
#     4  12  20  38  72  95 128 179 235 268 329 406
#     4  11  21  40  68 100 130 183 217 286 345 390
#     4  11  19  40  65  95 127 172 229 278 308 418
#     4   9  19  39  62  94 126 170 225 264 325 403
#
# _framework density 23.707719000000001
#
# number of rings (size 3 to 8) (size 9 to 14) (size 15 to 20)
#    0.857    0.571    5.714    1.714    4.000    0.571 
#    0.000    1.429    3.143    0.000    0.000    0.000 
#    0.000    0.000    0.000    0.000    0.000    0.000 
#
# Total GULP energy -156030.189639 kJ/mol
# GULP energy per Si atom -5572.506773 kJ/mol
# Density = 2.365376 g / cm^3
# Si number density = 23.707719 Si / 1000 Ang^3
#
#
#
# Elastic Constant Matrix: (Units=GPa)
#
#
# Indices 1 2 3 4 5 6 
#
# 1 102.2899 5.4510 20.4127 0.0000 -16.7180 0.0000
# 2 5.4510 83.3129 20.8951 0.0000 -13.9592 0.0000
# 3 20.4127 20.8951 72.9103 0.0000 -22.7660 0.0000
# 4 0.0000 0.0000 0.0000 25.3729 0.0000 -6.9239
# 5 -16.7180 -13.9592 -22.7660 0.0000 29.7757 0.0000
# 6 0.0000 0.0000 0.0000 -6.9239 0.0000 27.6176
#
#
#
# Elastic Compliance Matrix: (Units=1/GPa)
#
#
# Indices 1 2 3 4 5 6 
#
# 1 0.010910 0.000552 -0.001602 0.000000 0.005160 0.000000
# 2 0.000552 0.013382 -0.002540 0.000000 0.004641 0.000000
# 3 -0.001602 -0.002540 0.018705 0.000000 0.012211 0.000000
# 4 0.000000 0.000000 0.000000 0.042306 0.000000 0.010606
# 5 0.005160 0.004641 0.012211 0.000000 0.047994 0.000000
# 6 0.000000 0.000000 0.000000 0.010606 0.000000 0.038868
#
#
# Mechanical properties :
#
#
# Convention : Reuss Voigt Hill
#
# Bulk Modulus (GPa) = 27.91980 39.11454 33.51717
# Shear Modulus (GPa) = 26.13939 30.67020 28.40479
#
# Velocity S-wave (km/s) = 3.32410 3.60068 3.46515
# Velocity P-wave (km/s) = 5.15122 5.81558 5.49345
#
# Compressibility (1/GPa) = 0.03581687
#
# Stress axis : x y z
#
# Youngs Moduli (GPa) = 91.66237 74.72956 53.46211
#
# Poissons Ratio (x) = -0.04128 0.08562
# Poissons Ratio (y) = -0.05064 0.13582
# Poissons Ratio (z) = 0.14680 0.18985
#
# Static dielectric constant tensor:
#      x y z
#    x 1.939310 0.000000 0.018440 
#    y 0.000000 1.971010 0.000000 
#    z 0.018440 0.000000 1.926990 
# 
# From -- ./inp_files/70418.got.cif
#   From: 2010.05.17/outbox.cif.g08.bks.cpg/sg14_36_cif.got.tgz:70418.got - 2010.06.03 17:49:19.
