data_PCOD9245815
_publ_section_title
;
Structure prediction by ZEFSAII (Michael W. Deem and Ramdas Pophale) SiO2 
 PCOD9245815
Probable space group: P 21/C
;
_chemical_formula_sum "Si O2"
_cell_formula_units_Z 24
_cell_length_a 7.926260
_cell_length_b 15.996688
_cell_length_c 18.104751
_cell_angle_alpha 90.000000
_cell_angle_beta 147.944246
_cell_angle_gamma 90.000000
_cell_volume 1218.361692
_symmetry_space_group_name_H-M "P 21/C"
_symmetry_group_IT_number 14
_symmetry_cell_setting 'monoclinic'
loop_
_space_group_symop_operation_xyz
x,y,z
-x,1/2+y,1/2-z
-x,-y,-z
x,1/2-y,1/2+z
loop_
_atom_site_type_symbol
_atom_site_label
_atom_site_fract_x
_atom_site_fract_y
_atom_site_fract_z
Si Si1 0.518821 0.686414 0.930567
Si Si2 0.047234 0.763561 0.866941
Si Si3 0.462254 0.000009 0.397653
Si Si4 0.339892 0.832348 0.599910
Si Si5 0.776271 0.172037 0.270764
Si Si6 0.240482 0.564108 0.375863
O O1 0.222852 0.697958 0.877303
O O2 0.538843 0.594319 0.903511
O O3 0.450125 0.755437 0.843767
O O4 0.851945 0.698738 0.096851
O O5 0.234784 0.850283 0.921206
O O6 0.683720 0.787746 0.715872
O O7 0.092688 0.726305 0.965102
O O8 0.500000 0.000000 0.500000
O O9 0.659329 0.075579 0.435743
O O10 0.100853 0.021163 0.243913
O O11 0.284860 0.842302 0.666225
O O12 0.724910 0.094436 0.196330
O O13 0.500000 0.500000 0.500000
#
# Coordination Sequence:
#
# PCOD9245815 Si02
#       6
#     4   4   4   4   4   4
#     4  11  22  41  66  88 123 167 211 249 308 379
#     4  10  21  39  63  85 119 166 206 247 301 381
#     4  11  21  41  63  91 120 163 214 253 300 378
#     4  11  23  41  61  93 128 156 209 262 315 361
#     4  11  24  41  61  94 127 160 205 262 314 365
#     4  10  23  39  61  89 120 162 212 250 302 375
#
# _framework density 19.698584
#
# number of rings (size 3 to 8) (size 9 to 14) (size 15 to 20)
#    0.000    1.333    3.333    3.000    7.000    0.667 
#    3.000    1.667    0.000    0.000    0.000    0.000 
#    0.000    0.000    0.000    0.000    0.000    0.000 
#
# Total GULP energy -134010.478878 kJ/mol
# GULP energy per Si atom -5583.769953 kJ/mol
# Density = 1.965375 g / cm^3
# Si number density = 19.698584 Si / 1000 Ang^3
#
#
#
# Elastic Constant Matrix: (Units=GPa)
#
#
# Indices 1 2 3 4 5 6 
#
# 1 70.0133 3.6973 12.2071 0.0000 -17.2637 0.0000
# 2 3.6973 84.3672 45.9908 0.0000 -1.8799 0.0000
# 3 12.2071 45.9908 72.6664 0.0000 -9.1567 0.0000
# 4 0.0000 0.0000 0.0000 46.9157 0.0000 -6.5716
# 5 -17.2637 -1.8799 -9.1567 0.0000 36.2582 0.0000
# 6 0.0000 0.0000 0.0000 -6.5716 0.0000 21.3047
#
#
#
# Elastic Compliance Matrix: (Units=1/GPa)
#
#
# Indices 1 2 3 4 5 6 
#
# 1 0.016441 0.000682 -0.002275 0.000000 0.007289 0.000000
# 2 0.000682 0.018269 -0.011895 0.000000 -0.001732 0.000000
# 3 -0.002275 -0.011895 0.022163 0.000000 0.003897 0.000000
# 4 0.000000 0.000000 0.000000 0.022277 0.000000 0.006872
# 5 0.007289 -0.001732 0.003897 0.000000 0.031945 0.000000
# 6 0.000000 0.000000 0.000000 0.006872 0.000000 0.049058
#
#
# Mechanical properties :
#
#
# Convention : Reuss Voigt Hill
#
# Bulk Modulus (GPa) = 33.44860 38.98191 36.21525
# Shear Modulus (GPa) = 25.36846 31.90584 28.63715
#
# Velocity S-wave (km/s) = 3.59253 4.02892 3.81697
# Velocity P-wave (km/s) = 5.85025 6.44011 6.15226
#
# Compressibility (1/GPa) = 0.02989662
#
# Stress axis : x y z
#
# Youngs Moduli (GPa) = 60.82378 54.73781 45.11948
#
# Poissons Ratio (x) = -0.03734 0.10265
# Poissons Ratio (y) = -0.04149 0.53671
# Poissons Ratio (z) = 0.13838 0.65112
#
# Static dielectric constant tensor:
#      x y z
#    x 1.735950 0.000000 0.007260 
#    y 0.000000 1.705550 0.000000 
#    z 0.007260 0.000000 1.687230 
# 
# From -- ./inp_files/8466.got.cif
#   From: 2010.05.17/outbox.cif.g08.bks.cpg/sg14_5_cif.got.tgz:8466.got - 2010.06.03 17:49:19.
