data_PCOD9245014
_publ_section_title
;
Structure prediction by ZEFSAII (Michael W. Deem and Ramdas Pophale) SiO2 
 PCOD9245014
Probable space group: P 21/C
;
_chemical_formula_sum "Si O2"
_cell_formula_units_Z 20
_cell_length_a 19.635145
_cell_length_b 8.144045
_cell_length_c 5.380886
_cell_angle_alpha 90.000000
_cell_angle_beta 70.593080
_cell_angle_gamma 90.000000
_cell_volume 811.565951
_symmetry_space_group_name_H-M "P 21/C"
_symmetry_group_IT_number 14
_symmetry_cell_setting 'monoclinic'
loop_
_space_group_symop_operation_xyz
x,y,z
-x,1/2+y,1/2-z
-x,-y,-z
x,1/2-y,1/2+z
loop_
_atom_site_type_symbol
_atom_site_label
_atom_site_fract_x
_atom_site_fract_y
_atom_site_fract_z
Si Si1 0.816990 0.711568 0.114193
Si Si2 0.338896 0.154741 0.695575
Si Si3 0.561591 0.140812 0.425364
Si Si4 0.797463 0.163110 0.635871
Si Si5 0.027586 0.670229 0.075833
O O1 0.858916 0.751921 0.814052
O O2 0.783758 0.530625 0.152850
O O3 0.748007 0.832227 0.198888
O O4 0.363690 0.250128 0.415637
O O5 0.366493 0.970204 0.661914
O O6 0.557058 0.249956 0.680903
O O7 0.500000 0.000000 0.500000
O O8 0.771261 0.249810 0.917832
O O9 0.884840 0.170196 0.529940
O O10 0.006786 0.700098 0.386248
O O11 0.000000 0.500000 0.000000
#
# Coordination Sequence:
#
# PCOD9245014 Si02
#       5
#     4   4   4   4   4
#     4  10  21  38  59  83 115 155 195 241 286 343
#     4  10  21  41  60  86 122 153 194 241 284 343
#     4  12  24  41  66  93 122 157 194 240 293 347
#     4  10  21  38  58  84 116 153 196 243 292 346
#     4  10  21  36  56  84 117 150 193 243 294 351
#
# _framework density 24.643716999999999
#
# number of rings (size 3 to 8) (size 9 to 14) (size 15 to 20)
#    0.000    1.600    0.000    4.800    0.000    1.600 
#    0.000   24.000    0.000    0.000    0.000    0.000 
#    0.000    0.000    0.000    0.000    0.000    0.000 
#
# Total GULP energy -111995.719661 kJ/mol
# GULP energy per Si atom -5599.785983 kJ/mol
# Density = 2.458763 g / cm^3
# Si number density = 24.643717 Si / 1000 Ang^3
#
#
#
# Elastic Constant Matrix: (Units=GPa)
#
#
# Indices 1 2 3 4 5 6 
#
# 1 82.4602 27.8846 38.6556 0.0000 -2.9625 0.0000
# 2 27.8846 128.9251 96.5233 0.0000 16.6036 0.0000
# 3 38.6556 96.5233 241.5579 0.0000 40.6444 0.0000
# 4 0.0000 0.0000 0.0000 60.3254 0.0000 9.8956
# 5 -2.9625 16.6036 40.6444 0.0000 25.4892 0.0000
# 6 0.0000 0.0000 0.0000 9.8956 0.0000 26.3343
#
#
#
# Elastic Compliance Matrix: (Units=1/GPa)
#
#
# Indices 1 2 3 4 5 6 
#
# 1 0.014346 -0.002004 -0.002727 0.000000 0.007321 0.000000
# 2 -0.002004 0.011348 -0.004006 0.000000 -0.001238 0.000000
# 3 -0.002727 -0.004006 0.007914 0.000000 -0.010328 0.000000
# 4 0.000000 0.000000 0.000000 0.017666 0.000000 -0.006638
# 5 0.007321 -0.001238 -0.010328 0.000000 0.057358 0.000000
# 6 0.000000 0.000000 0.000000 -0.006638 0.000000 0.040468
#
#
# Mechanical properties :
#
#
# Convention : Reuss Voigt Hill
#
# Bulk Modulus (GPa) = 61.97408 86.56334 74.26871
# Shear Modulus (GPa) = 29.07791 41.75508 35.41650
#
# Velocity S-wave (km/s) = 3.43874 4.12071 3.79508
# Velocity P-wave (km/s) = 6.40072 7.60543 7.02893
#
# Compressibility (1/GPa) = 0.01613578
#
# Stress axis : x y z
#
# Youngs Moduli (GPa) = 69.70571 88.11933 126.35107
#
# Poissons Ratio (x) = 0.17661 0.34452
# Poissons Ratio (y) = 0.13971 0.50611
# Poissons Ratio (z) = 0.19006 0.35297
#
# Static dielectric constant tensor:
#      x y z
#    x 1.984400 0.000000 -0.000640 
#    y 0.000000 1.781190 0.000000 
#    z -0.000640 0.000000 2.037660 
# 
# From -- ./inp_files/4509.got.cif
#   From: 2010.05.17/outbox.cif.g08.bks.cpg/sg14_3_cif.got.tgz:4509.got - 2010.06.03 17:49:19.
