data_PCOD9245286
_publ_section_title
;
Structure prediction by ZEFSAII (Michael W. Deem and Ramdas Pophale) SiO2 
 PCOD9245286
Probable space group: P 21/C
;
_chemical_formula_sum "Si O2"
_cell_formula_units_Z 20
_cell_length_a 10.390157
_cell_length_b 5.260754
_cell_length_c 23.151094
_cell_angle_alpha 90.000000
_cell_angle_beta 143.542212
_cell_angle_gamma 90.000000
_cell_volume 751.963020
_symmetry_space_group_name_H-M "P 21/C"
_symmetry_group_IT_number 14
_symmetry_cell_setting 'monoclinic'
loop_
_space_group_symop_operation_xyz
x,y,z
-x,1/2+y,1/2-z
-x,-y,-z
x,1/2-y,1/2+z
loop_
_atom_site_type_symbol
_atom_site_label
_atom_site_fract_x
_atom_site_fract_y
_atom_site_fract_z
Si Si1 0.939757 0.036999 0.307794
Si Si2 0.725071 0.674113 0.313156
Si Si3 0.478331 0.703408 0.837021
Si Si4 0.141505 0.084350 0.959257
Si Si5 0.647475 0.248264 0.542658
O O1 0.073216 0.287068 0.373813
O O2 0.710254 0.132984 0.199989
O O3 0.114346 0.839755 0.345004
O O4 0.855092 0.918543 0.338217
O O5 0.622995 0.565479 0.216906
O O6 0.548482 0.700583 0.298588
O O7 0.911326 0.484687 0.403348
O O8 0.698226 0.727839 0.951009
O O9 0.272006 0.826673 0.992633
O O10 0.500000 0.500000 0.500000
O O11 0.500000 0.000000 0.500000
#
# Coordination Sequence:
#
# PCOD9245286 Si02
#       5
#     4   4   4   4   4
#     4  10  22  41  63  97 134 180 231 283 354 407
#     4  10  21  37  61  93 139 184 216 289 344 412
#     4  11  21  40  61  98 140 179 234 280 343 419
#     4  10  23  39  67  98 128 185 233 282 347 431
#     4  11  22  45  73  93 132 175 223 293 357 398
#
# _framework density 26.597052000000001
#
# number of rings (size 3 to 8) (size 9 to 14) (size 15 to 20)
#    0.000    1.600    4.000    0.600    0.000    4.000 
#    0.000    2.000    0.000    0.000    0.000    0.000 
#    0.000    0.000    0.000    0.000    0.000    0.000 
#
# Total GULP energy -111441.135731 kJ/mol
# GULP energy per Si atom -5572.056787 kJ/mol
# Density = 2.653652 g / cm^3
# Si number density = 26.597052 Si / 1000 Ang^3
#
#
#
# Elastic Constant Matrix: (Units=GPa)
#
#
# Indices 1 2 3 4 5 6 
#
# 1 107.6582 38.2758 9.0684 0.0000 45.6192 0.0000
# 2 38.2758 135.5669 20.6818 0.0000 24.3415 0.0000
# 3 9.0684 20.6818 86.2884 0.0000 30.6065 0.0000
# 4 0.0000 0.0000 0.0000 23.1097 0.0000 14.3276
# 5 45.6192 24.3415 30.6065 0.0000 48.1872 0.0000
# 6 0.0000 0.0000 0.0000 14.3276 0.0000 40.2578
#
#
#
# Elastic Compliance Matrix: (Units=1/GPa)
#
#
# Indices 1 2 3 4 5 6 
#
# 1 0.017778 -0.002429 0.005484 0.000000 -0.019087 0.000000
# 2 -0.002429 0.008471 -0.001385 0.000000 -0.001100 0.000000
# 3 0.005484 -0.001385 0.016700 0.000000 -0.015100 0.000000
# 4 0.000000 0.000000 0.000000 0.055523 0.000000 -0.019760
# 5 -0.019087 -0.001100 -0.015100 0.000000 0.048968 0.000000
# 6 0.000000 0.000000 0.000000 -0.019760 0.000000 0.031873
#
#
# Mechanical properties :
#
#
# Convention : Reuss Voigt Hill
#
# Bulk Modulus (GPa) = 21.60305 51.72950 36.66628
# Shear Modulus (GPa) = 26.12282 39.74344 32.93313
#
# Velocity S-wave (km/s) = 3.13736 3.86979 3.52266
# Velocity P-wave (km/s) = 4.61129 6.28160 5.51011
#
# Compressibility (1/GPa) = 0.04628975
#
# Stress axis : x y z
#
# Youngs Moduli (GPa) = 56.24858 118.04987 59.87855
#
# Poissons Ratio (x) = 0.28674 -0.32837
# Poissons Ratio (y) = 0.13663 0.08293
# Poissons Ratio (z) = -0.30846 0.16349
#
# Static dielectric constant tensor:
#      x y z
#    x 2.095820 0.000000 -0.023510 
#    y 0.000000 2.308960 0.000000 
#    z -0.023510 0.000000 2.123860 
# 
# From -- ./inp_files/36024.got.cif
#   From: 2010.05.17/outbox.cif.g08.bks.cpg/sg14_19_cif.got.tgz:36024.got - 2010.06.03 17:49:19.
