data_PCOD9245742
_publ_section_title
;
Structure prediction by ZEFSAII (Michael W. Deem and Ramdas Pophale) SiO2 
 PCOD9245742
Probable space group: P 21/C
;
_chemical_formula_sum "Si O2"
_cell_formula_units_Z 16
_cell_length_a 12.618198
_cell_length_b 4.765173
_cell_length_c 10.737214
_cell_angle_alpha 90.000000
_cell_angle_beta 60.520517
_cell_angle_gamma 90.000000
_cell_volume 562.020744
_symmetry_space_group_name_H-M "P 21/C"
_symmetry_group_IT_number 14
_symmetry_cell_setting 'monoclinic'
loop_
_space_group_symop_operation_xyz
x,y,z
-x,1/2+y,1/2-z
-x,-y,-z
x,1/2-y,1/2+z
loop_
_atom_site_type_symbol
_atom_site_label
_atom_site_fract_x
_atom_site_fract_y
_atom_site_fract_z
Si Si1 0.727243 0.284222 0.903769
Si Si2 0.780159 0.715744 0.207410
Si Si3 0.973504 0.355604 0.351094
Si Si4 0.428216 0.047169 0.833347
O O1 0.727818 0.596977 0.852855
O O2 0.835493 0.247851 0.943518
O O3 0.770289 0.098990 0.761138
O O4 0.607740 0.141138 0.027917
O O5 0.921209 0.800350 0.109053
O O6 0.690737 0.794363 0.148912
O O7 0.978561 0.667337 0.294214
O O8 0.477051 0.803503 0.711399
#
# Coordination Sequence:
#
# PCOD9245742 Si02
#       4
#     4   4   4   4
#     4  10  21  39  61  84 114 147 183 236 286 328
#     4  10  21  39  61  84 114 147 183 236 286 328
#     4   8  16  33  58  85 108 138 182 227 284 341
#     4  12  26  39  56  85 114 152 200 226 266 340
#
# _framework density 28.468698
#
# number of rings (size 3 to 8) (size 9 to 14) (size 15 to 20)
#    0.000    2.000    0.000    3.000    0.000    7.000 
#    0.000    0.000    0.000   21.000    0.000    0.000 
#    0.000    0.000    0.000    0.000    0.000    0.000 
#
# Total GULP energy -89701.703049 kJ/mol
# GULP energy per Si atom -5606.356441 kJ/mol
# Density = 2.840390 g / cm^3
# Si number density = 28.468698 Si / 1000 Ang^3
#
#
#
# Elastic Constant Matrix: (Units=GPa)
#
#
# Indices 1 2 3 4 5 6 
#
# 1 112.7815 5.6630 5.7265 0.0000 1.1416 0.0000
# 2 5.6630 119.9548 19.9634 0.0000 -2.8336 0.0000
# 3 5.7265 19.9634 87.0082 0.0000 1.2402 0.0000
# 4 0.0000 0.0000 0.0000 37.1944 0.0000 -5.9222
# 5 1.1416 -2.8336 1.2402 0.0000 26.5977 0.0000
# 6 0.0000 0.0000 0.0000 -5.9222 0.0000 39.6343
#
#
#
# Elastic Compliance Matrix: (Units=1/GPa)
#
#
# Indices 1 2 3 4 5 6 
#
# 1 0.008914 -0.000347 -0.000501 0.000000 -0.000396 0.000000
# 2 -0.000347 0.008708 -0.001990 0.000000 0.001035 0.000000
# 3 -0.000501 -0.001990 0.011993 0.000000 -0.000750 0.000000
# 4 0.000000 0.000000 0.000000 0.027541 0.000000 0.004115
# 5 -0.000396 0.001035 -0.000750 0.000000 0.037759 0.000000
# 6 0.000000 0.000000 0.000000 0.004115 0.000000 0.025846
#
#
# Mechanical properties :
#
#
# Convention : Reuss Voigt Hill
#
# Bulk Modulus (GPa) = 41.77262 42.49447 42.13355
# Shear Modulus (GPa) = 37.19748 39.91139 38.55444
#
# Velocity S-wave (km/s) = 3.61863 3.74831 3.68404
# Velocity P-wave (km/s) = 5.67136 5.80450 5.73832
#
# Compressibility (1/GPa) = 0.02393913
#
# Stress axis : x y z
#
# Youngs Moduli (GPa) = 112.18832 114.83047 83.37874
#
# Poissons Ratio (x) = 0.03981 0.04181
# Poissons Ratio (y) = 0.03890 0.16593
# Poissons Ratio (z) = 0.05626 0.22852
#
# Static dielectric constant tensor:
#      x y z
#    x 2.255090 0.000000 0.009640 
#    y 0.000000 2.071350 0.000000 
#    z 0.009640 0.000000 2.212910 
# 
# From -- ./inp_files/247.got.cif
#   From: 2010.05.17/outbox.cif.g08.bks.cpg/sg14_1_cif.got.tgz:247.got - 2010.06.03 17:49:19.
