data_PCOD9245461
_publ_section_title
;
Structure prediction by ZEFSAII (Michael W. Deem and Ramdas Pophale) SiO2 
 PCOD9245461
Probable space group: P 21/C
;
_chemical_formula_sum "Si O2"
_cell_formula_units_Z 28
_cell_length_a 8.898840
_cell_length_b 18.140451
_cell_length_c 15.794976
_cell_angle_alpha 90.000000
_cell_angle_beta 149.985570
_cell_angle_gamma 90.000000
_cell_volume 1275.439449
_symmetry_space_group_name_H-M "P 21/C"
_symmetry_group_IT_number 14
_symmetry_cell_setting 'monoclinic'
loop_
_space_group_symop_operation_xyz
x,y,z
-x,1/2+y,1/2-z
-x,-y,-z
x,1/2-y,1/2+z
loop_
_atom_site_type_symbol
_atom_site_label
_atom_site_fract_x
_atom_site_fract_y
_atom_site_fract_z
Si Si1 0.270936 0.429331 0.874366
Si Si2 0.681990 0.904084 0.420283
Si Si3 0.840806 0.692127 0.843250
Si Si4 0.751245 0.536234 0.320435
Si Si5 0.609182 0.818925 0.851522
Si Si6 0.179197 0.780968 0.225722
Si Si7 0.583817 0.273952 0.978659
O O1 0.114668 0.448019 0.708335
O O2 0.500000 0.500000 0.000000
O O3 0.134036 0.415740 0.901755
O O4 0.409154 0.349156 0.917716
O O5 0.805143 0.875508 0.390445
O O6 0.417293 0.845123 0.316370
O O7 0.521320 0.980776 0.325121
O O8 0.753447 0.762645 0.855687
O O9 0.611642 0.705753 0.652430
O O10 0.173660 0.701266 0.971892
O O11 0.628113 0.604764 0.313401
O O12 0.000000 0.500000 0.500000
O O13 0.287377 0.788428 0.722682
O O14 0.846140 0.810081 0.044745
O O15 0.230653 0.756191 0.346378
#
# Coordination Sequence:
#
# PCOD9245461 Si02
#       7
#     4   4   4   4   4   4   4
#     4   9  20  39  61  89 124 171 207 253 325 390
#     4   9  20  38  60  90 126 159 211 262 317 384
#     4  11  22  38  66  93 126 160 219 264 315 382
#     4  11  20  36  65  92 125 169 216 257 320 386
#     4  11  21  37  63  89 125 163 211 259 318 380
#     4  10  21  38  60  90 122 163 209 262 314 380
#     4  11  22  39  65  92 124 166 212 266 321 378
#
# _framework density 21.953218
#
# number of rings (size 3 to 8) (size 9 to 14) (size 15 to 20)
#    0.000    1.714    2.857    2.571    0.000    0.000 
#    0.000    2.857    6.286    1.714    0.000    0.000 
#    0.000    0.000    0.000    0.000    0.000    0.000 
#
# Total GULP energy -156135.453990 kJ/mol
# GULP energy per Si atom -5576.266214 kJ/mol
# Density = 2.190325 g / cm^3
# Si number density = 21.953218 Si / 1000 Ang^3
#
#
#
# Elastic Constant Matrix: (Units=GPa)
#
#
# Indices 1 2 3 4 5 6 
#
# 1 84.6011 25.8894 37.6051 0.0000 -25.8463 0.0000
# 2 25.8894 89.2531 22.5786 0.0000 -21.7684 0.0000
# 3 37.6051 22.5786 125.5861 0.0000 -40.0372 0.0000
# 4 0.0000 0.0000 0.0000 28.8127 0.0000 -11.1386
# 5 -25.8463 -21.7684 -40.0372 0.0000 39.9677 0.0000
# 6 0.0000 0.0000 0.0000 -11.1386 0.0000 31.9090
#
#
#
# Elastic Compliance Matrix: (Units=1/GPa)
#
#
# Indices 1 2 3 4 5 6 
#
# 1 0.015501 -0.002345 -0.002103 0.000000 0.006641 0.000000
# 2 -0.002345 0.013276 0.000201 0.000000 0.005916 0.000000
# 3 -0.002103 0.000201 0.011985 0.000000 0.010756 0.000000
# 4 0.000000 0.000000 0.000000 0.040121 0.000000 0.014005
# 5 0.006641 0.005916 0.010756 0.000000 0.043311 0.000000
# 6 0.000000 0.000000 0.000000 0.014005 0.000000 0.036228
#
#
# Mechanical properties :
#
#
# Convention : Reuss Voigt Hill
#
# Bulk Modulus (GPa) = 30.98885 52.39849 41.69367
# Shear Modulus (GPa) = 27.82840 34.36236 31.09538
#
# Velocity S-wave (km/s) = 3.56423 3.96062 3.76764
# Velocity P-wave (km/s) = 5.57538 6.69593 6.16118
#
# Compressibility (1/GPa) = 0.03226967
#
# Stress axis : x y z
#
# Youngs Moduli (GPa) = 64.51085 75.32249 83.43676
#
# Poissons Ratio (x) = 0.17662 0.17547
# Poissons Ratio (y) = 0.15126 -0.01680
# Poissons Ratio (z) = 0.13567 -0.01517
#
# Static dielectric constant tensor:
#      x y z
#    x 1.831830 0.000000 -0.056810 
#    y 0.000000 1.790900 0.000000 
#    z -0.056810 0.000000 1.948240 
# 
# From -- ./inp_files/41812.got.cif
#   From: 2010.05.17/outbox.cif.g08.bks.cpg/sg14_21_cif.got.tgz:41812.got - 2010.06.03 17:49:19.
