data_PCOD9245208
_publ_section_title
;
Structure prediction by ZEFSAII (Michael W. Deem and Ramdas Pophale) SiO2 
 PCOD9245208
Probable space group: P 21/C
;
_chemical_formula_sum "Si O2"
_cell_formula_units_Z 32
_cell_length_a 11.968988
_cell_length_b 24.455581
_cell_length_c 8.104017
_cell_angle_alpha 90.000000
_cell_angle_beta 35.708236
_cell_angle_gamma 90.000000
_cell_volume 1384.503815
_symmetry_space_group_name_H-M "P 21/C"
_symmetry_group_IT_number 14
_symmetry_cell_setting 'monoclinic'
loop_
_space_group_symop_operation_xyz
x,y,z
-x,1/2+y,1/2-z
-x,-y,-z
x,1/2-y,1/2+z
loop_
_atom_site_type_symbol
_atom_site_label
_atom_site_fract_x
_atom_site_fract_y
_atom_site_fract_z
Si Si1 0.260915 0.061205 0.804188
Si Si2 0.128729 0.247625 0.688445
Si Si3 0.265228 0.132288 0.111943
Si Si4 0.717346 0.364837 0.437630
Si Si5 0.277371 0.872848 0.438876
Si Si6 0.734088 0.627659 0.017578
Si Si7 0.729943 0.436115 0.733074
Si Si8 0.852095 0.243415 0.271171
O O1 0.194005 0.088113 0.712649
O O2 0.495366 0.064148 0.519186
O O3 0.208485 0.997801 0.876704
O O4 0.197112 0.095605 0.040366
O O5 0.226400 0.304288 0.617815
O O6 0.232944 0.190199 0.577835
O O7 0.076696 0.253870 0.555793
O O8 0.905333 0.241626 0.012559
O O9 0.189306 0.120290 0.387709
O O10 0.493227 0.123345 0.846632
O O11 0.798493 0.378559 0.157477
O O12 0.493950 0.379826 0.699043
O O13 0.791471 0.395664 0.511457
O O14 0.739685 0.299602 0.427123
O O15 0.209852 0.915527 0.657886
O O16 0.235060 0.812868 0.563619
#
# Coordination Sequence:
#
# PCOD9245208 Si02
#       8
#     4   4   4   4   4   4   4   4
#     4   9  19  36  59  87 115 147 192 241 286 337
#     4  12  22  36  56  84 118 154 189 236 287 344
#     4  10  21  37  58  85 117 152 189 238 287 342
#     4  10  21  37  58  85 117 152 189 238 287 342
#     4  10  21  37  58  86 117 151 191 234 290 344
#     4  10  21  37  58  86 117 151 191 234 290 344
#     4   9  19  36  59  87 115 147 192 241 286 337
#     4  12  22  36  56  84 118 154 189 236 287 344
#
# _framework density 23.112974000000001
#
# number of rings (size 3 to 8) (size 9 to 14) (size 15 to 20)
#    0.000    1.750    2.500    2.250    0.000    1.000 
#    0.000    5.000    0.000    7.500    0.000    0.000 
#    0.000    0.000    0.000    0.000    0.000    0.000 
#
# Total GULP energy -178722.100087 kJ/mol
# GULP energy per Si atom -5585.065628 kJ/mol
# Density = 2.306037 g / cm^3
# Si number density = 23.112974 Si / 1000 Ang^3
#
#
#
# Elastic Constant Matrix: (Units=GPa)
#
#
# Indices 1 2 3 4 5 6 
#
# 1 74.0269 25.6591 15.9315 0.0000 24.0682 0.0000
# 2 25.6591 116.5573 53.7632 0.0000 44.6238 0.0000
# 3 15.9315 53.7632 103.0668 0.0000 18.0408 0.0000
# 4 0.0000 0.0000 0.0000 8.8239 0.0000 26.9101
# 5 24.0682 44.6238 18.0408 0.0000 35.1921 0.0000
# 6 0.0000 0.0000 0.0000 26.9101 0.0000 18.6532
#
#
#
# Elastic Compliance Matrix: (Units=1/GPa)
#
#
# Indices 1 2 3 4 5 6 
#
# 1 0.017638 0.002140 -0.001380 0.000000 -0.014069 0.000000
# 2 0.002140 0.020338 -0.006778 0.000000 -0.023778 0.000000
# 3 -0.001380 -0.006778 0.012943 0.000000 0.002903 0.000000
# 4 0.000000 0.000000 0.000000 -0.033335 0.000000 0.048092
# 5 -0.014069 -0.023778 0.002903 0.000000 0.066699 0.000000
# 6 0.000000 0.000000 0.000000 0.048092 0.000000 -0.015769
#
#
# Mechanical properties :
#
#
# Convention : Reuss Voigt Hill
#
# Bulk Modulus (GPa) = 25.71797 53.81761 39.76779
# Shear Modulus (GPa) = 53.47020 25.75366 39.61193
#
# Velocity S-wave (km/s) = 4.81503 3.34166 4.14435
# Velocity P-wave (km/s) = 6.48567 6.18256 6.33593
#
# Compressibility (1/GPa) = 0.03888332
#
# Stress axis : x y z
#
# Youngs Moduli (GPa) = 56.69574 49.16936 77.26100
#
# Poissons Ratio (x) = -0.10522 0.10662
# Poissons Ratio (y) = -0.12132 0.52365
# Poissons Ratio (z) = 0.07824 0.33326
#
# Static dielectric constant tensor:
#      x y z
#    x 1.930830 0.000000 0.006560 
#    y 0.000000 1.766170 0.000000 
#    z 0.006560 0.000000 1.894620 
# 
# From -- ./inp_files/16858.got.cif
#   From: 2010.05.17/outbox.cif.g08.bks.cpg/sg14_9_cif.got.tgz:16858.got - 2010.06.03 17:49:19.
