data_PCOD9245812
_publ_section_title
;
Structure prediction by ZEFSAII (Michael W. Deem and Ramdas Pophale) SiO2 
 PCOD9245812
Probable space group: P 21/C
;
_chemical_formula_sum "Si O2"
_cell_formula_units_Z 24
_cell_length_a 19.269254
_cell_length_b 4.914998
_cell_length_c 13.770691
_cell_angle_alpha 90.000000
_cell_angle_beta 133.099921
_cell_angle_gamma 90.000000
_cell_volume 952.278397
_symmetry_space_group_name_H-M "P 21/C"
_symmetry_group_IT_number 14
_symmetry_cell_setting 'monoclinic'
loop_
_space_group_symop_operation_xyz
x,y,z
-x,1/2+y,1/2-z
-x,-y,-z
x,1/2-y,1/2+z
loop_
_atom_site_type_symbol
_atom_site_label
_atom_site_fract_x
_atom_site_fract_y
_atom_site_fract_z
Si Si1 0.296373 0.385769 0.137450
Si Si2 0.437044 0.524354 0.668576
Si Si3 0.918665 0.771064 0.024212
Si Si4 0.034401 0.266105 0.159594
Si Si5 0.224732 0.971858 0.372050
Si Si6 0.314505 0.006555 0.867542
O O1 0.358413 0.132925 0.158068
O O2 0.335722 0.512098 0.274453
O O3 0.190394 0.291660 0.064102
O O4 0.276392 0.571777 0.024217
O O5 0.477718 0.803064 0.750106
O O6 0.398282 0.567343 0.522319
O O7 0.996372 0.565748 0.144413
O O8 0.937248 0.748809 0.926951
O O9 0.943796 0.070780 0.083320
O O10 0.125220 0.124351 0.295239
O O11 0.285713 0.186814 0.367861
O O12 0.226955 0.692327 0.314487
#
# Coordination Sequence:
#
# PCOD9245812 Si02
#       6
#     4   4   4   4   4   4
#     4  11  26  45  74 102 137 191 234 282 369 427
#     4  11  26  49  72 104 140 176 236 304 361 436
#     4  10  22  37  65  98 134 188 230 276 343 398
#     4  10  21  39  62  98 143 180 230 288 319 398
#     4  11  24  43  68 103 145 185 234 289 333 412
#     4  11  25  45  72 103 140 179 229 292 355 421
#
# _framework density 25.202712999999999
#
# number of rings (size 3 to 8) (size 9 to 14) (size 15 to 20)
#    0.000    1.333    1.667    3.000    4.667   10.667 
#    0.000    0.000    0.000    0.000    0.000    0.000 
#    0.000    0.000    0.000    0.000    0.000    0.000 
#
# Total GULP energy -134446.302114 kJ/mol
# GULP energy per Si atom -5601.929255 kJ/mol
# Density = 2.514535 g / cm^3
# Si number density = 25.202713 Si / 1000 Ang^3
#
#
#
# Elastic Constant Matrix: (Units=GPa)
#
#
# Indices 1 2 3 4 5 6 
#
# 1 103.5530 20.3519 56.5266 0.0000 -18.6666 0.0000
# 2 20.3519 83.7010 18.1357 0.0000 -11.2569 0.0000
# 3 56.5266 18.1357 152.3533 0.0000 -24.4309 0.0000
# 4 0.0000 0.0000 0.0000 31.3634 0.0000 10.5205
# 5 -18.6666 -11.2569 -24.4309 0.0000 54.5955 0.0000
# 6 0.0000 0.0000 0.0000 10.5205 0.0000 26.0577
#
#
#
# Elastic Compliance Matrix: (Units=1/GPa)
#
#
# Indices 1 2 3 4 5 6 
#
# 1 0.012666 -0.001902 -0.004138 0.000000 0.002086 0.000000
# 2 -0.001902 0.012760 -0.000534 0.000000 0.001742 0.000000
# 3 -0.004138 -0.000534 0.008530 0.000000 0.002292 0.000000
# 4 0.000000 0.000000 0.000000 0.036879 0.000000 -0.014889
# 5 0.002086 0.001742 0.002292 0.000000 0.020415 0.000000
# 6 0.000000 0.000000 0.000000 -0.014889 0.000000 0.044388
#
#
# Mechanical properties :
#
#
# Convention : Reuss Voigt Hill
#
# Bulk Modulus (GPa) = 48.06118 58.84842 53.45480
# Shear Modulus (GPa) = 32.10858 38.70952 35.40905
#
# Velocity S-wave (km/s) = 3.57320 3.92334 3.75236
# Velocity P-wave (km/s) = 6.01124 6.62753 6.32689
#
# Compressibility (1/GPa) = 0.02080681
#
# Stress axis : x y z
#
# Youngs Moduli (GPa) = 78.95232 78.37152 117.23049
#
# Poissons Ratio (x) = 0.14910 0.48513
# Poissons Ratio (y) = 0.15020 0.06257
# Poissons Ratio (z) = 0.32673 0.04183
#
# Static dielectric constant tensor:
#      x y z
#    x 1.972310 0.000000 -0.000540 
#    y 0.000000 1.902430 0.000000 
#    z -0.000540 0.000000 2.041510 
# 
# From -- ./inp_files/49739.got.cif
#   From: 2010.05.17/outbox.cif.g08.bks.cpg/sg14_25_cif.got.tgz:49739.got - 2010.06.03 17:49:19.
