data_PCOD9245839
_publ_section_title
;
Structure prediction by ZEFSAII (Michael W. Deem and Ramdas Pophale) SiO2 
 PCOD9245839
Probable space group: P 21/C
;
_chemical_formula_sum "Si O2"
_cell_formula_units_Z 24
_cell_length_a 6.842858
_cell_length_b 13.202891
_cell_length_c 11.415391
_cell_angle_alpha 90.000000
_cell_angle_beta 115.224457
_cell_angle_gamma 90.000000
_cell_volume 932.987128
_symmetry_space_group_name_H-M "P 21/C"
_symmetry_group_IT_number 14
_symmetry_cell_setting 'monoclinic'
loop_
_space_group_symop_operation_xyz
x,y,z
-x,1/2+y,1/2-z
-x,-y,-z
x,1/2-y,1/2+z
loop_
_atom_site_type_symbol
_atom_site_label
_atom_site_fract_x
_atom_site_fract_y
_atom_site_fract_z
Si Si1 0.888655 0.485222 0.735146
Si Si2 0.979577 0.809252 0.877536
Si Si3 0.467829 0.976914 0.674290
Si Si4 0.485400 0.248751 0.296786
Si Si5 0.743113 0.350788 0.162275
Si Si6 0.320012 0.937000 0.051196
O O1 0.767966 0.490694 0.828350
O O2 0.051920 0.576794 0.761934
O O3 0.708070 0.481201 0.585769
O O4 0.012368 0.379899 0.738030
O O5 0.747810 0.758516 0.825208
O O6 0.160195 0.722894 0.910481
O O7 0.661690 0.225656 0.742602
O O8 0.483702 0.861449 0.640277
O O9 0.547971 0.066850 0.611311
O O10 0.628864 0.989341 0.828585
O O11 0.510929 0.343985 0.389500
O O12 0.919672 0.383802 0.499215
#
# Coordination Sequence:
#
# PCOD9245839 Si02
#       6
#     4   4   4   4   4   4
#     4  10  21  39  63  92 127 162 216 262 312 376
#     4  10  22  40  59  94 130 163 212 262 314 378
#     4  11  20  37  65  93 123 164 212 259 315 375
#     4  11  21  38  63  96 130 163 207 265 320 374
#     4  11  21  37  64  89 127 169 205 264 320 367
#     4   9  22  39  65  95 128 163 215 262 319 370
#
# _framework density 25.723828000000001
#
# number of rings (size 3 to 8) (size 9 to 14) (size 15 to 20)
#    1.000    0.667    3.333    2.500    0.000    6.000 
#    0.000    4.167    0.000    7.000    0.000    0.000 
#    0.000    0.000    0.000    0.000    0.000    0.000 
#
# Total GULP energy -133918.582343 kJ/mol
# GULP energy per Si atom -5579.940931 kJ/mol
# Density = 2.566528 g / cm^3
# Si number density = 25.723828 Si / 1000 Ang^3
#
#
#
# Elastic Constant Matrix: (Units=GPa)
#
#
# Indices 1 2 3 4 5 6 
#
# 1 125.4201 37.0061 26.7823 0.0000 13.7641 0.0000
# 2 37.0061 158.2913 33.8512 0.0000 3.5956 0.0000
# 3 26.7823 33.8512 50.9885 0.0000 10.0039 0.0000
# 4 0.0000 0.0000 0.0000 53.0212 0.0000 2.4687
# 5 13.7641 3.5956 10.0039 0.0000 19.1986 0.0000
# 6 0.0000 0.0000 0.0000 2.4687 0.0000 59.7812
#
#
#
# Elastic Compliance Matrix: (Units=1/GPa)
#
#
# Indices 1 2 3 4 5 6 
#
# 1 0.009618 -0.001474 -0.003091 0.000000 -0.005009 0.000000
# 2 -0.001474 0.007618 -0.004690 0.000000 0.002074 0.000000
# 3 -0.003091 -0.004690 0.026446 0.000000 -0.010686 0.000000
# 4 0.000000 0.000000 0.000000 0.018897 0.000000 -0.000780
# 5 -0.005009 0.002074 -0.010686 0.000000 0.060858 0.000000
# 6 0.000000 0.000000 0.000000 -0.000780 0.000000 0.016760
#
#
# Mechanical properties :
#
#
# Convention : Reuss Voigt Hill
#
# Bulk Modulus (GPa) = 39.72613 58.88655 49.30634
# Shear Modulus (GPa) = 29.92279 42.20423 36.06351
#
# Velocity S-wave (km/s) = 3.41432 4.05491 3.74832
# Velocity P-wave (km/s) = 5.56959 6.69810 6.15974
#
# Compressibility (1/GPa) = 0.02517235
#
# Stress axis : x y z
#
# Youngs Moduli (GPa) = 103.97494 131.26908 37.81263
#
# Poissons Ratio (x) = 0.19346 0.11687
# Poissons Ratio (y) = 0.15323 0.17735
# Poissons Ratio (z) = 0.32135 0.61569
#
# Static dielectric constant tensor:
#      x y z
#    x 2.115350 0.000000 -0.014080 
#    y 0.000000 2.027840 0.000000 
#    z -0.014080 0.000000 2.115750 
# 
# From -- ./inp_files/39388.got.cif
#   From: 2010.05.17/outbox.cif.g08.bks.cpg/sg14_20_cif.got.tgz:39388.got - 2010.06.03 17:49:19.
