data_PCOD9245242
_publ_section_title
;
Structure prediction by ZEFSAII (Michael W. Deem and Ramdas Pophale) SiO2 
 PCOD9245242
Probable space group: P 21/C
;
_chemical_formula_sum "Si O2"
_cell_formula_units_Z 28
_cell_length_a 14.092511
_cell_length_b 12.245382
_cell_length_c 16.538953
_cell_angle_alpha 90.000000
_cell_angle_beta 22.058118
_cell_angle_gamma 90.000000
_cell_volume 1071.847262
_symmetry_space_group_name_H-M "P 21/C"
_symmetry_group_IT_number 14
_symmetry_cell_setting 'monoclinic'
loop_
_space_group_symop_operation_xyz
x,y,z
-x,1/2+y,1/2-z
-x,-y,-z
x,1/2-y,1/2+z
loop_
_atom_site_type_symbol
_atom_site_label
_atom_site_fract_x
_atom_site_fract_y
_atom_site_fract_z
Si Si1 0.940207 0.890345 0.154741
Si Si2 0.808376 0.951357 0.795686
Si Si3 0.574871 0.223890 0.829948
Si Si4 0.854899 0.813337 0.615851
Si Si5 0.613919 0.090679 0.641066
Si Si6 0.368793 0.605440 0.439140
Si Si7 0.386579 0.966906 0.679434
O O1 0.834064 0.781649 0.198249
O O2 0.737497 0.989252 0.306911
O O3 0.103119 0.867887 0.105922
O O4 0.150864 0.929438 0.923258
O O5 0.090018 0.930966 0.604600
O O6 0.833532 0.928006 0.680817
O O7 0.709622 0.064528 0.909654
O O8 0.617501 0.862724 0.982256
O O9 0.480650 0.347344 0.921752
O O10 0.859189 0.204156 0.640968
O O11 0.594215 0.193512 0.718668
O O12 0.605797 0.812493 0.757841
O O13 0.485733 0.994681 0.795655
O O14 0.498222 0.067337 0.643908
#
# Coordination Sequence:
#
# PCOD9245242 Si02
#       7
#     4   4   4   4   4   4   4
#     4   9  20  38  61  90 121 158 202 246 302 359
#     4  10  21  37  59  89 120 157 203 246 295 355
#     4   9  20  38  60  89 122 157 203 247 295 356
#     4  10  21  37  61  88 120 158 199 248 300 354
#     4   9  20  37  62  90 118 157 201 246 299 356
#     4  10  21  39  62  89 122 159 201 250 298 354
#     4   9  18  38  63  87 122 161 197 248 302 353
#
# _framework density 26.123125000000002
#
# number of rings (size 3 to 8) (size 9 to 14) (size 15 to 20)
#    0.000    2.571    0.000    0.429    0.000   12.000 
#    0.000   10.000    0.000    0.000    0.000    0.000 
#    0.000    0.000    0.000    0.000    0.000    0.000 
#
# Total GULP energy -156321.268876 kJ/mol
# GULP energy per Si atom -5582.902460 kJ/mol
# Density = 2.606367 g / cm^3
# Si number density = 26.123125 Si / 1000 Ang^3
#
#
#
# Elastic Constant Matrix: (Units=GPa)
#
#
# Indices 1 2 3 4 5 6 
#
# 1 138.5741 76.3377 42.9271 0.0000 -35.6862 0.0000
# 2 76.3377 106.5788 34.8648 0.0000 -10.7420 0.0000
# 3 42.9271 34.8648 100.7911 0.0000 -20.2823 0.0000
# 4 0.0000 0.0000 0.0000 43.7315 0.0000 3.4158
# 5 -35.6862 -10.7420 -20.2823 0.0000 32.6868 0.0000
# 6 0.0000 0.0000 0.0000 3.4158 0.0000 27.1569
#
#
#
# Elastic Compliance Matrix: (Units=1/GPa)
#
#
# Indices 1 2 3 4 5 6 
#
# 1 0.016954 -0.010451 -0.000654 0.000000 0.014669 0.000000
# 2 -0.010451 0.017077 -0.002997 0.000000 -0.007657 0.000000
# 3 -0.000654 -0.002997 0.012449 0.000000 0.006026 0.000000
# 4 0.000000 0.000000 0.000000 0.023094 0.000000 -0.002905
# 5 0.014669 -0.007657 0.006026 0.000000 0.047832 0.000000
# 6 0.000000 0.000000 0.000000 -0.002905 0.000000 0.037188
#
#
# Mechanical properties :
#
#
# Convention : Reuss Voigt Hill
#
# Bulk Modulus (GPa) = 54.71380 72.68923 63.70151
# Shear Modulus (GPa) = 26.47060 33.50267 29.98664
#
# Velocity S-wave (km/s) = 3.18669 3.58507 3.39174
# Velocity P-wave (km/s) = 5.87623 6.70992 6.30687
#
# Compressibility (1/GPa) = 0.01827692
#
# Stress axis : x y z
#
# Youngs Moduli (GPa) = 58.98404 58.55894 80.32615
#
# Poissons Ratio (x) = 0.61199 0.05250
# Poissons Ratio (y) = 0.61644 0.24073
# Poissons Ratio (z) = 0.03855 0.17550
#
# Static dielectric constant tensor:
#      x y z
#    x 2.093910 0.000000 0.022060 
#    y 0.000000 2.110710 0.000000 
#    z 0.022060 0.000000 2.204150 
# 
# From -- ./inp_files/59680.got.cif
#   From: 2010.05.17/outbox.cif.g08.bks.cpg/sg14_30_cif.got.tgz:59680.got - 2010.06.03 17:49:19.
