data_PCOD9245033
_publ_section_title
;
Structure prediction by ZEFSAII (Michael W. Deem and Ramdas Pophale) SiO2 
 PCOD9245033
Probable space group: P 21/C
;
_chemical_formula_sum "Si O2"
_cell_formula_units_Z 32
_cell_length_a 22.236752
_cell_length_b 10.676928
_cell_length_c 21.876588
_cell_angle_alpha 90.000000
_cell_angle_beta 161.648294
_cell_angle_gamma 90.000000
_cell_volume 1635.308705
_symmetry_space_group_name_H-M "P 21/C"
_symmetry_group_IT_number 14
_symmetry_cell_setting 'monoclinic'
loop_
_space_group_symop_operation_xyz
x,y,z
-x,1/2+y,1/2-z
-x,-y,-z
x,1/2-y,1/2+z
loop_
_atom_site_type_symbol
_atom_site_label
_atom_site_fract_x
_atom_site_fract_y
_atom_site_fract_z
Si Si1 0.532851 0.072238 0.891650
Si Si2 0.425657 0.768760 0.950482
Si Si3 0.580671 0.685805 0.294031
Si Si4 0.453322 0.023977 0.356801
Si Si5 0.268000 0.857629 0.596747
Si Si6 0.149059 0.668942 0.587554
Si Si7 0.154261 0.110774 0.849850
Si Si8 0.274176 0.290523 0.854771
O O1 0.447378 0.185230 0.768984
O O2 0.373220 0.964434 0.737489
O O3 0.582441 0.125635 0.006029
O O4 0.721655 0.014032 0.042384
O O5 0.233713 0.743125 0.727236
O O6 0.482027 0.638966 0.038650
O O7 0.594082 0.788986 0.064010
O O8 0.558062 0.575529 0.222791
O O9 0.416859 0.677675 0.187442
O O10 0.779569 0.667126 0.521575
O O11 0.252032 0.965410 0.184001
O O12 0.603162 0.911159 0.507944
O O13 0.220086 0.742925 0.595365
O O14 0.070759 0.904538 0.376477
O O15 0.922220 0.668087 0.366274
O O16 0.223146 0.207917 0.864231
#
# Coordination Sequence:
#
# PCOD9245033 Si02
#       8
#     4   4   4   4   4   4   4   4
#     4  10  22  39  59  83 114 148 189 237 279 335
#     4  10  21  37  58  85 113 149 190 232 280 333
#     4  10  22  38  58  81 113 150 188 235 283 334
#     4  10  21  36  57  85 112 148 191 231 282 333
#     4  10  23  38  57  85 112 149 191 231 285 339
#     4  10  21  37  58  84 115 149 187 231 283 337
#     4  10  23  38  57  85 112 149 191 231 285 339
#     4  10  21  37  58  84 115 149 187 231 283 337
#
# _framework density 19.568172000000001
#
# number of rings (size 3 to 8) (size 9 to 14) (size 15 to 20)
#    0.000    2.000    0.000    4.500    7.000    7.000 
#    0.000    7.500    0.000    0.000    0.000    0.000 
#    0.000    0.000    0.000    0.000    0.000    0.000 
#
# Total GULP energy -178792.219915 kJ/mol
# GULP energy per Si atom -5587.256872 kJ/mol
# Density = 1.952363 g / cm^3
# Si number density = 19.568172 Si / 1000 Ang^3
#
#
#
# Elastic Constant Matrix: (Units=GPa)
#
#
# Indices 1 2 3 4 5 6 
#
# 1 52.8778 4.5942 7.2603 0.0000 -24.7323 0.0000
# 2 4.5942 39.7249 12.6203 0.0000 -0.4148 0.0000
# 3 7.2603 12.6203 121.9134 0.0000 -19.4007 0.0000
# 4 0.0000 0.0000 0.0000 6.1205 0.0000 -9.5719
# 5 -24.7323 -0.4148 -19.4007 0.0000 25.2246 0.0000
# 6 0.0000 0.0000 0.0000 -9.5719 0.0000 18.7692
#
#
#
# Elastic Compliance Matrix: (Units=1/GPa)
#
#
# Indices 1 2 3 4 5 6 
#
# 1 0.037688 -0.005451 0.004770 0.000000 0.040531 0.000000
# 2 -0.005451 0.026895 -0.003691 0.000000 -0.007741 0.000000
# 3 0.004770 -0.003691 0.010295 0.000000 0.012534 0.000000
# 4 0.000000 0.000000 0.000000 0.807096 0.000000 0.411604
# 5 0.040531 -0.007741 0.012534 0.000000 0.088897 0.000000
# 6 0.000000 0.000000 0.000000 0.411604 0.000000 0.263189
#
#
# Mechanical properties :
#
#
# Convention : Reuss Voigt Hill
#
# Bulk Modulus (GPa) = 15.12094 29.27397 22.19746
# Shear Modulus (GPa) = 3.95304 22.69229 13.32266
#
# Velocity S-wave (km/s) = 1.42286 3.40906 2.61211
# Velocity P-wave (km/s) = 3.23163 5.52160 4.52391
#
# Compressibility (1/GPa) = 0.06613345
#
# Stress axis : x y z
#
# Youngs Moduli (GPa) = 26.53393 37.18106 97.13221
#
# Poissons Ratio (x) = 0.20266 -0.46329
# Poissons Ratio (y) = 0.14463 0.35856
# Poissons Ratio (z) = -0.12656 0.13725
#
# Static dielectric constant tensor:
#      x y z
#    x 1.683840 0.000000 -0.017940 
#    y 0.000000 1.684080 0.000000 
#    z -0.017940 0.000000 1.678910 
# 
# From -- ./inp_files/69930.got.cif
#   From: 2010.05.17/outbox.cif.g08.bks.cpg/sg14_35_cif.got.tgz:69930.got - 2010.06.03 17:49:19.
