data_PCOD9245279
_publ_section_title
;
Structure prediction by ZEFSAII (Michael W. Deem and Ramdas Pophale) SiO2 
 PCOD9245279
Probable space group: P 21/C
;
_chemical_formula_sum "Si O2"
_cell_formula_units_Z 24
_cell_length_a 15.060791
_cell_length_b 14.412391
_cell_length_c 8.535664
_cell_angle_alpha 90.000000
_cell_angle_beta 146.036317
_cell_angle_gamma 90.000000
_cell_volume 1035.081113
_symmetry_space_group_name_H-M "P 21/C"
_symmetry_group_IT_number 14
_symmetry_cell_setting 'monoclinic'
loop_
_space_group_symop_operation_xyz
x,y,z
-x,1/2+y,1/2-z
-x,-y,-z
x,1/2-y,1/2+z
loop_
_atom_site_type_symbol
_atom_site_label
_atom_site_fract_x
_atom_site_fract_y
_atom_site_fract_z
Si Si1 0.784744 0.967112 0.134216
Si Si2 0.370184 0.886511 0.877725
Si Si3 0.292448 0.765057 0.057169
Si Si4 0.004152 0.378475 0.825671
Si Si5 0.601668 0.843666 0.659582
Si Si6 0.291893 0.149933 0.531898
O O1 0.886970 0.884146 0.358801
O O2 0.733387 0.030714 0.205191
O O3 0.635217 0.929018 0.821854
O O4 0.893709 0.030553 0.182459
O O5 0.334997 0.841452 0.657787
O O6 0.320636 0.801202 0.922561
O O7 0.555939 0.906804 0.177788
O O8 0.422585 0.826969 0.340962
O O9 0.114953 0.792115 0.845348
O O10 0.123710 0.377837 0.856421
O O11 0.663924 0.752440 0.840064
O O12 0.699877 0.853904 0.642531
#
# Coordination Sequence:
#
# PCOD9245279 Si02
#       6
#     4   4   4   4   4   4
#     4  10  22  41  61  88 124 157 194 253 306 344
#     4   9  20  39  62  85 118 161 202 242 297 362
#     4   9  20  39  61  85 115 159 201 238 294 362
#     4  10  22  38  58  87 119 150 194 246 304 348
#     4  10  21  40  63  84 119 162 204 244 294 363
#     4  10  21  37  61  90 117 159 205 243 295 362
#
# _framework density 23.186589000000001
#
# number of rings (size 3 to 8) (size 9 to 14) (size 15 to 20)
#    0.000    2.333    0.000    1.000    0.000   15.333 
#    0.000    3.333    0.000    0.000    0.000    0.000 
#    0.000    0.000    0.000    0.000    0.000    0.000 
#
# Total GULP energy -134134.290677 kJ/mol
# GULP energy per Si atom -5588.928778 kJ/mol
# Density = 2.313382 g / cm^3
# Si number density = 23.186589 Si / 1000 Ang^3
#
#
#
# Elastic Constant Matrix: (Units=GPa)
#
#
# Indices 1 2 3 4 5 6 
#
# 1 101.7932 20.5775 16.8132 0.0000 30.4703 0.0000
# 2 20.5775 33.9970 18.7258 0.0000 0.2609 0.0000
# 3 16.8132 18.7258 33.3511 0.0000 11.1897 0.0000
# 4 0.0000 0.0000 0.0000 33.8191 0.0000 -6.0079
# 5 30.4703 0.2609 11.1897 0.0000 40.5701 0.0000
# 6 0.0000 0.0000 0.0000 -6.0079 0.0000 31.7074
#
#
#
# Elastic Compliance Matrix: (Units=1/GPa)
#
#
# Indices 1 2 3 4 5 6 
#
# 1 0.015082 -0.010189 0.002089 0.000000 -0.011838 0.000000
# 2 -0.010189 0.051331 -0.028807 0.000000 0.015268 0.000000
# 3 0.002089 -0.028807 0.050217 0.000000 -0.015234 0.000000
# 4 0.000000 0.000000 0.000000 0.030599 0.000000 0.005798
# 5 -0.011838 0.015268 -0.015234 0.000000 0.037643 0.000000
# 6 0.000000 0.000000 0.000000 0.005798 0.000000 0.032637
#
#
# Mechanical properties :
#
#
# Convention : Reuss Voigt Hill
#
# Bulk Modulus (GPa) = 23.35546 31.26382 27.30964
# Shear Modulus (GPa) = 16.36151 28.75431 22.55791
#
# Velocity S-wave (km/s) = 2.65928 3.52536 3.12250
# Velocity P-wave (km/s) = 4.41857 5.48487 4.98034
#
# Compressibility (1/GPa) = 0.04281654
#
# Stress axis : x y z
#
# Youngs Moduli (GPa) = 66.30449 19.48125 19.91366
#
# Poissons Ratio (x) = 0.19849 -0.04160
# Poissons Ratio (y) = 0.67555 0.57366
# Poissons Ratio (z) = -0.13853 0.56120
#
# Static dielectric constant tensor:
#      x y z
#    x 1.871270 0.000000 -0.004060 
#    y 0.000000 1.932380 0.000000 
#    z -0.004060 0.000000 1.870030 
# 
# From -- ./inp_files/16329.got.cif
#   From: 2010.05.17/outbox.cif.g08.bks.cpg/sg14_9_cif.got.tgz:16329.got - 2010.06.03 17:49:19.
