data_PCOD9245703
_publ_section_title
;
Structure prediction by ZEFSAII (Michael W. Deem and Ramdas Pophale) SiO2 
 PCOD9245703
Probable space group: P 21/C
;
_chemical_formula_sum "Si O2"
_cell_formula_units_Z 28
_cell_length_a 7.248967
_cell_length_b 26.708170
_cell_length_c 8.612712
_cell_angle_alpha 90.000000
_cell_angle_beta 122.441072
_cell_angle_gamma 90.000000
_cell_volume 1407.257613
_symmetry_space_group_name_H-M "P 21/C"
_symmetry_group_IT_number 14
_symmetry_cell_setting 'monoclinic'
loop_
_space_group_symop_operation_xyz
x,y,z
-x,1/2+y,1/2-z
-x,-y,-z
x,1/2-y,1/2+z
loop_
_atom_site_type_symbol
_atom_site_label
_atom_site_fract_x
_atom_site_fract_y
_atom_site_fract_z
Si Si1 0.450451 0.576580 0.551982
Si Si2 0.466576 0.812300 0.145886
Si Si3 0.891594 0.495428 0.194917
Si Si4 0.319731 0.519772 0.205863
Si Si5 0.043125 0.073191 0.030925
Si Si6 0.706252 0.734373 0.039796
Si Si7 0.945597 0.813558 0.932745
O O1 0.532204 0.632700 0.615026
O O2 0.579817 0.534348 0.706300
O O3 0.448655 0.559686 0.370601
O O4 0.201941 0.574801 0.505335
O O5 0.539461 0.768686 0.061810
O O6 0.582367 0.800130 0.360644
O O7 0.206707 0.811525 0.047091
O O8 0.823642 0.536041 0.294704
O O9 0.076884 0.520866 0.171784
O O10 0.008231 0.452116 0.347986
O O11 0.712238 0.475377 0.993039
O O12 0.123415 0.129720 0.060426
O O13 0.847428 0.702026 0.222720
O O14 0.856601 0.773386 0.014488
#
# Coordination Sequence:
#
# PCOD9245703 Si02
#       7
#     4   4   4   4   4   4   4
#     4   9  19  34  52  77 110 145 175 229 279 329
#     4  10  21  39  59  84 118 145 192 240 281 343
#     4   9  18  33  53  79 108 142 183 224 265 345
#     4   9  18  33  53  78 109 142 185 218 275 337
#     4   9  19  34  52  78 110 142 177 228 285 320
#     4  10  22  38  61  86 107 157 190 228 298 333
#     4  10  21  39  58  84 118 144 189 243 278 340
#
# _framework density 19.896854999999999
#
# number of rings (size 3 to 8) (size 9 to 14) (size 15 to 20)
#    0.000    2.571    0.000    0.857    4.000    0.571 
#    0.000    7.143    0.000    0.000    0.000    0.000 
#    0.000    0.000    0.000    0.000    0.000    0.000 
#
# Total GULP energy -156317.138762 kJ/mol
# GULP energy per Si atom -5582.754956 kJ/mol
# Density = 1.985157 g / cm^3
# Si number density = 19.896855 Si / 1000 Ang^3
#
#
#
# Elastic Constant Matrix: (Units=GPa)
#
#
# Indices 1 2 3 4 5 6 
#
# 1 43.9399 5.8532 25.6105 0.0000 -5.0137 0.0000
# 2 5.8532 119.0227 74.6927 0.0000 -8.9499 0.0000
# 3 25.6105 74.6927 154.2766 0.0000 -30.4437 0.0000
# 4 0.0000 0.0000 0.0000 17.0376 0.0000 9.2626
# 5 -5.0137 -8.9499 -30.4437 0.0000 26.8446 0.0000
# 6 0.0000 0.0000 0.0000 9.2626 0.0000 30.8561
#
#
#
# Elastic Compliance Matrix: (Units=1/GPa)
#
#
# Indices 1 2 3 4 5 6 
#
# 1 0.025537 0.002061 -0.005360 0.000000 -0.000622 0.000000
# 2 0.002061 0.012474 -0.007066 0.000000 -0.003470 0.000000
# 3 -0.005360 -0.007066 0.013051 0.000000 0.011444 0.000000
# 4 0.000000 0.000000 0.000000 0.070141 0.000000 -0.021055
# 5 -0.000622 -0.003470 0.011444 0.000000 0.048957 0.000000
# 6 0.000000 0.000000 0.000000 -0.021055 0.000000 0.038729
#
#
# Mechanical properties :
#
#
# Convention : Reuss Voigt Hill
#
# Bulk Modulus (GPa) = 32.96859 58.83909 45.90384
# Shear Modulus (GPa) = 20.85697 29.01982 24.93840
#
# Velocity S-wave (km/s) = 3.24119 3.82319 3.54416
# Velocity P-wave (km/s) = 5.53288 7.00895 6.31419
#
# Compressibility (1/GPa) = 0.03033190
#
# Stress axis : x y z
#
# Youngs Moduli (GPa) = 39.15915 80.16851 76.62393
#
# Poissons Ratio (x) = -0.16522 0.41068
# Poissons Ratio (y) = -0.08070 0.54142
# Poissons Ratio (z) = 0.20988 0.56646
#
# Static dielectric constant tensor:
#      x y z
#    x 1.760980 0.000000 0.004630 
#    y 0.000000 1.673470 0.000000 
#    z 0.004630 0.000000 1.689470 
# 
# From -- ./inp_files/6522.got.cif
#   From: 2010.05.17/outbox.cif.g08.bks.cpg/sg14_4_cif.got.tgz:6522.got - 2010.06.03 17:49:19.
