data_PCOD9245616
_publ_section_title
;
Structure prediction by ZEFSAII (Michael W. Deem and Ramdas Pophale) SiO2 
 PCOD9245616
Probable space group: P 21/C
;
_chemical_formula_sum "Si O2"
_cell_formula_units_Z 24
_cell_length_a 9.365120
_cell_length_b 26.109466
_cell_length_c 7.589721
_cell_angle_alpha 90.000000
_cell_angle_beta 33.389861
_cell_angle_gamma 90.000000
_cell_volume 1021.322033
_symmetry_space_group_name_H-M "P 21/C"
_symmetry_group_IT_number 14
_symmetry_cell_setting 'monoclinic'
loop_
_space_group_symop_operation_xyz
x,y,z
-x,1/2+y,1/2-z
-x,-y,-z
x,1/2-y,1/2+z
loop_
_atom_site_type_symbol
_atom_site_label
_atom_site_fract_x
_atom_site_fract_y
_atom_site_fract_z
Si Si1 0.865402 0.534103 0.487797
Si Si2 0.354623 0.495099 0.832878
Si Si3 0.331194 0.678407 0.464307
Si Si4 0.222405 0.145272 0.014109
Si Si5 0.278022 0.705637 0.929600
Si Si6 0.172242 0.380306 0.987678
O O1 0.588870 0.509671 0.722431
O O2 0.808394 0.594088 0.568529
O O3 0.000000 0.500000 0.500000
O O4 0.100361 0.531010 0.102595
O O5 0.500000 0.500000 0.500000
O O6 0.248555 0.437762 0.956720
O O7 0.299512 0.689185 0.704926
O O8 0.291806 0.733352 0.418496
O O9 0.616987 0.657002 0.142444
O O10 0.111315 0.636193 0.655401
O O11 0.202179 0.127424 0.242926
O O12 0.990411 0.184508 0.219808
O O13 0.488153 0.176042 0.715834
#
# Coordination Sequence:
#
# PCOD9245616 Si02
#       6
#     4   4   4   4   4   4
#     4  12  26  44  64  99 142 171 215 278 335 392
#     4  12  24  42  72  96 128 176 228 266 316 399
#     4  10  21  39  60  89 124 154 208 267 321 379
#     4  10  21  39  65  86 124 171 208 249 335 391
#     4  10  21  39  62  88 118 164 206 264 320 384
#     4  10  21  38  65  92 118 162 218 267 308 376
#
# _framework density 23.498956
#
# number of rings (size 3 to 8) (size 9 to 14) (size 15 to 20)
#    0.000    1.333    1.667    4.000    4.667    0.000 
#    9.000    0.000    0.000    0.000    0.000    0.000 
#    0.000    0.000    0.000    0.000    0.000    0.000 
#
# Total GULP energy -134343.713575 kJ/mol
# GULP energy per Si atom -5597.654732 kJ/mol
# Density = 2.344547 g / cm^3
# Si number density = 23.498956 Si / 1000 Ang^3
#
#
#
# Elastic Constant Matrix: (Units=GPa)
#
#
# Indices 1 2 3 4 5 6 
#
# 1 37.9465 18.8673 34.0316 0.0000 -16.4840 0.0000
# 2 18.8673 112.2786 15.8803 0.0000 -21.8347 0.0000
# 3 34.0316 15.8803 90.0576 0.0000 -31.3546 0.0000
# 4 0.0000 0.0000 0.0000 44.1845 0.0000 -12.1806
# 5 -16.4840 -21.8347 -31.3546 0.0000 39.1884 0.0000
# 6 0.0000 0.0000 0.0000 -12.1806 0.0000 37.4553
#
#
#
# Elastic Compliance Matrix: (Units=1/GPa)
#
#
# Indices 1 2 3 4 5 6 
#
# 1 0.042940 -0.004374 -0.013882 0.000000 0.004518 0.000000
# 2 -0.004374 0.010438 0.001658 0.000000 0.005303 0.000000
# 3 -0.013882 0.001658 0.019886 0.000000 0.010995 0.000000
# 4 0.000000 0.000000 0.000000 0.024861 0.000000 0.008085
# 5 0.004518 0.005303 0.010995 0.000000 0.039170 0.000000
# 6 0.000000 0.000000 0.000000 0.008085 0.000000 0.029328
#
#
# Mechanical properties :
#
#
# Convention : Reuss Voigt Hill
#
# Bulk Modulus (GPa) = 24.95699 41.98236 33.46968
# Shear Modulus (GPa) = 23.45500 35.59922 29.52711
#
# Velocity S-wave (km/s) = 3.16275 3.89643 3.54860
# Velocity P-wave (km/s) = 4.89702 6.17635 5.57351
#
# Compressibility (1/GPa) = 0.04006894
#
# Stress axis : x y z
#
# Youngs Moduli (GPa) = 23.28820 95.80323 50.28761
#
# Poissons Ratio (x) = 0.41900 0.69811
# Poissons Ratio (y) = 0.10185 -0.08340
# Poissons Ratio (z) = 0.32329 -0.15888
#
# Static dielectric constant tensor:
#      x y z
#    x 2.007510 0.000000 0.070260 
#    y 0.000000 1.769010 0.000000 
#    z 0.070260 0.000000 2.135770 
# 
# From -- ./inp_files/11308.got.cif
#   From: 2010.05.17/outbox.cif.g08.bks.cpg/sg14_6_cif.got.tgz:11308.got - 2010.06.03 17:49:19.
