data_PCOD9245081
_publ_section_title
;
Structure prediction by ZEFSAII (Michael W. Deem and Ramdas Pophale) SiO2 
 PCOD9245081
Probable space group: P 21/C
;
_chemical_formula_sum "Si O2"
_cell_formula_units_Z 24
_cell_length_a 17.452425
_cell_length_b 5.840098
_cell_length_c 29.207807
_cell_angle_alpha 90.000000
_cell_angle_beta 20.602742
_cell_angle_gamma 90.000000
_cell_volume 1047.556372
_symmetry_space_group_name_H-M "P 21/C"
_symmetry_group_IT_number 14
_symmetry_cell_setting 'monoclinic'
loop_
_space_group_symop_operation_xyz
x,y,z
-x,1/2+y,1/2-z
-x,-y,-z
x,1/2-y,1/2+z
loop_
_atom_site_type_symbol
_atom_site_label
_atom_site_fract_x
_atom_site_fract_y
_atom_site_fract_z
Si Si1 0.640023 0.194971 0.895905
Si Si2 0.732558 0.856239 0.519900
Si Si3 0.700370 0.422660 0.947545
Si Si4 0.422078 0.455140 0.657125
Si Si5 0.954036 0.798302 0.488714
Si Si6 0.312883 0.102673 0.790012
O O1 0.471586 0.390475 0.974021
O O2 0.709398 0.089303 0.808766
O O3 0.795468 0.308892 0.847879
O O4 0.500000 0.000000 0.000000
O O5 0.591380 0.627348 0.587417
O O6 0.904638 0.840128 0.463736
O O7 0.821511 0.954185 0.421752
O O8 0.551791 0.023486 0.643169
O O9 0.568095 0.224228 0.047227
O O10 0.277278 0.309436 0.773525
O O11 0.731026 0.692160 0.634617
O O12 0.146731 0.610261 0.380025
O O13 0.000000 0.000000 0.500000
#
# Coordination Sequence:
#
# PCOD9245081 Si02
#       6
#     4   4   4   4   4   4
#     4   8  13  25  48  81 126 142 186 246 290 361
#     4  10  21  36  60  82 123 159 199 255 304 365
#     4   8  15  27  49  85 119 147 193 236 304 354
#     4   9  17  32  53  83 121 150 196 244 301 355
#     4  11  25  40  57  84 122 160 208 256 307 366
#     4  10  23  36  56  83 116 163 209 247 311 359
#
# _framework density 22.910463
#
# number of rings (size 3 to 8) (size 9 to 14) (size 15 to 20)
#    0.000    2.667    0.000    1.000    4.667    4.000 
#    0.000    0.000    0.000    0.000    0.000    0.000 
# 1485.000    0.000    0.000    0.000    0.000    0.000 
#
# Total GULP energy -133672.118812 kJ/mol
# GULP energy per Si atom -5569.671617 kJ/mol
# Density = 2.285832 g / cm^3
# Si number density = 22.910463 Si / 1000 Ang^3
#
#
#
# Elastic Constant Matrix: (Units=GPa)
#
#
# Indices 1 2 3 4 5 6 
#
# 1 193.8491 70.4866 33.8937 0.0000 21.6583 0.0000
# 2 70.4866 101.4485 25.4003 0.0000 10.9889 0.0000
# 3 33.8937 25.4003 59.3252 0.0000 21.1802 0.0000
# 4 0.0000 0.0000 0.0000 29.9709 0.0000 29.9180
# 5 21.6583 10.9889 21.1802 0.0000 26.7946 0.0000
# 6 0.0000 0.0000 0.0000 29.9180 0.0000 46.9811
#
#
#
# Elastic Compliance Matrix: (Units=1/GPa)
#
#
# Indices 1 2 3 4 5 6 
#
# 1 0.007340 -0.004468 -0.001137 0.000000 -0.003201 0.000000
# 2 -0.004468 0.013784 -0.003650 0.000000 0.000844 0.000000
# 3 -0.001137 -0.003650 0.025364 0.000000 -0.017633 0.000000
# 4 0.000000 0.000000 0.000000 0.091585 0.000000 -0.058322
# 5 -0.003201 0.000844 -0.017633 0.000000 0.053501 0.000000
# 6 0.000000 0.000000 0.000000 -0.058322 0.000000 0.058425
#
#
# Mechanical properties :
#
#
# Convention : Reuss Voigt Hill
#
# Bulk Modulus (GPa) = 35.74413 68.24268 51.99341
# Shear Modulus (GPa) = 17.99611 35.73879 26.86745
#
# Velocity S-wave (km/s) = 2.80571 3.95388 3.42821
# Velocity P-wave (km/s) = 5.11190 7.12009 6.19787
#
# Compressibility (1/GPa) = 0.02797662
#
# Stress axis : x y z
#
# Youngs Moduli (GPa) = 136.24114 72.54633 39.42535
#
# Poissons Ratio (x) = 0.32415 0.04484
# Poissons Ratio (y) = 0.60876 0.14392
# Poissons Ratio (z) = 0.15496 0.26482
#
# Static dielectric constant tensor:
#      x y z
#    x 1.920390 0.000000 0.002030 
#    y 0.000000 1.944360 0.000000 
#    z 0.002030 0.000000 1.843120 
# 
# From -- ./inp_files/77390.got.cif
#   From: 2010.05.17/outbox.cif.g08.bks.cpg/sg14_39_cif.got.tgz:77390.got - 2010.06.03 17:49:19.
