data_PCOD9245166
_publ_section_title
;
Structure prediction by ZEFSAII (Michael W. Deem and Ramdas Pophale) SiO2 
 PCOD9245166
Probable space group: P 21/C
;
_chemical_formula_sum "Si O2"
_cell_formula_units_Z 30
_cell_length_a 18.823599
_cell_length_b 4.983654
_cell_length_c 13.722340
_cell_angle_alpha 90.000000
_cell_angle_beta 68.516030
_cell_angle_gamma 90.000000
_cell_volume 1197.855595
_symmetry_space_group_name_H-M "P 21/C"
_symmetry_group_IT_number 14
_symmetry_cell_setting 'monoclinic'
loop_
_space_group_symop_operation_xyz
x,y,z
-x,1/2+y,1/2-z
-x,-y,-z
x,1/2-y,1/2+z
loop_
_atom_site_type_symbol
_atom_site_label
_atom_site_fract_x
_atom_site_fract_y
_atom_site_fract_z
Si Si1 0.132426 0.241944 0.689292
Si Si2 0.000095 0.517144 0.142563
Si Si3 0.572901 0.626129 0.800357
Si Si4 0.733762 0.507899 0.755341
Si Si5 0.251209 0.993375 0.387009
Si Si6 0.410620 0.626077 0.844134
Si Si7 0.000000 0.500000 0.500000
Si Si8 0.126929 0.612053 0.513422
O O1 0.061566 0.048332 0.695779
O O2 0.204542 0.091951 0.696343
O O3 0.155083 0.419845 0.583440
O O4 0.086169 0.447213 0.781419
O O5 0.036934 0.794291 0.081492
O O6 0.008538 0.279317 0.064075
O O7 0.645762 0.565583 0.830626
O O8 0.484653 0.584848 0.874734
O O9 0.585815 0.423745 0.702357
O O10 0.578832 0.924121 0.753260
O O11 0.740045 0.206660 0.711002
O O12 0.746537 0.706970 0.655253
O O13 0.324707 0.938410 0.418565
O O14 0.176841 0.874705 0.476247
O O15 0.098680 0.484298 0.428024
#
# Coordination Sequence:
#
# PCOD9245166 Si02
#       8
#     4   4   4   4   4   4   2   4
#     4  12  23  39  61  80 115 156 191 242 298 353
#     4  10  22  40  56  80 107 150 196 241 291 345
#     4   8  14  29  48  82 106 145 181 231 281 331
#     4  10  23  35  60  84 118 147 193 240 287 348
#     4  10  21  37  55  89 113 151 190 243 288 336
#     4   8  14  27  52  75 114 139 183 232 281 331
#     4   8  20  38  54  78 102 140 188 242 270 336
#     4  10  23  38  55  81 111 147 193 237 294 343
#
# _framework density 25.044754000000001
#
# number of rings (size 3 to 8) (size 9 to 14) (size 15 to 20)
#    0.800    1.600    1.333    0.800    3.733    1.600 
#    0.000    0.000    0.000    0.800    0.000    0.933 
#    0.000    0.000    0.000    0.000    0.000    0.000 
#
# Total GULP energy -167399.970871 kJ/mol
# GULP energy per Si atom -5579.999029 kJ/mol
# Density = 2.498775 g / cm^3
# Si number density = 25.044754 Si / 1000 Ang^3
#
#
#
# Elastic Constant Matrix: (Units=GPa)
#
#
# Indices 1 2 3 4 5 6 
#
# 1 189.9822 2.4523 26.9346 0.0000 -10.4861 0.0000
# 2 2.4523 110.3631 9.6629 0.0000 5.1004 0.0000
# 3 26.9346 9.6629 27.0033 0.0000 1.2933 0.0000
# 4 0.0000 0.0000 0.0000 25.8257 0.0000 -0.9646
# 5 -10.4861 5.1004 1.2933 0.0000 28.9512 0.0000
# 6 0.0000 0.0000 0.0000 -0.9646 0.0000 37.1345
#
#
#
# Elastic Compliance Matrix: (Units=1/GPa)
#
#
# Indices 1 2 3 4 5 6 
#
# 1 0.006327 0.000316 -0.006545 0.000000 0.002528 0.000000
# 2 0.000316 0.009435 -0.003625 0.000000 -0.001386 0.000000
# 3 -0.006545 -0.003625 0.045037 0.000000 -0.003744 0.000000
# 4 0.000000 0.000000 0.000000 0.038759 0.000000 0.001007
# 5 0.002528 -0.001386 -0.003744 0.000000 0.035868 0.000000
# 6 0.000000 0.000000 0.000000 0.001007 0.000000 0.026955
#
#
# Mechanical properties :
#
#
# Convention : Reuss Voigt Hill
#
# Bulk Modulus (GPa) = 24.33604 45.04980 34.69292
# Shear Modulus (GPa) = 25.53794 37.60220 31.57007
#
# Velocity S-wave (km/s) = 3.19673 3.87899 3.55427
# Velocity P-wave (km/s) = 4.83358 6.17162 5.54312
#
# Compressibility (1/GPa) = 0.04109131
#
# Stress axis : x y z
#
# Youngs Moduli (GPa) = 158.05172 105.98371 22.20387
#
# Poissons Ratio (x) = -0.03345 0.14532
# Poissons Ratio (y) = -0.04988 0.08048
# Poissons Ratio (z) = 1.03444 0.38417
#
# Static dielectric constant tensor:
#      x y z
#    x 2.108320 0.000000 -0.053790 
#    y 0.000000 1.982600 0.000000 
#    z -0.053790 0.000000 2.086600 
# 
# From -- ./inp_files/47968.got.cif
#   From: 2010.05.17/outbox.cif.g08.bks.cpg/sg14_24_cif.got.tgz:47968.got - 2010.06.03 17:49:19.
