data_PCOD9245677
_publ_section_title
;
Structure prediction by ZEFSAII (Michael W. Deem and Ramdas Pophale) SiO2 
 PCOD9245677
Probable space group: P 21/C
;
_chemical_formula_sum "Si O2"
_cell_formula_units_Z 20
_cell_length_a 12.777457
_cell_length_b 5.624482
_cell_length_c 10.361815
_cell_angle_alpha 90.000000
_cell_angle_beta 73.305175
_cell_angle_gamma 90.000000
_cell_volume 713.279253
_symmetry_space_group_name_H-M "P 21/C"
_symmetry_group_IT_number 14
_symmetry_cell_setting 'monoclinic'
loop_
_space_group_symop_operation_xyz
x,y,z
-x,1/2+y,1/2-z
-x,-y,-z
x,1/2-y,1/2+z
loop_
_atom_site_type_symbol
_atom_site_label
_atom_site_fract_x
_atom_site_fract_y
_atom_site_fract_z
Si Si1 0.734380 0.355907 0.379928
Si Si2 0.363192 0.974877 0.417936
Si Si3 0.111206 0.889222 0.829860
Si Si4 0.929062 0.898038 0.674259
Si Si5 0.411603 0.275358 0.656405
O O1 0.729490 0.219361 0.515966
O O2 0.767567 0.159455 0.263004
O O3 0.828233 0.551949 0.314820
O O4 0.615825 0.466830 0.397239
O O5 0.470855 0.823298 0.343495
O O6 0.381372 0.107020 0.547166
O O7 0.346735 0.172611 0.313843
O O8 0.074402 0.641357 0.905674
O O9 0.036900 0.889111 0.724204
O O10 0.094422 0.150558 0.888245
#
# Coordination Sequence:
#
# PCOD9245677 Si02
#       5
#     4   4   4   4   4
#     4  10  21  38  69 100 139 187 246 289 367 434
#     4  11  27  45  71 102 145 193 244 305 367 438
#     4   8  15  30  57  96 136 181 233 286 347 424
#     4   8  15  30  57  96 136 181 233 286 347 424
#     4  11  27  46  70 103 144 191 244 305 370 435
#
# _framework density 28.039511000000001
#
# number of rings (size 3 to 8) (size 9 to 14) (size 15 to 20)
#    1.200    1.200    0.000    1.800    8.400    0.000 
#    0.000    0.000    0.000    2.400    0.000    0.000 
#    0.000    0.000    0.000    0.000    0.000    0.000 
#
# Total GULP energy -111519.343186 kJ/mol
# GULP energy per Si atom -5575.967159 kJ/mol
# Density = 2.797569 g / cm^3
# Si number density = 28.039511 Si / 1000 Ang^3
#
#
#
# Elastic Constant Matrix: (Units=GPa)
#
#
# Indices 1 2 3 4 5 6 
#
# 1 92.8536 44.0088 51.2907 0.0000 6.3296 0.0000
# 2 44.0088 228.4925 50.5380 0.0000 -29.4904 0.0000
# 3 51.2907 50.5380 111.4615 0.0000 -3.6643 0.0000
# 4 0.0000 0.0000 0.0000 59.3004 0.0000 -19.7113
# 5 6.3296 -29.4904 -3.6643 0.0000 40.6632 0.0000
# 6 0.0000 0.0000 0.0000 -19.7113 0.0000 35.5592
#
#
#
# Elastic Compliance Matrix: (Units=1/GPa)
#
#
# Indices 1 2 3 4 5 6 
#
# 1 0.015632 -0.002201 -0.006347 0.000000 -0.004601 0.000000
# 2 -0.002201 0.005673 -0.001417 0.000000 0.004329 0.000000
# 3 -0.006347 -0.001417 0.012571 0.000000 0.001093 0.000000
# 4 0.000000 0.000000 0.000000 0.020672 0.000000 0.011459
# 5 -0.004601 0.004329 0.001093 0.000000 0.028546 0.000000
# 6 0.000000 0.000000 0.000000 0.011459 0.000000 0.034474
#
#
# Mechanical properties :
#
#
# Convention : Reuss Voigt Hill
#
# Bulk Modulus (GPa) = 71.70389 80.49807 76.10098
# Shear Modulus (GPa) = 35.17501 46.23590 40.70546
#
# Velocity S-wave (km/s) = 3.54571 4.06514 3.81427
# Velocity P-wave (km/s) = 6.51081 7.12776 6.82626
#
# Compressibility (1/GPa) = 0.01394624
#
# Stress axis : x y z
#
# Youngs Moduli (GPa) = 63.96991 176.28864 79.55047
#
# Poissons Ratio (x) = 0.38801 0.50489
# Poissons Ratio (y) = 0.14080 0.11271
# Poissons Ratio (z) = 0.40600 0.24978
#
# Static dielectric constant tensor:
#      x y z
#    x 2.207820 0.000000 -0.029900 
#    y 0.000000 2.233490 0.000000 
#    z -0.029900 0.000000 2.200890 
# 
# From -- ./inp_files/31067.got.cif
#   From: 2010.05.17/outbox.cif.g08.bks.cpg/sg14_16_cif.got.tgz:31067.got - 2010.06.03 17:49:19.
