data_PCOD9245562
_publ_section_title
;
Structure prediction by ZEFSAII (Michael W. Deem and Ramdas Pophale) SiO2 
 PCOD9245562
Probable space group: P 21/C
;
_chemical_formula_sum "Si O2"
_cell_formula_units_Z 32
_cell_length_a 11.774130
_cell_length_b 18.608370
_cell_length_c 11.674889
_cell_angle_alpha 90.000000
_cell_angle_beta 42.269412
_cell_angle_gamma 90.000000
_cell_volume 1720.513636
_symmetry_space_group_name_H-M "P 21/C"
_symmetry_group_IT_number 14
_symmetry_cell_setting 'monoclinic'
loop_
_space_group_symop_operation_xyz
x,y,z
-x,1/2+y,1/2-z
-x,-y,-z
x,1/2-y,1/2+z
loop_
_atom_site_type_symbol
_atom_site_label
_atom_site_fract_x
_atom_site_fract_y
_atom_site_fract_z
Si Si1 0.819524 0.393053 0.368641
Si Si2 0.964197 0.020302 0.394841
Si Si3 0.636052 0.932731 0.595210
Si Si4 0.077265 0.397120 0.491963
Si Si5 0.134651 0.320859 0.205585
Si Si6 0.158454 0.154572 0.173372
Si Si7 0.262126 0.951916 0.826802
Si Si8 0.530012 0.582025 0.439668
O O1 0.758470 0.404029 0.543790
O O2 0.653163 0.380732 0.418944
O O3 0.907611 0.468339 0.269410
O O4 0.964488 0.333925 0.258557
O O5 0.014491 0.102537 0.334640
O O6 0.778310 0.995312 0.494020
O O7 0.000000 0.000000 0.500000
O O8 0.719848 0.863890 0.470937
O O9 0.462871 0.953068 0.658806
O O10 0.595618 0.917556 0.759349
O O11 0.106175 0.359904 0.348343
O O12 0.133948 0.349745 0.555717
O O13 0.190166 0.469069 0.406457
O O14 0.879415 0.419568 0.652679
O O15 0.159635 0.237180 0.207546
O O16 0.332634 0.118493 0.083066
O O17 0.500000 0.500000 0.500000
#
# Coordination Sequence:
#
# PCOD9245562 Si02
#       8
#     4   4   4   4   4   4   4   4
#     4   9  18  38  59  84 115 157 198 242 305 355
#     4  11  19  34  60  91 118 153 203 255 294 345
#     4  10  21  38  63  92 122 146 210 260 298 342
#     4  10  21  40  62  83 119 163 203 235 313 373
#     4  10  25  39  58  85 124 168 189 251 312 353
#     4  12  23  38  61  90 126 160 203 242 312 374
#     4   9  18  38  66  85 109 157 206 251 289 361
#     4  11  19  37  68  91 113 156 202 258 302 355
#
# _framework density 18.599098000000001
#
# number of rings (size 3 to 8) (size 9 to 14) (size 15 to 20)
#    0.000    1.750    3.750    0.750    3.500    0.500 
#    2.250    0.000   11.000    0.000    0.000    0.000 
#    0.000    0.000    0.000    0.000    0.000    0.000 
#
# Total GULP energy -178448.835853 kJ/mol
# GULP energy per Si atom -5576.526120 kJ/mol
# Density = 1.855677 g / cm^3
# Si number density = 18.599098 Si / 1000 Ang^3
#
#
#
# Elastic Constant Matrix: (Units=GPa)
#
#
# Indices 1 2 3 4 5 6 
#
# 1 102.4578 27.4534 49.1068 0.0000 -33.9892 0.0000
# 2 27.4534 88.6517 29.4818 0.0000 -17.8406 0.0000
# 3 49.1068 29.4818 83.3138 0.0000 -19.8506 0.0000
# 4 0.0000 0.0000 0.0000 10.4438 0.0000 -4.6529
# 5 -33.9892 -17.8406 -19.8506 0.0000 49.4773 0.0000
# 6 0.0000 0.0000 0.0000 -4.6529 0.0000 12.1346
#
#
#
# Elastic Compliance Matrix: (Units=1/GPa)
#
#
# Indices 1 2 3 4 5 6 
#
# 1 0.016098 -0.000998 -0.007282 0.000000 0.007777 0.000000
# 2 -0.000998 0.013289 -0.003467 0.000000 0.002715 0.000000
# 3 -0.007282 -0.003467 0.017727 0.000000 0.000859 0.000000
# 4 0.000000 0.000000 0.000000 0.115477 0.000000 0.044278
# 5 0.007777 0.002715 0.000859 0.000000 0.026878 0.000000
# 6 0.000000 0.000000 0.000000 0.044278 0.000000 0.099387
#
#
# Mechanical properties :
#
#
# Convention : Reuss Voigt Hill
#
# Bulk Modulus (GPa) = 42.34059 54.05637 48.19848
# Shear Modulus (GPa) = 15.61414 25.63656 20.62535
#
# Velocity S-wave (km/s) = 2.90057 3.71668 3.33369
# Velocity P-wave (km/s) = 5.83370 6.89531 6.38660
#
# Compressibility (1/GPa) = 0.02361800
#
# Stress axis : x y z
#
# Youngs Moduli (GPa) = 62.12033 75.25246 56.41216
#
# Poissons Ratio (x) = 0.07513 0.41080
# Poissons Ratio (y) = 0.06202 0.19559
# Poissons Ratio (z) = 0.45237 0.26091
#
# Static dielectric constant tensor:
#      x y z
#    x 1.685170 0.000000 -0.003000 
#    y 0.000000 1.618650 0.000000 
#    z -0.003000 0.000000 1.681430 
# 
# From -- ./inp_files/30436.got.cif
#   From: 2010.05.17/outbox.cif.g08.bks.cpg/sg14_16_cif.got.tgz:30436.got - 2010.06.03 17:49:19.
