data_PCOD9245765
_publ_section_title
;
Structure prediction by ZEFSAII (Michael W. Deem and Ramdas Pophale) SiO2 
 PCOD9245765
Probable space group: P 21/C
;
_chemical_formula_sum "Si O2"
_cell_formula_units_Z 24
_cell_length_a 6.865278
_cell_length_b 13.510953
_cell_length_c 17.805683
_cell_angle_alpha 90.000000
_cell_angle_beta 45.318914
_cell_angle_gamma 90.000000
_cell_volume 1174.334099
_symmetry_space_group_name_H-M "P 21/C"
_symmetry_group_IT_number 14
_symmetry_cell_setting 'monoclinic'
loop_
_space_group_symop_operation_xyz
x,y,z
-x,1/2+y,1/2-z
-x,-y,-z
x,1/2-y,1/2+z
loop_
_atom_site_type_symbol
_atom_site_label
_atom_site_fract_x
_atom_site_fract_y
_atom_site_fract_z
Si Si1 0.642923 0.191487 0.319801
Si Si2 0.942257 0.616800 0.010767
Si Si3 0.714772 0.436822 0.489755
Si Si4 0.994954 0.756363 0.647120
Si Si5 0.706204 0.049676 0.163339
Si Si6 0.565209 0.348506 0.228288
O O1 0.890197 0.190680 0.310592
O O2 0.587952 0.302669 0.305515
O O3 0.368081 0.143684 0.428490
O O4 0.701614 0.134463 0.226489
O O5 0.161456 0.662695 0.893954
O O6 0.977616 0.668511 0.082178
O O7 0.000000 0.500000 0.000000
O O8 0.500000 0.500000 0.500000
O O9 0.795936 0.332277 0.430834
O O10 0.631092 0.419550 0.599173
O O11 0.993722 0.500817 0.418056
O O12 0.697794 0.705716 0.736843
O O13 0.502021 0.963844 0.245641
#
# Coordination Sequence:
#
# PCOD9245765 Si02
#       6
#     4   4   4   4   4   4
#     4  11  23  41  66  94 127 173 212 264 330 381
#     4  11  23  43  66  92 131 176 215 269 324 387
#     4  10  21  39  65  90 124 167 215 264 320 382
#     4  10  24  41  61  97 130 166 220 266 322 394
#     4  10  21  39  61  90 125 163 212 264 318 378
#     4  10  22  42  62  91 129 165 213 269 323 382
#
# _framework density 20.437111999999999
#
# number of rings (size 3 to 8) (size 9 to 14) (size 15 to 20)
#    0.000    1.667    1.667    2.000    0.000   10.000 
#    6.000    0.000    0.000    0.000    0.000    0.000 
#    0.000    0.000    0.000    0.000    0.000    0.000 
#
# Total GULP energy -134146.539412 kJ/mol
# GULP energy per Si atom -5589.439142 kJ/mol
# Density = 2.039060 g / cm^3
# Si number density = 20.437112 Si / 1000 Ang^3
#
#
#
# Elastic Constant Matrix: (Units=GPa)
#
#
# Indices 1 2 3 4 5 6 
#
# 1 45.4837 -0.3617 28.4973 0.0000 11.3044 0.0000
# 2 -0.3617 82.1899 17.2270 0.0000 3.9094 0.0000
# 3 28.4973 17.2270 105.5574 0.0000 -5.6049 0.0000
# 4 0.0000 0.0000 0.0000 30.7543 0.0000 -0.2282
# 5 11.3044 3.9094 -5.6049 0.0000 24.0056 0.0000
# 6 0.0000 0.0000 0.0000 -0.2282 0.0000 25.5725
#
#
#
# Elastic Compliance Matrix: (Units=1/GPa)
#
#
# Indices 1 2 3 4 5 6 
#
# 1 0.033201 0.003227 -0.010478 0.000000 -0.018606 0.000000
# 2 0.003227 0.013069 -0.003238 0.000000 -0.004404 0.000000
# 3 -0.010478 -0.003238 0.013285 0.000000 0.008563 0.000000
# 4 0.000000 0.000000 0.000000 0.032518 0.000000 0.000290
# 5 -0.018606 -0.004404 0.008563 0.000000 0.053135 0.000000
# 6 0.000000 0.000000 0.000000 0.000290 0.000000 0.039107
#
#
# Mechanical properties :
#
#
# Convention : Reuss Voigt Hill
#
# Bulk Modulus (GPa) = 25.92138 35.99513 30.95825
# Shear Modulus (GPa) = 22.91979 28.59107 25.75543
#
# Velocity S-wave (km/s) = 3.35248 3.74435 3.55382
# Velocity P-wave (km/s) = 5.26275 6.02863 5.65866
#
# Compressibility (1/GPa) = 0.03857820
#
# Stress axis : x y z
#
# Youngs Moduli (GPa) = 30.11990 76.51506 75.27093
#
# Poissons Ratio (x) = -0.24694 0.78867
# Poissons Ratio (y) = -0.09721 0.24373
# Poissons Ratio (z) = 0.31559 0.24776
#
# Static dielectric constant tensor:
#      x y z
#    x 1.695280 0.000000 -0.011740 
#    y 0.000000 1.748570 0.000000 
#    z -0.011740 0.000000 1.729320 
# 
# From -- ./inp_files/37256.got.cif
#   From: 2010.05.17/outbox.cif.g08.bks.cpg/sg14_19_cif.got.tgz:37256.got - 2010.06.03 17:49:19.
