data_PCOD9245889
_publ_section_title
;
Structure prediction by ZEFSAII (Michael W. Deem and Ramdas Pophale) SiO2 
 PCOD9245889
Probable space group: P 21/C
;
_chemical_formula_sum "Si O2"
_cell_formula_units_Z 20
_cell_length_a 8.140709
_cell_length_b 8.063843
_cell_length_c 13.608875
_cell_angle_alpha 90.000000
_cell_angle_beta 75.806971
_cell_angle_gamma 90.000000
_cell_volume 866.090387
_symmetry_space_group_name_H-M "P 21/C"
_symmetry_group_IT_number 14
_symmetry_cell_setting 'monoclinic'
loop_
_space_group_symop_operation_xyz
x,y,z
-x,1/2+y,1/2-z
-x,-y,-z
x,1/2-y,1/2+z
loop_
_atom_site_type_symbol
_atom_site_label
_atom_site_fract_x
_atom_site_fract_y
_atom_site_fract_z
Si Si1 0.450388 0.339772 0.366503
Si Si2 0.710427 0.015839 0.674072
Si Si3 0.904147 0.994839 0.117411
Si Si4 0.633241 0.149075 0.483194
Si Si5 0.040708 0.660351 0.196774
O O1 0.381565 0.158947 0.341179
O O2 0.600873 0.401687 0.275411
O O3 0.292004 0.461178 0.377542
O O4 0.527679 0.308537 0.463318
O O5 0.896453 0.965449 0.680929
O O6 0.710410 0.136568 0.579913
O O7 0.975723 0.836372 0.166914
O O8 0.937050 0.142551 0.189492
O O9 0.000000 0.000000 0.000000
O O10 0.781754 0.122449 0.382421
O O11 0.500000 0.000000 0.500000
#
# Coordination Sequence:
#
# PCOD9245889 Si02
#       5
#     4   4   4   4   4
#     4  10  22  41  66  96 129 171 221 276 336 405
#     4  10  22  40  64  95 132 175 223 277 336 400
#     4  11  26  45  68 100 137 178 227 283 339 401
#     4  10  21  39  64  93 128 172 221 275 334 398
#     4  11  24  43  68  98 134 178 227 279 337 404
#
# _framework density 23.092279999999999
#
# number of rings (size 3 to 8) (size 9 to 14) (size 15 to 20)
#    0.000    1.600    0.000    4.200    0.000   12.800 
#    0.000    3.000    0.000    0.000    0.000    0.000 
#    0.000    0.000    0.000    0.000    0.000    0.000 
#
# Total GULP energy -111956.573294 kJ/mol
# GULP energy per Si atom -5597.828665 kJ/mol
# Density = 2.303972 g / cm^3
# Si number density = 23.092280 Si / 1000 Ang^3
#
#
#
# Elastic Constant Matrix: (Units=GPa)
#
#
# Indices 1 2 3 4 5 6 
#
# 1 152.4563 42.2304 48.1491 0.0000 7.0960 0.0000
# 2 42.2304 92.8215 57.9024 0.0000 16.7133 0.0000
# 3 48.1491 57.9024 97.7792 0.0000 19.0950 0.0000
# 4 0.0000 0.0000 0.0000 37.5396 0.0000 0.3505
# 5 7.0960 16.7133 19.0950 0.0000 48.3763 0.0000
# 6 0.0000 0.0000 0.0000 0.3505 0.0000 28.1335
#
#
#
# Elastic Compliance Matrix: (Units=1/GPa)
#
#
# Indices 1 2 3 4 5 6 
#
# 1 0.007985 -0.001931 -0.002915 0.000000 0.000646 0.000000
# 2 -0.001931 0.017744 -0.009118 0.000000 -0.002248 0.000000
# 3 -0.002915 -0.009118 0.017730 0.000000 -0.003421 0.000000
# 4 0.000000 0.000000 0.000000 0.026642 0.000000 -0.000332
# 5 0.000646 -0.002248 -0.003421 0.000000 0.022703 0.000000
# 6 0.000000 0.000000 0.000000 -0.000332 0.000000 0.035549
#
#
# Mechanical properties :
#
#
# Convention : Reuss Voigt Hill
#
# Bulk Modulus (GPa) = 64.38376 71.06899 67.72637
# Shear Modulus (GPa) = 30.96799 35.79487 33.38143
#
# Velocity S-wave (km/s) = 3.66601 3.94138 3.80619
# Velocity P-wave (km/s) = 6.77209 7.18021 6.97913
#
# Compressibility (1/GPa) = 0.01553187
#
# Stress axis : x y z
#
# Youngs Moduli (GPa) = 125.24224 56.35553 56.40228
#
# Poissons Ratio (x) = 0.10882 0.16439
# Poissons Ratio (y) = 0.24183 0.51427
# Poissons Ratio (z) = 0.36503 0.51385
#
# Static dielectric constant tensor:
#      x y z
#    x 1.843300 0.000000 0.055330 
#    y 0.000000 1.944920 0.000000 
#    z 0.055330 0.000000 1.818710 
# 
# From -- ./inp_files/23032.got.cif
#   From: 2010.05.17/outbox.cif.g08.bks.cpg/sg14_12_cif.got.tgz:23032.got - 2010.06.03 17:49:19.
