data_PCOD9245595
_publ_section_title
;
Structure prediction by ZEFSAII (Michael W. Deem and Ramdas Pophale) SiO2 
 PCOD9245595
Probable space group: P 21/C
;
_chemical_formula_sum "Si O2"
_cell_formula_units_Z 28
_cell_length_a 16.593521
_cell_length_b 14.556483
_cell_length_c 5.101585
_cell_angle_alpha 90.000000
_cell_angle_beta 117.853033
_cell_angle_gamma 90.000000
_cell_volume 1089.495772
_symmetry_space_group_name_H-M "P 21/C"
_symmetry_group_IT_number 14
_symmetry_cell_setting 'monoclinic'
loop_
_space_group_symop_operation_xyz
x,y,z
-x,1/2+y,1/2-z
-x,-y,-z
x,1/2-y,1/2+z
loop_
_atom_site_type_symbol
_atom_site_label
_atom_site_fract_x
_atom_site_fract_y
_atom_site_fract_z
Si Si1 0.000445 0.311411 0.112555
Si Si2 0.385454 0.901789 0.427799
Si Si3 0.098158 0.539359 0.728892
Si Si4 0.721837 0.552139 0.986618
Si Si5 0.796092 0.187864 0.940709
Si Si6 0.562209 0.560609 0.400527
Si Si7 0.792875 0.813770 0.996706
O O1 0.993815 0.274426 0.806625
O O2 0.102336 0.346673 0.331355
O O3 0.931285 0.390115 0.090383
O O4 0.312460 0.831996 0.205311
O O5 0.486249 0.870233 0.666380
O O6 0.325273 0.951873 0.561477
O O7 0.405274 0.986220 0.262169
O O8 0.150444 0.596061 0.576302
O O9 0.000000 0.500000 0.500000
O O10 0.174350 0.466861 0.944098
O O11 0.647837 0.600537 0.687539
O O12 0.733308 0.605354 0.279059
O O13 0.815667 0.259711 0.738583
O O14 0.500000 0.500000 0.500000
O O15 0.781417 0.734813 0.758145
#
# Coordination Sequence:
#
# PCOD9245595 Si02
#       7
#     4   4   4   4   4   4   4
#     4  10  21  42  61  85 127 172 216 272 335 382
#     4   9  21  40  70  97 131 175 222 279 351 420
#     4  11  22  42  65  99 132 184 241 283 332 407
#     4  10  21  38  64  94 130 171 226 281 324 406
#     4  11  26  45  70 102 145 184 233 295 358 412
#     4   9  19  39  69  96 129 165 218 271 348 406
#     4  10  22  39  59  85 125 171 211 265 333 386
#
# _framework density 25.699963
#
# number of rings (size 3 to 8) (size 9 to 14) (size 15 to 20)
#    0.000    2.000    1.429    0.857    8.000    0.000 
#    2.571    4.286    0.000    0.000    0.000    0.000 
#    0.000    0.000    0.000    0.000    0.000    0.000 
#
# Total GULP energy -156445.730444 kJ/mol
# GULP energy per Si atom -5587.347516 kJ/mol
# Density = 2.564147 g / cm^3
# Si number density = 25.699963 Si / 1000 Ang^3
#
#
#
# Elastic Constant Matrix: (Units=GPa)
#
#
# Indices 1 2 3 4 5 6 
#
# 1 122.9611 38.3783 73.8318 0.0000 32.9914 0.0000
# 2 38.3783 55.9164 31.1226 0.0000 17.6002 0.0000
# 3 73.8318 31.1226 145.8809 0.0000 37.7955 0.0000
# 4 0.0000 0.0000 0.0000 36.2453 0.0000 10.6877
# 5 32.9914 17.6002 37.7955 0.0000 54.6657 0.0000
# 6 0.0000 0.0000 0.0000 10.6877 0.0000 43.2114
#
#
#
# Elastic Compliance Matrix: (Units=1/GPa)
#
#
# Indices 1 2 3 4 5 6 
#
# 1 0.013677 -0.005697 -0.004926 0.000000 -0.003015 0.000000
# 2 -0.005697 0.023537 -0.001298 0.000000 -0.003242 0.000000
# 3 -0.004926 -0.001298 0.010655 0.000000 -0.003976 0.000000
# 4 0.000000 0.000000 0.000000 0.029760 0.000000 -0.007361
# 5 -0.003015 -0.003242 -0.003976 0.000000 0.023905 0.000000
# 6 0.000000 0.000000 0.000000 -0.007361 0.000000 0.024963
#
#
# Mechanical properties :
#
#
# Convention : Reuss Voigt Hill
#
# Bulk Modulus (GPa) = 41.61885 67.93598 54.77742
# Shear Modulus (GPa) = 31.57597 38.91953 35.24775
#
# Velocity S-wave (km/s) = 3.50900 3.89573 3.70741
# Velocity P-wave (km/s) = 5.71373 6.83573 6.29976
#
# Compressibility (1/GPa) = 0.02402758
#
# Stress axis : x y z
#
# Youngs Moduli (GPa) = 73.11406 42.48624 93.85278
#
# Poissons Ratio (x) = 0.24204 0.46230
# Poissons Ratio (y) = 0.41652 0.12184
# Poissons Ratio (z) = 0.36014 0.05515
#
# Static dielectric constant tensor:
#      x y z
#    x 2.110920 0.000000 0.047550 
#    y 0.000000 2.036310 0.000000 
#    z 0.047550 0.000000 2.160040 
# 
# From -- ./inp_files/4202.got.cif
#   From: 2010.05.17/outbox.cif.g08.bks.cpg/sg14_3_cif.got.tgz:4202.got - 2010.06.03 17:49:19.
