data_PCOD9245229
_publ_section_title
;
Structure prediction by ZEFSAII (Michael W. Deem and Ramdas Pophale) SiO2 
 PCOD9245229
Probable space group: P 21/C
;
_chemical_formula_sum "Si O2"
_cell_formula_units_Z 28
_cell_length_a 13.294615
_cell_length_b 21.607960
_cell_length_c 13.154217
_cell_angle_alpha 90.000000
_cell_angle_beta 21.840469
_cell_angle_gamma 90.000000
_cell_volume 1405.804616
_symmetry_space_group_name_H-M "P 21/C"
_symmetry_group_IT_number 14
_symmetry_cell_setting 'monoclinic'
loop_
_space_group_symop_operation_xyz
x,y,z
-x,1/2+y,1/2-z
-x,-y,-z
x,1/2-y,1/2+z
loop_
_atom_site_type_symbol
_atom_site_label
_atom_site_fract_x
_atom_site_fract_y
_atom_site_fract_z
Si Si1 0.312318 0.381717 0.449023
Si Si2 0.229851 0.958595 0.561386
Si Si3 0.529239 0.206247 0.564953
Si Si4 0.618466 0.769027 0.992147
Si Si5 0.033804 0.083199 0.808560
Si Si6 0.390346 0.587824 0.123295
Si Si7 0.161932 0.715261 0.564449
O O1 0.382546 0.341865 0.482936
O O2 0.011599 0.408869 0.724940
O O3 0.524076 0.437690 0.239460
O O4 0.374110 0.335857 0.294584
O O5 0.353490 0.955558 0.559911
O O6 0.108277 0.026738 0.665331
O O7 0.358740 0.245853 0.644340
O O8 0.688210 0.155113 0.348972
O O9 0.712851 0.254864 0.452537
O O10 0.363301 0.736429 0.285501
O O11 0.878148 0.746537 0.809216
O O12 0.311004 0.097642 0.610365
O O13 0.903082 0.142624 0.876991
O O14 0.812084 0.064921 0.100525
#
# Coordination Sequence:
#
# PCOD9245229 Si02
#       7
#     4   4   4   4   4   4   4
#     4  10  22  37  56  85 108 152 192 222 286 332
#     4  11  22  36  55  80 117 150 186 230 271 343
#     4  10  21  37  59  81 119 142 187 240 279 336
#     4  11  21  38  58  79 116 146 187 238 278 339
#     4  12  21  36  54  82 117 146 187 226 281 337
#     4  11  20  34  53  83 109 151 181 227 285 342
#     4  11  23  36  56  88 110 153 186 228 292 331
#
# _framework density 19.917418999999999
#
# number of rings (size 3 to 8) (size 9 to 14) (size 15 to 20)
#    0.000    1.143    2.857    6.000    0.000    3.429 
#    0.000    0.000    0.000    1.714    0.000    0.000 
#    0.000    0.000    0.000    0.000    0.000    0.000 
#
# Total GULP energy -156366.177498 kJ/mol
# GULP energy per Si atom -5584.506339 kJ/mol
# Density = 1.987209 g / cm^3
# Si number density = 19.917419 Si / 1000 Ang^3
#
#
#
# Elastic Constant Matrix: (Units=GPa)
#
#
# Indices 1 2 3 4 5 6 
#
# 1 53.8362 24.1042 2.4947 0.0000 -16.2289 0.0000
# 2 24.1042 84.3019 -3.3593 0.0000 -12.3976 0.0000
# 3 2.4947 -3.3593 78.4634 0.0000 -17.6282 0.0000
# 4 0.0000 0.0000 0.0000 29.8926 0.0000 -5.7924
# 5 -16.2289 -12.3976 -17.6282 0.0000 18.8689 0.0000
# 6 0.0000 0.0000 0.0000 -5.7924 0.0000 30.3782
#
#
#
# Elastic Compliance Matrix: (Units=1/GPa)
#
#
# Indices 1 2 3 4 5 6 
#
# 1 0.027931 -0.003999 0.004743 0.000000 0.025827 0.000000
# 2 -0.003999 0.014355 0.002643 0.000000 0.008461 0.000000
# 3 0.004743 0.002643 0.017737 0.000000 0.022386 0.000000
# 4 0.000000 0.000000 0.000000 0.034736 0.000000 0.006623
# 5 0.025827 0.008461 0.022386 0.000000 0.101685 0.000000
# 6 0.000000 0.000000 0.000000 0.006623 0.000000 0.034181
#
#
# Mechanical properties :
#
#
# Convention : Reuss Voigt Hill
#
# Bulk Modulus (GPa) = 14.97074 29.23119 22.10097
# Shear Modulus (GPa) = 20.31548 28.71873 24.51711
#
# Velocity S-wave (km/s) = 3.19719 3.80134 3.51228
# Velocity P-wave (km/s) = 4.60022 5.82881 5.25057
#
# Compressibility (1/GPa) = 0.06679696
#
# Stress axis : x y z
#
# Youngs Moduli (GPa) = 35.80224 69.66101 56.38046
#
# Poissons Ratio (x) = 0.27858 -0.26743
# Poissons Ratio (y) = 0.14318 -0.14900
# Poissons Ratio (z) = -0.16982 -0.18410
#
# Static dielectric constant tensor:
#      x y z
#    x 1.688470 0.000000 0.014690 
#    y 0.000000 1.780870 0.000000 
#    z 0.014690 0.000000 1.713030 
# 
# From -- ./inp_files/47581.got.cif
#   From: 2010.05.17/outbox.cif.g08.bks.cpg/sg14_24_cif.got.tgz:47581.got - 2010.06.03 17:49:19.
