data_PCOD9245509
_publ_section_title
;
Structure prediction by ZEFSAII (Michael W. Deem and Ramdas Pophale) SiO2 
 PCOD9245509
Probable space group: P 21/C
;
_chemical_formula_sum "Si O2"
_cell_formula_units_Z 30
_cell_length_a 17.246672
_cell_length_b 5.085436
_cell_length_c 14.790590
_cell_angle_alpha 90.000000
_cell_angle_beta 121.986734
_cell_angle_gamma 90.000000
_cell_volume 1100.277663
_symmetry_space_group_name_H-M "P 21/C"
_symmetry_group_IT_number 14
_symmetry_cell_setting 'monoclinic'
loop_
_space_group_symop_operation_xyz
x,y,z
-x,1/2+y,1/2-z
-x,-y,-z
x,1/2-y,1/2+z
loop_
_atom_site_type_symbol
_atom_site_label
_atom_site_fract_x
_atom_site_fract_y
_atom_site_fract_z
Si Si1 0.036573 0.741605 0.149955
Si Si2 0.500000 0.500000 0.000000
Si Si3 0.871379 0.624725 0.667804
Si Si4 0.674276 0.220780 0.163199
Si Si5 0.215543 0.201668 0.219165
Si Si6 0.883198 0.095589 0.472575
Si Si7 0.470333 0.748753 0.179764
Si Si8 0.727083 0.347132 0.495003
O O1 0.114008 0.635791 0.263876
O O2 0.082978 0.802988 0.082739
O O3 0.959209 0.888126 0.158225
O O4 0.972780 0.488661 0.082461
O O5 0.432462 0.715221 0.905809
O O6 0.504407 0.326826 0.907354
O O7 0.854758 0.827962 0.738914
O O8 0.778864 0.616786 0.553246
O O9 0.728290 0.434481 0.257030
O O10 0.709238 0.928017 0.207164
O O11 0.702369 0.280061 0.076231
O O12 0.159030 0.343280 0.105270
O O13 0.805252 0.198952 0.489083
O O14 0.470476 0.477779 0.237222
O O15 0.367491 0.865066 0.114601
#
# Coordination Sequence:
#
# PCOD9245509 Si02
#       8
#     4   2   4   4   4   4   4   4
#     4  10  21  38  61  95 135 183 237 291 358 422
#     4  10  26  46  78 108 152 200 248 326 382 460
#     4  10  21  40  65  93 138 188 235 291 352 443
#     4  10  23  43  67  98 132 183 239 285 364 435
#     4  10  23  40  65  96 133 183 231 284 352 431
#     4  10  22  37  60  99 138 179 231 295 354 428
#     4  11  28  49  77 116 154 201 259 322 388 463
#     4  10  23  42  66  99 138 184 236 296 367 434
#
# _framework density 27.265847000000001
#
# number of rings (size 3 to 8) (size 9 to 14) (size 15 to 20)
#    0.000    1.867    0.000    1.600    3.733   12.267 
#    0.000    0.000    0.000    0.000    0.000    0.000 
#    0.000    0.000    0.000    0.000    0.000    0.000 
#
# Total GULP energy -167399.984166 kJ/mol
# GULP energy per Si atom -5579.999472 kJ/mol
# Density = 2.720379 g / cm^3
# Si number density = 27.265847 Si / 1000 Ang^3
#
#
#
# Elastic Constant Matrix: (Units=GPa)
#
#
# Indices 1 2 3 4 5 6 
#
# 1 59.9274 -4.6769 21.9224 0.0000 -8.7487 0.0000
# 2 -4.6769 84.1366 21.0159 0.0000 -23.1368 0.0000
# 3 21.9224 21.0159 109.4314 0.0000 0.6885 0.0000
# 4 0.0000 0.0000 0.0000 22.5053 0.0000 -5.2062
# 5 -8.7487 -23.1368 0.6885 0.0000 52.0848 0.0000
# 6 0.0000 0.0000 0.0000 -5.2062 0.0000 34.9123
#
#
#
# Elastic Compliance Matrix: (Units=1/GPa)
#
#
# Indices 1 2 3 4 5 6 
#
# 1 0.019362 0.003571 -0.004595 0.000000 0.004899 0.000000
# 2 0.003571 0.015005 -0.003643 0.000000 0.007314 0.000000
# 3 -0.004595 -0.003643 0.010774 0.000000 -0.002533 0.000000
# 4 0.000000 0.000000 0.000000 0.046022 0.000000 0.006863
# 5 0.004899 0.007314 -0.002533 0.000000 0.023305 0.000000
# 6 0.000000 0.000000 0.000000 0.006863 0.000000 0.029667
#
#
# Mechanical properties :
#
#
# Convention : Reuss Voigt Hill
#
# Bulk Modulus (GPa) = 27.92746 36.66870 32.29808
# Shear Modulus (GPa) = 30.22892 36.24940 33.23916
#
# Velocity S-wave (km/s) = 3.33329 3.65016 3.49532
# Velocity P-wave (km/s) = 5.00792 5.58951 5.30669
#
# Compressibility (1/GPa) = 0.03580705
#
# Stress axis : x y z
#
# Youngs Moduli (GPa) = 51.64763 66.64390 92.81299
#
# Poissons Ratio (x) = -0.23802 0.42652
# Poissons Ratio (y) = -0.18446 0.33813
# Poissons Ratio (z) = 0.23735 0.24279
#
# Static dielectric constant tensor:
#      x y z
#    x 2.267700 0.000000 -0.071250 
#    y 0.000000 2.150270 0.000000 
#    z -0.071250 0.000000 2.127670 
# 
# From -- ./inp_files/48225.got.cif
#   From: 2010.05.17/outbox.cif.g08.bks.cpg/sg14_25_cif.got.tgz:48225.got - 2010.06.03 17:49:19.
