data_PCOD9245216
_publ_section_title
;
Structure prediction by ZEFSAII (Michael W. Deem and Ramdas Pophale) SiO2 
 PCOD9245216
Probable space group: P 21/C
;
_chemical_formula_sum "Si O2"
_cell_formula_units_Z 32
_cell_length_a 12.002996
_cell_length_b 8.468975
_cell_length_c 32.854519
_cell_angle_alpha 90.000000
_cell_angle_beta 26.766570
_cell_angle_gamma 90.000000
_cell_volume 1504.084471
_symmetry_space_group_name_H-M "P 21/C"
_symmetry_group_IT_number 14
_symmetry_cell_setting 'monoclinic'
loop_
_space_group_symop_operation_xyz
x,y,z
-x,1/2+y,1/2-z
-x,-y,-z
x,1/2-y,1/2+z
loop_
_atom_site_type_symbol
_atom_site_label
_atom_site_fract_x
_atom_site_fract_y
_atom_site_fract_z
Si Si1 0.851914 0.160601 0.090861
Si Si2 0.313018 0.168122 0.242226
Si Si3 0.866570 0.648458 0.773912
Si Si4 0.306592 0.165419 0.401906
Si Si5 0.046499 0.632983 0.866451
Si Si6 0.306199 0.919415 0.468438
Si Si7 0.126945 0.308117 0.382359
Si Si8 0.117669 0.688944 0.265880
O O1 0.608504 0.168761 0.142442
O O2 0.824234 0.277038 0.138460
O O3 0.866608 0.983437 0.102788
O O4 0.102880 0.215363 0.986926
O O5 0.179720 0.214760 0.244150
O O6 0.237247 0.294998 0.301407
O O7 0.218783 0.002417 0.290874
O O8 0.594489 0.607679 0.879958
O O9 0.949139 0.489883 0.724053
O O10 0.042028 0.703082 0.752650
O O11 0.274077 0.187037 0.364332
O O12 0.588056 0.201401 0.322176
O O13 0.260156 0.995964 0.438518
O O14 0.988808 0.753317 0.849139
O O15 0.807726 0.547203 0.963309
O O16 0.148473 0.762734 0.526947
#
# Coordination Sequence:
#
# PCOD9245216 Si02
#       8
#     4   4   4   4   4   4   4   4
#     4  11  21  35  59  90 123 155 195 246 299 356
#     4  11  22  37  59  87 121 158 200 245 298 355
#     4  11  24  42  64  87 117 160 205 250 300 359
#     4  10  21  37  58  86 122 158 194 243 303 358
#     4  10  22  40  60  89 124 159 199 249 304 361
#     4   9  22  40  61  89 124 161 197 245 306 362
#     4  11  21  35  60  91 121 155 198 246 296 354
#     4  11  23  40  62  85 116 157 204 250 299 358
#
# _framework density 21.275400000000001
#
# number of rings (size 3 to 8) (size 9 to 14) (size 15 to 20)
#    0.000    1.500    0.000    5.250    0.000    8.500 
#    0.000    3.750    0.000   11.250    0.000    0.000 
#    0.000    0.000    0.000    0.000    0.000    0.000 
#
# Total GULP energy -179052.528915 kJ/mol
# GULP energy per Si atom -5595.391529 kJ/mol
# Density = 2.122698 g / cm^3
# Si number density = 21.275400 Si / 1000 Ang^3
#
#
#
# Elastic Constant Matrix: (Units=GPa)
#
#
# Indices 1 2 3 4 5 6 
#
# 1 74.2333 -5.5338 6.5328 0.0000 12.2709 0.0000
# 2 -5.5338 68.7658 10.1183 0.0000 -3.6442 0.0000
# 3 6.5328 10.1183 57.4826 0.0000 8.7462 0.0000
# 4 0.0000 0.0000 0.0000 29.5422 0.0000 11.5791
# 5 12.2709 -3.6442 8.7462 0.0000 16.5851 0.0000
# 6 0.0000 0.0000 0.0000 11.5791 0.0000 30.3513
#
#
#
# Elastic Compliance Matrix: (Units=1/GPa)
#
#
# Indices 1 2 3 4 5 6 
#
# 1 0.015378 0.000672 -0.000171 0.000000 -0.011140 0.000000
# 2 0.000672 0.015361 -0.003499 0.000000 0.004723 0.000000
# 3 -0.000171 -0.003499 0.019711 0.000000 -0.011037 0.000000
# 4 0.000000 0.000000 0.000000 0.039801 0.000000 -0.015184
# 5 -0.011140 0.004723 -0.011037 0.000000 0.075395 0.000000
# 6 0.000000 0.000000 0.000000 -0.015184 0.000000 0.038740
#
#
# Mechanical properties :
#
#
# Convention : Reuss Voigt Hill
#
# Bulk Modulus (GPa) = 22.49480 24.74625 23.62053
# Shear Modulus (GPa) = 22.20241 27.92001 25.06121
#
# Velocity S-wave (km/s) = 3.23394 3.62652 3.43584
# Velocity P-wave (km/s) = 4.95385 5.40298 5.18328
#
# Compressibility (1/GPa) = 0.04445471
#
# Stress axis : x y z
#
# Youngs Moduli (GPa) = 65.02969 65.09842 50.73246
#
# Poissons Ratio (x) = -0.04377 0.00868
# Poissons Ratio (y) = -0.04372 0.17751
# Poissons Ratio (z) = 0.01112 0.22778
#
# Static dielectric constant tensor:
#      x y z
#    x 1.737850 0.000000 0.025270 
#    y 0.000000 1.794570 0.000000 
#    z 0.025270 0.000000 1.776990 
# 
# From -- ./inp_files/79986.got.cif
#   From: 2010.05.17/outbox.cif.g08.bks.cpg/sg14_40_cif.got.tgz:79986.got - 2010.06.03 17:49:19.
