data_PCOD9245587
_publ_section_title
;
Structure prediction by ZEFSAII (Michael W. Deem and Ramdas Pophale) SiO2 
 PCOD9245587
Probable space group: P 21/C
;
_chemical_formula_sum "Si O2"
_cell_formula_units_Z 24
_cell_length_a 5.257141
_cell_length_b 8.970529
_cell_length_c 21.064682
_cell_angle_alpha 90.000000
_cell_angle_beta 85.752369
_cell_angle_gamma 90.000000
_cell_volume 990.667799
_symmetry_space_group_name_H-M "P 21/C"
_symmetry_group_IT_number 14
_symmetry_cell_setting 'monoclinic'
loop_
_space_group_symop_operation_xyz
x,y,z
-x,1/2+y,1/2-z
-x,-y,-z
x,1/2-y,1/2+z
loop_
_atom_site_type_symbol
_atom_site_label
_atom_site_fract_x
_atom_site_fract_y
_atom_site_fract_z
Si Si1 0.368380 0.882346 0.089325
Si Si2 0.240994 0.774254 0.407673
Si Si3 0.934062 0.253277 0.304675
Si Si4 0.261097 0.172408 0.022788
Si Si5 0.279204 0.525128 0.792313
Si Si6 0.326209 0.520690 0.310528
O O1 0.215029 0.750865 0.125645
O O2 0.433889 0.986008 0.148056
O O3 0.232000 0.997314 0.043688
O O4 0.625872 0.829955 0.050121
O O5 0.500217 0.737952 0.440815
O O6 0.277716 0.922296 0.365019
O O7 0.191186 0.646815 0.354925
O O8 0.995127 0.762445 0.457600
O O9 0.780359 0.330280 0.249909
O O10 0.159162 0.373158 0.311290
O O11 0.065368 0.098724 0.285003
O O12 0.543316 0.458682 0.760598
#
# Coordination Sequence:
#
# PCOD9245587 Si02
#       6
#     4   4   4   4   4   4
#     4   9  21  38  63  97 118 174 210 270 308 381
#     4  11  23  41  64  97 126 170 208 268 318 374
#     4  11  22  41  63  90 129 164 220 262 328 380
#     4  10  22  40  68  92 133 163 221 259 313 378
#     4  11  25  38  62  94 128 173 208 273 321 390
#     4  10  21  38  64  90 127 164 223 260 321 378
#
# _framework density 24.226084
#
# number of rings (size 3 to 8) (size 9 to 14) (size 15 to 20)
#    0.000    1.667    1.667    2.000    9.333    3.333 
#    0.000    1.667    0.000    0.000    0.000    0.000 
#    0.000    0.000    0.000    0.000    0.000    0.000 
#
# Total GULP energy -134084.413433 kJ/mol
# GULP energy per Si atom -5586.850560 kJ/mol
# Density = 2.417094 g / cm^3
# Si number density = 24.226084 Si / 1000 Ang^3
#
#
#
# Elastic Constant Matrix: (Units=GPa)
#
#
# Indices 1 2 3 4 5 6 
#
# 1 81.5847 4.9967 27.9835 0.0000 -21.2505 0.0000
# 2 4.9967 63.1299 21.3240 0.0000 -12.4882 0.0000
# 3 27.9835 21.3240 124.0036 0.0000 -45.8209 0.0000
# 4 0.0000 0.0000 0.0000 37.7538 0.0000 -0.7436
# 5 -21.2505 -12.4882 -45.8209 0.0000 48.7645 0.0000
# 6 0.0000 0.0000 0.0000 -0.7436 0.0000 24.1205
#
#
#
# Elastic Compliance Matrix: (Units=1/GPa)
#
#
# Indices 1 2 3 4 5 6 
#
# 1 0.013987 0.000332 -0.001424 0.000000 0.004842 0.000000
# 2 0.000332 0.017016 -0.002049 0.000000 0.002577 0.000000
# 3 -0.001424 -0.002049 0.012737 0.000000 0.010823 0.000000
# 4 0.000000 0.000000 0.000000 0.026503 0.000000 0.000817
# 5 0.004842 0.002577 0.010823 0.000000 0.033446 0.000000
# 6 0.000000 0.000000 0.000000 0.000817 0.000000 0.041484
#
#
# Mechanical properties :
#
#
# Convention : Reuss Voigt Hill
#
# Bulk Modulus (GPa) = 26.69696 41.92519 34.31107
# Shear Modulus (GPa) = 30.49869 36.42201 33.46035
#
# Velocity S-wave (km/s) = 3.55198 3.88160 3.72044
# Velocity P-wave (km/s) = 5.27881 6.11821 5.71395
#
# Compressibility (1/GPa) = 0.03745745
#
# Stress axis : x y z
#
# Youngs Moduli (GPa) = 71.49731 58.76853 78.50977
#
# Poissons Ratio (x) = -0.01950 0.11182
# Poissons Ratio (y) = -0.02373 0.16084
# Poissons Ratio (z) = 0.10183 0.12040
#
# Static dielectric constant tensor:
#      x y z
#    x 1.961580 0.000000 0.053140 
#    y 0.000000 1.946270 0.000000 
#    z 0.053140 0.000000 2.014650 
# 
# From -- ./inp_files/70979.got.cif
#   From: 2010.05.17/outbox.cif.g08.bks.cpg/sg14_36_cif.got.tgz:70979.got - 2010.06.03 17:49:19.
