data_PCOD9245371
_publ_section_title
;
Structure prediction by ZEFSAII (Michael W. Deem and Ramdas Pophale) SiO2 
 PCOD9245371
Probable space group: P 21/C
;
_chemical_formula_sum "Si O2"
_cell_formula_units_Z 32
_cell_length_a 9.129805
_cell_length_b 10.031812
_cell_length_c 22.134020
_cell_angle_alpha 90.000000
_cell_angle_beta 40.667039
_cell_angle_gamma 90.000000
_cell_volume 1321.063479
_symmetry_space_group_name_H-M "P 21/C"
_symmetry_group_IT_number 14
_symmetry_cell_setting 'monoclinic'
loop_
_space_group_symop_operation_xyz
x,y,z
-x,1/2+y,1/2-z
-x,-y,-z
x,1/2-y,1/2+z
loop_
_atom_site_type_symbol
_atom_site_label
_atom_site_fract_x
_atom_site_fract_y
_atom_site_fract_z
Si Si1 0.426163 0.981372 0.889240
Si Si2 0.827745 0.826127 0.711055
Si Si3 0.211273 0.606226 0.004186
Si Si4 0.715702 0.826966 0.354114
Si Si5 0.318621 0.336734 0.518447
Si Si6 0.890456 0.262082 0.574186
Si Si7 0.437668 0.607733 0.111948
Si Si8 0.481371 0.759657 0.216369
O O1 0.676764 0.927187 0.797595
O O2 0.240088 0.885414 0.917278
O O3 0.425693 0.117580 0.850709
O O4 0.388644 0.016716 0.971747
O O5 0.849660 0.705273 0.751414
O O6 0.668622 0.789848 0.704331
O O7 0.057564 0.870654 0.609589
O O8 0.279324 0.487666 0.138461
O O9 0.314814 0.459546 0.970273
O O10 0.077086 0.652848 0.987619
O O11 0.768201 0.723629 0.390942
O O12 0.445667 0.810066 0.428270
O O13 0.532324 0.241143 0.435864
O O14 0.110517 0.310516 0.538479
O O15 0.726170 0.201366 0.676300
O O16 0.403255 0.648573 0.192225
#
# Coordination Sequence:
#
# PCOD9245371 Si02
#       8
#     4   4   4   4   4   4   4   4
#     4  10  22  41  63  96 132 166 221 286 323 388
#     4  11  23  40  64  94 127 173 220 273 334 394
#     4  10  22  42  69  89 127 167 226 267 331 389
#     4  10  23  45  62  94 132 172 213 274 331 397
#     4  11  23  41  66  92 137 169 220 268 341 395
#     4  11  23  40  66 101 125 176 221 274 333 396
#     4   9  21  41  66  93 124 173 210 273 325 388
#     4  10  21  37  68  96 131 164 223 276 328 387
#
# _framework density 24.222909999999999
#
# number of rings (size 3 to 8) (size 9 to 14) (size 15 to 20)
#    0.750    1.000    2.500    2.250    8.750    1.500 
#    4.500    0.000    0.000    0.000    0.000    0.000 
#    0.000    0.000    0.000    0.000    0.000    0.000 
#
# Total GULP energy -178628.981638 kJ/mol
# GULP energy per Si atom -5582.155676 kJ/mol
# Density = 2.416778 g / cm^3
# Si number density = 24.222910 Si / 1000 Ang^3
#
#
#
# Elastic Constant Matrix: (Units=GPa)
#
#
# Indices 1 2 3 4 5 6 
#
# 1 55.9036 10.2000 30.8683 0.0000 13.1356 0.0000
# 2 10.2000 66.4822 14.8796 0.0000 8.8289 0.0000
# 3 30.8683 14.8796 111.2948 0.0000 21.0867 0.0000
# 4 0.0000 0.0000 0.0000 10.3981 0.0000 7.8198
# 5 13.1356 8.8289 21.0867 0.0000 31.7784 0.0000
# 6 0.0000 0.0000 0.0000 7.8198 0.0000 19.4206
#
#
#
# Elastic Compliance Matrix: (Units=1/GPa)
#
#
# Indices 1 2 3 4 5 6 
#
# 1 0.022168 -0.001577 -0.004900 0.000000 -0.005473 0.000000
# 2 -0.001577 0.015937 -0.001118 0.000000 -0.003033 0.000000
# 3 -0.004900 -0.001118 0.011497 0.000000 -0.005292 0.000000
# 4 0.000000 0.000000 0.000000 0.137944 0.000000 -0.055544
# 5 -0.005473 -0.003033 -0.005292 0.000000 0.038085 0.000000
# 6 0.000000 0.000000 0.000000 -0.055544 0.000000 0.073857
#
#
# Mechanical properties :
#
#
# Convention : Reuss Voigt Hill
#
# Bulk Modulus (GPa) = 29.06276 38.39737 33.73007
# Shear Modulus (GPa) = 15.33046 24.16826 19.74936
#
# Velocity S-wave (km/s) = 2.51846 3.16214 2.85847
# Velocity P-wave (km/s) = 4.52559 5.40539 4.98494
#
# Compressibility (1/GPa) = 0.03440830
#
# Stress axis : x y z
#
# Youngs Moduli (GPa) = 45.11082 62.74785 86.98250
#
# Poissons Ratio (x) = 0.09898 0.42626
# Poissons Ratio (y) = 0.07116 0.09728
# Poissons Ratio (z) = 0.22107 0.07018
#
# Static dielectric constant tensor:
#      x y z
#    x 1.984830 0.000000 0.012510 
#    y 0.000000 2.028990 0.000000 
#    z 0.012510 0.000000 1.937250 
# 
# From -- ./inp_files/65583.got.cif
#   From: 2010.05.17/outbox.cif.g08.bks.cpg/sg14_33_cif.got.tgz:65583.got - 2010.06.03 17:49:19.
