data_PCOD9245454
_publ_section_title
;
Structure prediction by ZEFSAII (Michael W. Deem and Ramdas Pophale) SiO2 
 PCOD9245454
Probable space group: P 21/C
;
_chemical_formula_sum "Si O2"
_cell_formula_units_Z 24
_cell_length_a 15.932567
_cell_length_b 7.339263
_cell_length_c 18.536577
_cell_angle_alpha 90.000000
_cell_angle_beta 154.464336
_cell_angle_gamma 90.000000
_cell_volume 934.368945
_symmetry_space_group_name_H-M "P 21/C"
_symmetry_group_IT_number 14
_symmetry_cell_setting 'monoclinic'
loop_
_space_group_symop_operation_xyz
x,y,z
-x,1/2+y,1/2-z
-x,-y,-z
x,1/2-y,1/2+z
loop_
_atom_site_type_symbol
_atom_site_label
_atom_site_fract_x
_atom_site_fract_y
_atom_site_fract_z
Si Si1 0.219773 0.024400 0.698506
Si Si2 0.154037 0.350370 0.297944
Si Si3 0.615282 0.047368 0.763205
Si Si4 0.791831 0.047098 0.598838
Si Si5 0.551988 0.958720 0.866422
Si Si6 0.308250 0.874340 0.327106
O O1 0.359420 0.071126 0.739868
O O2 0.313672 0.839956 0.807728
O O3 0.206492 0.161532 0.755226
O O4 0.000000 0.000000 0.500000
O O5 0.183693 0.163347 0.362465
O O6 0.300397 0.483150 0.453096
O O7 0.936040 0.405427 0.146668
O O8 0.425954 0.926959 0.597764
O O9 0.533445 0.254139 0.706415
O O10 0.748905 0.042056 0.795663
O O11 0.673634 0.998428 0.888821
O O12 0.821230 0.130728 0.701378
O O13 0.500000 0.000000 0.500000
#
# Coordination Sequence:
#
# PCOD9245454 Si02
#       6
#     4   4   4   4   4   4
#     4  11  23  40  63  91 125 168 217 271 327 393
#     4  11  23  39  60  88 123 166 211 262 325 393
#     4   9  20  38  59  86 118 156 204 257 315 383
#     4  10  21  38  60  88 122 162 210 262 321 393
#     4  10  22  37  58  88 121 158 204 257 319 385
#     4   9  20  40  63  89 125 168 212 267 333 399
#
# _framework density 25.685783000000001
#
# number of rings (size 3 to 8) (size 9 to 14) (size 15 to 20)
#    0.000    2.000    0.000    3.500    0.000    9.333 
#    0.000    1.667    0.000    0.000    0.000    0.000 
#    0.000    0.000    0.000    0.000    0.000    0.000 
#
# Total GULP energy -133927.636947 kJ/mol
# GULP energy per Si atom -5580.318206 kJ/mol
# Density = 2.562732 g / cm^3
# Si number density = 25.685783 Si / 1000 Ang^3
#
#
#
# Elastic Constant Matrix: (Units=GPa)
#
#
# Indices 1 2 3 4 5 6 
#
# 1 140.8710 23.1258 17.0511 0.0000 -21.4000 0.0000
# 2 23.1258 68.3336 18.5575 0.0000 6.2827 0.0000
# 3 17.0511 18.5575 61.7103 0.0000 -5.0481 0.0000
# 4 0.0000 0.0000 0.0000 14.8784 0.0000 -3.3632
# 5 -21.4000 6.2827 -5.0481 0.0000 38.5474 0.0000
# 6 0.0000 0.0000 0.0000 -3.3632 0.0000 36.3866
#
#
#
# Elastic Compliance Matrix: (Units=1/GPa)
#
#
# Indices 1 2 3 4 5 6 
#
# 1 0.008497 -0.003069 -0.001009 0.000000 0.005085 0.000000
# 2 -0.003069 0.017460 -0.004826 0.000000 -0.005182 0.000000
# 3 -0.001009 -0.004826 0.018148 0.000000 0.002603 0.000000
# 4 0.000000 0.000000 0.000000 0.068646 0.000000 0.006345
# 5 0.005085 -0.005182 0.002603 0.000000 0.029951 0.000000
# 6 0.000000 0.000000 0.000000 0.006345 0.000000 0.028069
#
#
# Mechanical properties :
#
#
# Convention : Reuss Voigt Hill
#
# Bulk Modulus (GPa) = 38.02860 43.15375 40.59118
# Shear Modulus (GPa) = 25.33635 32.10783 28.72209
#
# Velocity S-wave (km/s) = 3.14410 3.53940 3.34759
# Velocity P-wave (km/s) = 5.29320 5.79140 5.54789
#
# Compressibility (1/GPa) = 0.02629600
#
# Stress axis : x y z
#
# Youngs Moduli (GPa) = 117.68568 57.27397 55.10300
#
# Poissons Ratio (x) = 0.17579 0.05559
# Poissons Ratio (y) = 0.36121 0.26595
# Poissons Ratio (z) = 0.11873 0.27643
#
# Static dielectric constant tensor:
#      x y z
#    x 2.054720 0.000000 -0.025020 
#    y 0.000000 2.166230 0.000000 
#    z -0.025020 0.000000 2.066210 
# 
# From -- ./inp_files/59122.got.cif
#   From: 2010.05.17/outbox.cif.g08.bks.cpg/sg14_30_cif.got.tgz:59122.got - 2010.06.03 17:49:19.
