data_PCOD9245939
_publ_section_title
;
Structure prediction by ZEFSAII (Michael W. Deem and Ramdas Pophale) SiO2 
 PCOD9245939
Probable space group: P 21/C
;
_chemical_formula_sum "Si O2"
_cell_formula_units_Z 32
_cell_length_a 14.461059
_cell_length_b 11.199682
_cell_length_c 13.177259
_cell_angle_alpha 90.000000
_cell_angle_beta 48.707265
_cell_angle_gamma 90.000000
_cell_volume 1603.510836
_symmetry_space_group_name_H-M "P 21/C"
_symmetry_group_IT_number 14
_symmetry_cell_setting 'monoclinic'
loop_
_space_group_symop_operation_xyz
x,y,z
-x,1/2+y,1/2-z
-x,-y,-z
x,1/2-y,1/2+z
loop_
_atom_site_type_symbol
_atom_site_label
_atom_site_fract_x
_atom_site_fract_y
_atom_site_fract_z
Si Si1 0.641522 0.344013 0.069760
Si Si2 0.076930 0.069584 0.155440
Si Si3 0.802330 0.147703 0.842520
Si Si4 0.176472 0.042353 0.609176
Si Si5 0.407455 0.910559 0.167009
Si Si6 0.049944 0.217000 0.546910
Si Si7 0.833760 0.758471 0.736860
Si Si8 0.562574 0.816605 0.881095
O O1 0.631732 0.352939 0.198416
O O2 0.515665 0.286824 0.117039
O O3 0.739000 0.251931 0.951439
O O4 0.695399 0.472461 0.995429
O O5 0.079838 0.145577 0.051593
O O6 0.146266 0.153114 0.184895
O O7 0.145950 0.945090 0.112838
O O8 0.937852 0.047686 0.293654
O O9 0.703931 0.091789 0.834645
O O10 0.918277 0.188742 0.691420
O O11 0.142928 0.125330 0.536229
O O12 0.169085 0.127757 0.712378
O O13 0.449993 0.047909 0.153485
O O14 0.512925 0.835348 0.032407
O O15 0.060251 0.209496 0.419699
O O16 0.704446 0.782953 0.777592
#
# Coordination Sequence:
#
# PCOD9245939 Si02
#       8
#     4   4   4   4   4   4   4   4
#     4  11  23  42  65  93 126 162 216 266 314 367
#     4  10  21  40  60  93 133 159 212 258 302 389
#     4  10  21  39  65  97 125 165 214 256 308 387
#     4  10  23  38  60  97 127 161 211 263 305 378
#     4  10  22  41  69  85 124 168 215 262 309 376
#     4  10  22  38  66  95 129 172 198 257 327 370
#     4  11  23  41  64  90 134 167 206 260 316 378
#     4  10  23  44  61  94 120 169 220 255 306 382
#
# _framework density 19.956209999999999
#
# number of rings (size 3 to 8) (size 9 to 14) (size 15 to 20)
#    0.000    1.750    2.500    0.750    1.750    5.000 
#    4.500    0.000    0.000    0.000    0.000    0.000 
#    0.000    0.000    0.000    0.000    0.000    0.000 
#
# Total GULP energy -178482.873054 kJ/mol
# GULP energy per Si atom -5577.589783 kJ/mol
# Density = 1.991079 g / cm^3
# Si number density = 19.956210 Si / 1000 Ang^3
#
#
#
# Elastic Constant Matrix: (Units=GPa)
#
#
# Indices 1 2 3 4 5 6 
#
# 1 38.1774 20.5099 10.1092 0.0000 -11.3097 0.0000
# 2 20.5099 55.4427 20.3958 0.0000 -6.7129 0.0000
# 3 10.1092 20.3958 44.5152 0.0000 -6.9006 0.0000
# 4 0.0000 0.0000 0.0000 8.1729 0.0000 -4.6103
# 5 -11.3097 -6.7129 -6.9006 0.0000 20.9346 0.0000
# 6 0.0000 0.0000 0.0000 -4.6103 0.0000 20.7825
#
#
#
# Elastic Compliance Matrix: (Units=1/GPa)
#
#
# Indices 1 2 3 4 5 6 
#
# 1 0.037442 -0.011642 -0.000645 0.000000 0.016282 0.000000
# 2 -0.011642 0.025616 -0.009268 0.000000 -0.001131 0.000000
# 3 -0.000645 -0.009268 0.027761 0.000000 0.005831 0.000000
# 4 0.000000 0.000000 0.000000 0.139856 0.000000 0.031025
# 5 0.016282 -0.001131 0.005831 0.000000 0.058123 0.000000
# 6 0.000000 0.000000 0.000000 0.031025 0.000000 0.055000
#
#
# Mechanical properties :
#
#
# Convention : Reuss Voigt Hill
#
# Bulk Modulus (GPa) = 20.96047 26.68502 23.82274
# Shear Modulus (GPa) = 12.41274 15.78602 14.09938
#
# Velocity S-wave (km/s) = 2.49670 2.81558 2.66092
# Velocity P-wave (km/s) = 4.34020 4.89600 4.62646
#
# Compressibility (1/GPa) = 0.04770885
#
# Stress axis : x y z
#
# Youngs Moduli (GPa) = 26.70780 39.03801 36.02197
#
# Poissons Ratio (x) = 0.45450 0.02322
# Poissons Ratio (y) = 0.31094 0.33385
# Poissons Ratio (z) = 0.01722 0.36180
#
# Static dielectric constant tensor:
#      x y z
#    x 1.714050 0.000000 -0.012000 
#    y 0.000000 1.745150 0.000000 
#    z -0.012000 0.000000 1.710000 
# 
# From -- ./inp_files/32379.got.cif
#   From: 2010.05.17/outbox.cif.g08.bks.cpg/sg14_17_cif.got.tgz:32379.got - 2010.06.03 17:49:19.
