data_PCOD9245699
_publ_section_title
;
Structure prediction by ZEFSAII (Michael W. Deem and Ramdas Pophale) SiO2 
 PCOD9245699
Probable space group: P 21/C
;
_chemical_formula_sum "Si O2"
_cell_formula_units_Z 32
_cell_length_a 9.338760
_cell_length_b 8.514196
_cell_length_c 17.949830
_cell_angle_alpha 90.000000
_cell_angle_beta 114.625500
_cell_angle_gamma 90.000000
_cell_volume 1297.422207
_symmetry_space_group_name_H-M "P 21/C"
_symmetry_group_IT_number 14
_symmetry_cell_setting 'monoclinic'
loop_
_space_group_symop_operation_xyz
x,y,z
-x,1/2+y,1/2-z
-x,-y,-z
x,1/2-y,1/2+z
loop_
_atom_site_type_symbol
_atom_site_label
_atom_site_fract_x
_atom_site_fract_y
_atom_site_fract_z
Si Si1 0.165551 0.890588 0.400257
Si Si2 0.323452 0.340769 0.991418
Si Si3 0.312589 0.526070 0.258491
Si Si4 0.410949 0.644911 0.828510
Si Si5 0.985064 0.627584 0.560481
Si Si6 0.330017 0.189467 0.315017
Si Si7 0.976470 0.401018 0.688693
Si Si8 0.098567 0.939486 0.591253
O O1 0.248155 0.875927 0.339370
O O2 0.086088 0.722532 0.388544
O O3 0.284262 0.970440 0.484375
O O4 0.030871 0.021801 0.372956
O O5 0.179336 0.224808 0.981634
O O6 0.353530 0.313688 0.910064
O O7 0.462691 0.319145 0.079315
O O8 0.398084 0.695200 0.279218
O O9 0.386297 0.361824 0.301213
O O10 0.166485 0.559425 0.285523
O O11 0.249840 0.487544 0.161394
O O12 0.415871 0.465715 0.799472
O O13 0.003623 0.556528 0.646403
O O14 0.000000 0.500000 0.500000
O O15 0.120626 0.757449 0.583217
O O16 0.141942 0.172184 0.253635
O O17 0.000000 0.000000 0.500000
#
# Coordination Sequence:
#
# PCOD9245699 Si02
#       8
#     4   4   4   4   4   4   4   4
#     4   9  18  34  59  86 123 163 197 259 323 379
#     4  10  21  39  57  90 132 167 211 262 315 394
#     4  11  22  36  62  94 129 165 209 270 330 386
#     4  10  22  38  59  92 132 167 213 259 319 397
#     4  11  23  38  61  91 126 165 210 270 327 387
#     4  11  20  34  62  91 129 166 205 264 333 382
#     4  11  20  35  58  99 126 152 211 265 332 389
#     4  11  22  38  59  90 127 162 210 271 332 390
#
# _framework density 24.664293000000001
#
# number of rings (size 3 to 8) (size 9 to 14) (size 15 to 20)
#    0.000    1.500    2.500    5.250    1.750    0.500 
#    2.250    0.000    0.000    7.500    0.000    0.000 
#    0.000    0.000    0.000    0.000    0.000    0.000 
#
# Total GULP energy -178367.943048 kJ/mol
# GULP energy per Si atom -5573.998220 kJ/mol
# Density = 2.460816 g / cm^3
# Si number density = 24.664293 Si / 1000 Ang^3
#
#
#
# Elastic Constant Matrix: (Units=GPa)
#
#
# Indices 1 2 3 4 5 6 
#
# 1 60.6126 28.9984 16.3399 0.0000 -8.2284 0.0000
# 2 28.9984 183.0911 64.3633 0.0000 -6.6432 0.0000
# 3 16.3399 64.3633 131.3348 0.0000 -0.4727 0.0000
# 4 0.0000 0.0000 0.0000 41.6943 0.0000 -11.2419
# 5 -8.2284 -6.6432 -0.4727 0.0000 18.7914 0.0000
# 6 0.0000 0.0000 0.0000 -11.2419 0.0000 34.5791
#
#
#
# Elastic Compliance Matrix: (Units=1/GPa)
#
#
# Indices 1 2 3 4 5 6 
#
# 1 0.018936 -0.002308 -0.001198 0.000000 0.007446 0.000000
# 2 -0.002308 0.006976 -0.003127 0.000000 0.001377 0.000000
# 3 -0.001198 -0.003127 0.009291 0.000000 -0.001396 0.000000
# 4 0.000000 0.000000 0.000000 0.026288 0.000000 0.008547
# 5 0.007446 0.001377 -0.001396 0.000000 0.056928 0.000000
# 6 0.000000 0.000000 0.000000 0.008547 0.000000 0.031698
#
#
# Mechanical properties :
#
#
# Convention : Reuss Voigt Hill
#
# Bulk Modulus (GPa) = 45.58405 66.04908 55.81656
# Shear Modulus (GPa) = 29.29193 36.70208 32.99700
#
# Velocity S-wave (km/s) = 3.44993 3.86173 3.66162
# Velocity P-wave (km/s) = 5.86441 6.83530 6.36838
#
# Compressibility (1/GPa) = 0.02193750
#
# Stress axis : x y z
#
# Youngs Moduli (GPa) = 52.80919 143.33921 107.63620
#
# Poissons Ratio (x) = 0.33080 0.12896
# Poissons Ratio (y) = 0.12187 0.33657
# Poissons Ratio (z) = 0.06327 0.44820
#
# Static dielectric constant tensor:
#      x y z
#    x 2.142220 0.000000 0.012360 
#    y 0.000000 2.018010 0.000000 
#    z 0.012360 0.000000 1.993380 
# 
# From -- ./inp_files/67044.got.cif
#   From: 2010.05.17/outbox.cif.g08.bks.cpg/sg14_34_cif.got.tgz:67044.got - 2010.06.03 17:49:19.
