data_PCOD9245494
_publ_section_title
;
Structure prediction by ZEFSAII (Michael W. Deem and Ramdas Pophale) SiO2 
 PCOD9245494
Probable space group: P 21/C
;
_chemical_formula_sum "Si O2"
_cell_formula_units_Z 16
_cell_length_a 7.708223
_cell_length_b 16.705098
_cell_length_c 9.363575
_cell_angle_alpha 90.000000
_cell_angle_beta 34.600648
_cell_angle_gamma 90.000000
_cell_volume 684.669462
_symmetry_space_group_name_H-M "P 21/C"
_symmetry_group_IT_number 14
_symmetry_cell_setting 'monoclinic'
loop_
_space_group_symop_operation_xyz
x,y,z
-x,1/2+y,1/2-z
-x,-y,-z
x,1/2-y,1/2+z
loop_
_atom_site_type_symbol
_atom_site_label
_atom_site_fract_x
_atom_site_fract_y
_atom_site_fract_z
Si Si1 0.973331 0.755492 0.249852
Si Si2 0.515654 0.000077 0.249959
Si Si3 0.605396 0.833436 0.749850
Si Si4 0.892315 0.414663 0.750025
O O1 0.757887 0.807534 0.497480
O O2 0.786023 0.714066 0.249831
O O3 0.105448 0.680794 0.250002
O O4 0.253264 0.807473 0.002129
O O5 0.376516 0.070876 0.250014
O O6 0.700218 0.047528 0.249990
O O7 0.267499 0.946239 0.497963
O O8 0.763537 0.946260 0.001911
#
# Coordination Sequence:
#
# PCOD9245494 Si02
#       4
#     4   4   4   4
#     4  12  25  42  65  93 127 165 209 258 309 368
#     4  10  21  38  61  89 123 161 201 250 309 368
#     4  12  25  42  65  93 127 165 209 258 309 368
#     4  10  21  38  61  89 123 161 201 250 309 368
#
# _framework density 23.368941
#
# number of rings (size 3 to 8) (size 9 to 14) (size 15 to 20)
#    0.000    1.000    0.000    7.500    0.000    6.000 
#    0.000    0.000    0.000    0.000    0.000    0.000 
#    0.000    0.000    0.000    0.000    0.000    0.000 
#
# Total GULP energy -89704.221272 kJ/mol
# GULP energy per Si atom -5606.513830 kJ/mol
# Density = 2.331575 g / cm^3
# Si number density = 23.368941 Si / 1000 Ang^3
#
#
#
# Elastic Constant Matrix: (Units=GPa)
#
#
# Indices 1 2 3 4 5 6 
#
# 1 65.6249 -30.5654 17.5563 0.0000 3.7549 0.0000
# 2 -30.5654 85.6218 45.0902 0.0000 -8.6528 0.0000
# 3 17.5563 45.0902 206.0568 0.0000 -19.8380 0.0000
# 4 0.0000 0.0000 0.0000 43.5240 0.0000 -1.2907
# 5 3.7549 -8.6528 -19.8380 0.0000 10.4991 0.0000
# 6 0.0000 0.0000 0.0000 -1.2907 0.0000 32.3149
#
#
#
# Elastic Compliance Matrix: (Units=1/GPa)
#
#
# Indices 1 2 3 4 5 6 
#
# 1 0.021256 0.009149 -0.004668 0.000000 -0.008883 0.000000
# 2 0.009149 0.017526 -0.004326 0.000000 0.002998 0.000000
# 3 -0.004668 -0.004326 0.007352 0.000000 0.011997 0.000000
# 4 0.000000 0.000000 0.000000 0.023003 0.000000 0.000919
# 5 -0.008883 0.002998 0.011997 0.000000 0.123562 0.000000
# 6 0.000000 0.000000 0.000000 0.000919 0.000000 0.030982
#
#
# Mechanical properties :
#
#
# Convention : Reuss Voigt Hill
#
# Bulk Modulus (GPa) = 21.53114 46.82952 34.18033
# Shear Modulus (GPa) = 20.93325 38.94910 29.94117
#
# Velocity S-wave (km/s) = 2.99619 4.08696 3.58332
# Velocity P-wave (km/s) = 4.60469 6.50797 5.63723
#
# Compressibility (1/GPa) = 0.04644436
#
# Stress axis : x y z
#
# Youngs Moduli (GPa) = 47.04464 57.05665 136.01053
#
# Poissons Ratio (x) = -0.52200 0.63493
# Poissons Ratio (y) = -0.43040 0.58839
# Poissons Ratio (z) = 0.21962 0.24683
#
# Static dielectric constant tensor:
#      x y z
#    x 1.933610 0.000000 0.014890 
#    y 0.000000 1.809990 0.000000 
#    z 0.014890 0.000000 1.803580 
# 
# From -- ./inp_files/886.got.cif
#   From: 2010.05.17/outbox.cif.g08.bks.cpg/sg14_1_cif.got.tgz:886.got - 2010.06.03 17:49:19.
