data_PCOD9245328
_publ_section_title
;
Structure prediction by ZEFSAII (Michael W. Deem and Ramdas Pophale) SiO2 
 PCOD9245328
Probable space group: P 21/C
;
_chemical_formula_sum "Si O2"
_cell_formula_units_Z 32
_cell_length_a 30.416992
_cell_length_b 5.180237
_cell_length_c 18.098098
_cell_angle_alpha 90.000000
_cell_angle_beta 24.818398
_cell_angle_gamma 90.000000
_cell_volume 1196.968891
_symmetry_space_group_name_H-M "P 21/C"
_symmetry_group_IT_number 14
_symmetry_cell_setting 'monoclinic'
loop_
_space_group_symop_operation_xyz
x,y,z
-x,1/2+y,1/2-z
-x,-y,-z
x,1/2-y,1/2+z
loop_
_atom_site_type_symbol
_atom_site_label
_atom_site_fract_x
_atom_site_fract_y
_atom_site_fract_z
Si Si1 0.557711 0.750695 0.943394
Si Si2 0.208410 0.729440 0.853830
Si Si3 0.863831 0.669570 0.301218
Si Si4 0.318813 0.686470 0.462305
Si Si5 0.265942 0.517716 0.907767
Si Si6 0.627354 0.554292 0.484047
Si Si7 0.818913 0.572355 0.731595
Si Si8 0.017318 0.412464 0.173403
O O1 0.562211 0.778085 0.025242
O O2 0.673858 0.803606 0.732938
O O3 0.500000 0.500000 0.000000
O O4 0.500000 0.000000 0.000000
O O5 0.234130 0.749975 0.900950
O O6 0.320103 0.671552 0.645776
O O7 0.149965 0.940033 0.892934
O O8 0.133213 0.480735 0.967852
O O9 0.747950 0.548073 0.468794
O O10 0.941468 0.467919 0.219761
O O11 0.837817 0.901278 0.397023
O O12 0.894607 0.780671 0.173590
O O13 0.338181 0.873910 0.363750
O O14 0.405014 0.580806 0.389128
O O15 0.232886 0.840064 0.642257
O O16 0.722961 0.737084 0.361514
O O17 0.007507 0.144995 0.230900
#
# Coordination Sequence:
#
# PCOD9245328 Si02
#       8
#     4   4   4   4   4   4   4   4
#     4  11  27  43  70 105 136 170 222 284 339 405
#     4  10  21  37  63  95 129 178 223 274 335 394
#     4  10  21  39  63  92 132 176 228 275 333 397
#     4   9  19  38  69  93 125 179 224 270 330 412
#     4  10  21  40  68  94 128 182 224 272 339 412
#     4   9  21  41  68  94 133 174 218 275 339 409
#     4   9  20  38  64  94 122 177 220 271 334 397
#     4  12  26  40  60  97 138 174 229 284 329 387
#
# _framework density 26.734193000000001
#
# number of rings (size 3 to 8) (size 9 to 14) (size 15 to 20)
#    0.000    2.000    1.250    0.750   10.500    1.500 
#    0.000    5.625    8.250    0.000    0.000    0.000 
#    0.000    0.000    0.000    0.000    0.000    0.000 
#
# Total GULP energy -178882.086964 kJ/mol
# GULP energy per Si atom -5590.065218 kJ/mol
# Density = 2.667335 g / cm^3
# Si number density = 26.734193 Si / 1000 Ang^3
#
#
#
# Elastic Constant Matrix: (Units=GPa)
#
#
# Indices 1 2 3 4 5 6 
#
# 1 191.5917 41.7163 33.3994 0.0000 19.9186 0.0000
# 2 41.7163 104.9139 14.3390 0.0000 18.8486 0.0000
# 3 33.3994 14.3390 61.5226 0.0000 12.0919 0.0000
# 4 0.0000 0.0000 0.0000 32.8253 0.0000 1.4591
# 5 19.9186 18.8486 12.0919 0.0000 35.4203 0.0000
# 6 0.0000 0.0000 0.0000 1.4591 0.0000 47.1553
#
#
#
# Elastic Compliance Matrix: (Units=1/GPa)
#
#
# Indices 1 2 3 4 5 6 
#
# 1 0.006249 -0.001829 -0.002644 0.000000 -0.001638 0.000000
# 2 -0.001829 0.011197 -0.000694 0.000000 -0.004693 0.000000
# 3 -0.002644 -0.000694 0.018744 0.000000 -0.004543 0.000000
# 4 0.000000 0.000000 0.000000 0.030506 0.000000 -0.000944
# 5 -0.001638 -0.004693 -0.004543 0.000000 0.033202 0.000000
# 6 0.000000 0.000000 0.000000 -0.000944 0.000000 0.021236
#
#
# Mechanical properties :
#
#
# Convention : Reuss Voigt Hill
#
# Bulk Modulus (GPa) = 38.67730 59.65972 49.16851
# Shear Modulus (GPa) = 35.69207 40.98507 38.33857
#
# Velocity S-wave (km/s) = 3.65783 3.91968 3.79101
# Velocity P-wave (km/s) = 5.68668 6.54595 6.13139
#
# Compressibility (1/GPa) = 0.02585496
#
# Stress axis : x y z
#
# Youngs Moduli (GPa) = 160.02738 89.31058 53.34953
#
# Poissons Ratio (x) = 0.16335 0.14107
# Poissons Ratio (y) = 0.29270 0.03704
# Poissons Ratio (z) = 0.42314 0.06201
#
# Static dielectric constant tensor:
#      x y z
#    x 2.190270 0.000000 -0.001220 
#    y 0.000000 2.177000 0.000000 
#    z -0.001220 0.000000 2.155160 
# 
# From -- ./inp_files/62494.got.cif
#   From: 2010.05.17/outbox.cif.g08.bks.cpg/sg14_32_cif.got.tgz:62494.got - 2010.06.03 17:49:19.
