data_PCOD9245342
_publ_section_title
;
Structure prediction by ZEFSAII (Michael W. Deem and Ramdas Pophale) SiO2 
 PCOD9245342
Probable space group: P 21/C
;
_chemical_formula_sum "Si O2"
_cell_formula_units_Z 28
_cell_length_a 16.485390
_cell_length_b 9.171048
_cell_length_c 13.100417
_cell_angle_alpha 90.000000
_cell_angle_beta 35.368462
_cell_angle_gamma 90.000000
_cell_volume 1146.452717
_symmetry_space_group_name_H-M "P 21/C"
_symmetry_group_IT_number 14
_symmetry_cell_setting 'monoclinic'
loop_
_space_group_symop_operation_xyz
x,y,z
-x,1/2+y,1/2-z
-x,-y,-z
x,1/2-y,1/2+z
loop_
_atom_site_type_symbol
_atom_site_label
_atom_site_fract_x
_atom_site_fract_y
_atom_site_fract_z
Si Si1 0.296891 0.286560 0.941252
Si Si2 0.895301 0.260164 0.959183
Si Si3 0.639050 0.075439 0.661898
Si Si4 0.097633 0.037306 0.134175
Si Si5 0.551602 0.290549 0.062587
Si Si6 0.621967 0.675425 0.437772
Si Si7 0.188293 0.907414 0.257852
O O1 0.249394 0.441832 0.949789
O O2 0.459241 0.297182 0.740863
O O3 0.290622 0.262767 0.067863
O O4 0.228686 0.139796 0.967479
O O5 0.931837 0.089487 0.916423
O O6 0.984138 0.342327 0.781459
O O7 0.733035 0.284408 0.094199
O O8 0.910871 0.339586 0.053151
O O9 0.589643 0.073609 0.594322
O O10 0.503928 0.089607 0.873878
O O11 0.128186 0.954163 0.210070
O O12 0.449674 0.281106 0.070289
O O13 0.693908 0.213921 0.884470
O O14 0.725015 0.549278 0.291868
#
# Coordination Sequence:
#
# PCOD9245342 Si02
#       7
#     4   4   4   4   4   4   4
#     4  10  23  40  63  97 136 172 218 267 332 395
#     4  12  24  43  71  89 130 180 223 275 330 384
#     4  11  21  37  66  95 133 178 215 274 327 388
#     4  11  26  47  66  98 130 177 228 275 322 403
#     4  11  20  37  65  98 132 168 215 267 328 397
#     4  10  21  37  64  95 138 175 216 264 335 397
#     4  11  21  42  69  96 130 176 221 267 335 396
#
# _framework density 24.423162000000001
#
# number of rings (size 3 to 8) (size 9 to 14) (size 15 to 20)
#    0.000    1.143    4.286    2.571    0.000    0.571 
#    2.571    0.714    0.000    0.000    0.000    0.000 
#    0.000    0.000    0.000    0.000    0.000    0.000 
#
# Total GULP energy -156248.724751 kJ/mol
# GULP energy per Si atom -5580.311598 kJ/mol
# Density = 2.436757 g / cm^3
# Si number density = 24.423162 Si / 1000 Ang^3
#
#
#
# Elastic Constant Matrix: (Units=GPa)
#
#
# Indices 1 2 3 4 5 6 
#
# 1 51.6139 12.4798 5.5785 0.0000 17.0309 0.0000
# 2 12.4798 93.4687 42.2437 0.0000 15.0587 0.0000
# 3 5.5785 42.2437 85.4941 0.0000 16.2021 0.0000
# 4 0.0000 0.0000 0.0000 36.7483 0.0000 -0.8623
# 5 17.0309 15.0587 16.2021 0.0000 30.4739 0.0000
# 6 0.0000 0.0000 0.0000 -0.8623 0.0000 20.8483
#
#
#
# Elastic Compliance Matrix: (Units=1/GPa)
#
#
# Indices 1 2 3 4 5 6 
#
# 1 0.024100 -0.001911 0.001941 0.000000 -0.013556 0.000000
# 2 -0.001911 0.014280 -0.006446 0.000000 -0.002561 0.000000
# 3 0.001941 -0.006446 0.015966 0.000000 -0.006388 0.000000
# 4 0.000000 0.000000 0.000000 0.027239 0.000000 0.001127
# 5 -0.013556 -0.002561 -0.006388 0.000000 0.045053 0.000000
# 6 0.000000 0.000000 0.000000 0.001127 0.000000 0.048012
#
#
# Mechanical properties :
#
#
# Convention : Reuss Voigt Hill
#
# Bulk Modulus (GPa) = 24.08844 39.02007 31.55426
# Shear Modulus (GPa) = 24.83622 28.96574 26.90098
#
# Velocity S-wave (km/s) = 3.19237 3.44756 3.32242
# Velocity P-wave (km/s) = 4.84486 5.64437 5.25983
#
# Compressibility (1/GPa) = 0.04151368
#
# Stress axis : x y z
#
# Youngs Moduli (GPa) = 41.49369 70.02921 62.63480
#
# Poissons Ratio (x) = 0.13382 -0.12156
# Poissons Ratio (y) = 0.07929 0.40373
# Poissons Ratio (z) = -0.08053 0.45139
#
# Static dielectric constant tensor:
#      x y z
#    x 2.020950 0.000000 -0.022550 
#    y 0.000000 2.167600 0.000000 
#    z -0.022550 0.000000 1.941690 
# 
# From -- ./inp_files/50202.got.cif
#   From: 2010.05.17/outbox.cif.g08.bks.cpg/sg14_26_cif.got.tgz:50202.got - 2010.06.03 17:49:19.
