data_PCOD9245941
_publ_section_title
;
Structure prediction by ZEFSAII (Michael W. Deem and Ramdas Pophale) SiO2 
 PCOD9245941
Probable space group: P 21/C
;
_chemical_formula_sum "Si O2"
_cell_formula_units_Z 28
_cell_length_a 14.759642
_cell_length_b 11.337852
_cell_length_c 14.241110
_cell_angle_alpha 90.000000
_cell_angle_beta 34.881177
_cell_angle_gamma 90.000000
_cell_volume 1362.864332
_symmetry_space_group_name_H-M "P 21/C"
_symmetry_group_IT_number 14
_symmetry_cell_setting 'monoclinic'
loop_
_space_group_symop_operation_xyz
x,y,z
-x,1/2+y,1/2-z
-x,-y,-z
x,1/2-y,1/2+z
loop_
_atom_site_type_symbol
_atom_site_label
_atom_site_fract_x
_atom_site_fract_y
_atom_site_fract_z
Si Si1 0.514225 0.178521 0.923700
Si Si2 0.013467 0.525546 0.597615
Si Si3 0.942308 0.098172 0.337316
Si Si4 0.825139 0.750837 0.739697
Si Si5 0.876391 0.919974 0.545488
Si Si6 0.297996 0.698647 0.394522
Si Si7 0.503711 0.434121 0.623602
O O1 0.632855 0.256810 0.763217
O O2 0.453828 0.072025 0.907956
O O3 0.362165 0.246137 0.091434
O O4 0.579244 0.116071 0.962721
O O5 0.177666 0.590544 0.482369
O O6 0.000000 0.500000 0.500000
O O7 0.978324 0.419937 0.698058
O O8 0.882861 0.625602 0.723575
O O9 0.799441 0.190013 0.479700
O O10 0.093294 0.153947 0.261309
O O11 0.909034 0.969807 0.413534
O O12 0.889199 0.789907 0.581447
O O13 0.687897 0.939834 0.720808
O O14 0.000000 0.000000 0.500000
O O15 0.435500 0.648696 0.345013
#
# Coordination Sequence:
#
# PCOD9245941 Si02
#       7
#     4   4   4   4   4   4   4
#     4  10  21  40  65  94 128 159 214 261 324 383
#     4  11  26  44  59  91 132 172 217 264 322 390
#     4  10  21  41  63  91 123 173 215 260 316 394
#     4   9  21  39  63  93 122 165 210 266 323 376
#     4   9  18  38  66  95 121 162 215 263 317 376
#     4  11  24  41  67  97 127 176 210 270 331 378
#     4  10  21  39  65  97 128 165 211 272 312 384
#
# _framework density 20.544964
#
# number of rings (size 3 to 8) (size 9 to 14) (size 15 to 20)
#    0.000    2.000    1.429    0.857    4.000    3.429 
#    7.714    0.714    0.000    0.000    0.000    0.000 
#    0.000    0.000    0.000    0.000    0.000    0.000 
#
# Total GULP energy -155998.971639 kJ/mol
# GULP energy per Si atom -5571.391844 kJ/mol
# Density = 2.049820 g / cm^3
# Si number density = 20.544964 Si / 1000 Ang^3
#
#
#
# Elastic Constant Matrix: (Units=GPa)
#
#
# Indices 1 2 3 4 5 6 
#
# 1 66.8538 11.7255 29.0787 0.0000 8.3521 0.0000
# 2 11.7255 25.0116 14.2015 0.0000 0.4180 0.0000
# 3 29.0787 14.2015 83.2470 0.0000 7.2004 0.0000
# 4 0.0000 0.0000 0.0000 6.4987 0.0000 11.0545
# 5 8.3521 0.4180 7.2004 0.0000 37.9470 0.0000
# 6 0.0000 0.0000 0.0000 11.0545 0.0000 25.2658
#
#
#
# Elastic Compliance Matrix: (Units=1/GPa)
#
#
# Indices 1 2 3 4 5 6 
#
# 1 0.018629 -0.005688 -0.005274 0.000000 -0.003037 0.000000
# 2 -0.005688 0.046041 -0.006031 0.000000 0.001889 0.000000
# 3 -0.005274 -0.006031 0.015024 0.000000 -0.001623 0.000000
# 4 0.000000 0.000000 0.000000 0.601689 0.000000 -0.263256
# 5 -0.003037 0.001889 -0.001623 0.000000 0.027308 0.000000
# 6 0.000000 0.000000 0.000000 -0.263256 0.000000 0.154762
#
#
# Mechanical properties :
#
#
# Convention : Reuss Voigt Hill
#
# Bulk Modulus (GPa) = 21.87815 31.68045 26.77930
# Shear Modulus (GPa) = 5.47841 21.94941 13.71391
#
# Velocity S-wave (km/s) = 1.63473 3.27212 2.58642
# Velocity P-wave (km/s) = 3.77295 5.45245 4.68852
#
# Compressibility (1/GPa) = 0.04570770
#
# Stress axis : x y z
#
# Youngs Moduli (GPa) = 53.67949 21.71991 66.56003
#
# Poissons Ratio (x) = 0.12354 0.35106
# Poissons Ratio (y) = 0.30532 0.40142
# Poissons Ratio (z) = 0.28312 0.13099
#
# Static dielectric constant tensor:
#      x y z
#    x 1.766450 0.000000 0.027160 
#    y 0.000000 1.669860 0.000000 
#    z 0.027160 0.000000 1.757690 
# 
# From -- ./inp_files/46904.got.cif
#   From: 2010.05.17/outbox.cif.g08.bks.cpg/sg14_24_cif.got.tgz:46904.got - 2010.06.03 17:49:19.
