data_PCOD9245553
_publ_section_title
;
Structure prediction by ZEFSAII (Michael W. Deem and Ramdas Pophale) SiO2 
 PCOD9245553
Probable space group: P 21/C
;
_chemical_formula_sum "Si O2"
_cell_formula_units_Z 32
_cell_length_a 14.696285
_cell_length_b 20.199795
_cell_length_c 8.982088
_cell_angle_alpha 90.000000
_cell_angle_beta 148.131337
_cell_angle_gamma 90.000000
_cell_volume 1407.810848
_symmetry_space_group_name_H-M "P 21/C"
_symmetry_group_IT_number 14
_symmetry_cell_setting 'monoclinic'
loop_
_space_group_symop_operation_xyz
x,y,z
-x,1/2+y,1/2-z
-x,-y,-z
x,1/2-y,1/2+z
loop_
_atom_site_type_symbol
_atom_site_label
_atom_site_fract_x
_atom_site_fract_y
_atom_site_fract_z
Si Si1 0.452364 0.399284 0.348138
Si Si2 0.787882 0.813679 0.899513
Si Si3 0.759685 0.351664 0.637814
Si Si4 0.135349 0.328756 0.939579
Si Si5 0.584865 0.125214 0.584659
Si Si6 0.119355 0.703026 0.664825
Si Si7 0.083267 0.098796 0.664418
Si Si8 0.420117 0.033865 0.121780
O O1 0.591191 0.343755 0.505367
O O2 0.511338 0.464414 0.341890
O O3 0.440686 0.417207 0.506724
O O4 0.271483 0.372052 0.037904
O O5 0.596333 0.843126 0.610703
O O6 0.768933 0.734839 0.861154
O O7 0.832570 0.841923 0.124867
O O8 0.969733 0.827634 0.064556
O O9 0.699215 0.379701 0.393464
O O10 0.840385 0.278445 0.734928
O O11 0.879575 0.400449 0.905737
O O12 0.984786 0.298881 0.633710
O O13 0.076378 0.378787 0.983857
O O14 0.702393 0.165664 0.627603
O O15 0.525642 0.060513 0.409884
O O16 0.214405 0.038691 0.870404
#
# Coordination Sequence:
#
# PCOD9245553 Si02
#       8
#     4   4   4   4   4   4   4   4
#     4  10  23  41  70  89 125 173 223 267 321 378
#     4  11  21  38  61  91 131 165 200 256 325 387
#     4  12  23  38  62  98 126 165 210 262 325 385
#     4  11  19  39  61  88 129 164 199 262 321 379
#     4  11  25  40  64  98 128 170 215 263 322 387
#     4  12  23  38  63  98 133 161 206 264 321 396
#     4  10  21  38  63  89 126 166 202 260 321 373
#     4   9  23  46  63  91 126 170 226 269 312 382
#
# _framework density 22.730326000000002
#
# number of rings (size 3 to 8) (size 9 to 14) (size 15 to 20)
#    0.000    1.250    3.750    1.500    1.750    4.000 
#    0.000    0.625    0.000    0.000    0.000    0.000 
#    0.000    0.000    0.000    0.000    0.000    0.000 
#
# Total GULP energy -178303.732551 kJ/mol
# GULP energy per Si atom -5571.991642 kJ/mol
# Density = 2.267859 g / cm^3
# Si number density = 22.730326 Si / 1000 Ang^3
#
#
#
# Elastic Constant Matrix: (Units=GPa)
#
#
# Indices 1 2 3 4 5 6 
#
# 1 89.4017 13.1257 26.5317 0.0000 12.9538 0.0000
# 2 13.1257 39.2581 26.9206 0.0000 0.4340 0.0000
# 3 26.5317 26.9206 125.4411 0.0000 1.1414 0.0000
# 4 0.0000 0.0000 0.0000 19.9780 0.0000 3.3515
# 5 12.9538 0.4340 1.1414 0.0000 29.4851 0.0000
# 6 0.0000 0.0000 0.0000 3.3515 0.0000 33.1894
#
#
#
# Elastic Compliance Matrix: (Units=1/GPa)
#
#
# Indices 1 2 3 4 5 6 
#
# 1 0.013039 -0.002863 -0.002092 0.000000 -0.005605 0.000000
# 2 -0.002863 0.030497 -0.005949 0.000000 0.001039 0.000000
# 3 -0.002092 -0.005949 0.009685 0.000000 0.000632 0.000000
# 4 0.000000 0.000000 0.000000 0.050918 0.000000 -0.005142
# 5 -0.005605 0.001039 0.000632 0.000000 0.036338 0.000000
# 6 0.000000 0.000000 0.000000 -0.005142 0.000000 0.030649
#
#
# Mechanical properties :
#
#
# Convention : Reuss Voigt Hill
#
# Bulk Modulus (GPa) = 31.83334 43.02856 37.43095
# Shear Modulus (GPa) = 24.58132 29.03202 26.80667
#
# Velocity S-wave (km/s) = 3.29208 3.57772 3.43787
# Velocity P-wave (km/s) = 5.33719 6.00316 5.67994
#
# Compressibility (1/GPa) = 0.03141360
#
# Stress axis : x y z
#
# Youngs Moduli (GPa) = 76.69342 32.78959 103.24834
#
# Poissons Ratio (x) = 0.09386 0.21605
# Poissons Ratio (y) = 0.21955 0.61422
# Poissons Ratio (z) = 0.16048 0.19506
#
# Static dielectric constant tensor:
#      x y z
#    x 1.975840 0.000000 0.076860 
#    y 0.000000 1.850220 0.000000 
#    z 0.076860 0.000000 1.901580 
# 
# From -- ./inp_files/17043.got.cif
#   From: 2010.05.17/outbox.cif.g08.bks.cpg/sg14_9_cif.got.tgz:17043.got - 2010.06.03 17:49:19.
