data_PCOD9245003
_publ_section_title
;
Structure prediction by ZEFSAII (Michael W. Deem and Ramdas Pophale) SiO2 
 PCOD9245003
Probable space group: P 21/C
;
_chemical_formula_sum "Si O2"
_cell_formula_units_Z 20
_cell_length_a 22.299460
_cell_length_b 5.667757
_cell_length_c 9.646296
_cell_angle_alpha 90.000000
_cell_angle_beta 35.118917
_cell_angle_gamma 90.000000
_cell_volume 701.361486
_symmetry_space_group_name_H-M "P 21/C"
_symmetry_group_IT_number 14
_symmetry_cell_setting 'monoclinic'
loop_
_space_group_symop_operation_xyz
x,y,z
-x,1/2+y,1/2-z
-x,-y,-z
x,1/2-y,1/2+z
loop_
_atom_site_type_symbol
_atom_site_label
_atom_site_fract_x
_atom_site_fract_y
_atom_site_fract_z
Si Si1 0.073958 0.258540 0.436106
Si Si2 0.727608 0.989315 0.840612
Si Si3 0.325097 0.769906 0.318885
Si Si4 0.475623 0.232252 0.721783
Si Si5 0.872883 0.488108 0.412240
O O1 0.093933 0.223576 0.236056
O O2 0.108365 0.481786 0.460320
O O3 0.153959 0.065820 0.349111
O O4 0.955391 0.199675 0.696798
O O5 0.705856 0.008850 0.718414
O O6 0.694666 0.229563 0.982372
O O7 0.648671 0.799058 0.056980
O O8 0.244105 0.579572 0.406075
O O9 0.446654 0.731893 0.056152
O O10 0.495700 0.487146 0.753390
#
# Coordination Sequence:
#
# PCOD9245003 Si02
#       5
#     4   4   4   4   4
#     4  10  21  36  55  81 114 152 199 253 310 374
#     4  10  21  38  59  87 120 157 202 254 311 374
#     4  10  21  38  59  87 120 157 202 254 311 374
#     4  10  21  40  65  94 127 166 211 262 317 376
#     4  10  21  36  55  81 114 152 199 253 310 374
#
# _framework density 28.515964
#
# number of rings (size 3 to 8) (size 9 to 14) (size 15 to 20)
#    0.000    2.000    0.000    3.000    0.000    2.400 
#    0.000   29.000    0.000    0.000    0.000    0.000 
#    0.000    0.000    0.000    0.000    0.000    0.000 
#
# Total GULP energy -111893.581033 kJ/mol
# GULP energy per Si atom -5594.679052 kJ/mol
# Density = 2.845106 g / cm^3
# Si number density = 28.515964 Si / 1000 Ang^3
#
#
#
# Elastic Constant Matrix: (Units=GPa)
#
#
# Indices 1 2 3 4 5 6 
#
# 1 98.4122 57.0184 22.4824 0.0000 -12.2644 0.0000
# 2 57.0184 96.3249 63.7624 0.0000 0.1900 0.0000
# 3 22.4824 63.7624 106.1404 0.0000 4.1341 0.0000
# 4 0.0000 0.0000 0.0000 46.7592 0.0000 -11.5668
# 5 -12.2644 0.1900 4.1341 0.0000 36.0687 0.0000
# 6 0.0000 0.0000 0.0000 -11.5668 0.0000 53.5752
#
#
#
# Elastic Compliance Matrix: (Units=1/GPa)
#
#
# Indices 1 2 3 4 5 6 
#
# 1 0.017429 -0.012851 0.003812 0.000000 0.005557 0.000000
# 2 -0.012851 0.026754 -0.013234 0.000000 -0.002994 0.000000
# 3 0.003812 -0.013234 0.016585 0.000000 -0.000535 0.000000
# 4 0.000000 0.000000 0.000000 0.022593 0.000000 0.004878
# 5 0.005557 -0.002994 -0.000535 0.000000 0.029692 0.000000
# 6 0.000000 0.000000 0.000000 0.004878 0.000000 0.019718
#
#
# Mechanical properties :
#
#
# Convention : Reuss Voigt Hill
#
# Bulk Modulus (GPa) = 61.64293 65.26709 63.45501
# Shear Modulus (GPa) = 27.36373 37.78825 32.57599
#
# Velocity S-wave (km/s) = 3.10109 3.64423 3.38357
# Velocity P-wave (km/s) = 5.87250 6.37533 6.12907
#
# Compressibility (1/GPa) = 0.01622246
#
# Stress axis : x y z
#
# Youngs Moduli (GPa) = 57.37686 37.37700 60.29593
#
# Poissons Ratio (x) = 0.48033 -0.22984
# Poissons Ratio (y) = 0.73734 0.79794
# Poissons Ratio (z) = -0.21871 0.49464
#
# Static dielectric constant tensor:
#      x y z
#    x 2.166080 0.000000 -0.001280 
#    y 0.000000 2.269630 0.000000 
#    z -0.001280 0.000000 2.177340 
# 
# From -- ./inp_files/31017.got.cif
#   From: 2010.05.17/outbox.cif.g08.bks.cpg/sg14_16_cif.got.tgz:31017.got - 2010.06.03 17:49:19.
