data_PCOD9245359
_publ_section_title
;
Structure prediction by ZEFSAII (Michael W. Deem and Ramdas Pophale) SiO2 
 PCOD9245359
Probable space group: P 21/C
;
_chemical_formula_sum "Si O2"
_cell_formula_units_Z 20
_cell_length_a 9.951330
_cell_length_b 9.648441
_cell_length_c 12.297514
_cell_angle_alpha 90.000000
_cell_angle_beta 127.244907
_cell_angle_gamma 90.000000
_cell_volume 939.937794
_symmetry_space_group_name_H-M "P 21/C"
_symmetry_group_IT_number 14
_symmetry_cell_setting 'monoclinic'
loop_
_space_group_symop_operation_xyz
x,y,z
-x,1/2+y,1/2-z
-x,-y,-z
x,1/2-y,1/2+z
loop_
_atom_site_type_symbol
_atom_site_label
_atom_site_fract_x
_atom_site_fract_y
_atom_site_fract_z
Si Si1 0.616203 0.158563 0.841276
Si Si2 0.036702 0.784548 0.548044
Si Si3 0.884028 0.540738 0.548127
Si Si4 0.569739 0.043126 0.416151
Si Si5 0.967445 0.453583 0.143410
O O1 0.779069 0.214772 0.853474
O O2 0.539139 0.295577 0.862007
O O3 0.498758 0.065597 0.706857
O O4 0.713733 0.047841 0.967028
O O5 0.994048 0.809578 0.400016
O O6 0.880044 0.704886 0.525185
O O7 0.059353 0.927967 0.620837
O O8 0.000000 0.500000 0.500000
O O9 0.982824 0.530005 0.708608
O O10 0.769726 0.032293 0.527203
O O11 0.500000 0.000000 0.500000
#
# Coordination Sequence:
#
# PCOD9245359 Si02
#       5
#     4   4   4   4   4
#     4  10  24  42  66  98 135 169 228 269 333 403
#     4   9  21  40  64  96 126 169 227 272 325 391
#     4  10  21  37  66  94 126 171 223 272 322 390
#     4  11  24  45  66  95 140 179 212 278 343 396
#     4  10  22  40  68  93 132 172 223 276 333 393
#
# _framework density 21.278002999999998
#
# number of rings (size 3 to 8) (size 9 to 14) (size 15 to 20)
#    0.000    2.000    0.000    2.400   14.000    0.000 
#    0.000    1.000    0.000    0.000    0.000    0.000 
#    0.000    0.000    0.000    0.000    0.000    0.000 
#
# Total GULP energy -111371.798650 kJ/mol
# GULP energy per Si atom -5568.589933 kJ/mol
# Density = 2.122957 g / cm^3
# Si number density = 21.278003 Si / 1000 Ang^3
#
#
#
# Elastic Constant Matrix: (Units=GPa)
#
#
# Indices 1 2 3 4 5 6 
#
# 1 48.5131 41.7265 40.6363 0.0000 -7.6658 0.0000
# 2 41.7265 120.5047 74.7039 0.0000 2.1630 0.0000
# 3 40.6363 74.7039 199.0474 0.0000 -4.6062 0.0000
# 4 0.0000 0.0000 0.0000 25.8045 0.0000 4.5879
# 5 -7.6658 2.1630 -4.6062 0.0000 25.7073 0.0000
# 6 0.0000 0.0000 0.0000 4.5879 0.0000 35.2096
#
#
#
# Elastic Compliance Matrix: (Units=1/GPa)
#
#
# Indices 1 2 3 4 5 6 
#
# 1 0.033090 -0.009904 -0.002803 0.000000 0.010199 0.000000
# 2 -0.009904 0.013848 -0.003284 0.000000 -0.004707 0.000000
# 3 -0.002803 -0.003284 0.006844 0.000000 0.000667 0.000000
# 4 0.000000 0.000000 0.000000 0.039672 0.000000 -0.005169
# 5 0.010199 -0.004707 0.000667 0.000000 0.042456 0.000000
# 6 0.000000 0.000000 0.000000 -0.005169 0.000000 0.029075
#
#
# Mechanical properties :
#
#
# Convention : Reuss Voigt Hill
#
# Bulk Modulus (GPa) = 45.86853 75.79987 60.83420
# Shear Modulus (GPa) = 24.48168 31.41085 27.94627
#
# Velocity S-wave (km/s) = 3.39567 3.84632 3.62800
# Velocity P-wave (km/s) = 6.08093 7.44490 6.79721
#
# Compressibility (1/GPa) = 0.02180144
#
# Stress axis : x y z
#
# Youngs Moduli (GPa) = 30.22031 72.21101 146.10935
#
# Poissons Ratio (x) = 0.71515 0.40949
# Poissons Ratio (y) = 0.29929 0.47988
# Poissons Ratio (z) = 0.08470 0.23717
#
# Static dielectric constant tensor:
#      x y z
#    x 2.041560 0.000000 0.119580 
#    y 0.000000 2.130570 0.000000 
#    z 0.119580 0.000000 1.894700 
# 
# From -- ./inp_files/27862.got.cif
#   From: 2010.05.17/outbox.cif.g08.bks.cpg/sg14_14_cif.got.tgz:27862.got - 2010.06.03 17:49:19.
