data_PCOD9245826
_publ_section_title
;
Structure prediction by ZEFSAII (Michael W. Deem and Ramdas Pophale) SiO2 
 PCOD9245826
Probable space group: P 21/C
;
_chemical_formula_sum "Si O2"
_cell_formula_units_Z 24
_cell_length_a 15.105669
_cell_length_b 12.076594
_cell_length_c 21.560427
_cell_angle_alpha 90.000000
_cell_angle_beta 19.463614
_cell_angle_gamma 90.000000
_cell_volume 1310.561541
_symmetry_space_group_name_H-M "P 21/C"
_symmetry_group_IT_number 14
_symmetry_cell_setting 'monoclinic'
loop_
_space_group_symop_operation_xyz
x,y,z
-x,1/2+y,1/2-z
-x,-y,-z
x,1/2-y,1/2+z
loop_
_atom_site_type_symbol
_atom_site_label
_atom_site_fract_x
_atom_site_fract_y
_atom_site_fract_z
Si Si1 0.372396 0.822944 0.099031
Si Si2 0.761382 0.586841 0.654107
Si Si3 0.898753 0.959001 0.765846
Si Si4 0.599445 0.086849 0.485082
Si Si5 0.740354 0.458993 0.095024
Si Si6 0.986685 0.177076 0.541894
O O1 0.393382 0.708831 0.048727
O O2 0.198320 0.807466 0.275839
O O3 0.231141 0.919086 0.151759
O O4 0.660511 0.871268 0.926457
O O5 0.553685 0.554847 0.737267
O O6 0.875004 0.708851 0.567096
O O7 0.000000 0.500000 0.500000
O O8 0.597909 0.584625 0.826049
O O9 0.110125 0.945184 0.680832
O O10 0.057331 0.943104 0.596341
O O11 0.500000 0.000000 0.500000
O O12 0.812719 0.371303 0.100342
O O13 0.800494 0.580902 0.082409
#
# Coordination Sequence:
#
# PCOD9245826 Si02
#       6
#     4   4   4   4   4   4
#     4  10  21  39  63  89 119 156 199 246 299 352
#     4  11  24  40  60  90 123 157 200 245 296 352
#     4   9  21  41  62  87 119 157 199 244 295 353
#     4  11  24  40  60  90 123 157 200 245 296 352
#     4   9  21  41  62  87 119 157 199 244 295 353
#     4  10  21  39  63  89 119 156 199 246 299 352
#
# _framework density 18.312760000000001
#
# number of rings (size 3 to 8) (size 9 to 14) (size 15 to 20)
#    0.000    2.000    0.000    2.000    4.667    4.000 
#    0.000    0.000    0.000    0.000    0.000    0.000 
#    0.000    0.000    0.000    0.000    0.000    0.000 
#
# Total GULP energy -134106.317205 kJ/mol
# GULP energy per Si atom -5587.763217 kJ/mol
# Density = 1.827108 g / cm^3
# Si number density = 18.312760 Si / 1000 Ang^3
#
#
#
# Elastic Constant Matrix: (Units=GPa)
#
#
# Indices 1 2 3 4 5 6 
#
# 1 162.8445 101.1641 76.0520 0.0000 -32.2490 0.0000
# 2 101.1641 146.0375 82.0889 0.0000 -24.0884 0.0000
# 3 76.0520 82.0889 108.9719 0.0000 -35.6673 0.0000
# 4 0.0000 0.0000 0.0000 30.7848 0.0000 11.7722
# 5 -32.2490 -24.0884 -35.6673 0.0000 26.2689 0.0000
# 6 0.0000 0.0000 0.0000 11.7722 0.0000 21.4638
#
#
#
# Elastic Compliance Matrix: (Units=1/GPa)
#
#
# Indices 1 2 3 4 5 6 
#
# 1 0.012261 -0.006635 -0.001123 0.000000 0.007444 0.000000
# 2 -0.006635 0.015542 -0.009141 0.000000 -0.006305 0.000000
# 3 -0.001123 -0.009141 0.024571 0.000000 0.023602 0.000000
# 4 0.000000 0.000000 0.000000 0.041105 0.000000 -0.022545
# 5 0.007444 -0.006305 0.023602 0.000000 0.073471 0.000000
# 6 0.000000 0.000000 0.000000 -0.022545 0.000000 0.058955
#
#
# Mechanical properties :
#
#
# Convention : Reuss Voigt Hill
#
# Bulk Modulus (GPa) = 53.82849 104.05154 78.94001
# Shear Modulus (GPa) = 18.80455 26.27342 22.53899
#
# Velocity S-wave (km/s) = 3.20793 3.79186 3.51205
# Velocity P-wave (km/s) = 6.57107 8.72430 7.72309
#
# Compressibility (1/GPa) = 0.01857752
#
# Stress axis : x y z
#
# Youngs Moduli (GPa) = 81.56031 64.34289 40.69829
#
# Poissons Ratio (x) = 0.42688 0.04569
# Poissons Ratio (y) = 0.54111 0.37202
# Poissons Ratio (z) = 0.09156 0.58815
#
# Static dielectric constant tensor:
#      x y z
#    x 1.609140 0.000000 0.000500 
#    y 0.000000 1.593690 0.000000 
#    z 0.000500 0.000000 1.609190 
# 
# From -- ./inp_files/24166.got.cif
#   From: 2010.05.17/outbox.cif.g08.bks.cpg/sg14_13_cif.got.tgz:24166.got - 2010.06.03 17:49:19.
