data_PCOD9245123
_publ_section_title
;
Structure prediction by ZEFSAII (Michael W. Deem and Ramdas Pophale) SiO2 
 PCOD9245123
Probable space group: P 21/C
;
_chemical_formula_sum "Si O2"
_cell_formula_units_Z 28
_cell_length_a 5.288440
_cell_length_b 11.366803
_cell_length_c 22.897008
_cell_angle_alpha 90.000000
_cell_angle_beta 67.030153
_cell_angle_gamma 90.000000
_cell_volume 1267.265694
_symmetry_space_group_name_H-M "P 21/C"
_symmetry_group_IT_number 14
_symmetry_cell_setting 'monoclinic'
loop_
_space_group_symop_operation_xyz
x,y,z
-x,1/2+y,1/2-z
-x,-y,-z
x,1/2-y,1/2+z
loop_
_atom_site_type_symbol
_atom_site_label
_atom_site_fract_x
_atom_site_fract_y
_atom_site_fract_z
Si Si1 0.586391 0.445233 0.778220
Si Si2 0.629976 0.516963 0.647195
Si Si3 0.775052 0.205087 0.791216
Si Si4 0.963982 0.263882 0.405298
Si Si5 0.999799 0.075304 0.673277
Si Si6 0.283646 0.572345 0.481105
Si Si7 0.174248 0.994131 0.542745
O O1 0.715454 0.465743 0.702112
O O2 0.559034 0.306059 0.792512
O O3 0.300780 0.515577 0.806655
O O4 0.789319 0.493926 0.809559
O O5 0.337705 0.574530 0.686756
O O6 0.621306 0.424959 0.594955
O O7 0.798953 0.635214 0.613505
O O8 0.888396 0.234904 0.844059
O O9 0.970184 0.189281 0.717676
O O10 0.766179 0.313190 0.475045
O O11 0.951250 0.126202 0.419385
O O12 0.111704 0.091752 0.597857
O O13 0.500000 0.500000 0.500000
O O14 0.000000 0.500000 0.500000
O O15 0.500000 0.000000 0.500000
O O16 0.000000 0.000000 0.500000
#
# Coordination Sequence:
#
# PCOD9245123 Si02
#       7
#     4   4   4   4   4   4   4
#     4  11  23  39  68 102 130 171 220 276 329 399
#     4  10  22  40  65  99 133 170 220 270 333 393
#     4  11  22  39  71  95 132 177 215 274 339 392
#     4  11  22  41  70  91 131 181 218 264 343 383
#     4  11  24  44  66 100 134 168 231 272 328 398
#     4  10  21  36  62  96 129 165 218 268 316 398
#     4  12  28  46  68  96 136 181 226 274 328 405
#
# _framework density 22.094811
#
# number of rings (size 3 to 8) (size 9 to 14) (size 15 to 20)
#    0.000    1.143    4.286    1.714    2.000    1.143 
#    0.000    4.286    0.000    0.000    0.000    0.000 
#    0.000    0.000    0.000    0.000    0.000    0.000 
#
# Total GULP energy -155919.052401 kJ/mol
# GULP energy per Si atom -5568.537586 kJ/mol
# Density = 2.204452 g / cm^3
# Si number density = 22.094811 Si / 1000 Ang^3
#
#
#
# Elastic Constant Matrix: (Units=GPa)
#
#
# Indices 1 2 3 4 5 6 
#
# 1 103.7371 1.1125 46.9839 0.0000 24.5355 0.0000
# 2 1.1125 37.3398 12.3805 0.0000 9.2561 0.0000
# 3 46.9839 12.3805 144.9769 0.0000 24.7355 0.0000
# 4 0.0000 0.0000 0.0000 47.6888 0.0000 -0.3858
# 5 24.5355 9.2561 24.7355 0.0000 36.6976 0.0000
# 6 0.0000 0.0000 0.0000 -0.3858 0.0000 21.2392
#
#
#
# Elastic Compliance Matrix: (Units=1/GPa)
#
#
# Indices 1 2 3 4 5 6 
#
# 1 0.012678 0.002386 -0.003123 0.000000 -0.006973 0.000000
# 2 0.002386 0.029258 -0.001967 0.000000 -0.007649 0.000000
# 3 -0.003123 -0.001967 0.008629 0.000000 -0.003233 0.000000
# 4 0.000000 0.000000 0.000000 0.020972 0.000000 0.000381
# 5 -0.006973 -0.007649 -0.003233 0.000000 0.036020 0.000000
# 6 0.000000 0.000000 0.000000 0.000381 0.000000 0.047090
#
#
# Mechanical properties :
#
#
# Convention : Reuss Voigt Hill
#
# Bulk Modulus (GPa) = 22.14408 45.22309 33.68358
# Shear Modulus (GPa) = 28.55404 36.16357 32.35881
#
# Velocity S-wave (km/s) = 3.59882 4.05006 3.83109
# Velocity P-wave (km/s) = 5.22615 6.51021 5.90320
#
# Compressibility (1/GPa) = 0.04515879
#
# Stress axis : x y z
#
# Youngs Moduli (GPa) = 78.87856 34.17840 115.88701
#
# Poissons Ratio (x) = -0.08156 0.36187
# Poissons Ratio (y) = -0.18822 0.22792
# Poissons Ratio (z) = 0.24631 0.06722
#
# Static dielectric constant tensor:
#      x y z
#    x 1.830440 0.000000 -0.050600 
#    y 0.000000 1.793740 0.000000 
#    z -0.050600 0.000000 2.022980 
# 
# From -- ./inp_files/63288.got.cif
#   From: 2010.05.17/outbox.cif.g08.bks.cpg/sg14_32_cif.got.tgz:63288.got - 2010.06.03 17:49:19.
