data_PCOD9245538
_publ_section_title
;
Structure prediction by ZEFSAII (Michael W. Deem and Ramdas Pophale) SiO2 
 PCOD9245538
Probable space group: P 21/C
;
_chemical_formula_sum "Si O2"
_cell_formula_units_Z 28
_cell_length_a 12.731047
_cell_length_b 14.628714
_cell_length_c 15.333057
_cell_angle_alpha 90.000000
_cell_angle_beta 152.275067
_cell_angle_gamma 90.000000
_cell_volume 1328.508096
_symmetry_space_group_name_H-M "P 21/C"
_symmetry_group_IT_number 14
_symmetry_cell_setting 'monoclinic'
loop_
_space_group_symop_operation_xyz
x,y,z
-x,1/2+y,1/2-z
-x,-y,-z
x,1/2-y,1/2+z
loop_
_atom_site_type_symbol
_atom_site_label
_atom_site_fract_x
_atom_site_fract_y
_atom_site_fract_z
Si Si1 0.741662 0.749233 0.053925
Si Si2 0.412978 0.274934 0.244993
Si Si3 0.718300 0.149195 0.752943
Si Si4 0.349574 0.951438 0.133283
Si Si5 0.018112 0.925687 0.214640
Si Si6 0.699461 0.404349 0.915210
Si Si7 0.049975 0.241195 0.615614
O O1 0.748901 0.712684 0.959487
O O2 0.486814 0.722014 0.894837
O O3 0.826046 0.853378 0.104230
O O4 0.896583 0.719440 0.249068
O O5 0.598666 0.353266 0.370056
O O6 0.527544 0.175354 0.321430
O O7 0.280614 0.284188 0.236977
O O8 0.642839 0.062830 0.756288
O O9 0.811584 0.122831 0.727808
O O10 0.926464 0.188397 0.961518
O O11 0.551970 0.020410 0.258323
O O12 0.115254 0.994111 0.930878
O O13 0.166224 0.950855 0.406779
O O14 0.887278 0.346530 0.002051
#
# Coordination Sequence:
#
# PCOD9245538 Si02
#       7
#     4   4   4   4   4   4   4
#     4  10  21  38  62  93 125 161 208 257 299 374
#     4  11  22  43  66  91 128 166 210 260 306 375
#     4  11  21  38  65  93 124 164 209 257 315 368
#     4  11  23  40  60  94 129 159 212 264 300 376
#     4  11  22  39  65  89 128 170 197 267 315 360
#     4  11  23  43  61  92 131 160 210 263 309 368
#     4  11  21  39  66  92 121 173 206 247 323 370
#
# _framework density 21.076273
#
# number of rings (size 3 to 8) (size 9 to 14) (size 15 to 20)
#    0.000    1.143    5.714    1.286    0.000    3.429 
#    0.000    2.857    0.000    0.000    0.000    0.000 
#    0.000    0.000    0.000    0.000    0.000    0.000 
#
# Total GULP energy -156215.852926 kJ/mol
# GULP energy per Si atom -5579.137604 kJ/mol
# Density = 2.102830 g / cm^3
# Si number density = 21.076273 Si / 1000 Ang^3
#
#
#
# Elastic Constant Matrix: (Units=GPa)
#
#
# Indices 1 2 3 4 5 6 
#
# 1 46.8098 -3.0152 17.2456 0.0000 2.7145 0.0000
# 2 -3.0152 39.1538 17.9665 0.0000 2.3240 0.0000
# 3 17.2456 17.9665 68.2370 0.0000 -2.3947 0.0000
# 4 0.0000 0.0000 0.0000 14.8141 0.0000 4.2456
# 5 2.7145 2.3240 -2.3947 0.0000 27.8748 0.0000
# 6 0.0000 0.0000 0.0000 4.2456 0.0000 12.0858
#
#
#
# Elastic Compliance Matrix: (Units=1/GPa)
#
#
# Indices 1 2 3 4 5 6 
#
# 1 0.024863 0.005765 -0.007927 0.000000 -0.003583 0.000000
# 2 0.005765 0.030654 -0.009667 0.000000 -0.003948 0.000000
# 3 -0.007927 -0.009667 0.019317 0.000000 0.003237 0.000000
# 4 0.000000 0.000000 0.000000 0.075060 0.000000 -0.026368
# 5 -0.003583 -0.003948 0.003237 0.000000 0.036831 0.000000
# 6 0.000000 0.000000 0.000000 -0.026368 0.000000 0.092005
#
#
# Mechanical properties :
#
#
# Convention : Reuss Voigt Hill
#
# Bulk Modulus (GPa) = 19.54035 24.28827 21.91431
# Shear Modulus (GPa) = 15.65206 19.08850 17.37028
#
# Velocity S-wave (km/s) = 2.72810 3.01273 2.87394
# Velocity P-wave (km/s) = 4.38346 4.86323 4.62957
#
# Compressibility (1/GPa) = 0.05117616
#
# Stress axis : x y z
#
# Youngs Moduli (GPa) = 40.22090 32.62180 51.76773
#
# Poissons Ratio (x) = -0.18806 0.41037
# Poissons Ratio (y) = -0.23187 0.50042
# Poissons Ratio (z) = 0.31884 0.31534
#
# Static dielectric constant tensor:
#      x y z
#    x 1.790180 0.000000 -0.001110 
#    y 0.000000 1.761180 0.000000 
#    z -0.001110 0.000000 1.781220 
# 
# From -- ./inp_files/45312.got.cif
#   From: 2010.05.17/outbox.cif.g08.bks.cpg/sg14_23_cif.got.tgz:45312.got - 2010.06.03 17:49:19.
