data_PCOD9245030
_publ_section_title
;
Structure prediction by ZEFSAII (Michael W. Deem and Ramdas Pophale) SiO2 
 PCOD9245030
Probable space group: P 21/C
;
_chemical_formula_sum "Si O2"
_cell_formula_units_Z 28
_cell_length_a 20.832690
_cell_length_b 8.471876
_cell_length_c 22.245609
_cell_angle_alpha 90.000000
_cell_angle_beta 20.523142
_cell_angle_gamma 90.000000
_cell_volume 1376.459421
_symmetry_space_group_name_H-M "P 21/C"
_symmetry_group_IT_number 14
_symmetry_cell_setting 'monoclinic'
loop_
_space_group_symop_operation_xyz
x,y,z
-x,1/2+y,1/2-z
-x,-y,-z
x,1/2-y,1/2+z
loop_
_atom_site_type_symbol
_atom_site_label
_atom_site_fract_x
_atom_site_fract_y
_atom_site_fract_z
Si Si1 0.760406 0.500216 0.489518
Si Si2 0.114739 0.158765 0.476418
Si Si3 0.953194 0.008483 0.157493
Si Si4 0.548220 0.749743 0.249778
Si Si5 0.567183 0.158651 0.524051
Si Si6 0.229553 0.249931 0.749986
Si Si7 0.767524 0.008518 0.842960
O O1 0.627956 0.349853 0.613482
O O2 0.645337 0.650791 0.613136
O O3 0.806524 0.518944 0.378990
O O4 0.935535 0.481255 0.378744
O O5 0.297502 0.137567 0.355633
O O6 0.163399 0.143121 0.363968
O O7 0.051008 0.341599 0.540920
O O8 0.953014 0.056584 0.645829
O O9 0.744394 0.056489 0.354663
O O10 0.934982 0.856897 0.131107
O O11 0.491708 0.862155 0.355093
O O12 0.391029 0.142714 0.636384
O O13 0.632257 0.341509 0.459586
O O14 0.303454 0.356968 0.630688
#
# Coordination Sequence:
#
# PCOD9245030 Si02
#       7
#     4   4   4   4   4   4   4
#     4  10  22  38  56  84 112 144 186 224 284 336
#     4   9  20  38  55  77 115 148 175 229 288 315
#     4  10  21  36  57  83 113 144 181 231 273 332
#     4   9  20  38  58  78 110 149 182 226 276 337
#     4   9  20  38  55  77 115 148 175 229 288 315
#     4  11  20  34  58  84 104 145 196 222 264 333
#     4  10  21  36  57  83 113 144 181 231 273 332
#
# _framework density 20.342046
#
# number of rings (size 3 to 8) (size 9 to 14) (size 15 to 20)
#    0.000    2.286    0.000    1.714    0.000    8.000 
#    0.000    5.714    0.000    0.000    0.000    0.000 
#    0.000    0.000    0.000    0.000    0.000    0.000 
#
# Total GULP energy -156303.366004 kJ/mol
# GULP energy per Si atom -5582.263072 kJ/mol
# Density = 2.029575 g / cm^3
# Si number density = 20.342046 Si / 1000 Ang^3
#
#
#
# Elastic Constant Matrix: (Units=GPa)
#
#
# Indices 1 2 3 4 5 6 
#
# 1 150.9214 38.0100 47.2065 0.0000 -6.0951 0.0000
# 2 38.0100 35.2693 4.2929 0.0000 -3.1908 0.0000
# 3 47.2065 4.2929 89.5260 0.0000 0.4267 0.0000
# 4 0.0000 0.0000 0.0000 15.5614 0.0000 -0.0161
# 5 -6.0951 -3.1908 0.4267 0.0000 20.0933 0.0000
# 6 0.0000 0.0000 0.0000 -0.0161 0.0000 15.6744
#
#
#
# Elastic Compliance Matrix: (Units=1/GPa)
#
#
# Indices 1 2 3 4 5 6 
#
# 1 0.011221 -0.011281 -0.005384 0.000000 0.001727 0.000000
# 2 -0.011281 0.040286 0.004003 0.000000 0.002890 0.000000
# 3 -0.005384 0.004003 0.013823 0.000000 -0.001291 0.000000
# 4 0.000000 0.000000 0.000000 0.064261 0.000000 0.000066
# 5 0.001727 0.002890 -0.001291 0.000000 0.050778 0.000000
# 6 0.000000 0.000000 0.000000 0.000066 0.000000 0.063799
#
#
# Mechanical properties :
#
#
# Convention : Reuss Voigt Hill
#
# Bulk Modulus (GPa) = 24.99689 50.52619 37.76154
# Shear Modulus (GPa) = 17.67862 22.67964 20.17913
#
# Velocity S-wave (km/s) = 2.95119 3.34266 3.15301
# Velocity P-wave (km/s) = 4.89159 6.30793 5.64437
#
# Compressibility (1/GPa) = 0.04000497
#
# Stress axis : x y z
#
# Youngs Moduli (GPa) = 89.11832 24.82273 72.34262
#
# Poissons Ratio (x) = 0.28004 0.38950
# Poissons Ratio (y) = 1.00539 -0.28959
# Poissons Ratio (z) = 0.47982 -0.09937
#
# Static dielectric constant tensor:
#      x y z
#    x 1.703260 0.000000 0.001250 
#    y 0.000000 1.768550 0.000000 
#    z 0.001250 0.000000 1.717250 
# 
# From -- ./inp_files/64612.got.cif
#   From: 2010.05.17/outbox.cif.g08.bks.cpg/sg14_33_cif.got.tgz:64612.got - 2010.06.03 17:49:19.
