data_PCOD9245942
_publ_section_title
;
Structure prediction by ZEFSAII (Michael W. Deem and Ramdas Pophale) SiO2 
 PCOD9245942
Probable space group: P 21/C
;
_chemical_formula_sum "Si O2"
_cell_formula_units_Z 32
_cell_length_a 16.731769
_cell_length_b 11.237059
_cell_length_c 11.925510
_cell_angle_alpha 90.000000
_cell_angle_beta 138.483838
_cell_angle_gamma 90.000000
_cell_volume 1486.190504
_symmetry_space_group_name_H-M "P 21/C"
_symmetry_group_IT_number 14
_symmetry_cell_setting 'monoclinic'
loop_
_space_group_symop_operation_xyz
x,y,z
-x,1/2+y,1/2-z
-x,-y,-z
x,1/2-y,1/2+z
loop_
_atom_site_type_symbol
_atom_site_label
_atom_site_fract_x
_atom_site_fract_y
_atom_site_fract_z
Si Si1 0.445885 0.128179 0.012988
Si Si2 0.380567 0.388665 0.022922
Si Si3 0.382356 0.540789 0.639047
Si Si4 0.899577 0.074892 0.621189
Si Si5 0.150433 0.100227 0.978536
Si Si6 0.758535 0.635886 0.891144
Si Si7 0.698516 0.243126 0.311543
Si Si8 0.194729 0.548623 0.722900
O O1 0.406157 0.250999 0.030288
O O2 0.588975 0.159832 0.152628
O O3 0.429552 0.010402 0.071101
O O4 0.346399 0.119105 0.810664
O O5 0.501398 0.466779 0.158431
O O6 0.311242 0.390073 0.066857
O O7 0.296952 0.447854 0.843576
O O8 0.268801 0.460089 0.550183
O O9 0.343489 0.676855 0.624546
O O10 0.813853 0.170751 0.472922
O O11 0.858727 0.067943 0.709721
O O12 0.040495 0.104924 0.775546
O O13 0.869385 0.956187 0.518507
O O14 0.186472 0.232062 0.055027
O O15 0.113348 0.010746 0.040682
O O16 0.741879 0.334693 0.261378
#
# Coordination Sequence:
#
# PCOD9245942 Si02
#       8
#     4   4   4   4   4   4   4   4
#     4  11  21  40  66  99 132 165 219 276 336 390
#     4  10  21  39  65  98 128 167 219 273 334 390
#     4  10  23  40  66  96 135 171 211 276 335 389
#     4  11  26  45  65  97 134 178 226 273 324 395
#     4  11  23  42  68  94 131 175 225 268 328 400
#     4  11  24  40  69  96 130 169 225 276 325 393
#     4  10  25  41  70  98 134 177 216 277 334 400
#     4  10  22  43  69  94 129 178 223 271 336 386
#
# _framework density 21.531562000000001
#
# number of rings (size 3 to 8) (size 9 to 14) (size 15 to 20)
#    0.000    1.500    2.500    1.875    5.250    6.500 
#    2.250    0.625    0.000    0.000    0.000    0.000 
#    0.000    0.000    0.000    0.000    0.000    0.000 
#
# Total GULP energy -178471.586852 kJ/mol
# GULP energy per Si atom -5577.237089 kJ/mol
# Density = 2.148255 g / cm^3
# Si number density = 21.531562 Si / 1000 Ang^3
#
#
#
# Elastic Constant Matrix: (Units=GPa)
#
#
# Indices 1 2 3 4 5 6 
#
# 1 33.1080 24.3203 20.1093 0.0000 6.7930 0.0000
# 2 24.3203 103.3771 36.4504 0.0000 0.0552 0.0000
# 3 20.1093 36.4504 123.2322 0.0000 2.4337 0.0000
# 4 0.0000 0.0000 0.0000 37.6181 0.0000 -8.7035
# 5 6.7930 0.0552 2.4337 0.0000 20.1361 0.0000
# 6 0.0000 0.0000 0.0000 -8.7035 0.0000 13.2324
#
#
#
# Elastic Compliance Matrix: (Units=1/GPa)
#
#
# Indices 1 2 3 4 5 6 
#
# 1 0.041564 -0.008344 -0.004048 0.000000 -0.013510 0.000000
# 2 -0.008344 0.012477 -0.002390 0.000000 0.003069 0.000000
# 3 -0.004048 -0.002390 0.009478 0.000000 0.000227 0.000000
# 4 0.000000 0.000000 0.000000 0.031354 0.000000 0.020623
# 5 -0.013510 0.003069 0.000227 0.000000 0.054184 0.000000
# 6 0.000000 0.000000 0.000000 0.020623 0.000000 0.089136
#
#
# Mechanical properties :
#
#
# Convention : Reuss Voigt Hill
#
# Bulk Modulus (GPa) = 29.44962 46.83081 38.14022
# Shear Modulus (GPa) = 17.91637 26.11980 22.01809
#
# Velocity S-wave (km/s) = 2.88774 3.48673 3.20127
# Velocity P-wave (km/s) = 4.98255 6.16496 5.60502
#
# Compressibility (1/GPa) = 0.03395629
#
# Stress axis : x y z
#
# Youngs Moduli (GPa) = 24.05945 80.14609 105.51167
#
# Poissons Ratio (x) = 0.66872 0.42708
# Poissons Ratio (y) = 0.20075 0.25214
# Poissons Ratio (z) = 0.09738 0.19152
#
# Static dielectric constant tensor:
#      x y z
#    x 1.824610 0.000000 0.006640 
#    y 0.000000 1.769240 0.000000 
#    z 0.006640 0.000000 1.767880 
# 
# From -- ./inp_files/33940.got.cif
#   From: 2010.05.17/outbox.cif.g08.bks.cpg/sg14_17_cif.got.tgz:33940.got - 2010.06.03 17:49:19.
