data_PCOD9245105
_publ_section_title
;
Structure prediction by ZEFSAII (Michael W. Deem and Ramdas Pophale) SiO2 
 PCOD9245105
Probable space group: P 21/C
;
_chemical_formula_sum "Si O2"
_cell_formula_units_Z 32
_cell_length_a 5.287410
_cell_length_b 18.004491
_cell_length_c 20.227632
_cell_angle_alpha 90.000000
_cell_angle_beta 137.978700
_cell_angle_gamma 90.000000
_cell_volume 1289.018107
_symmetry_space_group_name_H-M "P 21/C"
_symmetry_group_IT_number 14
_symmetry_cell_setting 'monoclinic'
loop_
_space_group_symop_operation_xyz
x,y,z
-x,1/2+y,1/2-z
-x,-y,-z
x,1/2-y,1/2+z
loop_
_atom_site_type_symbol
_atom_site_label
_atom_site_fract_x
_atom_site_fract_y
_atom_site_fract_z
Si Si1 0.144207 0.381478 0.013459
Si Si2 0.759646 0.388735 0.533470
Si Si3 0.460205 0.245084 0.510160
Si Si4 0.089732 0.466219 0.774497
Si Si5 0.067817 0.486945 0.108257
Si Si6 0.367921 0.190846 0.342052
Si Si7 0.016342 0.468600 0.377752
Si Si8 0.319340 0.835801 0.130723
O O1 0.041538 0.406972 0.067554
O O2 0.462408 0.319560 0.065164
O O3 0.211302 0.456319 0.984865
O O4 0.775811 0.345939 0.907730
O O5 0.787181 0.307764 0.572274
O O6 0.376432 0.430208 0.482434
O O7 0.074306 0.451590 0.606462
O O8 0.684014 0.370958 0.442660
O O9 0.405575 0.209279 0.427223
O O10 0.076647 0.292089 0.443603
O O11 0.512729 0.487632 0.832652
O O12 0.073963 0.376045 0.772719
O O13 0.994948 0.499146 0.827219
O O14 0.868203 0.507406 0.673514
O O15 0.363888 0.270950 0.305114
O O16 0.704239 0.403523 0.322110
#
# Coordination Sequence:
#
# PCOD9245105 Si02
#       8
#     4   4   4   4   4   4   4   4
#     4   9  18  32  59  83 115 155 199 243 285 359
#     4   9  19  36  60  87 106 152 213 254 304 359
#     4   9  16  32  57  83 113 147 199 249 301 351
#     4  11  23  38  58  89 125 159 199 248 310 362
#     4  10  22  35  57  89 119 158 200 241 295 365
#     4   9  18  33  59  84 116 155 199 241 303 368
#     4  10  21  36  61  83 115 155 205 262 302 360
#     4   9  18  34  59  84 110 150 201 253 301 368
#
# _framework density 24.825095000000001
#
# number of rings (size 3 to 8) (size 9 to 14) (size 15 to 20)
#    0.000    2.500    1.250    0.375    3.500    1.500 
#    0.000    0.000   16.500    0.000    0.000    0.000 
#    0.000    0.000    0.000    0.000    0.000    0.000 
#
# Total GULP energy -178407.656043 kJ/mol
# GULP energy per Si atom -5575.239251 kJ/mol
# Density = 2.476859 g / cm^3
# Si number density = 24.825095 Si / 1000 Ang^3
#
#
#
# Elastic Constant Matrix: (Units=GPa)
#
#
# Indices 1 2 3 4 5 6 
#
# 1 89.8462 71.1199 26.1298 0.0000 -28.9467 0.0000
# 2 71.1199 210.5325 47.1729 0.0000 -33.2994 0.0000
# 3 26.1298 47.1729 60.9453 0.0000 -23.2915 0.0000
# 4 0.0000 0.0000 0.0000 29.5241 0.0000 -14.9666
# 5 -28.9467 -33.2994 -23.2915 0.0000 35.6602 0.0000
# 6 0.0000 0.0000 0.0000 -14.9666 0.0000 44.1762
#
#
#
# Elastic Compliance Matrix: (Units=1/GPa)
#
#
# Indices 1 2 3 4 5 6 
#
# 1 0.018020 -0.004369 -0.000418 0.000000 0.010276 0.000000
# 2 -0.004369 0.007108 -0.003262 0.000000 0.000961 0.000000
# 3 -0.000418 -0.003262 0.023746 0.000000 0.012125 0.000000
# 4 0.000000 0.000000 0.000000 0.040894 0.000000 0.013855
# 5 0.010276 0.000961 0.012125 0.000000 0.045201 0.000000
# 6 0.000000 0.000000 0.000000 0.013855 0.000000 0.027330
#
#
# Mechanical properties :
#
#
# Convention : Reuss Voigt Hill
#
# Bulk Modulus (GPa) = 30.50788 72.24101 51.37445
# Shear Modulus (GPa) = 26.41013 36.33218 31.37116
#
# Velocity S-wave (km/s) = 3.26521 3.82976 3.55869
# Velocity P-wave (km/s) = 5.15085 6.97992 6.13394
#
# Compressibility (1/GPa) = 0.03277842
#
# Stress axis : x y z
#
# Youngs Moduli (GPa) = 55.49324 140.67674 42.11313
#
# Poissons Ratio (x) = 0.61455 0.01759
# Poissons Ratio (y) = 0.24243 0.13736
# Poissons Ratio (z) = 0.02318 0.45885
#
# Static dielectric constant tensor:
#      x y z
#    x 2.069350 0.000000 0.051970 
#    y 0.000000 2.114310 0.000000 
#    z 0.051970 0.000000 1.997700 
# 
# From -- ./inp_files/63877.got.cif
#   From: 2010.05.17/outbox.cif.g08.bks.cpg/sg14_32_cif.got.tgz:63877.got - 2010.06.03 17:49:19.
