data_PCOD9245070
_publ_section_title
;
Structure prediction by ZEFSAII (Michael W. Deem and Ramdas Pophale) SiO2 
 PCOD9245070
Probable space group: P 21/C
;
_chemical_formula_sum "Si O2"
_cell_formula_units_Z 28
_cell_length_a 14.165057
_cell_length_b 8.470652
_cell_length_c 14.130229
_cell_angle_alpha 90.000000
_cell_angle_beta 124.870470
_cell_angle_gamma 90.000000
_cell_volume 1391.024284
_symmetry_space_group_name_H-M "P 21/C"
_symmetry_group_IT_number 14
_symmetry_cell_setting 'monoclinic'
loop_
_space_group_symop_operation_xyz
x,y,z
-x,1/2+y,1/2-z
-x,-y,-z
x,1/2-y,1/2+z
loop_
_atom_site_type_symbol
_atom_site_label
_atom_site_fract_x
_atom_site_fract_y
_atom_site_fract_z
Si Si1 0.849821 0.417836 0.444222
Si Si2 0.215713 0.308715 0.732148
Si Si3 0.599508 0.177700 0.845013
Si Si4 0.831400 0.698526 0.583916
Si Si5 0.479332 0.166676 0.438174
Si Si6 0.953780 0.668816 0.996079
Si Si7 0.565753 0.825062 0.901178
O O1 0.831207 0.526505 0.339486
O O2 0.731456 0.323161 0.389523
O O3 0.858082 0.531678 0.543068
O O4 0.957185 0.302435 0.489624
O O5 0.169520 0.236930 0.804851
O O6 0.352856 0.326349 0.818515
O O7 0.168100 0.190177 0.626264
O O8 0.574396 0.299321 0.914603
O O9 0.514463 0.221947 0.711889
O O10 0.568466 0.003952 0.866213
O O11 0.925295 0.810081 0.589526
O O12 0.698536 0.730050 0.479229
O O13 0.480017 0.300718 0.519099
O O14 0.500000 0.000000 0.500000
O O15 0.000000 0.500000 0.000000
#
# Coordination Sequence:
#
# PCOD9245070 Si02
#       7
#     4   4   4   4   4   4   4
#     4  10  22  40  60  88 122 159 201 248 299 364
#     4  10  21  41  64  86 119 160 203 256 306 355
#     4  11  21  38  61  87 124 162 195 248 306 356
#     4   9  20  40  62  83 115 159 201 254 307 350
#     4  11  22  38  61  92 123 158 206 251 304 369
#     4  11  24  39  59  90 121 159 207 248 301 370
#     4  10  21  36  59  88 117 157 201 245 304 364
#
# _framework density 20.129049999999999
#
# number of rings (size 3 to 8) (size 9 to 14) (size 15 to 20)
#    0.000    1.714    0.000    6.429    0.000    6.857 
#    0.000    5.714    0.000    0.000    0.000    0.000 
#    0.000    0.000    0.000    0.000    0.000    0.000 
#
# Total GULP energy -156161.573065 kJ/mol
# GULP energy per Si atom -5577.199038 kJ/mol
# Density = 2.008324 g / cm^3
# Si number density = 20.129050 Si / 1000 Ang^3
#
#
#
# Elastic Constant Matrix: (Units=GPa)
#
#
# Indices 1 2 3 4 5 6 
#
# 1 90.7580 13.4766 26.5081 0.0000 -18.2333 0.0000
# 2 13.4766 50.1083 25.2932 0.0000 0.5800 0.0000
# 3 26.5081 25.2932 79.1176 0.0000 -8.5483 0.0000
# 4 0.0000 0.0000 0.0000 23.5210 0.0000 -2.0261
# 5 -18.2333 0.5800 -8.5483 0.0000 26.1847 0.0000
# 6 0.0000 0.0000 0.0000 -2.0261 0.0000 35.0510
#
#
#
# Elastic Compliance Matrix: (Units=1/GPa)
#
#
# Indices 1 2 3 4 5 6 
#
# 1 0.014017 -0.002365 -0.002985 0.000000 0.008838 0.000000
# 2 -0.002365 0.024445 -0.007524 0.000000 -0.004645 0.000000
# 3 -0.002985 -0.007524 0.016417 0.000000 0.003448 0.000000
# 4 0.000000 0.000000 0.000000 0.042728 0.000000 0.002470
# 5 0.008838 -0.004645 0.003448 0.000000 0.045573 0.000000
# 6 0.000000 0.000000 0.000000 0.002470 0.000000 0.028673
#
#
# Mechanical properties :
#
#
# Convention : Reuss Voigt Hill
#
# Bulk Modulus (GPa) = 34.32899 38.94883 36.63891
# Shear Modulus (GPa) = 24.11821 27.26508 25.69165
#
# Velocity S-wave (km/s) = 3.46523 3.68437 3.57648
# Velocity P-wave (km/s) = 5.75342 6.12299 5.94108
#
# Compressibility (1/GPa) = 0.02912990
#
# Stress axis : x y z
#
# Youngs Moduli (GPa) = 71.34141 40.90883 60.91064
#
# Poissons Ratio (x) = 0.09676 0.18183
# Poissons Ratio (y) = 0.16874 0.45830
# Poissons Ratio (z) = 0.21297 0.30780
#
# Static dielectric constant tensor:
#      x y z
#    x 1.726010 0.000000 -0.031530 
#    y 0.000000 1.734840 0.000000 
#    z -0.031530 0.000000 1.720030 
# 
# From -- ./inp_files/43823.got.cif
#   From: 2010.05.17/outbox.cif.g08.bks.cpg/sg14_22_cif.got.tgz:43823.got - 2010.06.03 17:49:19.
