data_PCOD9245239
_publ_section_title
;
Structure prediction by ZEFSAII (Michael W. Deem and Ramdas Pophale) SiO2 
 PCOD9245239
Probable space group: P 21/C
;
_chemical_formula_sum "Si O2"
_cell_formula_units_Z 30
_cell_length_a 18.475129
_cell_length_b 16.103099
_cell_length_c 5.069823
_cell_angle_alpha 90.000000
_cell_angle_beta 72.877011
_cell_angle_gamma 90.000000
_cell_volume 1441.451207
_symmetry_space_group_name_H-M "P 21/C"
_symmetry_group_IT_number 14
_symmetry_cell_setting 'monoclinic'
loop_
_space_group_symop_operation_xyz
x,y,z
-x,1/2+y,1/2-z
-x,-y,-z
x,1/2-y,1/2+z
loop_
_atom_site_type_symbol
_atom_site_label
_atom_site_fract_x
_atom_site_fract_y
_atom_site_fract_z
Si Si1 0.745661 0.804757 0.135222
Si Si2 0.092675 0.307488 0.658385
Si Si3 0.384496 0.405556 0.497359
Si Si4 0.500000 0.500000 0.000000
Si Si5 0.231772 0.810299 0.550002
Si Si6 0.485209 0.806759 0.896900
Si Si7 0.933977 0.192688 0.202744
Si Si8 0.368366 0.570328 0.789866
O O1 0.744200 0.775105 0.438701
O O2 0.674044 0.856258 0.117757
O O3 0.826319 0.848387 0.987129
O O4 0.092219 0.229378 0.453294
O O5 0.013292 0.352369 0.681126
O O6 0.451575 0.441581 0.249920
O O7 0.432347 0.349499 0.654765
O O8 0.345826 0.484050 0.676403
O O9 0.578366 0.457995 0.030078
O O10 0.238895 0.750048 0.792003
O O11 0.146987 0.848553 0.655126
O O12 0.297638 0.876990 0.461485
O O13 0.478189 0.733523 0.118648
O O14 0.420641 0.874003 0.035566
O O15 0.934700 0.271123 0.406066
#
# Coordination Sequence:
#
# PCOD9245239 Si02
#       8
#     4   4   4   2   4   4   4   4
#     4  10  21  37  59  87 116 148 190 237 279 327
#     4   8  14  27  50  81 113 143 179 226 276 323
#     4  11  25  39  59  80 114 149 189 230 287 347
#     4  10  24  40  56  70 102 146 188 224 282 340
#     4  10  21  37  59  87 116 148 190 237 279 327
#     4  11  24  39  60  80 104 137 184 237 281 323
#     4   8  14  27  50  81 113 143 179 226 276 323
#     4  11  25  39  59  80 114 149 189 230 287 347
#
# _framework density 20.812356999999999
#
# number of rings (size 3 to 8) (size 9 to 14) (size 15 to 20)
#    0.000    2.133    0.000    3.200   11.200    0.000 
#    0.000    0.000    0.000    0.800    0.000    0.933 
#    0.000    0.000    0.000    0.000    0.000    0.000 
#
# Total GULP energy -167033.592030 kJ/mol
# GULP energy per Si atom -5567.786401 kJ/mol
# Density = 2.076499 g / cm^3
# Si number density = 20.812357 Si / 1000 Ang^3
#
#
#
# Elastic Constant Matrix: (Units=GPa)
#
#
# Indices 1 2 3 4 5 6 
#
# 1 175.7974 21.8880 -5.9722 0.0000 0.7052 0.0000
# 2 21.8880 39.8646 1.7757 0.0000 9.8833 0.0000
# 3 -5.9722 1.7757 71.7510 0.0000 12.1313 0.0000
# 4 0.0000 0.0000 0.0000 2.1963 0.0000 30.2533
# 5 0.7052 9.8833 12.1313 0.0000 34.9123 0.0000
# 6 0.0000 0.0000 0.0000 30.2533 0.0000 -24.9465
#
#
#
# Elastic Compliance Matrix: (Units=1/GPa)
#
#
# Indices 1 2 3 4 5 6 
#
# 1 0.006147 -0.003575 0.000478 0.000000 0.000722 0.000000
# 2 -0.003575 0.029088 0.000385 0.000000 -0.008296 0.000000
# 3 0.000478 0.000385 0.014860 0.000000 -0.005282 0.000000
# 4 0.000000 0.000000 0.000000 0.025717 0.000000 0.031187
# 5 0.000722 -0.008296 -0.005282 0.000000 0.032813 0.000000
# 6 0.000000 0.000000 0.000000 0.031187 0.000000 -0.002264
#
#
# Mechanical properties :
#
#
# Convention : Reuss Voigt Hill
#
# Bulk Modulus (GPa) = 22.38594 35.86624 29.12609
# Shear Modulus (GPa) = 39.47131 20.41385 29.94258
#
# Velocity S-wave (km/s) = 4.35964 3.13525 3.79712
# Velocity P-wave (km/s) = 6.01011 5.51153 5.76621
#
# Compressibility (1/GPa) = 0.04467090
#
# Stress axis : x y z
#
# Youngs Moduli (GPa) = 162.68481 34.37898 67.29263
#
# Poissons Ratio (x) = 0.12291 -0.03217
# Poissons Ratio (y) = 0.58164 -0.02592
# Poissons Ratio (z) = -0.07777 -0.01324
#
# Static dielectric constant tensor:
#      x y z
#    x 1.797280 0.000000 -0.006310 
#    y 0.000000 1.733700 0.000000 
#    z -0.006310 0.000000 1.771120 
# 
# From -- ./inp_files/4142.got.cif
#   From: 2010.05.17/outbox.cif.g08.bks.cpg/sg14_3_cif.got.tgz:4142.got - 2010.06.03 17:49:19.
