data_PCOD9245690
_publ_section_title
;
Structure prediction by ZEFSAII (Michael W. Deem and Ramdas Pophale) SiO2 
 PCOD9245690
Probable space group: P 21/C
;
_chemical_formula_sum "Si O2"
_cell_formula_units_Z 30
_cell_length_a 6.924173
_cell_length_b 24.029870
_cell_length_c 8.668106
_cell_angle_alpha 90.000000
_cell_angle_beta 51.219373
_cell_angle_gamma 90.000000
_cell_volume 1124.313443
_symmetry_space_group_name_H-M "P 21/C"
_symmetry_group_IT_number 14
_symmetry_cell_setting 'monoclinic'
loop_
_space_group_symop_operation_xyz
x,y,z
-x,1/2+y,1/2-z
-x,-y,-z
x,1/2-y,1/2+z
loop_
_atom_site_type_symbol
_atom_site_label
_atom_site_fract_x
_atom_site_fract_y
_atom_site_fract_z
Si Si1 0.543508 0.530902 0.764090
Si Si2 0.833203 0.589887 0.875911
Si Si3 0.446545 0.815459 0.628879
Si Si4 0.004596 0.821683 0.090501
Si Si5 0.360701 0.265538 0.680628
Si Si6 0.995029 0.947437 0.634547
Si Si7 0.698118 0.627729 0.483747
Si Si8 0.500000 0.500000 0.500000
O O1 0.542122 0.571286 0.605641
O O2 0.579017 0.476939 0.642202
O O3 0.754362 0.547810 0.777467
O O4 0.283821 0.538186 0.978705
O O5 0.583453 0.627059 0.026270
O O6 0.912381 0.569343 0.003784
O O7 0.036797 0.632930 0.707592
O O8 0.631222 0.779262 0.643943
O O9 0.435092 0.778540 0.480663
O O10 0.213950 0.817719 0.857910
O O11 0.902748 0.764512 0.211898
O O12 0.772176 0.846246 0.108652
O O13 0.404034 0.323477 0.570612
O O14 0.938628 0.895587 0.774534
O O15 0.800558 0.992448 0.796771
#
# Coordination Sequence:
#
# PCOD9245690 Si02
#       8
#     4   4   4   4   4   4   4   2
#     4  10  23  43  64  88 124 156 192 249 307 355
#     4  10  23  41  62  95 118 156 214 243 283 376
#     4  11  23  37  56  83 123 161 205 249 300 338
#     4  10  23  38  55  82 123 163 203 253 298 337
#     4  11  22  36  52  84 117 155 208 250 284 352
#     4  11  22  41  69  88 120 158 192 244 312 356
#     4  10  21  39  55  84 118 152 204 250 285 359
#     4  10  24  44  64  98 124 146 196 244 300 388
#
# _framework density 26.682950000000002
#
# number of rings (size 3 to 8) (size 9 to 14) (size 15 to 20)
#    0.000    1.600    2.667    1.200    3.733    1.600 
#    0.000    1.333    0.000    0.000    0.000    0.000 
#    0.000    0.000    0.000    0.000    0.000    0.000 
#
# Total GULP energy -167313.767087 kJ/mol
# GULP energy per Si atom -5577.125570 kJ/mol
# Density = 2.662222 g / cm^3
# Si number density = 26.682950 Si / 1000 Ang^3
#
#
#
# Elastic Constant Matrix: (Units=GPa)
#
#
# Indices 1 2 3 4 5 6 
#
# 1 62.6409 12.7701 25.2433 0.0000 10.0704 0.0000
# 2 12.7701 66.3168 41.4161 0.0000 6.5963 0.0000
# 3 25.2433 41.4161 200.6601 0.0000 -4.9564 0.0000
# 4 0.0000 0.0000 0.0000 62.4480 0.0000 19.1698
# 5 10.0704 6.5963 -4.9564 0.0000 46.6466 0.0000
# 6 0.0000 0.0000 0.0000 19.1698 0.0000 11.8029
#
#
#
# Elastic Compliance Matrix: (Units=1/GPa)
#
#
# Indices 1 2 3 4 5 6 
#
# 1 0.017727 -0.001822 -0.001947 0.000000 -0.003776 0.000000
# 2 -0.001822 0.017880 -0.003523 0.000000 -0.002509 0.000000
# 3 -0.001947 -0.003523 0.005994 0.000000 0.001556 0.000000
# 4 0.000000 0.000000 0.000000 0.031935 0.000000 -0.051868
# 5 -0.003776 -0.002509 0.001556 0.000000 0.022773 0.000000
# 6 0.000000 0.000000 0.000000 -0.051868 0.000000 0.168967
#
#
# Mechanical properties :
#
#
# Convention : Reuss Voigt Hill
#
# Bulk Modulus (GPa) = 37.01440 54.27522 45.64481
# Shear Modulus (GPa) = 17.30900 40.85872 29.08386
#
# Velocity S-wave (km/s) = 2.54971 3.91739 3.30507
# Velocity P-wave (km/s) = 4.75079 6.39110 5.63099
#
# Compressibility (1/GPa) = 0.02701651
#
# Stress axis : x y z
#
# Youngs Moduli (GPa) = 56.41021 55.92888 166.82956
#
# Poissons Ratio (x) = 0.10189 0.32488
# Poissons Ratio (y) = 0.10277 0.58777
# Poissons Ratio (z) = 0.10985 0.19705
#
# Static dielectric constant tensor:
#      x y z
#    x 2.349910 0.000000 0.307860 
#    y 0.000000 0.531890 0.000000 
#    z 0.307860 0.000000 2.629750 
# 
# From -- ./inp_files/6927.got.cif
#   From: 2010.05.17/outbox.cif.g08.bks.cpg/sg14_4_cif.got.tgz:6927.got - 2010.06.03 17:49:19.
