data_PCOD9245107
_publ_section_title
;
Structure prediction by ZEFSAII (Michael W. Deem and Ramdas Pophale) SiO2 
 PCOD9245107
Probable space group: P 21/C
;
_chemical_formula_sum "Si O2"
_cell_formula_units_Z 24
_cell_length_a 28.531861
_cell_length_b 7.543022
_cell_length_c 13.930449
_cell_angle_alpha 90.000000
_cell_angle_beta 20.373421
_cell_angle_gamma 90.000000
_cell_volume 1043.736898
_symmetry_space_group_name_H-M "P 21/C"
_symmetry_group_IT_number 14
_symmetry_cell_setting 'monoclinic'
loop_
_space_group_symop_operation_xyz
x,y,z
-x,1/2+y,1/2-z
-x,-y,-z
x,1/2-y,1/2+z
loop_
_atom_site_type_symbol
_atom_site_label
_atom_site_fract_x
_atom_site_fract_y
_atom_site_fract_z
Si Si1 0.379368 0.872680 0.120098
Si Si2 0.893964 0.985050 0.420129
Si Si3 0.586003 0.144146 0.277563
Si Si4 0.131934 0.485144 0.810749
Si Si5 0.547941 0.476733 0.142716
Si Si6 0.169187 0.145545 0.851036
O O1 0.421441 0.696306 0.979443
O O2 0.450850 0.026886 0.921623
O O3 0.220928 0.912500 0.416893
O O4 0.419895 0.825026 0.150621
O O5 0.892377 0.054155 0.533897
O O6 0.854771 0.780176 0.512938
O O7 0.040638 0.017991 0.095529
O O8 0.529209 0.112245 0.280602
O O9 0.500000 0.000000 0.500000
O O10 0.741811 0.085256 0.976333
O O11 0.170030 0.279014 0.758646
O O12 0.000000 0.500000 0.000000
O O13 0.690765 0.548899 0.904455
#
# Coordination Sequence:
#
# PCOD9245107 Si02
#       6
#     4   4   4   4   4   4
#     4  11  21  39  64  84 122 155 201 248 299 355
#     4  10  21  38  60  88 117 155 202 246 303 347
#     4  10  21  36  63  90 115 164 203 237 293 375
#     4  10  21  38  63  88 117 158 215 239 284 380
#     4  11  21  39  60  91 121 156 203 247 298 362
#     4  10  21  36  61  86 118 156 198 247 304 348
#
# _framework density 22.994301
#
# number of rings (size 3 to 8) (size 9 to 14) (size 15 to 20)
#    1.000    0.667    1.667    5.000    4.667    0.000 
#    0.000    3.333    0.000    3.000    0.000    0.000 
#    0.000    0.000    0.000    0.000    0.000    0.000 
#
# Total GULP energy -133989.326543 kJ/mol
# GULP energy per Si atom -5582.888606 kJ/mol
# Density = 2.294197 g / cm^3
# Si number density = 22.994301 Si / 1000 Ang^3
#
#
#
# Elastic Constant Matrix: (Units=GPa)
#
#
# Indices 1 2 3 4 5 6 
#
# 1 92.5260 -10.1107 16.7089 0.0000 -16.8040 0.0000
# 2 -10.1107 28.7923 -3.8685 0.0000 -12.5715 0.0000
# 3 16.7089 -3.8685 129.7771 0.0000 -23.9834 0.0000
# 4 0.0000 0.0000 0.0000 17.0018 0.0000 0.9287
# 5 -16.8040 -12.5715 -23.9834 0.0000 33.2421 0.0000
# 6 0.0000 0.0000 0.0000 0.9287 0.0000 27.9223
#
#
#
# Elastic Compliance Matrix: (Units=1/GPa)
#
#
# Indices 1 2 3 4 5 6 
#
# 1 0.013778 0.009738 0.000559 0.000000 0.011051 0.000000
# 2 0.009738 0.051230 0.005496 0.000000 0.028262 0.000000
# 3 0.000559 0.005496 0.009500 0.000000 0.009215 0.000000
# 4 0.000000 0.000000 0.000000 0.058924 0.000000 -0.001960
# 5 0.011051 0.028262 0.009215 0.000000 0.053005 0.000000
# 6 0.000000 0.000000 0.000000 -0.001960 0.000000 0.035879
#
#
# Mechanical properties :
#
#
# Convention : Reuss Voigt Hill
#
# Bulk Modulus (GPa) = 9.42554 28.50610 18.96582
# Shear Modulus (GPa) = 22.11456 32.19096 27.15276
#
# Velocity S-wave (km/s) = 3.10456 3.74565 3.44007
# Velocity P-wave (km/s) = 4.11813 5.57947 4.90355
#
# Compressibility (1/GPa) = 0.10609477
#
# Stress axis : x y z
#
# Youngs Moduli (GPa) = 72.57939 19.51989 105.25788
#
# Poissons Ratio (x) = -0.19009 -0.05880
# Poissons Ratio (y) = -0.70681 -0.57853
# Poissons Ratio (z) = -0.04054 -0.10729
#
# Static dielectric constant tensor:
#      x y z
#    x 1.853490 0.000000 0.025040 
#    y 0.000000 1.873030 0.000000 
#    z 0.025040 0.000000 1.796810 
# 
# From -- ./inp_files/52220.got.cif
#   From: 2010.05.17/outbox.cif.g08.bks.cpg/sg14_27_cif.got.tgz:52220.got - 2010.06.03 17:49:19.
