data_PCOD9245896
_publ_section_title
;
Structure prediction by ZEFSAII (Michael W. Deem and Ramdas Pophale) SiO2 
 PCOD9245896
Probable space group: P 21/C
;
_chemical_formula_sum "Si O2"
_cell_formula_units_Z 32
_cell_length_a 7.021901
_cell_length_b 11.900406
_cell_length_c 17.991583
_cell_angle_alpha 90.000000
_cell_angle_beta 123.637705
_cell_angle_gamma 90.000000
_cell_volume 1251.698623
_symmetry_space_group_name_H-M "P 21/C"
_symmetry_group_IT_number 14
_symmetry_cell_setting 'monoclinic'
loop_
_space_group_symop_operation_xyz
x,y,z
-x,1/2+y,1/2-z
-x,-y,-z
x,1/2-y,1/2+z
loop_
_atom_site_type_symbol
_atom_site_label
_atom_site_fract_x
_atom_site_fract_y
_atom_site_fract_z
Si Si1 0.828647 0.122658 0.750027
Si Si2 0.522053 0.725537 0.936747
Si Si3 0.127387 0.693942 0.459840
Si Si4 0.865203 0.963047 0.546011
Si Si5 0.882273 0.638749 0.818575
Si Si6 0.789847 0.213660 0.362192
Si Si7 0.327899 0.465239 0.531979
Si Si8 0.462855 0.469056 0.736007
O O1 0.638439 0.200070 0.668475
O O2 0.064709 0.140468 0.757323
O O3 0.833086 0.169903 0.833171
O O4 0.736209 0.999112 0.747622
O O5 0.343315 0.775902 0.955799
O O6 0.705198 0.828958 0.975183
O O7 0.638356 0.605310 0.978835
O O8 0.909108 0.745094 0.368873
O O9 0.182234 0.764543 0.545356
O O10 0.134091 0.560894 0.476836
O O11 0.012865 0.870277 0.620429
O O12 0.891097 0.069838 0.603917
O O13 0.000000 0.000000 0.500000
O O14 0.661589 0.565445 0.790189
O O15 0.565256 0.148522 0.287268
O O16 0.500000 0.500000 0.500000
O O17 0.418495 0.476735 0.637427
#
# Coordination Sequence:
#
# PCOD9245896 Si02
#       8
#     4   4   4   4   4   4   4   4
#     4  11  23  39  64  95 130 169 222 271 323 397
#     4  10  22  39  65  94 127 174 220 268 334 397
#     4  10  21  39  64  95 127 172 219 270 328 401
#     4  11  22  41  68  94 126 169 217 280 330 386
#     4  10  24  41  67  98 131 170 221 276 330 385
#     4  11  22  39  63  92 132 164 215 272 329 380
#     4  10  21  41  68  90 131 182 215 262 337 399
#     4  11  23  42  67  94 132 172 213 279 329 383
#
# _framework density 25.565261
#
# number of rings (size 3 to 8) (size 9 to 14) (size 15 to 20)
#    0.000    1.500    3.750    1.500    1.750    3.000 
#    0.000    0.625    8.250    0.000    0.000    0.000 
#    0.000    0.000    0.000    0.000    0.000    0.000 
#
# Total GULP energy -178614.834033 kJ/mol
# GULP energy per Si atom -5581.713564 kJ/mol
# Density = 2.550707 g / cm^3
# Si number density = 25.565261 Si / 1000 Ang^3
#
#
#
# Elastic Constant Matrix: (Units=GPa)
#
#
# Indices 1 2 3 4 5 6 
#
# 1 53.9918 16.9226 30.4844 0.0000 -10.0959 0.0000
# 2 16.9226 87.8195 4.0095 0.0000 -2.4166 0.0000
# 3 30.4844 4.0095 83.4859 0.0000 -13.7484 0.0000
# 4 0.0000 0.0000 0.0000 38.4773 0.0000 1.0462
# 5 -10.0959 -2.4166 -13.7484 0.0000 40.8173 0.0000
# 6 0.0000 0.0000 0.0000 1.0462 0.0000 35.1933
#
#
#
# Elastic Compliance Matrix: (Units=1/GPa)
#
#
# Indices 1 2 3 4 5 6 
#
# 1 0.025288 -0.004398 -0.008507 0.000000 0.003129 0.000000
# 2 -0.004398 0.012187 0.001017 0.000000 -0.000024 0.000000
# 3 -0.008507 0.001017 0.015562 0.000000 0.003198 0.000000
# 4 0.000000 0.000000 0.000000 0.026010 0.000000 -0.000773
# 5 0.003129 -0.000024 0.003198 0.000000 0.026349 0.000000
# 6 0.000000 0.000000 0.000000 -0.000773 0.000000 0.028437
#
#
# Mechanical properties :
#
#
# Convention : Reuss Voigt Hill
#
# Bulk Modulus (GPa) = 34.17627 36.45890 35.31758
# Shear Modulus (GPa) = 29.87455 34.48962 32.18208
#
# Velocity S-wave (km/s) = 3.42213 3.67697 3.55184
# Velocity P-wave (km/s) = 5.38627 5.68497 5.53763
#
# Compressibility (1/GPa) = 0.02926007
#
# Stress axis : x y z
#
# Youngs Moduli (GPa) = 39.54378 82.05141 64.25796
#
# Poissons Ratio (x) = 0.36090 0.54667
# Poissons Ratio (y) = 0.17393 -0.06534
# Poissons Ratio (z) = 0.33641 -0.08343
#
# Static dielectric constant tensor:
#      x y z
#    x 2.197290 0.000000 0.023430 
#    y 0.000000 2.195920 0.000000 
#    z 0.023430 0.000000 2.054200 
# 
# From -- ./inp_files/55603.got.cif
#   From: 2010.05.17/outbox.cif.g08.bks.cpg/sg14_28_cif.got.tgz:55603.got - 2010.06.03 17:49:19.
