data_PCOD9245369
_publ_section_title
;
Structure prediction by ZEFSAII (Michael W. Deem and Ramdas Pophale) SiO2 
 PCOD9245369
Probable space group: P 21/C
;
_chemical_formula_sum "Si O2"
_cell_formula_units_Z 32
_cell_length_a 5.468443
_cell_length_b 8.466425
_cell_length_c 33.565277
_cell_angle_alpha 90.000000
_cell_angle_beta 114.469881
_cell_angle_gamma 90.000000
_cell_volume 1414.428076
_symmetry_space_group_name_H-M "P 21/C"
_symmetry_group_IT_number 14
_symmetry_cell_setting 'monoclinic'
loop_
_space_group_symop_operation_xyz
x,y,z
-x,1/2+y,1/2-z
-x,-y,-z
x,1/2-y,1/2+z
loop_
_atom_site_type_symbol
_atom_site_label
_atom_site_fract_x
_atom_site_fract_y
_atom_site_fract_z
Si Si1 0.609392 0.649180 0.532572
Si Si2 0.599019 0.572895 0.342640
Si Si3 0.893968 0.199649 0.707640
Si Si4 0.298479 0.135672 0.875035
Si Si5 0.834503 0.014291 0.784702
Si Si6 0.698557 0.490406 0.124464
Si Si7 0.891456 0.668669 0.904435
Si Si8 0.974591 0.308479 0.500414
O O1 0.500000 0.500000 0.500000
O O2 0.747711 0.590590 0.582284
O O3 0.335756 0.736209 0.527406
O O4 0.814882 0.745394 0.519036
O O5 0.353079 0.692058 0.322622
O O6 0.561059 0.452572 0.376231
O O7 0.594739 0.482348 0.300277
O O8 0.844193 0.689121 0.369348
O O9 0.833523 0.119133 0.745598
O O10 0.894230 0.066424 0.673831
O O11 0.130302 0.329182 0.724456
O O12 0.316575 0.322378 0.875080
O O13 0.071404 0.077096 0.829427
O O14 0.394706 0.423261 0.109905
O O15 0.857168 0.430228 0.095823
O O16 0.949766 0.744783 0.951195
O O17 0.000000 0.500000 0.500000
#
# Coordination Sequence:
#
# PCOD9245369 Si02
#       8
#     4   4   4   4   4   4   4   4
#     4  10  22  38  64  99 133 173 228 291 335 407
#     4  10  23  41  68  98 130 184 230 289 336 431
#     4  10  23  42  62 101 130 178 228 281 352 404
#     4  11  26  42  67 102 134 183 239 283 358 413
#     4  11  23  42  70  93 140 177 235 284 345 424
#     4  11  25  45  67  99 143 184 223 295 347 428
#     4  11  23  45  71  97 140 183 234 280 359 409
#     4  10  21  37  67  97 127 175 226 288 330 408
#
# _framework density 22.623982999999999
#
# number of rings (size 3 to 8) (size 9 to 14) (size 15 to 20)
#    0.000    1.500    1.250    3.000    7.000    3.000 
#    2.250    3.750    0.000    0.000    0.000    0.000 
#    0.000    0.000    0.000    0.000    0.000    0.000 
#
# Total GULP energy -178644.009530 kJ/mol
# GULP energy per Si atom -5582.625298 kJ/mol
# Density = 2.257249 g / cm^3
# Si number density = 22.623983 Si / 1000 Ang^3
#
#
#
# Elastic Constant Matrix: (Units=GPa)
#
#
# Indices 1 2 3 4 5 6 
#
# 1 109.0871 22.8881 7.3540 0.0000 -22.8342 0.0000
# 2 22.8881 106.7653 53.5107 0.0000 -6.5007 0.0000
# 3 7.3540 53.5107 101.0879 0.0000 -38.9817 0.0000
# 4 0.0000 0.0000 0.0000 29.0730 0.0000 -16.0461
# 5 -22.8342 -6.5007 -38.9817 0.0000 25.7837 0.0000
# 6 0.0000 0.0000 0.0000 -16.0461 0.0000 9.3674
#
#
#
# Elastic Compliance Matrix: (Units=1/GPa)
#
#
# Indices 1 2 3 4 5 6 
#
# 1 0.026959 -0.020396 0.038512 0.000000 0.076958 0.000000
# 2 -0.020396 0.032136 -0.046448 0.000000 -0.080184 0.000000
# 3 0.038512 -0.046448 0.096680 0.000000 0.168563 0.000000
# 4 0.000000 0.000000 0.000000 0.630323 0.000000 1.079722
# 5 0.076958 -0.080184 0.168563 0.000000 0.341569 0.000000
# 6 0.000000 0.000000 0.000000 1.079722 0.000000 1.956281
#
#
# Mechanical properties :
#
#
# Convention : Reuss Voigt Hill
#
# Bulk Modulus (GPa) = 10.08975 53.82731 31.95853
# Shear Modulus (GPa) = 1.57547 28.39065 14.98306
#
# Velocity S-wave (km/s) = 0.83540 3.54629 2.57624
# Velocity P-wave (km/s) = 2.32378 6.37276 4.79646
#
# Compressibility (1/GPa) = 0.09911050
#
# Stress axis : x y z
#
# Youngs Moduli (GPa) = 37.09345 31.11740 10.34342
#
# Poissons Ratio (x) = 0.63466 -0.39834
# Poissons Ratio (y) = 0.75655 0.48044
# Poissons Ratio (z) = -1.42854 1.44535
#
# Static dielectric constant tensor:
#      x y z
#    x 2.043330 0.000000 0.001610 
#    y 0.000000 1.801440 0.000000 
#    z 0.001610 0.000000 1.827610 
# 
# From -- ./inp_files/78848.got.cif
#   From: 2010.05.17/outbox.cif.g08.bks.cpg/sg14_40_cif.got.tgz:78848.got - 2010.06.03 17:49:19.
