data_PCOD9245605
_publ_section_title
;
Structure prediction by ZEFSAII (Michael W. Deem and Ramdas Pophale) SiO2 
 PCOD9245605
Probable space group: P 21/C
;
_chemical_formula_sum "Si O2"
_cell_formula_units_Z 24
_cell_length_a 7.733275
_cell_length_b 9.185653
_cell_length_c 13.797026
_cell_angle_alpha 90.000000
_cell_angle_beta 77.726379
_cell_angle_gamma 90.000000
_cell_volume 957.673217
_symmetry_space_group_name_H-M "P 21/C"
_symmetry_group_IT_number 14
_symmetry_cell_setting 'monoclinic'
loop_
_space_group_symop_operation_xyz
x,y,z
-x,1/2+y,1/2-z
-x,-y,-z
x,1/2-y,1/2+z
loop_
_atom_site_type_symbol
_atom_site_label
_atom_site_fract_x
_atom_site_fract_y
_atom_site_fract_z
Si Si1 0.667120 0.995700 0.337841
Si Si2 0.343856 0.154673 0.960757
Si Si3 0.728443 0.387854 0.642297
Si Si4 0.646216 0.355560 0.016979
Si Si5 0.110996 0.488609 0.655483
Si Si6 0.884093 0.754130 0.190613
O O1 0.657276 0.122131 0.259232
O O2 0.753952 0.050340 0.427190
O O3 0.475116 0.950875 0.397703
O O4 0.765016 0.859339 0.276281
O O5 0.209292 0.240094 0.903882
O O6 0.392930 0.011559 0.892429
O O7 0.505705 0.253824 0.975170
O O8 0.250848 0.081953 0.065590
O O9 0.748630 0.248671 0.575164
O O10 0.924637 0.448273 0.628159
O O11 0.115957 0.402001 0.756661
O O12 0.075965 0.662465 0.668056
#
# Coordination Sequence:
#
# PCOD9245605 Si02
#       6
#     4   4   4   4   4   4
#     4   9  22  38  59  84 126 152 195 255 294 364
#     4  10  21  38  65  85 118 159 198 247 308 360
#     4  10  23  38  61  89 119 157 205 246 302 365
#     4  11  21  40  60  89 120 155 199 253 305 356
#     4  10  21  41  61  86 123 159 202 256 299 362
#     4  10  21  41  60  92 120 165 204 254 300 361
#
# _framework density 25.060739000000002
#
# number of rings (size 3 to 8) (size 9 to 14) (size 15 to 20)
#    0.000    2.333    1.667    2.500    4.667    5.333 
#    9.000    1.667    0.000    0.000    0.000    0.000 
#    0.000    0.000    0.000    0.000    0.000    0.000 
#
# Total GULP energy -134067.906531 kJ/mol
# GULP energy per Si atom -5586.162772 kJ/mol
# Density = 2.500370 g / cm^3
# Si number density = 25.060739 Si / 1000 Ang^3
#
#
#
# Elastic Constant Matrix: (Units=GPa)
#
#
# Indices 1 2 3 4 5 6 
#
# 1 49.7274 8.4030 29.6696 0.0000 2.4285 0.0000
# 2 8.4030 22.0275 7.8528 0.0000 7.2536 0.0000
# 3 29.6696 7.8528 101.7418 0.0000 -15.7833 0.0000
# 4 0.0000 0.0000 0.0000 53.6341 0.0000 7.2577
# 5 2.4285 7.2536 -15.7833 0.0000 30.8058 0.0000
# 6 0.0000 0.0000 0.0000 7.2577 0.0000 26.2277
#
#
#
# Elastic Compliance Matrix: (Units=1/GPa)
#
#
# Indices 1 2 3 4 5 6 
#
# 1 0.025988 -0.005520 -0.007896 0.000000 -0.004795 0.000000
# 2 -0.005520 0.054109 -0.004862 0.000000 -0.014797 0.000000
# 3 -0.007896 -0.004862 0.013884 0.000000 0.008881 0.000000
# 4 0.000000 0.000000 0.000000 0.019370 0.000000 -0.005360
# 5 -0.004795 -0.014797 0.008881 0.000000 0.040874 0.000000
# 6 0.000000 0.000000 0.000000 -0.005360 0.000000 0.039611
#
#
# Mechanical properties :
#
#
# Convention : Reuss Voigt Hill
#
# Bulk Modulus (GPa) = 17.41395 29.48304 23.44849
# Shear Modulus (GPa) = 20.03732 30.63828 25.33780
#
# Velocity S-wave (km/s) = 2.83070 3.50031 3.18316
# Velocity P-wave (km/s) = 4.20090 5.30343 4.78403
#
# Compressibility (1/GPa) = 0.05742523
#
# Stress axis : x y z
#
# Youngs Moduli (GPa) = 38.47966 18.48109 72.02300
#
# Poissons Ratio (x) = 0.10201 0.56871
# Poissons Ratio (y) = 0.21240 0.35018
# Poissons Ratio (z) = 0.30384 0.08986
#
# Static dielectric constant tensor:
#      x y z
#    x 2.015230 0.000000 0.000540 
#    y 0.000000 2.141440 0.000000 
#    z 0.000540 0.000000 2.038980 
# 
# From -- ./inp_files/24170.got.cif
#   From: 2010.05.17/outbox.cif.g08.bks.cpg/sg14_13_cif.got.tgz:24170.got - 2010.06.03 17:49:19.
