data_PCOD9245285
_publ_section_title
;
Structure prediction by ZEFSAII (Michael W. Deem and Ramdas Pophale) SiO2 
 PCOD9245285
Probable space group: P 21/C
;
_chemical_formula_sum "Si O2"
_cell_formula_units_Z 24
_cell_length_a 17.059324
_cell_length_b 11.744391
_cell_length_c 5.005935
_cell_angle_alpha 90.000000
_cell_angle_beta 105.164640
_cell_angle_gamma 90.000000
_cell_volume 968.021479
_symmetry_space_group_name_H-M "P 21/C"
_symmetry_group_IT_number 14
_symmetry_cell_setting 'monoclinic'
loop_
_space_group_symop_operation_xyz
x,y,z
-x,1/2+y,1/2-z
-x,-y,-z
x,1/2-y,1/2+z
loop_
_atom_site_type_symbol
_atom_site_label
_atom_site_fract_x
_atom_site_fract_y
_atom_site_fract_z
Si Si1 0.502797 0.326172 0.167835
Si Si2 0.676431 0.666961 0.896299
Si Si3 0.797036 0.493948 0.271532
Si Si4 0.675968 0.327836 0.447410
Si Si5 0.114439 0.311472 0.315810
Si Si6 0.964300 0.067694 0.718441
O O1 0.503918 0.214438 0.362645
O O2 0.587694 0.384931 0.315102
O O3 0.415963 0.378965 0.156544
O O4 0.686104 0.771412 0.118798
O O5 0.735061 0.564714 0.032076
O O6 0.747006 0.408862 0.413337
O O7 0.842534 0.582102 0.510332
O O8 0.868019 0.431337 0.165648
O O9 0.679799 0.281599 0.751324
O O10 0.137123 0.207788 0.531049
O O11 0.016965 0.318484 0.254401
O O12 0.000000 0.000000 0.500000
O O13 0.000000 0.000000 0.000000
#
# Coordination Sequence:
#
# PCOD9245285 Si02
#       6
#     4   4   4   4   4   4
#     4   8  16  35  57  82 121 163 201 242 294 359
#     4  10  21  37  61  93 127 160 197 248 307 363
#     4  11  24  40  65  94 123 156 206 258 305 363
#     4  10  23  40  60  87 123 166 209 253 298 353
#     4  11  23  41  64  90 121 157 196 246 309 368
#     4  10  23  41  59  83 118 159 198 242 297 363
#
# _framework density 24.792836999999999
#
# number of rings (size 3 to 8) (size 9 to 14) (size 15 to 20)
#    0.000    2.000    0.000    3.000    0.000   10.000 
#    0.000    0.000    0.000   12.000    0.000    0.000 
#    0.000    0.000    0.000    0.000    0.000    0.000 
#
# Total GULP energy -134280.374156 kJ/mol
# GULP energy per Si atom -5595.015590 kJ/mol
# Density = 2.473641 g / cm^3
# Si number density = 24.792837 Si / 1000 Ang^3
#
#
#
# Elastic Constant Matrix: (Units=GPa)
#
#
# Indices 1 2 3 4 5 6 
#
# 1 180.4988 28.7895 17.9482 0.0000 18.3454 0.0000
# 2 28.7895 34.8702 9.3484 0.0000 6.8830 0.0000
# 3 17.9482 9.3484 102.0897 0.0000 -25.0222 0.0000
# 4 0.0000 0.0000 0.0000 17.4152 0.0000 -5.8025
# 5 18.3454 6.8830 -25.0222 0.0000 41.1641 0.0000
# 6 0.0000 0.0000 0.0000 -5.8025 0.0000 31.6506
#
#
#
# Elastic Compliance Matrix: (Units=1/GPa)
#
#
# Indices 1 2 3 4 5 6 
#
# 1 0.006740 -0.004518 -0.001554 0.000000 -0.003193 0.000000
# 2 -0.004518 0.034662 -0.003886 0.000000 -0.006144 0.000000
# 3 -0.001554 -0.003886 0.012636 0.000000 0.009023 0.000000
# 4 0.000000 0.000000 0.000000 0.061157 0.000000 0.011212
# 5 -0.003193 -0.006144 0.009023 0.000000 0.032228 0.000000
# 6 0.000000 0.000000 0.000000 0.011212 0.000000 0.033650
#
#
# Mechanical properties :
#
#
# Convention : Reuss Voigt Hill
#
# Bulk Modulus (GPa) = 29.30541 47.73676 38.52108
# Shear Modulus (GPa) = 23.54464 35.47080 29.50772
#
# Velocity S-wave (km/s) = 3.08499 3.78655 3.45363
# Velocity P-wave (km/s) = 4.95331 6.19785 5.61020
#
# Compressibility (1/GPa) = 0.03412339
#
# Stress axis : x y z
#
# Youngs Moduli (GPa) = 148.37266 28.84975 79.13985
#
# Poissons Ratio (x) = 0.13034 0.12297
# Poissons Ratio (y) = 0.67031 0.30752
# Poissons Ratio (z) = 0.23054 0.11210
#
# Static dielectric constant tensor:
#      x y z
#    x 2.039500 0.000000 0.052420 
#    y 0.000000 1.980210 0.000000 
#    z 0.052420 0.000000 1.961570 
# 
# From -- ./inp_files/4070.got.cif
#   From: 2010.05.17/outbox.cif.g08.bks.cpg/sg14_3_cif.got.tgz:4070.got - 2010.06.03 17:49:19.
