data_PCOD9245314
_publ_section_title
;
Structure prediction by ZEFSAII (Michael W. Deem and Ramdas Pophale) SiO2 
 PCOD9245314
Probable space group: P 21/C
;
_chemical_formula_sum "Si O2"
_cell_formula_units_Z 24
_cell_length_a 18.279153
_cell_length_b 7.654909
_cell_length_c 19.298616
_cell_angle_alpha 90.000000
_cell_angle_beta 26.035335
_cell_angle_gamma 90.000000
_cell_volume 1185.258121
_symmetry_space_group_name_H-M "P 21/C"
_symmetry_group_IT_number 14
_symmetry_cell_setting 'monoclinic'
loop_
_space_group_symop_operation_xyz
x,y,z
-x,1/2+y,1/2-z
-x,-y,-z
x,1/2-y,1/2+z
loop_
_atom_site_type_symbol
_atom_site_label
_atom_site_fract_x
_atom_site_fract_y
_atom_site_fract_z
Si Si1 0.648311 0.044571 0.540989
Si Si2 0.313675 0.264064 0.277017
Si Si3 0.349440 0.109494 0.596364
Si Si4 0.543612 0.969631 0.041773
Si Si5 0.172141 0.247495 0.536895
Si Si6 0.174458 0.884759 0.110386
O O1 0.460062 0.105926 0.681894
O O2 0.741753 0.212405 0.493186
O O3 0.736032 0.006029 0.390681
O O4 0.676744 0.878449 0.566097
O O5 0.266669 0.315390 0.237447
O O6 0.169897 0.260033 0.455957
O O7 0.398373 0.071618 0.204931
O O8 0.423988 0.264581 0.485114
O O9 0.500000 0.000000 0.500000
O O10 0.500000 0.000000 0.000000
O O11 0.711803 0.066437 0.920429
O O12 0.186698 0.443185 0.553428
O O13 0.010262 0.159822 0.708383
#
# Coordination Sequence:
#
# PCOD9245314 Si02
#       6
#     4   4   4   4   4   4
#     4  10  21  37  63  83 121 165 207 252 314 370
#     4   9  22  36  61  94 118 155 219 264 299 360
#     4   9  17  37  60  88 121 159 201 261 310 356
#     4   9  18  38  64  87 117 158 211 251 307 366
#     4  12  23  40  60  91 130 161 210 252 320 376
#     4  11  23  40  61  86 127 173 197 250 322 378
#
# _framework density 20.248752
#
# number of rings (size 3 to 8) (size 9 to 14) (size 15 to 20)
#    0.000    2.000    3.333    1.000    4.667    0.000 
#    3.000    4.167    0.000    0.000    0.000    0.000 
#    0.000    0.000    0.000    0.000    0.000    0.000 
#
# Total GULP energy -133605.235378 kJ/mol
# GULP energy per Si atom -5566.884807 kJ/mol
# Density = 2.020267 g / cm^3
# Si number density = 20.248752 Si / 1000 Ang^3
#
#
#
# Elastic Constant Matrix: (Units=GPa)
#
#
# Indices 1 2 3 4 5 6 
#
# 1 53.3482 13.9946 7.6077 0.0000 21.7021 0.0000
# 2 13.9946 128.5078 16.1927 0.0000 14.6145 0.0000
# 3 7.6077 16.1927 36.0066 0.0000 20.0503 0.0000
# 4 0.0000 0.0000 0.0000 14.5578 0.0000 1.2639
# 5 21.7021 14.6145 20.0503 0.0000 27.6321 0.0000
# 6 0.0000 0.0000 0.0000 1.2639 0.0000 35.9831
#
#
#
# Elastic Compliance Matrix: (Units=1/GPa)
#
#
# Indices 1 2 3 4 5 6 
#
# 1 0.030270 -0.001176 0.011789 0.000000 -0.031706 0.000000
# 2 -0.001176 0.008426 -0.002641 0.000000 -0.001617 0.000000
# 3 0.011789 -0.002641 0.051763 0.000000 -0.045422 0.000000
# 4 0.000000 0.000000 0.000000 0.068902 0.000000 -0.002420
# 5 -0.031706 -0.001617 -0.045422 0.000000 0.094906 0.000000
# 6 0.000000 0.000000 0.000000 -0.002420 0.000000 0.027876
#
#
# Mechanical properties :
#
#
# Convention : Reuss Voigt Hill
#
# Bulk Modulus (GPa) = 9.39816 32.60586 21.00201
# Shear Modulus (GPa) = 16.57458 27.63911 22.10685
#
# Velocity S-wave (km/s) = 2.86413 3.69857 3.30777
# Velocity P-wave (km/s) = 3.94830 5.86318 4.99830
#
# Compressibility (1/GPa) = 0.10640383
#
# Stress axis : x y z
#
# Youngs Moduli (GPa) = 33.03565 118.67580 19.31891
#
# Poissons Ratio (x) = 0.13958 -0.22775
# Poissons Ratio (y) = 0.03885 0.05101
# Poissons Ratio (z) = -0.38945 0.31337
#
# Static dielectric constant tensor:
#      x y z
#    x 2.440630 0.000000 0.607040 
#    y 0.000000 1.883200 0.000000 
#    z 0.607040 0.000000 2.236810 
# 
# From -- ./inp_files/60119.got.cif
#   From: 2010.05.17/outbox.cif.g08.bks.cpg/sg14_31_cif.got.tgz:60119.got - 2010.06.03 17:49:19.
