data_PCOD9245867
_publ_section_title
;
Structure prediction by ZEFSAII (Michael W. Deem and Ramdas Pophale) SiO2 
 PCOD9245867
Probable space group: P 21/C
;
_chemical_formula_sum "Si O2"
_cell_formula_units_Z 26
_cell_length_a 9.699333
_cell_length_b 14.052283
_cell_length_c 7.905608
_cell_angle_alpha 90.000000
_cell_angle_beta 119.644096
_cell_angle_gamma 90.000000
_cell_volume 936.485465
_symmetry_space_group_name_H-M "P 21/C"
_symmetry_group_IT_number 14
_symmetry_cell_setting 'monoclinic'
loop_
_space_group_symop_operation_xyz
x,y,z
-x,1/2+y,1/2-z
-x,-y,-z
x,1/2-y,1/2+z
loop_
_atom_site_type_symbol
_atom_site_label
_atom_site_fract_x
_atom_site_fract_y
_atom_site_fract_z
Si Si1 0.500000 0.500000 0.500000
Si Si2 0.095421 0.723081 0.015398
Si Si3 0.842626 0.049697 0.221306
Si Si4 0.190606 0.472613 0.912678
Si Si5 0.259923 0.194251 0.658263
Si Si6 0.288585 0.852211 0.316662
Si Si7 0.466248 0.180063 0.095961
O O1 0.321330 0.527622 0.471249
O O2 0.459833 0.578666 0.322956
O O3 0.126570 0.658410 0.201427
O O4 0.154488 0.827747 0.096652
O O5 0.209087 0.680891 0.944104
O O6 0.911462 0.708764 0.864368
O O7 0.829739 0.995969 0.397002
O O8 0.008786 0.017109 0.240331
O O9 0.247529 0.365048 0.976939
O O10 0.303769 0.537032 0.866921
O O11 0.389074 0.149649 0.866283
O O12 0.332355 0.293747 0.645592
O O13 0.427013 0.774835 0.360793
#
# Coordination Sequence:
#
# PCOD9245867 Si02
#       7
#     2   4   4   4   4   4   4
#     4  12  22  38  60  92 126 168 206 254 300 398
#     4  10  21  39  64  89 124 161 217 246 308 372
#     4   9  18  36  60  88 114 173 205 245 291 395
#     4   9  20  38  64  84 127 166 212 239 323 369
#     4  11  24  42  64  95 125 168 206 263 308 382
#     4  11  22  40  63  94 123 168 205 263 306 377
#     4  12  26  40  66  95 129 161 211 262 320 356
#
# _framework density 27.763377999999999
#
# number of rings (size 3 to 8) (size 9 to 14) (size 15 to 20)
#    0.000    1.538    3.077    2.769    4.308    0.615 
#    0.000    1.538    0.000    3.692    0.000    0.000 
#    0.000    0.000    0.000    0.000    0.000    0.000 
#
# Total GULP energy -144894.561681 kJ/mol
# GULP energy per Si atom -5572.867757 kJ/mol
# Density = 2.770019 g / cm^3
# Si number density = 27.763378 Si / 1000 Ang^3
#
#
#
# Elastic Constant Matrix: (Units=GPa)
#
#
# Indices 1 2 3 4 5 6 
#
# 1 88.5461 5.3558 30.8210 0.0000 25.9708 0.0000
# 2 5.3558 46.2432 -11.6807 0.0000 7.0125 0.0000
# 3 30.8210 -11.6807 102.9991 0.0000 28.0809 0.0000
# 4 0.0000 0.0000 0.0000 15.5190 0.0000 17.7741
# 5 25.9708 7.0125 28.0809 0.0000 55.0053 0.0000
# 6 0.0000 0.0000 0.0000 17.7741 0.0000 35.9857
#
#
#
# Elastic Compliance Matrix: (Units=1/GPa)
#
#
# Indices 1 2 3 4 5 6 
#
# 1 0.013850 -0.001643 -0.003026 0.000000 -0.004785 0.000000
# 2 -0.001643 0.023602 0.004388 0.000000 -0.004473 0.000000
# 3 -0.003026 0.004388 0.012633 0.000000 -0.005580 0.000000
# 4 0.000000 0.000000 0.000000 0.148368 0.000000 -0.073282
# 5 -0.004785 -0.004473 -0.005580 0.000000 0.023858 0.000000
# 6 0.000000 0.000000 0.000000 -0.073282 0.000000 0.063984
#
#
# Mechanical properties :
#
#
# Convention : Reuss Voigt Hill
#
# Bulk Modulus (GPa) = 20.19298 31.86451 26.02875
# Shear Modulus (GPa) = 16.48183 35.52150 26.00166
#
# Velocity S-wave (km/s) = 2.43914 3.58080 3.06362
# Velocity P-wave (km/s) = 3.90149 5.34774 4.68081
#
# Compressibility (1/GPa) = 0.04952216
#
# Stress axis : x y z
#
# Youngs Moduli (GPa) = 72.20403 42.36978 79.15629
#
# Poissons Ratio (x) = 0.06961 0.23954
# Poissons Ratio (y) = 0.11862 -0.34732
# Poissons Ratio (z) = 0.21850 -0.18591
#
# Static dielectric constant tensor:
#      x y z
#    x 2.106690 0.000000 -0.061680 
#    y 0.000000 1.950200 0.000000 
#    z -0.061680 0.000000 1.981680 
# 
# From -- ./inp_files/29220.got.cif
#   From: 2010.05.17/outbox.cif.g08.bks.cpg/sg14_15_cif.got.tgz:29220.got - 2010.06.03 17:49:19.
