data_PCOD9245728
_publ_section_title
;
Structure prediction by ZEFSAII (Michael W. Deem and Ramdas Pophale) SiO2 
 PCOD9245728
Probable space group: P 21/C
;
_chemical_formula_sum "Si O2"
_cell_formula_units_Z 28
_cell_length_a 6.798257
_cell_length_b 13.274137
_cell_length_c 14.714983
_cell_angle_alpha 90.000000
_cell_angle_beta 61.746959
_cell_angle_gamma 90.000000
_cell_volume 1169.696786
_symmetry_space_group_name_H-M "P 21/C"
_symmetry_group_IT_number 14
_symmetry_cell_setting 'monoclinic'
loop_
_space_group_symop_operation_xyz
x,y,z
-x,1/2+y,1/2-z
-x,-y,-z
x,1/2-y,1/2+z
loop_
_atom_site_type_symbol
_atom_site_label
_atom_site_fract_x
_atom_site_fract_y
_atom_site_fract_z
Si Si1 0.244062 0.455152 0.960170
Si Si2 0.626813 0.552164 0.387038
Si Si3 0.361916 0.840470 0.184373
Si Si4 0.700737 0.209687 0.014467
Si Si5 0.935640 0.776112 0.789893
Si Si6 0.417559 0.099525 0.612188
Si Si7 0.178603 0.249725 0.882337
O O1 0.447149 0.512765 0.864763
O O2 0.246023 0.338766 0.934038
O O3 0.303419 0.458011 0.053225
O O4 0.000000 0.500000 0.000000
O O5 0.500000 0.500000 0.500000
O O6 0.694163 0.459287 0.308432
O O7 0.442932 0.632712 0.393273
O O8 0.832105 0.627963 0.364158
O O9 0.362495 0.809221 0.077474
O O10 0.603218 0.819400 0.174286
O O11 0.173216 0.767950 0.268038
O O12 0.962855 0.192196 0.967155
O O13 0.622718 0.323174 0.048647
O O14 0.776575 0.677674 0.820938
O O15 0.918656 0.803618 0.686853
#
# Coordination Sequence:
#
# PCOD9245728 Si02
#       7
#     4   4   4   4   4   4   4
#     4  11  22  36  64  92 120 160 211 254 308 371
#     4   9  20  41  66  86 119 169 210 251 308 376
#     4  10  21  39  60  87 124 163 200 257 318 365
#     4   9  18  39  61  86 122 157 214 257 304 367
#     4  10  24  40  61  90 129 161 204 263 312 375
#     4  10  21  39  60  91 122 167 205 258 313 371
#     4  11  22  37  60  92 126 163 207 261 309 369
#
# _framework density 23.937826000000001
#
# number of rings (size 3 to 8) (size 9 to 14) (size 15 to 20)
#    0.000    2.000    2.857    0.000    0.000    5.143 
#    0.000    2.857    0.000    0.000    0.000    0.000 
#    0.000    0.000    0.000    0.000    0.000    0.000 
#
# Total GULP energy -156111.618275 kJ/mol
# GULP energy per Si atom -5575.414938 kJ/mol
# Density = 2.388334 g / cm^3
# Si number density = 23.937826 Si / 1000 Ang^3
#
#
#
# Elastic Constant Matrix: (Units=GPa)
#
#
# Indices 1 2 3 4 5 6 
#
# 1 114.5442 43.1659 20.6450 0.0000 -30.3784 0.0000
# 2 43.1659 104.3167 12.3587 0.0000 -23.8524 0.0000
# 3 20.6450 12.3587 33.7443 0.0000 -23.0484 0.0000
# 4 0.0000 0.0000 0.0000 41.0990 0.0000 -11.4258
# 5 -30.3784 -23.8524 -23.0484 0.0000 40.1947 0.0000
# 6 0.0000 0.0000 0.0000 -11.4258 0.0000 24.5577
#
#
#
# Elastic Compliance Matrix: (Units=1/GPa)
#
#
# Indices 1 2 3 4 5 6 
#
# 1 0.011912 -0.003352 -0.002087 0.000000 0.005817 0.000000
# 2 -0.003352 0.012045 0.001300 0.000000 0.005360 0.000000
# 3 -0.002087 0.001300 0.049126 0.000000 0.027364 0.000000
# 4 0.000000 0.000000 0.000000 0.027946 0.000000 0.013002
# 5 0.005817 0.005360 0.027364 0.000000 0.048147 0.000000
# 6 0.000000 0.000000 0.000000 0.013002 0.000000 0.046770
#
#
# Mechanical properties :
#
#
# Convention : Reuss Voigt Hill
#
# Bulk Modulus (GPa) = 15.43075 44.99382 30.21228
# Shear Modulus (GPa) = 22.14103 32.93264 27.53684
#
# Velocity S-wave (km/s) = 3.04458 3.71314 3.39536
# Velocity P-wave (km/s) = 4.33814 6.10083 5.29338
#
# Compressibility (1/GPa) = 0.06480568
#
# Stress axis : x y z
#
# Youngs Moduli (GPa) = 83.94614 83.02395 20.35598
#
# Poissons Ratio (x) = 0.27829 0.04248
# Poissons Ratio (y) = 0.28138 -0.02647
# Poissons Ratio (z) = 0.17520 -0.10796
#
# Static dielectric constant tensor:
#      x y z
#    x 1.913950 0.000000 0.021720 
#    y 0.000000 1.981210 0.000000 
#    z 0.021720 0.000000 2.129670 
# 
# From -- ./inp_files/63665.got.cif
#   From: 2010.05.17/outbox.cif.g08.bks.cpg/sg14_32_cif.got.tgz:63665.got - 2010.06.03 17:49:19.
