data_PCOD9245614
_publ_section_title
;
Structure prediction by ZEFSAII (Michael W. Deem and Ramdas Pophale) SiO2 
 PCOD9245614
Probable space group: P 21/C
;
_chemical_formula_sum "Si O2"
_cell_formula_units_Z 32
_cell_length_a 22.831152
_cell_length_b 12.288532
_cell_length_c 14.210942
_cell_angle_alpha 90.000000
_cell_angle_beta 19.667466
_cell_angle_gamma 90.000000
_cell_volume 1341.880950
_symmetry_space_group_name_H-M "P 21/C"
_symmetry_group_IT_number 14
_symmetry_cell_setting 'monoclinic'
loop_
_space_group_symop_operation_xyz
x,y,z
-x,1/2+y,1/2-z
-x,-y,-z
x,1/2-y,1/2+z
loop_
_atom_site_type_symbol
_atom_site_label
_atom_site_fract_x
_atom_site_fract_y
_atom_site_fract_z
Si Si1 0.238459 0.137815 0.688918
Si Si2 0.385874 0.296675 0.146645
Si Si3 0.335271 0.563965 0.941453
Si Si4 0.960927 0.851753 0.539995
Si Si5 0.848365 0.342984 0.059342
Si Si6 0.313276 0.055620 0.180634
Si Si7 0.219262 0.720499 0.510294
Si Si8 0.506097 0.228575 0.662985
O O1 0.274032 0.127017 0.746664
O O2 0.409260 0.198649 0.387346
O O3 0.215371 0.030106 0.663253
O O4 0.090894 0.225903 0.895359
O O5 0.334432 0.172639 0.196880
O O6 0.378923 0.299401 0.269201
O O7 0.589834 0.315480 0.812968
O O8 0.491926 0.518592 0.639977
O O9 0.252637 0.666812 0.015157
O O10 0.430295 0.617723 0.887022
O O11 0.013868 0.864314 0.567373
O O12 0.801892 0.921203 0.738950
O O13 0.123695 0.863842 0.222644
O O14 0.785909 0.460173 0.114827
O O15 0.893821 0.257406 0.909197
O O16 0.675883 0.292443 0.369552
#
# Coordination Sequence:
#
# PCOD9245614 Si02
#       8
#     4   4   4   4   4   4   4   4
#     4  11  22  38  64  87 122 156 199 257 296 359
#     4   9  21  38  61  91 115 155 207 244 297 350
#     4  11  21  40  64  89 117 161 208 247 301 348
#     4  11  22  41  58  88 130 158 188 249 316 360
#     4  11  22  39  64  88 121 161 199 250 302 351
#     4  10  21  38  65  92 114 155 210 250 287 359
#     4  10  22  39  57  87 123 154 200 242 293 368
#     4  11  20  39  64  86 120 160 200 255 293 352
#
# _framework density 23.847121999999999
#
# number of rings (size 3 to 8) (size 9 to 14) (size 15 to 20)
#    0.000    1.500    6.250    0.375    1.750    4.500 
#    0.000    1.250    0.000    0.000    0.000    0.000 
#    0.000    0.000    0.000    0.000    0.000    0.000 
#
# Total GULP energy -178898.299921 kJ/mol
# GULP energy per Si atom -5590.571873 kJ/mol
# Density = 2.379285 g / cm^3
# Si number density = 23.847122 Si / 1000 Ang^3
#
#
#
# Elastic Constant Matrix: (Units=GPa)
#
#
# Indices 1 2 3 4 5 6 
#
# 1 114.8388 -23.3588 0.2314 0.0000 -3.4476 0.0000
# 2 -23.3588 12.5796 1.8411 0.0000 0.0858 0.0000
# 3 0.2314 1.8411 54.6522 0.0000 -11.8282 0.0000
# 4 0.0000 0.0000 0.0000 22.0100 0.0000 4.6578
# 5 -3.4476 0.0858 -11.8282 0.0000 18.3045 0.0000
# 6 0.0000 0.0000 0.0000 4.6578 0.0000 15.9143
#
#
#
# Elastic Compliance Matrix: (Units=1/GPa)
#
#
# Indices 1 2 3 4 5 6 
#
# 1 0.014119 0.026270 -0.000460 0.000000 0.002239 0.000000
# 2 0.026270 0.128861 -0.004083 0.000000 0.001705 0.000000
# 3 -0.000460 -0.004083 0.021418 0.000000 0.013772 0.000000
# 4 0.000000 0.000000 0.000000 0.048434 0.000000 -0.014175
# 5 0.002239 0.001705 0.013772 0.000000 0.063944 0.000000
# 6 0.000000 0.000000 0.000000 -0.014175 0.000000 0.066985
#
#
# Mechanical properties :
#
#
# Convention : Reuss Voigt Hill
#
# Bulk Modulus (GPa) = 4.81112 15.49977 10.15545
# Shear Modulus (GPa) = 13.52846 24.80290 19.16568
#
# Velocity S-wave (km/s) = 2.38439 3.22853 2.83802
# Velocity P-wave (km/s) = 3.09875 4.51792 3.87388
#
# Compressibility (1/GPa) = 0.20785172
#
# Stress axis : x y z
#
# Youngs Moduli (GPa) = 70.82410 7.76033 46.69030
#
# Poissons Ratio (x) = -0.20387 0.02149
# Poissons Ratio (y) = -1.86057 0.19064
# Poissons Ratio (z) = 0.03259 0.03169
#
# Static dielectric constant tensor:
#      x y z
#    x 1.938680 0.000000 -0.001930 
#    y 0.000000 1.890760 0.000000 
#    z -0.001930 0.000000 1.928470 
# 
# From -- ./inp_files/51563.got.cif
#   From: 2010.05.17/outbox.cif.g08.bks.cpg/sg14_26_cif.got.tgz:51563.got - 2010.06.03 17:49:19.
