data_PCOD9245734
_publ_section_title
;
Structure prediction by ZEFSAII (Michael W. Deem and Ramdas Pophale) SiO2 
 PCOD9245734
Probable space group: P 21/C
;
_chemical_formula_sum "Si O2"
_cell_formula_units_Z 20
_cell_length_a 10.874232
_cell_length_b 12.151591
_cell_length_c 10.965716
_cell_angle_alpha 90.000000
_cell_angle_beta 145.075718
_cell_angle_gamma 90.000000
_cell_volume 829.543603
_symmetry_space_group_name_H-M "P 21/C"
_symmetry_group_IT_number 14
_symmetry_cell_setting 'monoclinic'
loop_
_space_group_symop_operation_xyz
x,y,z
-x,1/2+y,1/2-z
-x,-y,-z
x,1/2-y,1/2+z
loop_
_atom_site_type_symbol
_atom_site_label
_atom_site_fract_x
_atom_site_fract_y
_atom_site_fract_z
Si Si1 0.249631 0.487836 0.222544
Si Si2 0.741910 0.302439 0.386346
Si Si3 0.838154 0.580605 0.298979
Si Si4 0.461360 0.974715 0.643799
Si Si5 0.585192 0.315926 0.512748
O O1 0.365368 0.542427 0.198952
O O2 0.341889 0.363850 0.310115
O O3 0.300003 0.563582 0.379790
O O4 0.000000 0.500000 0.000000
O O5 0.610377 0.416722 0.276984
O O6 0.671551 0.257107 0.461425
O O7 0.661537 0.246330 0.196334
O O8 0.998639 0.321203 0.599828
O O9 0.631020 0.606669 0.214883
O O10 0.000000 0.500000 0.500000
O O11 0.732974 0.513716 0.101621
#
# Coordination Sequence:
#
# PCOD9245734 Si02
#       5
#     4   4   4   4   4
#     4  10  21  41  63  85 122 173 217 262 321 387
#     4  10  21  39  60  91 125 158 206 267 321 378
#     4   9  18  34  58  88 123 157 197 253 313 375
#     4   9  19  36  60  88 121 165 211 252 314 393
#     4  10  23  40  62  92 125 161 213 267 324 388
#
# _framework density 24.109642999999998
#
# number of rings (size 3 to 8) (size 9 to 14) (size 15 to 20)
#    0.000    2.400    0.000    1.200    0.000    8.000 
#    0.000    4.000    0.000    0.000    0.000    0.000 
#    0.000    0.000    0.000    0.000    0.000    0.000 
#
# Total GULP energy -111595.400049 kJ/mol
# GULP energy per Si atom -5579.770002 kJ/mol
# Density = 2.405477 g / cm^3
# Si number density = 24.109643 Si / 1000 Ang^3
#
#
#
# Elastic Constant Matrix: (Units=GPa)
#
#
# Indices 1 2 3 4 5 6 
#
# 1 163.5362 53.6568 96.0885 0.0000 -7.6567 0.0000
# 2 53.6568 43.3073 28.1541 0.0000 4.2229 0.0000
# 3 96.0885 28.1541 186.8869 0.0000 10.5105 0.0000
# 4 0.0000 0.0000 0.0000 47.0616 0.0000 -2.5737
# 5 -7.6567 4.2229 10.5105 0.0000 48.8002 0.0000
# 6 0.0000 0.0000 0.0000 -2.5737 0.0000 41.9736
#
#
#
# Elastic Compliance Matrix: (Units=1/GPa)
#
#
# Indices 1 2 3 4 5 6 
#
# 1 0.014348 -0.014707 -0.005425 0.000000 0.004692 0.000000
# 2 -0.014707 0.040768 0.001770 0.000000 -0.006217 0.000000
# 3 -0.005425 0.001770 0.008027 0.000000 -0.002733 0.000000
# 4 0.000000 0.000000 0.000000 0.021320 0.000000 0.001307
# 5 0.004692 -0.006217 -0.002733 0.000000 0.022355 0.000000
# 6 0.000000 0.000000 0.000000 0.001307 0.000000 0.023905
#
#
# Mechanical properties :
#
#
# Convention : Reuss Voigt Hill
#
# Bulk Modulus (GPa) = 37.85296 83.28101 60.56699
# Shear Modulus (GPa) = 28.36819 41.95581 35.16200
#
# Velocity S-wave (km/s) = 3.43393 4.17611 3.82307
# Velocity P-wave (km/s) = 5.60865 7.60728 6.68310
#
# Compressibility (1/GPa) = 0.02641801
#
# Stress axis : x y z
#
# Youngs Moduli (GPa) = 69.69792 24.52894 124.57438
#
# Poissons Ratio (x) = 0.36075 0.67584
# Poissons Ratio (y) = 1.02505 -0.22045
# Poissons Ratio (z) = 0.37812 -0.04341
#
# Static dielectric constant tensor:
#      x y z
#    x 2.009160 0.000000 -0.002440 
#    y 0.000000 2.120420 0.000000 
#    z -0.002440 0.000000 1.932750 
# 
# From -- ./inp_files/29927.got.cif
#   From: 2010.05.17/outbox.cif.g08.bks.cpg/sg14_15_cif.got.tgz:29927.got - 2010.06.03 17:49:19.
