data_PCOD9245659
_publ_section_title
;
Structure prediction by ZEFSAII (Michael W. Deem and Ramdas Pophale) SiO2 
 PCOD9245659
Probable space group: P 21/C
;
_chemical_formula_sum "Si O2"
_cell_formula_units_Z 30
_cell_length_a 14.760497
_cell_length_b 6.483251
_cell_length_c 14.794483
_cell_angle_alpha 90.000000
_cell_angle_beta 111.078953
_cell_angle_gamma 90.000000
_cell_volume 1321.037510
_symmetry_space_group_name_H-M "P 21/C"
_symmetry_group_IT_number 14
_symmetry_cell_setting 'monoclinic'
loop_
_space_group_symop_operation_xyz
x,y,z
-x,1/2+y,1/2-z
-x,-y,-z
x,1/2-y,1/2+z
loop_
_atom_site_type_symbol
_atom_site_label
_atom_site_fract_x
_atom_site_fract_y
_atom_site_fract_z
Si Si1 0.101565 0.094031 0.631301
Si Si2 0.539601 0.187628 0.125596
Si Si3 0.889310 0.321284 0.045178
Si Si4 0.500000 0.000000 0.500000
Si Si5 0.708305 0.608637 0.703655
Si Si6 0.393896 0.451349 0.725915
Si Si7 0.713112 0.907928 0.540295
Si Si8 0.787594 0.559832 0.434542
O O1 0.186243 0.031344 0.729803
O O2 0.141904 0.308826 0.604305
O O3 0.993625 0.137852 0.627388
O O4 0.100013 0.925116 0.550778
O O5 0.489493 0.247117 0.014275
O O6 0.561043 0.424344 0.171866
O O7 0.473869 0.078198 0.177012
O O8 0.640410 0.076174 0.149507
O O9 0.802670 0.438767 0.062555
O O10 0.853669 0.088991 0.017850
O O11 0.611451 0.026170 0.498993
O O12 0.646982 0.728541 0.759360
O O13 0.720736 0.788644 0.636577
O O14 0.297226 0.560216 0.651200
O O15 0.729462 0.729436 0.471884
#
# Coordination Sequence:
#
# PCOD9245659 Si02
#       8
#     4   4   4   2   4   4   4   4
#     4   9  21  43  68  94 123 162 218 272 320 389
#     4  12  24  41  64  91 131 173 218 268 322 391
#     4  10  21  42  68  93 124 165 214 271 324 381
#     4  12  26  44  62  94 138 172 214 270 330 392
#     4  11  24  42  61  94 133 165 212 269 322 391
#     4  11  22  39  64  95 121 168 222 266 320 387
#     4  11  25  41  59  92 134 167 214 258 323 403
#     4  10  21  38  67  95 122 164 218 270 324 386
#
# _framework density 22.709423999999999
#
# number of rings (size 3 to 8) (size 9 to 14) (size 15 to 20)
#    0.000    1.333    4.000    1.200    1.867    2.667 
#    2.400    0.000    0.000    0.000    0.000    0.000 
#    0.000    0.000    0.000    0.000    0.000    0.000 
#
# Total GULP energy -167200.942074 kJ/mol
# GULP energy per Si atom -5573.364736 kJ/mol
# Density = 2.265774 g / cm^3
# Si number density = 22.709424 Si / 1000 Ang^3
#
#
#
# Elastic Constant Matrix: (Units=GPa)
#
#
# Indices 1 2 3 4 5 6 
#
# 1 159.9537 25.1477 10.7957 0.0000 19.8034 0.0000
# 2 25.1477 53.6230 -3.6176 0.0000 3.9506 0.0000
# 3 10.7957 -3.6176 16.1287 0.0000 9.4685 0.0000
# 4 0.0000 0.0000 0.0000 32.4461 0.0000 10.7429
# 5 19.8034 3.9506 9.4685 0.0000 31.0375 0.0000
# 6 0.0000 0.0000 0.0000 10.7429 0.0000 3.7696
#
#
#
# Elastic Compliance Matrix: (Units=1/GPa)
#
#
# Indices 1 2 3 4 5 6 
#
# 1 0.007459 -0.003538 -0.003967 0.000000 -0.003099 0.000000
# 2 -0.003538 0.021147 0.008973 0.000000 -0.003172 0.000000
# 3 -0.003967 0.008973 0.080220 0.000000 -0.023083 0.000000
# 4 0.000000 0.000000 0.000000 0.546411 0.000000 -1.557209
# 5 -0.003099 -0.003172 -0.023083 0.000000 0.041642 0.000000
# 6 0.000000 0.000000 0.000000 -1.557209 0.000000 4.703148
#
#
# Mechanical properties :
#
#
# Convention : Reuss Voigt Hill
#
# Bulk Modulus (GPa) = 8.94749 32.70633 20.82691
# Shear Modulus (GPa) = 0.92007 26.60928 13.76468
#
# Velocity S-wave (km/s) = 0.63721 3.42677 2.46462
# Velocity P-wave (km/s) = 2.11894 5.48546 4.15814
#
# Compressibility (1/GPa) = 0.11176319
#
# Stress axis : x y z
#
# Youngs Moduli (GPa) = 134.05884 47.28854 12.46566
#
# Poissons Ratio (x) = 0.16729 0.04945
# Poissons Ratio (y) = 0.47424 -0.11185
# Poissons Ratio (z) = 0.53183 -0.42432
#
# Static dielectric constant tensor:
#      x y z
#    x 1.841250 0.000000 -0.019050 
#    y 0.000000 1.777310 0.000000 
#    z -0.019050 0.000000 1.386320 
# 
# From -- ./inp_files/58624.got.cif
#   From: 2010.05.17/outbox.cif.g08.bks.cpg/sg14_30_cif.got.tgz:58624.got - 2010.06.03 17:49:19.
