data_PCOD9245820
_publ_section_title
;
Structure prediction by ZEFSAII (Michael W. Deem and Ramdas Pophale) SiO2 
 PCOD9245820
Probable space group: P 21/C
;
_chemical_formula_sum "Si O2"
_cell_formula_units_Z 24
_cell_length_a 8.542298
_cell_length_b 12.205852
_cell_length_c 8.568624
_cell_angle_alpha 90.000000
_cell_angle_beta 100.824825
_cell_angle_gamma 90.000000
_cell_volume 877.518888
_symmetry_space_group_name_H-M "P 21/C"
_symmetry_group_IT_number 14
_symmetry_cell_setting 'monoclinic'
loop_
_space_group_symop_operation_xyz
x,y,z
-x,1/2+y,1/2-z
-x,-y,-z
x,1/2-y,1/2+z
loop_
_atom_site_type_symbol
_atom_site_label
_atom_site_fract_x
_atom_site_fract_y
_atom_site_fract_z
Si Si1 0.340204 0.128478 0.919388
Si Si2 0.001918 0.712547 0.753981
Si Si3 0.826847 0.463595 0.415860
Si Si4 0.845594 0.135186 0.393478
Si Si5 0.454027 0.760334 0.300755
Si Si6 0.674700 0.032414 0.575039
O O1 0.469725 0.154829 0.809744
O O2 0.174974 0.180307 0.827105
O O3 0.293657 0.005526 0.970153
O O4 0.410139 0.196236 0.079591
O O5 0.121437 0.655007 0.646767
O O6 0.041831 0.839817 0.731605
O O7 0.051990 0.676692 0.935659
O O8 0.747366 0.515340 0.245619
O O9 0.000000 0.500000 0.500000
O O10 0.672366 0.178042 0.298877
O O11 0.793221 0.017363 0.451944
O O12 0.355229 0.837578 0.399092
O O13 0.500000 0.000000 0.500000
#
# Coordination Sequence:
#
# PCOD9245820 Si02
#       6
#     4   4   4   4   4   4
#     4  11  23  39  63  93 125 159 208 251 315 370
#     4  10  21  39  63  88 124 161 207 255 306 369
#     4   9  20  39  62  84 122 165 199 248 306 366
#     4  11  19  40  62  87 118 163 206 247 311 364
#     4  12  22  39  62  93 123 162 204 259 310 366
#     4  11  23  40  62  90 128 161 207 261 312 361
#
# _framework density 27.349837000000001
#
# number of rings (size 3 to 8) (size 9 to 14) (size 15 to 20)
#    0.000    1.333    5.000    2.000    0.000    0.667 
#    3.000    0.000    0.000    4.000    0.000    0.000 
#    0.000    0.000    0.000    0.000    0.000    0.000 
#
# Total GULP energy -133872.281497 kJ/mol
# GULP energy per Si atom -5578.011729 kJ/mol
# Density = 2.728759 g / cm^3
# Si number density = 27.349837 Si / 1000 Ang^3
#
#
#
# Elastic Constant Matrix: (Units=GPa)
#
#
# Indices 1 2 3 4 5 6 
#
# 1 113.1404 34.4861 64.7745 0.0000 34.5790 0.0000
# 2 34.4861 52.5461 50.2325 0.0000 2.6154 0.0000
# 3 64.7745 50.2325 157.4925 0.0000 48.5225 0.0000
# 4 0.0000 0.0000 0.0000 47.8940 0.0000 -3.9527
# 5 34.5790 2.6154 48.5225 0.0000 61.9514 0.0000
# 6 0.0000 0.0000 0.0000 -3.9527 0.0000 56.4099
#
#
#
# Elastic Compliance Matrix: (Units=1/GPa)
#
#
# Indices 1 2 3 4 5 6 
#
# 1 0.013827 -0.007469 -0.001350 0.000000 -0.006345 0.000000
# 2 -0.007469 0.034332 -0.011489 0.000000 0.011718 0.000000
# 3 -0.001350 -0.011489 0.013428 0.000000 -0.009279 0.000000
# 4 0.000000 0.000000 0.000000 0.021001 0.000000 0.001472
# 5 -0.006345 0.011718 -0.009279 0.000000 0.026456 0.000000
# 6 0.000000 0.000000 0.000000 0.001472 0.000000 0.017831
#
#
# Mechanical properties :
#
#
# Convention : Reuss Voigt Hill
#
# Bulk Modulus (GPa) = 47.68086 69.12946 58.40516
# Shear Modulus (GPa) = 28.65660 44.83012 36.74336
#
# Velocity S-wave (km/s) = 3.24045 4.05302 3.66930
# Velocity P-wave (km/s) = 5.61001 6.87266 6.27319
#
# Compressibility (1/GPa) = 0.02097277
#
# Stress axis : x y z
#
# Youngs Moduli (GPa) = 72.32142 29.12713 74.47265
#
# Poissons Ratio (x) = 0.21754 0.10053
# Poissons Ratio (y) = 0.54013 0.85560
# Poissons Ratio (z) = 0.09763 0.33464
#
# Static dielectric constant tensor:
#      x y z
#    x 2.170430 0.000000 -0.089880 
#    y 0.000000 2.427250 0.000000 
#    z -0.089880 0.000000 2.209360 
# 
# From -- ./inp_files/9184.got.cif
#   From: 2010.05.17/outbox.cif.g08.bks.cpg/sg14_5_cif.got.tgz:9184.got - 2010.06.03 17:49:19.
