data_PCOD9245363
_publ_section_title
;
Structure prediction by ZEFSAII (Michael W. Deem and Ramdas Pophale) SiO2 
 PCOD9245363
Probable space group: P 21/C
;
_chemical_formula_sum "Si O2"
_cell_formula_units_Z 28
_cell_length_a 13.768548
_cell_length_b 16.590420
_cell_length_c 7.373324
_cell_angle_alpha 90.000000
_cell_angle_beta 139.222973
_cell_angle_gamma 90.000000
_cell_volume 1100.018149
_symmetry_space_group_name_H-M "P 21/C"
_symmetry_group_IT_number 14
_symmetry_cell_setting 'monoclinic'
loop_
_space_group_symop_operation_xyz
x,y,z
-x,1/2+y,1/2-z
-x,-y,-z
x,1/2-y,1/2+z
loop_
_atom_site_type_symbol
_atom_site_label
_atom_site_fract_x
_atom_site_fract_y
_atom_site_fract_z
Si Si1 0.215002 0.553920 0.973106
Si Si2 0.788852 0.869235 0.420041
Si Si3 0.034574 0.388012 0.157382
Si Si4 0.199526 0.530976 0.569502
Si Si5 0.466784 0.841603 0.875639
Si Si6 0.595546 0.328867 0.291265
Si Si7 0.722395 0.858007 0.731810
O O1 0.221478 0.465215 0.063600
O O2 0.382034 0.582653 0.173005
O O3 0.126923 0.558598 0.657223
O O4 0.129912 0.610686 0.996102
O O5 0.934006 0.858917 0.501020
O O6 0.775518 0.836010 0.604412
O O7 0.644072 0.842255 0.099747
O O8 0.094852 0.480236 0.285033
O O9 0.145384 0.337719 0.444544
O O10 0.289638 0.604974 0.615607
O O11 0.297589 0.455118 0.778482
O O12 0.370837 0.765717 0.669762
O O13 0.449358 0.849603 0.067685
O O14 0.441497 0.327018 0.958442
#
# Coordination Sequence:
#
# PCOD9245363 Si02
#       7
#     4   4   4   4   4   4   4
#     4  11  21  39  60  92 125 155 202 245 299 362
#     4  10  21  38  61  91 118 154 205 250 289 355
#     4  10  21  37  67  85 124 156 194 244 307 347
#     4   9  20  34  63  89 117 156 194 247 297 351
#     4  11  25  37  62  88 118 161 203 250 300 354
#     4  11  21  40  60  87 120 155 206 252 299 355
#     4   8  21  36  62  91 116 152 203 245 300 350
#
# _framework density 25.454125000000001
#
# number of rings (size 3 to 8) (size 9 to 14) (size 15 to 20)
#    0.857    1.143    0.000    3.429    4.000    1.143 
#    0.000    0.000    9.429    0.000    0.000    0.000 
#    0.000    0.000    0.000    0.000    0.000    0.000 
#
# Total GULP energy -156396.747516 kJ/mol
# GULP energy per Si atom -5585.598126 kJ/mol
# Density = 2.539619 g / cm^3
# Si number density = 25.454125 Si / 1000 Ang^3
#
#
#
# Elastic Constant Matrix: (Units=GPa)
#
#
# Indices 1 2 3 4 5 6 
#
# 1 106.5244 15.9236 14.4439 0.0000 -4.7802 0.0000
# 2 15.9236 62.7478 6.6072 0.0000 1.7653 0.0000
# 3 14.4439 6.6072 72.5238 0.0000 -7.3721 0.0000
# 4 0.0000 0.0000 0.0000 20.9844 0.0000 -1.5605
# 5 -4.7802 1.7653 -7.3721 0.0000 36.7775 0.0000
# 6 0.0000 0.0000 0.0000 -1.5605 0.0000 18.4793
#
#
#
# Elastic Compliance Matrix: (Units=1/GPa)
#
#
# Indices 1 2 3 4 5 6 
#
# 1 0.010021 -0.002398 -0.001667 0.000000 0.001083 0.000000
# 2 -0.002398 0.016708 -0.001182 0.000000 -0.001351 0.000000
# 3 -0.001667 -0.001182 0.014508 0.000000 0.002748 0.000000
# 4 0.000000 0.000000 0.000000 0.047956 0.000000 0.004050
# 5 0.001083 -0.001351 0.002748 0.000000 0.027947 0.000000
# 6 0.000000 0.000000 0.000000 0.004050 0.000000 0.054457
#
#
# Mechanical properties :
#
#
# Convention : Reuss Voigt Hill
#
# Bulk Modulus (GPa) = 32.52849 35.08280 33.80565
# Shear Modulus (GPa) = 25.99611 28.90299 27.44955
#
# Velocity S-wave (km/s) = 3.19923 3.37336 3.28745
# Velocity P-wave (km/s) = 5.14333 5.38381 5.26494
#
# Compressibility (1/GPa) = 0.03074228
#
# Stress axis : x y z
#
# Youngs Moduli (GPa) = 99.79411 59.85238 68.92925
#
# Poissons Ratio (x) = 0.14352 0.11491
# Poissons Ratio (y) = 0.23929 0.08147
# Poissons Ratio (z) = 0.16637 0.07074
#
# Static dielectric constant tensor:
#      x y z
#    x 1.990330 0.000000 -0.040090 
#    y 0.000000 2.066350 0.000000 
#    z -0.040090 0.000000 2.081130 
# 
# From -- ./inp_files/16691.got.cif
#   From: 2010.05.17/outbox.cif.g08.bks.cpg/sg14_9_cif.got.tgz:16691.got - 2010.06.03 17:49:19.
