data_PCOD9245904
_publ_section_title
;
Structure prediction by ZEFSAII (Michael W. Deem and Ramdas Pophale) SiO2 
 PCOD9245904
Probable space group: P 21/C
;
_chemical_formula_sum "Si O2"
_cell_formula_units_Z 28
_cell_length_a 16.214283
_cell_length_b 9.077491
_cell_length_c 8.810441
_cell_angle_alpha 90.000000
_cell_angle_beta 79.551062
_cell_angle_gamma 90.000000
_cell_volume 1275.260481
_symmetry_space_group_name_H-M "P 21/C"
_symmetry_group_IT_number 14
_symmetry_cell_setting 'monoclinic'
loop_
_space_group_symop_operation_xyz
x,y,z
-x,1/2+y,1/2-z
-x,-y,-z
x,1/2-y,1/2+z
loop_
_atom_site_type_symbol
_atom_site_label
_atom_site_fract_x
_atom_site_fract_y
_atom_site_fract_z
Si Si1 0.038517 0.287246 0.316243
Si Si2 0.425486 0.094483 0.954024
Si Si3 0.241304 0.624121 0.145372
Si Si4 0.918276 0.222572 0.105695
Si Si5 0.122969 0.448176 0.012332
Si Si6 0.492407 0.352889 0.099701
Si Si7 0.664829 0.165192 0.091210
O O1 0.082917 0.400961 0.187946
O O2 0.098757 0.184271 0.402518
O O3 0.988935 0.194515 0.208006
O O4 0.961065 0.348799 0.443304
O O5 0.453002 0.114531 0.773606
O O6 0.345861 0.990610 0.989002
O O7 0.427344 0.247810 0.035737
O O8 0.500000 0.000000 0.000000
O O9 0.164899 0.666232 0.283305
O O10 0.216549 0.487450 0.044360
O O11 0.318078 0.627240 0.238630
O O12 0.261134 0.750653 0.017720
O O13 0.907775 0.396733 0.055994
O O14 0.581030 0.266257 0.098209
O O15 0.500000 0.500000 0.000000
#
# Coordination Sequence:
#
# PCOD9245904 Si02
#       7
#     4   4   4   4   4   4   4
#     4  10  21  40  67  91 128 166 221 301 325 383
#     4  10  21  39  65 100 129 165 227 271 324 383
#     4  12  23  42  65  93 137 177 220 267 335 436
#     4  11  21  41  65  97 123 171 228 278 339 398
#     4  11  24  44  61 100 129 170 230 275 352 400
#     4  11  21  40  71 102 133 168 223 287 326 394
#     4  11  23  42  66  97 132 179 219 268 339 403
#
# _framework density 21.956299999999999
#
# number of rings (size 3 to 8) (size 9 to 14) (size 15 to 20)
#    0.000    1.143    2.857    6.000    0.000    0.571 
#    7.714    2.857    0.000    0.000    0.000    0.000 
#    0.000    0.000    0.000    0.000    0.000    0.000 
#
# Total GULP energy -155886.176684 kJ/mol
# GULP energy per Si atom -5567.363453 kJ/mol
# Density = 2.190633 g / cm^3
# Si number density = 21.956300 Si / 1000 Ang^3
#
#
#
# Elastic Constant Matrix: (Units=GPa)
#
#
# Indices 1 2 3 4 5 6 
#
# 1 61.5487 34.8568 26.4485 0.0000 23.3006 0.0000
# 2 34.8568 92.3980 20.4894 0.0000 11.0716 0.0000
# 3 26.4485 20.4894 109.0923 0.0000 14.7545 0.0000
# 4 0.0000 0.0000 0.0000 44.1762 0.0000 10.7596
# 5 23.3006 11.0716 14.7545 0.0000 37.8576 0.0000
# 6 0.0000 0.0000 0.0000 10.7596 0.0000 44.8833
#
#
#
# Elastic Compliance Matrix: (Units=1/GPa)
#
#
# Indices 1 2 3 4 5 6 
#
# 1 0.027111 -0.007925 -0.003316 0.000000 -0.013076 0.000000
# 2 -0.007925 0.013860 -0.000837 0.000000 0.001151 0.000000
# 3 -0.003316 -0.000837 0.010365 0.000000 -0.001754 0.000000
# 4 0.000000 0.000000 0.000000 0.024040 0.000000 -0.005763
# 5 -0.013076 0.001151 -0.001754 0.000000 0.034810 0.000000
# 6 0.000000 0.000000 0.000000 -0.005763 0.000000 0.023662
#
#
# Mechanical properties :
#
#
# Convention : Reuss Voigt Hill
#
# Bulk Modulus (GPa) = 36.79308 47.40315 42.09811
# Shear Modulus (GPa) = 29.92861 37.46637 33.69749
#
# Velocity S-wave (km/s) = 3.69602 4.13535 3.92184
# Velocity P-wave (km/s) = 5.91675 6.66619 6.30262
#
# Compressibility (1/GPa) = 0.02717903
#
# Stress axis : x y z
#
# Youngs Moduli (GPa) = 36.88582 72.14825 96.47926
#
# Poissons Ratio (x) = 0.57180 0.31990
# Poissons Ratio (y) = 0.29233 0.08079
# Poissons Ratio (z) = 0.12230 0.06042
#
# Static dielectric constant tensor:
#      x y z
#    x 1.860190 0.000000 0.023850 
#    y 0.000000 1.855220 0.000000 
#    z 0.023850 0.000000 1.816200 
# 
# From -- ./inp_files/17552.got.cif
#   From: 2010.05.17/outbox.cif.g08.bks.cpg/sg14_9_cif.got.tgz:17552.got - 2010.06.03 17:49:19.
