data_PCOD9245388
_publ_section_title
;
Structure prediction by ZEFSAII (Michael W. Deem and Ramdas Pophale) SiO2 
 PCOD9245388
Probable space group: P 21/C
;
_chemical_formula_sum "Si O2"
_cell_formula_units_Z 24
_cell_length_a 14.658792
_cell_length_b 7.970188
_cell_length_c 9.252298
_cell_angle_alpha 90.000000
_cell_angle_beta 83.927734
_cell_angle_gamma 90.000000
_cell_volume 1074.911693
_symmetry_space_group_name_H-M "P 21/C"
_symmetry_group_IT_number 14
_symmetry_cell_setting 'monoclinic'
loop_
_space_group_symop_operation_xyz
x,y,z
-x,1/2+y,1/2-z
-x,-y,-z
x,1/2-y,1/2+z
loop_
_atom_site_type_symbol
_atom_site_label
_atom_site_fract_x
_atom_site_fract_y
_atom_site_fract_z
Si Si1 0.436371 0.799617 0.122809
Si Si2 0.725045 0.523355 0.233732
Si Si3 0.396191 0.521145 0.333189
Si Si4 0.240621 0.311717 0.477222
Si Si5 0.073683 0.919971 0.287614
Si Si6 0.030486 0.271224 0.452066
O O1 0.364470 0.915331 0.223037
O O2 0.416778 0.612095 0.179244
O O3 0.537042 0.863446 0.149627
O O4 0.420127 0.846177 0.957899
O O5 0.731084 0.629281 0.086508
O O6 0.731231 0.658345 0.362624
O O7 0.816367 0.411050 0.236147
O O8 0.294293 0.453184 0.376792
O O9 0.131674 0.328935 0.480163
O O10 0.024018 0.893635 0.144007
O O11 0.031635 0.784469 0.403985
O O12 0.049479 0.100959 0.357434
#
# Coordination Sequence:
#
# PCOD9245388 Si02
#       6
#     4   4   4   4   4   4
#     4  10  22  39  59  89 119 150 191 234 286 341
#     4  10  22  38  58  85 115 151 195 238 286 341
#     4  10  22  39  61  87 118 151 189 236 284 341
#     4  10  21  39  60  83 114 152 192 237 286 339
#     4  10  22  37  57  83 114 152 193 237 286 341
#     4  10  21  38  57  82 114 150 192 238 288 339
#
# _framework density 22.327414999999998
#
# number of rings (size 3 to 8) (size 9 to 14) (size 15 to 20)
#    0.000    2.000    0.000    3.000    0.000    8.667 
#    0.000    0.000    0.000    0.000    0.000    0.000 
#    0.000    0.000    0.000    0.000    0.000    0.000 
#
# Total GULP energy -134282.061686 kJ/mol
# GULP energy per Si atom -5595.085904 kJ/mol
# Density = 2.227660 g / cm^3
# Si number density = 22.327415 Si / 1000 Ang^3
#
#
#
# Elastic Constant Matrix: (Units=GPa)
#
#
# Indices 1 2 3 4 5 6 
#
# 1 78.9657 12.8063 8.1195 0.0000 -9.7551 0.0000
# 2 12.8063 35.1163 7.3716 0.0000 8.8256 0.0000
# 3 8.1195 7.3716 33.4909 0.0000 -4.9089 0.0000
# 4 0.0000 0.0000 0.0000 46.2603 0.0000 -19.6568
# 5 -9.7551 8.8256 -4.9089 0.0000 23.0632 0.0000
# 6 0.0000 0.0000 0.0000 -19.6568 0.0000 26.3375
#
#
#
# Elastic Compliance Matrix: (Units=1/GPa)
#
#
# Indices 1 2 3 4 5 6 
#
# 1 0.015112 -0.007694 -0.000621 0.000000 0.009204 0.000000
# 2 -0.007694 0.038279 -0.009480 0.000000 -0.019920 0.000000
# 3 -0.000621 -0.009480 0.033639 0.000000 0.010525 0.000000
# 4 0.000000 0.000000 0.000000 0.031656 0.000000 0.023626
# 5 0.009204 -0.019920 0.010525 0.000000 0.057115 0.000000
# 6 0.000000 0.000000 0.000000 0.023626 0.000000 0.055602
#
#
# Mechanical properties :
#
#
# Convention : Reuss Voigt Hill
#
# Bulk Modulus (GPa) = 19.44021 22.68530 21.06276
# Shear Modulus (GPa) = 17.59691 27.08391 22.34041
#
# Velocity S-wave (km/s) = 2.81041 3.48664 3.16663
# Velocity P-wave (km/s) = 4.38828 5.13724 4.77746
#
# Compressibility (1/GPa) = 0.05143977
#
# Stress axis : x y z
#
# Youngs Moduli (GPa) = 66.17060 26.12383 29.72767
#
# Poissons Ratio (x) = 0.20100 0.01847
# Poissons Ratio (y) = 0.50912 0.28182
# Poissons Ratio (z) = 0.04111 0.24765
#
# Static dielectric constant tensor:
#      x y z
#    x 1.772210 0.000000 -0.007240 
#    y 0.000000 1.832730 0.000000 
#    z -0.007240 0.000000 1.806330 
# 
# From -- ./inp_files/15140.got.cif
#   From: 2010.05.17/outbox.cif.g08.bks.cpg/sg14_8_cif.got.tgz:15140.got - 2010.06.03 17:49:19.
