data_PCOD9245564
_publ_section_title
;
Structure prediction by ZEFSAII (Michael W. Deem and Ramdas Pophale) SiO2 
 PCOD9245564
Probable space group: P 21/C
;
_chemical_formula_sum "Si O2"
_cell_formula_units_Z 24
_cell_length_a 9.267378
_cell_length_b 13.333398
_cell_length_c 13.562067
_cell_angle_alpha 90.000000
_cell_angle_beta 44.823752
_cell_angle_gamma 90.000000
_cell_volume 1181.322711
_symmetry_space_group_name_H-M "P 21/C"
_symmetry_group_IT_number 14
_symmetry_cell_setting 'monoclinic'
loop_
_space_group_symop_operation_xyz
x,y,z
-x,1/2+y,1/2-z
-x,-y,-z
x,1/2-y,1/2+z
loop_
_atom_site_type_symbol
_atom_site_label
_atom_site_fract_x
_atom_site_fract_y
_atom_site_fract_z
Si Si1 0.372811 0.900830 0.585624
Si Si2 0.318614 0.213352 0.049883
Si Si3 0.724461 0.719821 0.658703
Si Si4 0.570270 0.128987 0.088515
Si Si5 0.933838 0.227153 0.373893
Si Si6 0.232145 0.998586 0.848662
O O1 0.526886 0.807255 0.518237
O O2 0.204873 0.868526 0.585807
O O3 0.262835 0.922161 0.743502
O O4 0.500000 0.000000 0.500000
O O5 0.424611 0.124959 0.063152
O O6 0.105089 0.236898 0.206552
O O7 0.284425 0.196840 0.951914
O O8 0.543340 0.789492 0.786190
O O9 0.716811 0.610542 0.712185
O O10 0.934848 0.773617 0.589516
O O11 0.620981 0.035165 0.132699
O O12 0.784228 0.177815 0.951548
O O13 0.000000 0.000000 0.000000
#
# Coordination Sequence:
#
# PCOD9245564 Si02
#       6
#     4   4   4   4   4   4
#     4  11  23  42  65  95 128 176 221 267 325 393
#     4  10  22  41  64  90 135 172 211 272 335 375
#     4  11  22  41  65  92 130 172 213 276 331 380
#     4  10  22  39  61  95 127 171 220 268 323 392
#     4  10  21  38  63  92 128 168 214 266 322 391
#     4  12  22  38  68  95 127 173 225 263 327 394
#
# _framework density 20.316210000000002
#
# number of rings (size 3 to 8) (size 9 to 14) (size 15 to 20)
#    0.000    1.333    3.333    4.000    0.000    0.667 
#    0.000    0.833    3.667    0.000    0.000    0.000 
#    0.000    0.000    0.000    0.000    0.000    0.000 
#
# Total GULP energy -134002.248174 kJ/mol
# GULP energy per Si atom -5583.427007 kJ/mol
# Density = 2.026997 g / cm^3
# Si number density = 20.316210 Si / 1000 Ang^3
#
#
#
# Elastic Constant Matrix: (Units=GPa)
#
#
# Indices 1 2 3 4 5 6 
#
# 1 131.0838 39.0082 35.6629 0.0000 12.2035 0.0000
# 2 39.0082 82.8034 7.7740 0.0000 -8.4397 0.0000
# 3 35.6629 7.7740 80.3439 0.0000 -8.6991 0.0000
# 4 0.0000 0.0000 0.0000 29.5232 0.0000 -4.0530
# 5 12.2035 -8.4397 -8.6991 0.0000 40.3834 0.0000
# 6 0.0000 0.0000 0.0000 -4.0530 0.0000 33.9608
#
#
#
# Elastic Compliance Matrix: (Units=1/GPa)
#
#
# Indices 1 2 3 4 5 6 
#
# 1 0.011090 -0.005319 -0.005008 0.000000 -0.005542 0.000000
# 2 -0.005319 0.014960 0.001460 0.000000 0.005048 0.000000
# 3 -0.005008 0.001460 0.015077 0.000000 0.005066 0.000000
# 4 0.000000 0.000000 0.000000 0.034436 0.000000 0.004110
# 5 -0.005542 0.005048 0.005066 0.000000 0.028584 0.000000
# 6 0.000000 0.000000 0.000000 0.004110 0.000000 0.029936
#
#
# Mechanical properties :
#
#
# Convention : Reuss Voigt Hill
#
# Bulk Modulus (GPa) = 42.74810 51.01348 46.88079
# Shear Modulus (GPa) = 31.32563 34.89256 33.10909
#
# Velocity S-wave (km/s) = 3.93097 4.14874 4.04132
# Velocity P-wave (km/s) = 6.45681 6.93640 6.70090
#
# Compressibility (1/GPa) = 0.02339285
#
# Stress axis : x y z
#
# Youngs Moduli (GPa) = 90.17182 66.84472 66.32774
#
# Poissons Ratio (x) = 0.35555 0.33216
# Poissons Ratio (y) = 0.47963 -0.09684
# Poissons Ratio (z) = 0.45157 -0.09760
#
# Static dielectric constant tensor:
#      x y z
#    x 1.761860 0.000000 0.020050 
#    y 0.000000 1.718140 0.000000 
#    z 0.020050 0.000000 1.725290 
# 
# From -- ./inp_files/40583.got.cif
#   From: 2010.05.17/outbox.cif.g08.bks.cpg/sg14_21_cif.got.tgz:40583.got - 2010.06.03 17:49:19.
