data_PCOD9245546
_publ_section_title
;
Structure prediction by ZEFSAII (Michael W. Deem and Ramdas Pophale) SiO2 
 PCOD9245546
Probable space group: P 21/C
;
_chemical_formula_sum "Si O2"
_cell_formula_units_Z 28
_cell_length_a 12.877690
_cell_length_b 9.708306
_cell_length_c 8.590761
_cell_angle_alpha 90.000000
_cell_angle_beta 82.374487
_cell_angle_gamma 90.000000
_cell_volume 1064.523652
_symmetry_space_group_name_H-M "P 21/C"
_symmetry_group_IT_number 14
_symmetry_cell_setting 'monoclinic'
loop_
_space_group_symop_operation_xyz
x,y,z
-x,1/2+y,1/2-z
-x,-y,-z
x,1/2-y,1/2+z
loop_
_atom_site_type_symbol
_atom_site_label
_atom_site_fract_x
_atom_site_fract_y
_atom_site_fract_z
Si Si1 0.067001 0.823972 0.971648
Si Si2 0.239124 0.431459 0.003922
Si Si3 0.128321 0.401457 0.321575
Si Si4 0.560899 0.733299 0.927420
Si Si5 0.367105 0.070101 0.877555
Si Si6 0.354369 0.827879 0.656973
Si Si7 0.809603 0.105178 0.746294
O O1 0.141079 0.883232 0.094095
O O2 0.954996 0.807969 0.074081
O O3 0.113554 0.690204 0.882769
O O4 0.074392 0.947357 0.844795
O O5 0.345185 0.346720 0.001794
O O6 0.207282 0.459921 0.834013
O O7 0.153069 0.370554 0.137701
O O8 0.270428 0.578120 0.079563
O O9 0.242898 0.401878 0.379386
O O10 0.591919 0.890879 0.960279
O O11 0.452005 0.692593 0.025872
O O12 0.571194 0.672123 0.753274
O O13 0.383264 0.918293 0.803607
O O14 0.298939 0.688552 0.719951
#
# Coordination Sequence:
#
# PCOD9245546 Si02
#       7
#     4   4   4   4   4   4   4
#     4  11  21  38  62  92 118 165 195 256 300 365
#     4  10  21  42  59  90 123 161 203 255 297 369
#     4   9  21  42  62  82 126 158 199 249 313 347
#     4  10  23  37  63  85 122 164 201 247 315 353
#     4  10  21  42  59  86 121 159 201 254 299 373
#     4  10  21  38  63  84 125 161 198 255 302 363
#     4  12  22  37  65  94 125 154 211 247 306 360
#
# _framework density 26.302842999999999
#
# number of rings (size 3 to 8) (size 9 to 14) (size 15 to 20)
#    0.000    2.000    4.286    1.714    4.000    4.000 
#    0.000    2.143    0.000    0.000    0.000    0.000 
#    0.000    0.000    0.000    0.000    0.000    0.000 
#
# Total GULP energy -156898.152776 kJ/mol
# GULP energy per Si atom -5603.505456 kJ/mol
# Density = 2.624298 g / cm^3
# Si number density = 26.302843 Si / 1000 Ang^3
#
#
#
# Elastic Constant Matrix: (Units=GPa)
#
#
# Indices 1 2 3 4 5 6 
#
# 1 60.8750 20.0892 64.2151 0.0000 -26.3640 0.0000
# 2 20.0892 46.1652 32.2043 0.0000 -6.3133 0.0000
# 3 64.2151 32.2043 131.5126 0.0000 -48.2890 0.0000
# 4 0.0000 0.0000 0.0000 49.8041 0.0000 10.5180
# 5 -26.3640 -6.3133 -48.2890 0.0000 63.8055 0.0000
# 6 0.0000 0.0000 0.0000 10.5180 0.0000 18.7058
#
#
#
# Elastic Compliance Matrix: (Units=1/GPa)
#
#
# Indices 1 2 3 4 5 6 
#
# 1 0.034764 -0.004341 -0.014949 0.000000 0.002621 0.000000
# 2 -0.004341 0.027124 -0.005810 0.000000 -0.003507 0.000000
# 3 -0.014949 -0.005810 0.019176 0.000000 0.007761 0.000000
# 4 0.000000 0.000000 0.000000 0.022784 0.000000 -0.012811
# 5 0.002621 -0.003507 0.007761 0.000000 0.022282 0.000000
# 6 0.000000 0.000000 0.000000 -0.012811 0.000000 0.060663
#
#
# Mechanical properties :
#
#
# Convention : Reuss Voigt Hill
#
# Bulk Modulus (GPa) = 32.40145 52.39664 42.39905
# Shear Modulus (GPa) = 20.21987 34.59938 27.40962
#
# Velocity S-wave (km/s) = 2.77561 3.63081 3.23163
# Velocity P-wave (km/s) = 4.75577 6.12706 5.48444
#
# Compressibility (1/GPa) = 0.03086282
#
# Stress axis : x y z
#
# Youngs Moduli (GPa) = 28.76504 36.86796 52.14960
#
# Poissons Ratio (x) = 0.16005 0.77961
# Poissons Ratio (y) = 0.12487 0.30299
# Poissons Ratio (z) = 0.43002 0.21420
#
# Static dielectric constant tensor:
#      x y z
#    x 2.073670 0.000000 0.065730 
#    y 0.000000 2.080020 0.000000 
#    z 0.065730 0.000000 2.043660 
# 
# From -- ./inp_files/15689.got.cif
#   From: 2010.05.17/outbox.cif.g08.bks.cpg/sg14_8_cif.got.tgz:15689.got - 2010.06.03 17:49:19.
