data_PCOD9245652
_publ_section_title
;
Structure prediction by ZEFSAII (Michael W. Deem and Ramdas Pophale) SiO2 
 PCOD9245652
Probable space group: P 21/C
;
_chemical_formula_sum "Si O2"
_cell_formula_units_Z 32
_cell_length_a 19.995570
_cell_length_b 9.336176
_cell_length_c 9.992582
_cell_angle_alpha 90.000000
_cell_angle_beta 130.449733
_cell_angle_gamma 90.000000
_cell_volume 1419.551607
_symmetry_space_group_name_H-M "P 21/C"
_symmetry_group_IT_number 14
_symmetry_cell_setting 'monoclinic'
loop_
_space_group_symop_operation_xyz
x,y,z
-x,1/2+y,1/2-z
-x,-y,-z
x,1/2-y,1/2+z
loop_
_atom_site_type_symbol
_atom_site_label
_atom_site_fract_x
_atom_site_fract_y
_atom_site_fract_z
Si Si1 0.923926 0.795453 0.473940
Si Si2 0.220290 0.630285 0.085215
Si Si3 0.893052 0.394766 0.822547
Si Si4 0.355093 0.208443 0.167257
Si Si5 0.175037 0.129350 0.375899
Si Si6 0.705192 0.115879 0.938706
Si Si7 0.459817 0.183956 0.051910
Si Si8 0.387934 0.621143 0.428637
O O1 0.879606 0.671116 0.327609
O O2 0.876286 0.822429 0.554079
O O3 0.028902 0.796587 0.630935
O O4 0.914972 0.937410 0.368791
O O5 0.135751 0.651512 0.066173
O O6 0.298698 0.541139 0.258441
O O7 0.194249 0.540192 0.921321
O O8 0.275742 0.775835 0.155033
O O9 0.804642 0.391891 0.623478
O O10 0.388475 0.255321 0.355125
O O11 0.267741 0.287942 0.001349
O O12 0.433576 0.239917 0.163702
O O13 0.331756 0.039657 0.139917
O O14 0.646177 0.189092 0.977696
O O15 0.449123 0.012745 0.050074
O O16 0.553197 0.207321 0.101220
#
# Coordination Sequence:
#
# PCOD9245652 Si02
#       8
#     4   4   4   4   4   4   4   4
#     4  10  21  38  67  91 120 158 212 255 304 364
#     4  10  21  39  62  85 126 162 205 246 317 368
#     4   9  20  40  60  86 123 170 194 249 320 372
#     4  11  21  40  65  92 122 162 209 256 303 370
#     4  11  21  40  65  92 122 162 209 256 303 370
#     4  10  21  39  62  85 126 162 205 246 317 368
#     4  10  21  38  67  91 120 158 212 255 304 364
#     4   9  20  40  60  86 123 170 194 249 320 372
#
# _framework density 22.542328999999999
#
# number of rings (size 3 to 8) (size 9 to 14) (size 15 to 20)
#    0.000    2.000    2.500    0.750    3.500    0.000 
#    9.000    1.250    0.000    0.000    0.000    0.000 
#    0.000    0.000    0.000    0.000    0.000    0.000 
#
# Total GULP energy -178321.293161 kJ/mol
# GULP energy per Si atom -5572.540411 kJ/mol
# Density = 2.249102 g / cm^3
# Si number density = 22.542329 Si / 1000 Ang^3
#
#
#
# Elastic Constant Matrix: (Units=GPa)
#
#
# Indices 1 2 3 4 5 6 
#
# 1 85.6491 29.4346 4.7156 0.0000 15.7091 0.0000
# 2 29.4346 39.1458 8.2391 0.0000 3.3131 0.0000
# 3 4.7156 8.2391 52.3103 0.0000 4.0874 0.0000
# 4 0.0000 0.0000 0.0000 26.1809 0.0000 2.0251
# 5 15.7091 3.3131 4.0874 0.0000 35.4832 0.0000
# 6 0.0000 0.0000 0.0000 2.0251 0.0000 20.9869
#
#
#
# Elastic Compliance Matrix: (Units=1/GPa)
#
#
# Indices 1 2 3 4 5 6 
#
# 1 0.017122 -0.012520 0.000938 0.000000 -0.006519 0.000000
# 2 -0.012520 0.035719 -0.004712 0.000000 0.002751 0.000000
# 3 0.000938 -0.004712 0.019952 0.000000 -0.002274 0.000000
# 4 0.000000 0.000000 0.000000 0.038483 0.000000 -0.003713
# 5 -0.006519 0.002751 -0.002274 0.000000 0.031074 0.000000
# 6 0.000000 0.000000 0.000000 -0.003713 0.000000 0.048007
#
#
# Mechanical properties :
#
#
# Convention : Reuss Voigt Hill
#
# Bulk Modulus (GPa) = 24.87315 29.09822 26.98569
# Shear Modulus (GPa) = 21.15528 25.51128 23.33328
#
# Velocity S-wave (km/s) = 3.06677 3.36773 3.22077
# Velocity P-wave (km/s) = 4.85778 5.29702 5.08215
#
# Compressibility (1/GPa) = 0.04020400
#
# Stress axis : x y z
#
# Youngs Moduli (GPa) = 58.40277 27.99642 50.12029
#
# Poissons Ratio (x) = 0.35053 -0.04701
# Poissons Ratio (y) = 0.73123 0.23618
# Poissons Ratio (z) = -0.05478 0.13192
#
# Static dielectric constant tensor:
#      x y z
#    x 1.879930 0.000000 0.024320 
#    y 0.000000 1.932400 0.000000 
#    z 0.024320 0.000000 2.089220 
# 
# From -- ./inp_files/34984.got.cif
#   From: 2010.05.17/outbox.cif.g08.bks.cpg/sg14_18_cif.got.tgz:34984.got - 2010.06.03 17:49:19.
