data_PCOD9245079
_publ_section_title
;
Structure prediction by ZEFSAII (Michael W. Deem and Ramdas Pophale) SiO2 
 PCOD9245079
Probable space group: P 21/C
;
_chemical_formula_sum "Si O2"
_cell_formula_units_Z 28
_cell_length_a 14.034125
_cell_length_b 8.996413
_cell_length_c 20.973711
_cell_angle_alpha 90.000000
_cell_angle_beta 29.558852
_cell_angle_gamma 90.000000
_cell_volume 1306.340365
_symmetry_space_group_name_H-M "P 21/C"
_symmetry_group_IT_number 14
_symmetry_cell_setting 'monoclinic'
loop_
_space_group_symop_operation_xyz
x,y,z
-x,1/2+y,1/2-z
-x,-y,-z
x,1/2-y,1/2+z
loop_
_atom_site_type_symbol
_atom_site_label
_atom_site_fract_x
_atom_site_fract_y
_atom_site_fract_z
Si Si1 0.795308 0.869329 0.681992
Si Si2 0.319047 0.591732 0.574738
Si Si3 0.097382 0.129869 0.984536
Si Si4 0.591100 0.622636 0.043037
Si Si5 0.394094 0.156200 0.613779
Si Si6 0.001544 0.875727 0.368503
Si Si7 0.587027 0.561516 0.600506
O O1 0.853704 0.764356 0.590983
O O2 0.759740 0.761890 0.763201
O O3 0.944876 0.996261 0.612917
O O4 0.592792 0.952284 0.787571
O O5 0.500000 0.500000 0.500000
O O6 0.404826 0.751912 0.506702
O O7 0.148538 0.605996 0.724099
O O8 0.274752 0.504710 0.535495
O O9 0.292800 0.075601 0.905139
O O10 0.981729 0.213119 0.108896
O O11 0.000000 0.000000 0.000000
O O12 0.654309 0.630643 0.931883
O O13 0.783433 0.598343 0.972049
O O14 0.435745 0.490455 0.130941
O O15 0.515543 0.779936 0.114103
#
# Coordination Sequence:
#
# PCOD9245079 Si02
#       7
#     4   4   4   4   4   4   4
#     4  11  23  43  65  86 129 183 215 258 331 407
#     4  11  19  41  69  93 129 173 211 273 340 402
#     4  11  28  44  63  99 133 172 223 277 317 395
#     4  10  21  36  60 101 130 163 223 286 335 381
#     4  10  21  37  62  97 130 171 219 267 335 396
#     4  11  23  41  68  93 131 173 218 279 336 384
#     4  10  22  44  66  90 128 174 220 267 336 395
#
# _framework density 21.433924000000001
#
# number of rings (size 3 to 8) (size 9 to 14) (size 15 to 20)
#    0.000    1.429    4.286    0.429    0.000   13.714 
#    0.000    0.000    0.000    0.000    0.000    0.000 
#    0.000    0.000    0.000    0.000    0.000    0.000 
#
# Total GULP energy -156495.805778 kJ/mol
# GULP energy per Si atom -5589.135921 kJ/mol
# Density = 2.138514 g / cm^3
# Si number density = 21.433924 Si / 1000 Ang^3
#
#
#
# Elastic Constant Matrix: (Units=GPa)
#
#
# Indices 1 2 3 4 5 6 
#
# 1 101.8990 63.4809 2.2889 0.0000 -7.1658 0.0000
# 2 63.4809 136.9550 32.2580 0.0000 -1.6429 0.0000
# 3 2.2889 32.2580 44.5043 0.0000 -2.5751 0.0000
# 4 0.0000 0.0000 0.0000 27.6762 0.0000 5.6485
# 5 -7.1658 -1.6429 -2.5751 0.0000 13.4492 0.0000
# 6 0.0000 0.0000 0.0000 5.6485 0.0000 35.0402
#
#
#
# Elastic Compliance Matrix: (Units=1/GPa)
#
#
# Indices 1 2 3 4 5 6 
#
# 1 0.015557 -0.008485 0.005834 0.000000 0.008369 0.000000
# 2 -0.008485 0.013433 -0.009573 0.000000 -0.004713 0.000000
# 3 0.005834 -0.009573 0.029548 0.000000 0.007596 0.000000
# 4 0.000000 0.000000 0.000000 0.037361 0.000000 -0.006023
# 5 0.008369 -0.004713 0.007596 0.000000 0.079692 0.000000
# 6 0.000000 0.000000 0.000000 -0.006023 0.000000 0.029510
#
#
# Mechanical properties :
#
#
# Convention : Reuss Voigt Hill
#
# Bulk Modulus (GPa) = 29.33339 53.26820 41.30080
# Shear Modulus (GPa) = 20.75466 27.58849 24.17157
#
# Velocity S-wave (km/s) = 3.11514 3.59157 3.36180
# Velocity P-wave (km/s) = 5.16275 6.48887 5.86342
#
# Compressibility (1/GPa) = 0.03409084
#
# Stress axis : x y z
#
# Youngs Moduli (GPa) = 64.28029 74.44574 33.84349
#
# Poissons Ratio (x) = 0.63164 -0.19744
# Poissons Ratio (y) = 0.54539 0.32397
# Poissons Ratio (z) = -0.37501 0.71264
#
# Static dielectric constant tensor:
#      x y z
#    x 1.777920 0.000000 0.047450 
#    y 0.000000 1.807810 0.000000 
#    z 0.047450 0.000000 1.803690 
# 
# From -- ./inp_files/68300.got.cif
#   From: 2010.05.17/outbox.cif.g08.bks.cpg/sg14_35_cif.got.tgz:68300.got - 2010.06.03 17:49:19.
