data_PCOD9245241
_publ_section_title
;
Structure prediction by ZEFSAII (Michael W. Deem and Ramdas Pophale) SiO2 
 PCOD9245241
Probable space group: P 21/C
;
_chemical_formula_sum "Si O2"
_cell_formula_units_Z 28
_cell_length_a 21.471112
_cell_length_b 4.993174
_cell_length_c 13.380951
_cell_angle_alpha 90.000000
_cell_angle_beta 129.327569
_cell_angle_gamma 90.000000
_cell_volume 1109.681606
_symmetry_space_group_name_H-M "P 21/C"
_symmetry_group_IT_number 14
_symmetry_cell_setting 'monoclinic'
loop_
_space_group_symop_operation_xyz
x,y,z
-x,1/2+y,1/2-z
-x,-y,-z
x,1/2-y,1/2+z
loop_
_atom_site_type_symbol
_atom_site_label
_atom_site_fract_x
_atom_site_fract_y
_atom_site_fract_z
Si Si1 0.770801 0.064935 0.850244
Si Si2 0.066717 0.688249 0.419465
Si Si3 0.518025 0.264099 0.113752
Si Si4 0.373532 0.818975 0.437050
Si Si5 0.901163 0.812649 0.683578
Si Si6 0.738815 0.933869 0.454927
Si Si7 0.400103 0.058693 0.138166
O O1 0.710111 0.106427 0.697981
O O2 0.744957 0.276283 0.911251
O O3 0.760564 0.771256 0.886412
O O4 0.865314 0.130162 0.929211
O O5 0.091185 0.484280 0.354379
O O6 0.971150 0.649217 0.336739
O O7 0.077296 0.984890 0.385703
O O8 0.572859 0.132105 0.084174
O O9 0.580372 0.464746 0.231188
O O10 0.486666 0.081662 0.171640
O O11 0.438153 0.437436 0.007396
O O12 0.358953 0.655496 0.522892
O O13 0.808562 0.883627 0.608249
O O14 0.654924 0.820525 0.410465
#
# Coordination Sequence:
#
# PCOD9245241 Si02
#       7
#     4   4   4   4   4   4   4
#     4  10  21  37  59  89 120 156 199 250 295 355
#     4   8  14  27  51  80 115 149 191 237 286 344
#     4  11  25  42  60  87 115 160 208 250 304 362
#     4  11  25  41  61  86 120 158 206 248 309 355
#     4   8  14  28  49  82 114 149 191 237 285 347
#     4  10  22  36  60  88 121 155 199 249 297 351
#     4  12  24  39  62  84 120 160 201 256 301 362
#
# _framework density 25.232462999999999
#
# number of rings (size 3 to 8) (size 9 to 14) (size 15 to 20)
#    0.000    2.000    2.857    0.429    6.000    0.000 
#    0.000    0.000    0.000    0.857    0.000    1.000 
#    0.000    0.000    0.000    0.000    0.000    0.000 
#
# Total GULP energy -156443.489325 kJ/mol
# GULP energy per Si atom -5587.267476 kJ/mol
# Density = 2.517503 g / cm^3
# Si number density = 25.232463 Si / 1000 Ang^3
#
#
#
# Elastic Constant Matrix: (Units=GPa)
#
#
# Indices 1 2 3 4 5 6 
#
# 1 60.2922 13.4892 54.9857 0.0000 10.8300 0.0000
# 2 13.4892 78.3745 5.4352 0.0000 -3.3908 0.0000
# 3 54.9857 5.4352 170.5918 0.0000 56.2368 0.0000
# 4 0.0000 0.0000 0.0000 25.6630 0.0000 6.8901
# 5 10.8300 -3.3908 56.2368 0.0000 45.1247 0.0000
# 6 0.0000 0.0000 0.0000 6.8901 0.0000 27.0373
#
#
#
# Elastic Compliance Matrix: (Units=1/GPa)
#
#
# Indices 1 2 3 4 5 6 
#
# 1 0.025518 -0.003410 -0.010206 0.000000 0.006339 0.000000
# 2 -0.003410 0.013411 0.000119 0.000000 0.001678 0.000000
# 3 -0.010206 0.000119 0.014151 0.000000 -0.015178 0.000000
# 4 0.000000 0.000000 0.000000 0.041828 0.000000 -0.010659
# 5 0.006339 0.001678 -0.015178 0.000000 0.039681 0.000000
# 6 0.000000 0.000000 0.000000 -0.010659 0.000000 0.039702
#
#
# Mechanical properties :
#
#
# Convention : Reuss Voigt Hill
#
# Bulk Modulus (GPa) = 38.33622 50.78651 44.56136
# Shear Modulus (GPa) = 23.81172 35.25490 29.53331
#
# Velocity S-wave (km/s) = 3.07529 3.74197 3.42489
# Velocity P-wave (km/s) = 5.27599 6.23225 5.77395
#
# Compressibility (1/GPa) = 0.02608499
#
# Stress axis : x y z
#
# Youngs Moduli (GPa) = 39.18823 74.56831 70.66555
#
# Poissons Ratio (x) = 0.25427 0.72121
# Poissons Ratio (y) = 0.13363 -0.00838
# Poissons Ratio (z) = 0.39995 -0.00884
#
# Static dielectric constant tensor:
#      x y z
#    x 2.050760 0.000000 0.012140 
#    y 0.000000 2.046710 0.000000 
#    z 0.012140 0.000000 2.062380 
# 
# From -- ./inp_files/47853.got.cif
#   From: 2010.05.17/outbox.cif.g08.bks.cpg/sg14_24_cif.got.tgz:47853.got - 2010.06.03 17:49:19.
