data_PCOD9245483
_publ_section_title
;
Structure prediction by ZEFSAII (Michael W. Deem and Ramdas Pophale) SiO2 
 PCOD9245483
Probable space group: P 21/C
;
_chemical_formula_sum "Si O2"
_cell_formula_units_Z 24
_cell_length_a 15.463908
_cell_length_b 9.022641
_cell_length_c 14.602645
_cell_angle_alpha 90.000000
_cell_angle_beta 29.906609
_cell_angle_gamma 90.000000
_cell_volume 1015.841733
_symmetry_space_group_name_H-M "P 21/C"
_symmetry_group_IT_number 14
_symmetry_cell_setting 'monoclinic'
loop_
_space_group_symop_operation_xyz
x,y,z
-x,1/2+y,1/2-z
-x,-y,-z
x,1/2-y,1/2+z
loop_
_atom_site_type_symbol
_atom_site_label
_atom_site_fract_x
_atom_site_fract_y
_atom_site_fract_z
Si Si1 0.325124 0.667361 0.195645
Si Si2 0.672186 0.661386 0.756420
Si Si3 0.149934 0.328124 0.752089
Si Si4 0.257369 0.830937 0.431337
Si Si5 0.843699 0.158983 0.801864
Si Si6 0.753588 0.838656 0.511181
O O1 0.270231 0.508814 0.286825
O O2 0.360420 0.772528 0.249569
O O3 0.180496 0.733227 0.261632
O O4 0.491001 0.662760 0.977052
O O5 0.798902 0.772056 0.695054
O O6 0.664218 0.721272 0.660726
O O7 0.212560 0.494936 0.675756
O O8 0.240656 0.215378 0.598074
O O9 0.944029 0.330969 0.919648
O O10 0.258108 0.721249 0.516939
O O11 0.311010 0.994592 0.414359
O O12 0.043879 0.157166 0.646617
#
# Coordination Sequence:
#
# PCOD9245483 Si02
#       6
#     4   4   4   4   4   4
#     4  11  24  39  56  82 116 153 190 229 278 334
#     4  11  24  39  56  82 116 153 190 229 278 334
#     4  10  21  38  61  87 113 145 187 233 281 333
#     4  10  21  38  61  87 113 145 187 233 281 333
#     4  10  21  38  61  87 113 145 187 233 281 333
#     4  10  21  38  61  87 113 145 187 233 281 333
#
# _framework density 23.625727000000001
#
# number of rings (size 3 to 8) (size 9 to 14) (size 15 to 20)
#    0.000    1.667    0.000    4.000    0.000   12.000 
#    0.000    0.000    0.000    0.000    0.000    0.000 
#    0.000    0.000    0.000    0.000    0.000    0.000 
#
# Total GULP energy -134417.837913 kJ/mol
# GULP energy per Si atom -5600.743246 kJ/mol
# Density = 2.357195 g / cm^3
# Si number density = 23.625727 Si / 1000 Ang^3
#
#
#
# Elastic Constant Matrix: (Units=GPa)
#
#
# Indices 1 2 3 4 5 6 
#
# 1 42.3156 -3.5986 9.8025 0.0000 2.9372 0.0000
# 2 -3.5986 22.7048 -49.5796 0.0000 -14.0223 0.0000
# 3 9.8025 -49.5796 8.4900 0.0000 11.0652 0.0000
# 4 0.0000 0.0000 0.0000 31.5822 0.0000 8.4536
# 5 2.9372 -14.0223 11.0652 0.0000 36.5289 0.0000
# 6 0.0000 0.0000 0.0000 8.4536 0.0000 28.9422
#
#
#
# Elastic Compliance Matrix: (Units=1/GPa)
#
#
# Indices 1 2 3 4 5 6 
#
# 1 0.023935 0.004764 0.000516 0.000000 -0.000252 0.000000
# 2 0.004764 -0.001665 -0.022955 0.000000 0.005931 0.000000
# 3 0.000516 -0.022955 -0.008800 0.000000 -0.006188 0.000000
# 4 0.000000 0.000000 0.000000 0.034349 0.000000 -0.010033
# 5 -0.000252 0.005931 -0.006188 0.000000 0.031547 0.000000
# 6 0.000000 0.000000 0.000000 -0.010033 0.000000 0.037482
#
#
# Mechanical properties :
#
#
# Convention : Reuss Voigt Hill
#
# Bulk Modulus (GPa) = -45.70273 -1.47123 -23.58698
# Shear Modulus (GPa) = 34.50528 27.20307 30.85418
#
# Velocity S-wave (km/s) = 3.82579 3.39694 3.61772
# Velocity P-wave (km/s) = 0.35929 3.84207 2.72861
#
# Compressibility (1/GPa) = -0.02188053
#
# Stress axis : x y z
#
# Youngs Moduli (GPa) = 41.77958 -600.52596 -113.63939
#
# Poissons Ratio (x) = 2.86113 0.05861
# Poissons Ratio (y) = -0.19905 -2.60865
# Poissons Ratio (z) = -0.02155 -13.78537
#
# Static dielectric constant tensor:
#      x y z
#    x 1.877020 0.000000 -0.051440 
#    y 0.000000 1.867420 0.000000 
#    z -0.051440 0.000000 1.899900 
# 
# From -- ./inp_files/8546.got.cif
#   From: 2010.05.17/outbox.cif.g08.bks.cpg/sg14_5_cif.got.tgz:8546.got - 2010.06.03 17:49:19.
