data_PCOD9245174
_publ_section_title
;
Structure prediction by ZEFSAII (Michael W. Deem and Ramdas Pophale) SiO2 
 PCOD9245174
Probable space group: P 21/C
;
_chemical_formula_sum "Si O2"
_cell_formula_units_Z 28
_cell_length_a 5.452574
_cell_length_b 7.949988
_cell_length_c 30.072010
_cell_angle_alpha 90.000000
_cell_angle_beta 127.772350
_cell_angle_gamma 90.000000
_cell_volume 1030.398663
_symmetry_space_group_name_H-M "P 21/C"
_symmetry_group_IT_number 14
_symmetry_cell_setting 'monoclinic'
loop_
_space_group_symop_operation_xyz
x,y,z
-x,1/2+y,1/2-z
-x,-y,-z
x,1/2-y,1/2+z
loop_
_atom_site_type_symbol
_atom_site_label
_atom_site_fract_x
_atom_site_fract_y
_atom_site_fract_z
Si Si1 0.953123 0.296309 0.140779
Si Si2 0.032300 0.670707 0.687281
Si Si3 0.915774 0.004890 0.724171
Si Si4 0.000500 0.046921 0.428567
Si Si5 0.467996 0.035337 0.079789
Si Si6 0.354619 0.707593 0.030964
Si Si7 0.377543 0.002426 0.165462
O O1 0.085271 0.446818 0.125653
O O2 0.872246 0.359471 0.180779
O O3 0.634014 0.210540 0.085947
O O4 0.207936 0.152361 0.172512
O O5 0.260366 0.678172 0.670361
O O6 0.235570 0.572655 0.747462
O O7 0.749308 0.576026 0.631699
O O8 0.888349 0.829373 0.695956
O O9 0.265532 0.994103 0.782376
O O10 0.123975 0.895356 0.473896
O O11 0.301137 0.156618 0.447304
O O12 0.748711 0.144225 0.430794
O O13 0.323662 0.910129 0.027949
O O14 0.276424 0.046636 0.104003
#
# Coordination Sequence:
#
# PCOD9245174 Si02
#       7
#     4   4   4   4   4   4   4
#     4  11  24  39  63  95 129 173 230 272 341 403
#     4  10  21  37  56  84 122 168 217 271 331 391
#     4  11  21  38  58  85 126 170 222 276 325 401
#     4  10  24  45  71 102 131 175 221 280 335 416
#     4  10  23  39  62  91 130 171 218 277 331 405
#     4  10  23  46  71  99 136 171 223 275 347 399
#     4  10  22  38  56  90 127 172 216 273 334 396
#
# _framework density 27.173949
#
# number of rings (size 3 to 8) (size 9 to 14) (size 15 to 20)
#    0.000    1.714    0.000    4.286    8.000    1.714 
#    2.571    0.714    0.000    0.000    0.000    0.000 
#    0.000    0.000    0.000    0.000    0.000    0.000 
#
# Total GULP energy -156470.755965 kJ/mol
# GULP energy per Si atom -5588.241284 kJ/mol
# Density = 2.711210 g / cm^3
# Si number density = 27.173949 Si / 1000 Ang^3
#
#
#
# Elastic Constant Matrix: (Units=GPa)
#
#
# Indices 1 2 3 4 5 6 
#
# 1 90.6801 20.9259 27.3820 0.0000 -23.7896 0.0000
# 2 20.9259 92.7623 13.0452 0.0000 -7.0327 0.0000
# 3 27.3820 13.0452 71.5973 0.0000 -4.7633 0.0000
# 4 0.0000 0.0000 0.0000 52.2810 0.0000 -8.2960
# 5 -23.7896 -7.0327 -4.7633 0.0000 37.7889 0.0000
# 6 0.0000 0.0000 0.0000 -8.2960 0.0000 36.9708
#
#
#
# Elastic Compliance Matrix: (Units=1/GPa)
#
#
# Indices 1 2 3 4 5 6 
#
# 1 0.015237 -0.002101 -0.004873 0.000000 0.008587 0.000000
# 2 -0.002101 0.011479 -0.001244 0.000000 0.000657 0.000000
# 3 -0.004873 -0.001244 0.015972 0.000000 -0.001286 0.000000
# 4 0.000000 0.000000 0.000000 0.019834 0.000000 0.004451
# 5 0.008587 0.000657 -0.001286 0.000000 0.031829 0.000000
# 6 0.000000 0.000000 0.000000 0.004451 0.000000 0.028047
#
#
# Mechanical properties :
#
#
# Convention : Reuss Voigt Hill
#
# Bulk Modulus (GPa) = 38.09389 41.97175 40.03282
# Shear Modulus (GPa) = 33.87896 38.32058 36.09977
#
# Velocity S-wave (km/s) = 3.53476 3.75933 3.64877
# Velocity P-wave (km/s) = 5.54151 5.85854 5.70223
#
# Compressibility (1/GPa) = 0.02625093
#
# Stress axis : x y z
#
# Youngs Moduli (GPa) = 65.63027 87.11588 62.61002
#
# Poissons Ratio (x) = 0.18302 0.30511
# Poissons Ratio (y) = 0.13788 0.07791
# Poissons Ratio (z) = 0.31983 0.10840
#
# Static dielectric constant tensor:
#      x y z
#    x 2.390470 0.000000 -0.062590 
#    y 0.000000 2.265150 0.000000 
#    z -0.062590 0.000000 2.128780 
# 
# From -- ./inp_files/78742.got.cif
#   From: 2010.05.17/outbox.cif.g08.bks.cpg/sg14_40_cif.got.tgz:78742.got - 2010.06.03 17:49:19.
