data_PCOD9245093
_publ_section_title
;
Structure prediction by ZEFSAII (Michael W. Deem and Ramdas Pophale) SiO2 
 PCOD9245093
Probable space group: P 21/C
;
_chemical_formula_sum "Si O2"
_cell_formula_units_Z 32
_cell_length_a 11.434277
_cell_length_b 9.381319
_cell_length_c 31.162045
_cell_angle_alpha 90.000000
_cell_angle_beta 154.621139
_cell_angle_gamma 90.000000
_cell_volume 1432.691147
_symmetry_space_group_name_H-M "P 21/C"
_symmetry_group_IT_number 14
_symmetry_cell_setting 'monoclinic'
loop_
_space_group_symop_operation_xyz
x,y,z
-x,1/2+y,1/2-z
-x,-y,-z
x,1/2-y,1/2+z
loop_
_atom_site_type_symbol
_atom_site_label
_atom_site_fract_x
_atom_site_fract_y
_atom_site_fract_z
Si Si1 0.176220 0.849878 0.951368
Si Si2 0.046710 0.576057 0.320387
Si Si3 0.096724 0.085410 0.990634
Si Si4 0.751181 0.898708 0.326222
Si Si5 0.678718 0.062059 0.221358
Si Si6 0.902402 0.596792 0.007452
Si Si7 0.627561 0.373094 0.215778
Si Si8 0.228724 0.162114 0.815431
O O1 0.243699 0.864872 0.923131
O O2 0.925859 0.740252 0.873170
O O3 0.075458 0.996467 0.940271
O O4 0.448040 0.805492 0.068926
O O5 0.800876 0.514672 0.267785
O O6 0.939889 0.695575 0.251786
O O7 0.148883 0.437447 0.328950
O O8 0.977699 0.243954 0.952223
O O9 0.419427 0.095112 0.105953
O O10 0.000000 0.000000 0.000000
O O11 0.556139 0.871056 0.302092
O O12 0.591693 0.975822 0.235066
O O13 0.985998 0.013636 0.415220
O O14 0.784838 0.221217 0.266458
O O15 0.834756 0.942979 0.245915
O O16 0.582153 0.612629 0.893818
O O17 0.000000 0.500000 0.000000
#
# Coordination Sequence:
#
# PCOD9245093 Si02
#       8
#     4   4   4   4   4   4   4   4
#     4  11  24  43  68 102 134 181 228 278 348 412
#     4  12  25  45  72  97 135 180 233 286 340 401
#     4  10  21  36  60  90 134 175 217 269 340 402
#     4  11  22  38  65  99 138 170 225 275 344 415
#     4  10  22  39  61  90 129 172 217 276 335 400
#     4   9  19  37  56  89 131 175 210 269 324 403
#     4  10  23  38  63  98 136 175 223 273 344 404
#     4  11  25  48  70  95 133 176 231 288 338 397
#
# _framework density 22.335588000000001
#
# number of rings (size 3 to 8) (size 9 to 14) (size 15 to 20)
#    0.000    1.500    1.250    4.125    5.250    3.000 
#    0.000    0.625    0.000    0.000    0.000    0.000 
#    0.000    0.000    0.000    0.000    0.000    0.000 
#
# Total GULP energy -178445.690094 kJ/mol
# GULP energy per Si atom -5576.427815 kJ/mol
# Density = 2.228475 g / cm^3
# Si number density = 22.335588 Si / 1000 Ang^3
#
#
#
# Elastic Constant Matrix: (Units=GPa)
#
#
# Indices 1 2 3 4 5 6 
#
# 1 50.6287 16.0332 6.6995 0.0000 -13.8406 0.0000
# 2 16.0332 144.5489 25.9070 0.0000 -2.6890 0.0000
# 3 6.6995 25.9070 62.1138 0.0000 -16.6033 0.0000
# 4 0.0000 0.0000 0.0000 30.5167 0.0000 0.0125
# 5 -13.8406 -2.6890 -16.6033 0.0000 26.1192 0.0000
# 6 0.0000 0.0000 0.0000 0.0125 0.0000 40.0044
#
#
#
# Elastic Compliance Matrix: (Units=1/GPa)
#
#
# Indices 1 2 3 4 5 6 
#
# 1 0.024166 -0.002835 0.002314 0.000000 0.013985 0.000000
# 2 -0.002835 0.007856 -0.003802 0.000000 -0.003111 0.000000
# 3 0.002314 -0.003802 0.021274 0.000000 0.014358 0.000000
# 4 0.000000 0.000000 0.000000 0.032769 0.000000 -0.000010
# 5 0.013985 -0.003111 0.014358 0.000000 0.054503 0.000000
# 6 0.000000 0.000000 0.000000 -0.000010 0.000000 0.024997
#
#
# Mechanical properties :
#
#
# Convention : Reuss Voigt Hill
#
# Bulk Modulus (GPa) = 22.39660 39.39676 30.89668
# Shear Modulus (GPa) = 26.44160 33.23814 29.83987
#
# Velocity S-wave (km/s) = 3.44442 3.86181 3.65907
# Velocity P-wave (km/s) = 5.08604 6.12875 5.63158
#
# Compressibility (1/GPa) = 0.04464964
#
# Stress axis : x y z
#
# Youngs Moduli (GPa) = 41.37977 127.28850 47.00620
#
# Poissons Ratio (x) = 0.36088 -0.10878
# Poissons Ratio (y) = 0.11732 0.17874
# Poissons Ratio (z) = -0.09576 0.48400
#
# Static dielectric constant tensor:
#      x y z
#    x 1.874030 0.000000 -0.017480 
#    y 0.000000 1.906820 0.000000 
#    z -0.017480 0.000000 1.958320 
# 
# From -- ./inp_files/80033.got.cif
#   From: 2010.05.17/outbox.cif.g08.bks.cpg/sg14_41_cif.got.tgz:80033.got - 2010.06.03 17:49:19.
