data_PCOD9245943
_publ_section_title
;
Structure prediction by ZEFSAII (Michael W. Deem and Ramdas Pophale) SiO2 
 PCOD9245943
Probable space group: P 21/C
;
_chemical_formula_sum "Si O2"
_cell_formula_units_Z 16
_cell_length_a 10.171765
_cell_length_b 8.610752
_cell_length_c 10.100789
_cell_angle_alpha 90.000000
_cell_angle_beta 43.894997
_cell_angle_gamma 90.000000
_cell_volume 613.392230
_symmetry_space_group_name_H-M "P 21/C"
_symmetry_group_IT_number 14
_symmetry_cell_setting 'monoclinic'
loop_
_space_group_symop_operation_xyz
x,y,z
-x,1/2+y,1/2-z
-x,-y,-z
x,1/2-y,1/2+z
loop_
_atom_site_type_symbol
_atom_site_label
_atom_site_fract_x
_atom_site_fract_y
_atom_site_fract_z
Si Si1 0.315870 0.394459 0.285953
Si Si2 0.041823 0.979462 0.315703
Si Si3 0.406656 0.345893 0.506790
Si Si4 0.115423 0.860489 0.800528
O O1 0.436686 0.349942 0.327812
O O2 0.415658 0.302491 0.094809
O O3 0.274576 0.576018 0.285758
O O4 0.091811 0.349897 0.476193
O O5 0.139665 0.812447 0.228963
O O6 0.184067 0.115246 0.176037
O O7 0.000000 0.000000 0.500000
O O8 0.882847 0.013870 0.321092
O O9 0.500000 0.500000 0.500000
#
# Coordination Sequence:
#
# PCOD9245943 Si02
#       4
#     4   4   4   4
#     4  10  22  42  66  92 132 171 218 277 326 391
#     4  11  22  38  68  97 130 169 223 274 329 388
#     4  11  25  44  64  94 134 175 218 270 334 401
#     4  10  21  39  66 100 127 168 223 277 326 381
#
# _framework density 26.084453
#
# number of rings (size 3 to 8) (size 9 to 14) (size 15 to 20)
#    0.000    1.500    2.500    3.000    7.000    2.000 
#    0.000    2.500    0.000    0.000    0.000    0.000 
#    0.000    0.000    0.000    0.000    0.000    0.000 
#
# Total GULP energy -89307.798394 kJ/mol
# GULP energy per Si atom -5581.737400 kJ/mol
# Density = 2.602508 g / cm^3
# Si number density = 26.084453 Si / 1000 Ang^3
#
#
#
# Elastic Constant Matrix: (Units=GPa)
#
#
# Indices 1 2 3 4 5 6 
#
# 1 90.1268 46.3137 52.3675 0.0000 39.8739 0.0000
# 2 46.3137 148.0850 44.8763 0.0000 35.6822 0.0000
# 3 52.3675 44.8763 109.3781 0.0000 30.5558 0.0000
# 4 0.0000 0.0000 0.0000 41.1547 0.0000 -1.3008
# 5 39.8739 35.6822 30.5558 0.0000 43.4383 0.0000
# 6 0.0000 0.0000 0.0000 -1.3008 0.0000 48.4087
#
#
#
# Elastic Compliance Matrix: (Units=1/GPa)
#
#
# Indices 1 2 3 4 5 6 
#
# 1 0.021634 -0.001530 -0.005642 0.000000 -0.014633 0.000000
# 2 -0.001530 0.008855 -0.001569 0.000000 -0.004766 0.000000
# 3 -0.005642 -0.001569 0.013293 0.000000 -0.002882 0.000000
# 4 0.000000 0.000000 0.000000 0.024319 0.000000 0.000653
# 5 -0.014633 -0.004766 -0.002882 0.000000 0.042396 0.000000
# 6 0.000000 0.000000 0.000000 0.000653 0.000000 0.020675
#
#
# Mechanical properties :
#
#
# Convention : Reuss Voigt Hill
#
# Bulk Modulus (GPa) = 38.02423 70.52277 54.27350
# Shear Modulus (GPa) = 31.76173 40.20251 35.98212
#
# Velocity S-wave (km/s) = 3.49327 3.93013 3.71812
# Velocity P-wave (km/s) = 5.55694 6.90576 6.26774
#
# Compressibility (1/GPa) = 0.02629902
#
# Stress axis : x y z
#
# Youngs Moduli (GPa) = 46.22318 112.92631 75.22759
#
# Poissons Ratio (x) = 0.17282 0.42445
# Poissons Ratio (y) = 0.07074 0.11805
# Poissons Ratio (z) = 0.26080 0.17721
#
# Static dielectric constant tensor:
#      x y z
#    x 2.396140 0.000000 0.061300 
#    y 0.000000 2.107690 0.000000 
#    z 0.061300 0.000000 2.105690 
# 
# From -- ./inp_files/11560.got.cif
#   From: 2010.05.17/outbox.cif.g08.bks.cpg/sg14_6_cif.got.tgz:11560.got - 2010.06.03 17:49:19.
