data_PCOD9245000
_publ_section_title
;
Structure prediction by ZEFSAII (Michael W. Deem and Ramdas Pophale) SiO2 
 PCOD9245000
Probable space group: P 21/C
;
_chemical_formula_sum "Si O2"
_cell_formula_units_Z 32
_cell_length_a 16.030513
_cell_length_b 12.599974
_cell_length_c 27.269588
_cell_angle_alpha 90.000000
_cell_angle_beta 17.797131
_cell_angle_gamma 90.000000
_cell_volume 1683.513782
_symmetry_space_group_name_H-M "P 21/C"
_symmetry_group_IT_number 14
_symmetry_cell_setting 'monoclinic'
loop_
_space_group_symop_operation_xyz
x,y,z
-x,1/2+y,1/2-z
-x,-y,-z
x,1/2-y,1/2+z
loop_
_atom_site_type_symbol
_atom_site_label
_atom_site_fract_x
_atom_site_fract_y
_atom_site_fract_z
Si Si1 0.259638 0.022639 0.067270
Si Si2 0.107618 0.096609 0.995699
Si Si3 0.464851 0.641382 0.206603
Si Si4 0.876158 0.442702 0.255934
Si Si5 0.848211 0.768014 0.931567
Si Si6 0.467873 0.932059 0.853283
Si Si7 0.926734 0.025087 0.453306
Si Si8 0.453751 0.783214 0.305177
O O1 0.559490 0.044523 0.920649
O O2 0.307740 0.944713 0.994309
O O3 0.163352 0.133853 0.098696
O O4 0.082487 0.976562 0.210991
O O5 0.267124 0.154346 0.862648
O O6 0.202210 0.931146 0.843953
O O7 0.296907 0.002275 0.910192
O O8 0.080450 0.181546 0.055520
O O9 0.383547 0.726254 0.293075
O O10 0.565322 0.706366 0.102493
O O11 0.724355 0.572398 0.079421
O O12 0.959013 0.322784 0.197279
O O13 0.031410 0.514414 0.128788
O O14 0.487238 0.811513 0.824973
O O15 0.773369 0.979292 0.690072
O O16 0.775818 0.132903 0.551703
#
# Coordination Sequence:
#
# PCOD9245000 Si02
#       8
#     4   4   4   4   4   4   4   4
#     4   9  18  34  56  79 103 136 178 220 264 316
#     4  10  21  36  55  79 107 143 184 220 260 318
#     4  10  21  36  55  79 107 143 184 220 260 318
#     4   9  18  34  56  79 103 136 178 220 264 316
#     4   9  18  33  56  78 106 141 178 219 266 314
#     4  10  22  38  55  79 110 142 179 222 267 318
#     4  10  22  38  55  79 110 142 179 222 267 318
#     4  11  22  33  54  80 110 143 176 219 270 316
#
# _framework density 19.007864000000001
#
# number of rings (size 3 to 8) (size 9 to 14) (size 15 to 20)
#    0.000    2.250    0.000    2.250    0.000   12.000 
#    0.000    0.000    0.000   18.750    0.000    0.000 
#    0.000    0.000    0.000    0.000    0.000    0.000 
#
# Total GULP energy -178538.700935 kJ/mol
# GULP energy per Si atom -5579.334404 kJ/mol
# Density = 1.896460 g / cm^3
# Si number density = 19.007864 Si / 1000 Ang^3
#
#
#
# Elastic Constant Matrix: (Units=GPa)
#
#
# Indices 1 2 3 4 5 6 
#
# 1 39.6203 26.0083 21.6244 0.0000 13.8347 0.0000
# 2 26.0083 96.9745 34.4259 0.0000 25.0417 0.0000
# 3 21.6244 34.4259 70.9321 0.0000 16.7495 0.0000
# 4 0.0000 0.0000 0.0000 20.2373 0.0000 -3.7575
# 5 13.8347 25.0417 16.7495 0.0000 33.5962 0.0000
# 6 0.0000 0.0000 0.0000 -3.7575 0.0000 23.1372
#
#
#
# Elastic Compliance Matrix: (Units=1/GPa)
#
#
# Indices 1 2 3 4 5 6 
#
# 1 0.034618 -0.005164 -0.006336 0.000000 -0.007248 0.000000
# 2 -0.005164 0.014931 -0.004020 0.000000 -0.006999 0.000000
# 3 -0.006336 -0.004020 0.018880 0.000000 -0.003807 0.000000
# 4 0.000000 0.000000 0.000000 0.050950 0.000000 0.008274
# 5 -0.007248 -0.006999 -0.003807 0.000000 0.039865 0.000000
# 6 0.000000 0.000000 0.000000 0.008274 0.000000 0.044564
#
#
# Mechanical properties :
#
#
# Convention : Reuss Voigt Hill
#
# Bulk Modulus (GPa) = 26.74520 41.29379 34.01950
# Shear Modulus (GPa) = 20.21751 23.75869 21.98810
#
# Velocity S-wave (km/s) = 3.26489 3.53928 3.40485
# Velocity P-wave (km/s) = 5.32107 6.20272 5.77874
#
# Compressibility (1/GPa) = 0.03738988
#
# Stress axis : x y z
#
# Youngs Moduli (GPa) = 28.88651 66.97389 52.96730
#
# Poissons Ratio (x) = 0.34582 0.33561
# Poissons Ratio (y) = 0.14916 0.21292
# Poissons Ratio (z) = 0.18303 0.26922
#
# Static dielectric constant tensor:
#      x y z
#    x 1.688340 0.000000 0.005760 
#    y 0.000000 1.653290 0.000000 
#    z 0.005760 0.000000 1.680460 
# 
# From -- ./inp_files/33818.got.cif
#   From: 2010.05.17/outbox.cif.g08.bks.cpg/sg14_17_cif.got.tgz:33818.got - 2010.06.03 17:49:19.
