data_PCOD9245858
_publ_section_title
;
Structure prediction by ZEFSAII (Michael W. Deem and Ramdas Pophale) SiO2 
 PCOD9245858
Probable space group: P 21/C
;
_chemical_formula_sum "Si O2"
_cell_formula_units_Z 32
_cell_length_a 30.227153
_cell_length_b 8.679820
_cell_length_c 12.615866
_cell_angle_alpha 90.000000
_cell_angle_beta 27.163778
_cell_angle_gamma 90.000000
_cell_volume 1511.122370
_symmetry_space_group_name_H-M "P 21/C"
_symmetry_group_IT_number 14
_symmetry_cell_setting 'monoclinic'
loop_
_space_group_symop_operation_xyz
x,y,z
-x,1/2+y,1/2-z
-x,-y,-z
x,1/2-y,1/2+z
loop_
_atom_site_type_symbol
_atom_site_label
_atom_site_fract_x
_atom_site_fract_y
_atom_site_fract_z
Si Si1 0.973407 0.255546 0.074931
Si Si2 0.150157 0.370375 0.830422
Si Si3 0.222749 0.944441 0.998015
Si Si4 0.463484 0.258205 0.075171
Si Si5 0.571947 0.463373 0.000042
Si Si6 0.026021 0.453639 0.281285
Si Si7 0.818787 0.536519 0.643094
Si Si8 0.617589 0.459557 0.146041
O O1 0.867826 0.330373 0.294412
O O2 0.964926 0.100102 0.162117
O O3 0.054129 0.357471 0.961197
O O4 0.016380 0.201117 0.870955
O O5 0.227816 0.457588 0.594527
O O6 0.181332 0.201061 0.799376
O O7 0.114314 0.453240 0.012395
O O8 0.327435 0.878415 0.745755
O O9 0.199751 0.046407 0.942636
O O10 0.487170 0.365988 0.125729
O O11 0.561796 0.178314 0.822131
O O12 0.425807 0.370168 0.062472
O O13 0.398430 0.114846 0.251428
O O14 0.569342 0.479245 0.132023
O O15 0.924066 0.465905 0.437897
O O16 0.731664 0.438599 0.880547
#
# Coordination Sequence:
#
# PCOD9245858 Si02
#       8
#     4   4   4   4   4   4   4   4
#     4  10  22  36  55  80 113 153 202 235 288 339
#     4  11  21  36  59  80 116 159 194 240 287 342
#     4  11  22  36  60  86 114 155 196 242 287 349
#     4  10  21  40  64  89 115 160 189 239 312 363
#     4  10  22  39  61  91 123 146 196 251 292 363
#     4  10  22  37  54  81 117 156 194 247 283 340
#     4  10  22  37  56  86 117 150 196 247 287 341
#     4  10  21  39  64  86 119 155 196 241 299 360
#
# _framework density 21.176314000000001
#
# number of rings (size 3 to 8) (size 9 to 14) (size 15 to 20)
#    0.000    1.750    1.250    2.625    5.250    0.000 
#    2.250    0.000    2.750    0.000    0.000    0.000 
#    0.000    0.000    0.000    0.000    0.000    0.000 
#
# Total GULP energy -178745.666764 kJ/mol
# GULP energy per Si atom -5585.802086 kJ/mol
# Density = 2.112812 g / cm^3
# Si number density = 21.176314 Si / 1000 Ang^3
#
#
#
# Elastic Constant Matrix: (Units=GPa)
#
#
# Indices 1 2 3 4 5 6 
#
# 1 63.6197 10.9184 -3.2273 0.0000 14.9498 0.0000
# 2 10.9184 32.2740 10.2368 0.0000 2.0648 0.0000
# 3 -3.2273 10.2368 79.4950 0.0000 16.4201 0.0000
# 4 0.0000 0.0000 0.0000 22.2563 0.0000 3.5034
# 5 14.9498 2.0648 16.4201 0.0000 30.2058 0.0000
# 6 0.0000 0.0000 0.0000 3.5034 0.0000 24.3366
#
#
#
# Elastic Compliance Matrix: (Units=1/GPa)
#
#
# Indices 1 2 3 4 5 6 
#
# 1 0.019911 -0.007309 0.004148 0.000000 -0.011610 0.000000
# 2 -0.007309 0.034987 -0.005695 0.000000 0.004321 0.000000
# 3 0.004148 -0.005695 0.015573 0.000000 -0.010129 0.000000
# 4 0.000000 0.000000 0.000000 0.045973 0.000000 -0.006618
# 5 -0.011610 0.004321 -0.010129 0.000000 0.044063 0.000000
# 6 0.000000 0.000000 0.000000 -0.006618 0.000000 0.042043
#
#
# Mechanical properties :
#
#
# Convention : Reuss Voigt Hill
#
# Bulk Modulus (GPa) = 18.95383 23.47163 21.21273
# Shear Modulus (GPa) = 21.02169 25.85712 23.43941
#
# Velocity S-wave (km/s) = 3.15413 3.49813 3.33057
# Velocity P-wave (km/s) = 4.71536 5.23678 4.98289
#
# Compressibility (1/GPa) = 0.05275979
#
# Stress axis : x y z
#
# Youngs Moduli (GPa) = 50.22282 28.58196 64.21219
#
# Poissons Ratio (x) = 0.20890 -0.26632
# Poissons Ratio (y) = 0.36707 0.36567
# Poissons Ratio (z) = -0.20830 0.16277
#
# Static dielectric constant tensor:
#      x y z
#    x 1.764540 0.000000 -0.004960 
#    y 0.000000 1.755780 0.000000 
#    z -0.004960 0.000000 1.760370 
# 
# From -- ./inp_files/34971.got.cif
#   From: 2010.05.17/outbox.cif.g08.bks.cpg/sg14_18_cif.got.tgz:34971.got - 2010.06.03 17:49:19.
