data_PCOD9245466
_publ_section_title
;
Structure prediction by ZEFSAII (Michael W. Deem and Ramdas Pophale) SiO2 
 PCOD9245466
Probable space group: P 21/C
;
_chemical_formula_sum "Si O2"
_cell_formula_units_Z 32
_cell_length_a 8.481458
_cell_length_b 21.415325
_cell_length_c 14.275284
_cell_angle_alpha 90.000000
_cell_angle_beta 142.272317
_cell_angle_gamma 90.000000
_cell_volume 1586.598229
_symmetry_space_group_name_H-M "P 21/C"
_symmetry_group_IT_number 14
_symmetry_cell_setting 'monoclinic'
loop_
_space_group_symop_operation_xyz
x,y,z
-x,1/2+y,1/2-z
-x,-y,-z
x,1/2-y,1/2+z
loop_
_atom_site_type_symbol
_atom_site_label
_atom_site_fract_x
_atom_site_fract_y
_atom_site_fract_z
Si Si1 0.039592 0.102542 0.765886
Si Si2 0.303520 0.183870 0.030994
Si Si3 0.543674 0.883989 0.274038
Si Si4 0.611615 0.478393 0.152695
Si Si5 0.575094 0.979460 0.139659
Si Si6 0.550727 0.918485 0.766642
Si Si7 0.100860 0.663071 0.973365
Si Si8 0.770068 0.237085 0.822038
O O1 0.270456 0.137777 0.927207
O O2 0.141885 0.049707 0.742610
O O3 0.856510 0.065777 0.749911
O O4 0.897388 0.154715 0.637379
O O5 0.054017 0.228275 0.912855
O O6 0.286856 0.138291 0.113806
O O7 0.569056 0.221632 0.166863
O O8 0.576218 0.935512 0.371718
O O9 0.442624 0.922706 0.135690
O O10 0.354393 0.830116 0.219133
O O11 0.812700 0.851282 0.373847
O O12 0.678716 0.538125 0.248076
O O13 0.500000 0.500000 0.000000
O O14 0.537483 0.037999 0.188983
O O15 0.500000 0.000000 0.000000
O O16 0.296001 0.888727 0.603085
O O17 0.193224 0.727422 0.061880
#
# Coordination Sequence:
#
# PCOD9245466 Si02
#       8
#     4   4   4   4   4   4   4   4
#     4  11  22  39  62  94 128 162 216 266 320 382
#     4  11  23  42  66  92 127 169 216 266 320 376
#     4  10  22  38  65  88 126 169 208 255 322 373
#     4  11  22  37  62  98 133 162 208 265 325 384
#     4  10  21  38  60  92 127 161 205 254 322 384
#     4  10  22  39  65  92 128 171 205 260 325 384
#     4  10  22  41  62  88 126 170 214 259 316 379
#     4  11  22  44  64  89 125 172 217 263 319 374
#
# _framework density 20.168937
#
# number of rings (size 3 to 8) (size 9 to 14) (size 15 to 20)
#    0.000    1.500    5.000    0.000    1.750    3.000 
#    4.500    1.250    0.000    0.000    0.000    0.000 
#    0.000    0.000    0.000    0.000    0.000    0.000 
#
# Total GULP energy -178377.071913 kJ/mol
# GULP energy per Si atom -5574.283497 kJ/mol
# Density = 2.012303 g / cm^3
# Si number density = 20.168937 Si / 1000 Ang^3
#
#
#
# Elastic Constant Matrix: (Units=GPa)
#
#
# Indices 1 2 3 4 5 6 
#
# 1 52.7388 19.6479 17.6656 0.0000 -9.1468 0.0000
# 2 19.6479 93.4777 41.7256 0.0000 -8.7696 0.0000
# 3 17.6656 41.7256 102.1639 0.0000 -13.9825 0.0000
# 4 0.0000 0.0000 0.0000 27.1782 0.0000 -0.9492
# 5 -9.1468 -8.7696 -13.9825 0.0000 37.6702 0.0000
# 6 0.0000 0.0000 0.0000 -0.9492 0.0000 32.5226
#
#
#
# Elastic Compliance Matrix: (Units=1/GPa)
#
#
# Indices 1 2 3 4 5 6 
#
# 1 0.021472 -0.003342 -0.001834 0.000000 0.003755 0.000000
# 2 -0.003342 0.013648 -0.004922 0.000000 0.000539 0.000000
# 3 -0.001834 -0.004922 0.012535 0.000000 0.003061 0.000000
# 4 0.000000 0.000000 0.000000 0.036832 0.000000 0.001075
# 5 0.003755 0.000539 0.003061 0.000000 0.028720 0.000000
# 6 0.000000 0.000000 0.000000 0.001075 0.000000 0.030779
#
#
# Mechanical properties :
#
#
# Convention : Reuss Voigt Hill
#
# Bulk Modulus (GPa) = 36.41988 45.16207 40.79098
# Shear Modulus (GPa) = 28.84585 30.76362 29.80474
#
# Velocity S-wave (km/s) = 3.78592 3.90974 3.84833
# Velocity P-wave (km/s) = 6.09980 6.54385 6.32572
#
# Compressibility (1/GPa) = 0.02745753
#
# Stress axis : x y z
#
# Youngs Moduli (GPa) = 46.57216 73.27067 79.77848
#
# Poissons Ratio (x) = 0.24489 0.14630
# Poissons Ratio (y) = 0.15566 0.39271
# Poissons Ratio (z) = 0.08541 0.36067
#
# Static dielectric constant tensor:
#      x y z
#    x 1.742060 0.000000 -0.013970 
#    y 0.000000 1.771460 0.000000 
#    z -0.013970 0.000000 1.735220 
# 
# From -- ./inp_files/42068.got.cif
#   From: 2010.05.17/outbox.cif.g08.bks.cpg/sg14_22_cif.got.tgz:42068.got - 2010.06.03 17:49:19.
