data_PCOD9245420
_publ_section_title
;
Structure prediction by ZEFSAII (Michael W. Deem and Ramdas Pophale) SiO2 
 PCOD9245420
Probable space group: P 21/C
;
_chemical_formula_sum "Si O2"
_cell_formula_units_Z 32
_cell_length_a 12.366528
_cell_length_b 14.256617
_cell_length_c 10.221198
_cell_angle_alpha 90.000000
_cell_angle_beta 84.049805
_cell_angle_gamma 90.000000
_cell_volume 1792.338075
_symmetry_space_group_name_H-M "P 21/C"
_symmetry_group_IT_number 14
_symmetry_cell_setting 'monoclinic'
loop_
_space_group_symop_operation_xyz
x,y,z
-x,1/2+y,1/2-z
-x,-y,-z
x,1/2-y,1/2+z
loop_
_atom_site_type_symbol
_atom_site_label
_atom_site_fract_x
_atom_site_fract_y
_atom_site_fract_z
Si Si1 0.484148 0.912463 0.909400
Si Si2 0.747861 0.828107 0.623078
Si Si3 0.724837 0.148327 0.650991
Si Si4 0.266722 0.818464 0.048048
Si Si5 0.723962 0.834971 0.920605
Si Si6 0.895358 0.492996 0.420083
Si Si7 0.090146 0.490756 0.880574
Si Si8 0.557833 0.516646 0.130432
O O1 0.595852 0.856427 0.920817
O O2 0.481972 0.949285 0.759965
O O3 0.376357 0.861866 0.972159
O O4 0.500000 0.000000 0.000000
O O5 0.752373 0.797128 0.773250
O O6 0.742278 0.741290 0.528460
O O7 0.852032 0.893096 0.594209
O O8 0.647161 0.899860 0.612501
O O9 0.743333 0.223518 0.534133
O O10 0.722544 0.194529 0.796093
O O11 0.821971 0.073943 0.625345
O O12 0.618402 0.081400 0.656226
O O13 0.168947 0.894795 0.048633
O O14 0.799993 0.926518 0.938795
O O15 0.942497 0.504928 0.267318
O O16 0.000000 0.500000 0.500000
O O17 0.000000 0.500000 0.000000
O O18 0.500000 0.500000 0.000000
#
# Coordination Sequence:
#
# PCOD9245420 Si02
#       8
#     4   4   4   4   4   4   4   4
#     4  11  20  39  62  80 121 163 189 234 291 348
#     4   9  21  38  57  85 116 149 192 238 288 344
#     4  10  23  39  59  86 123 153 197 248 290 356
#     4  11  23  40  60  90 120 159 199 239 301 351
#     4  10  21  38  59  85 117 152 192 238 289 346
#     4  10  22  41  60  84 117 151 195 245 292 353
#     4   9  20  42  62  79 115 156 192 244 298 342
#     4  10  22  39  55  86 123 156 194 240 287 344
#
# _framework density 17.853774999999999
#
# number of rings (size 3 to 8) (size 9 to 14) (size 15 to 20)
#    0.000    2.000    2.500    1.500    3.500    5.000 
#    2.250    5.000    0.000    0.000    0.000    0.000 
#    0.000    0.000    0.000    0.000    0.000    0.000 
#
# Total GULP energy -178288.798391 kJ/mol
# GULP energy per Si atom -5571.524950 kJ/mol
# Density = 1.781314 g / cm^3
# Si number density = 17.853775 Si / 1000 Ang^3
#
#
#
# Elastic Constant Matrix: (Units=GPa)
#
#
# Indices 1 2 3 4 5 6 
#
# 1 66.1234 -1.4739 44.4628 0.0000 -2.0801 0.0000
# 2 -1.4739 72.6328 52.8347 0.0000 7.2015 0.0000
# 3 44.4628 52.8347 122.5134 0.0000 0.2068 0.0000
# 4 0.0000 0.0000 0.0000 41.1393 0.0000 2.1243
# 5 -2.0801 7.2015 0.2068 0.0000 36.9969 0.0000
# 6 0.0000 0.0000 0.0000 2.1243 0.0000 4.2300
#
#
#
# Elastic Compliance Matrix: (Units=1/GPa)
#
#
# Indices 1 2 3 4 5 6 
#
# 1 0.024145 0.010078 -0.013108 0.000000 -0.000531 0.000000
# 2 0.010078 0.024833 -0.014360 0.000000 -0.004187 0.000000
# 3 -0.013108 -0.014360 0.019109 0.000000 0.001951 0.000000
# 4 0.000000 0.000000 0.000000 0.024955 0.000000 -0.012532
# 5 -0.000531 -0.004187 0.001951 0.000000 0.027804 0.000000
# 6 0.000000 0.000000 0.000000 -0.012532 0.000000 0.242699
#
#
# Mechanical properties :
#
#
# Convention : Reuss Voigt Hill
#
# Bulk Modulus (GPa) = 30.02356 50.32408 40.17382
# Shear Modulus (GPa) = 12.21218 27.50298 19.85758
#
# Velocity S-wave (km/s) = 2.61820 3.92912 3.33864
# Velocity P-wave (km/s) = 5.09832 6.98799 6.11657
#
# Compressibility (1/GPa) = 0.03330718
#
# Stress axis : x y z
#
# Youngs Moduli (GPa) = 41.41592 40.26877 52.33133
#
# Poissons Ratio (x) = -0.40582 0.68596
# Poissons Ratio (y) = -0.41738 0.75147
# Poissons Ratio (z) = 0.54288 0.57825
#
# Static dielectric constant tensor:
#      x y z
#    x 1.567740 0.000000 -0.001000 
#    y 0.000000 1.512840 0.000000 
#    z -0.001000 0.000000 1.609900 
# 
# From -- ./inp_files/13353.got.cif
#   From: 2010.05.17/outbox.cif.g08.bks.cpg/sg14_7_cif.got.tgz:13353.got - 2010.06.03 17:49:19.
