data_PCOD9245646
_publ_section_title
;
Structure prediction by ZEFSAII (Michael W. Deem and Ramdas Pophale) SiO2 
 PCOD9245646
Probable space group: P 21/C
;
_chemical_formula_sum "Si O2"
_cell_formula_units_Z 16
_cell_length_a 10.351187
_cell_length_b 5.070665
_cell_length_c 15.964150
_cell_angle_alpha 90.000000
_cell_angle_beta 123.573539
_cell_angle_gamma 90.000000
_cell_volume 698.132736
_symmetry_space_group_name_H-M "P 21/C"
_symmetry_group_IT_number 14
_symmetry_cell_setting 'monoclinic'
loop_
_space_group_symop_operation_xyz
x,y,z
-x,1/2+y,1/2-z
-x,-y,-z
x,1/2-y,1/2+z
loop_
_atom_site_type_symbol
_atom_site_label
_atom_site_fract_x
_atom_site_fract_y
_atom_site_fract_z
Si Si1 0.609022 0.159768 0.387868
Si Si2 0.398873 0.655941 0.316026
Si Si3 0.044812 0.752563 0.461286
Si Si4 0.929534 0.989774 0.254314
O O1 0.492173 0.391945 0.365453
O O2 0.638811 0.166494 0.297539
O O3 0.772218 0.220385 0.489280
O O4 0.516592 0.894104 0.376239
O O5 0.238373 0.625892 0.307617
O O6 0.000000 0.500000 0.500000
O O7 0.950549 0.801304 0.342856
O O8 0.000000 0.000000 0.500000
O O9 0.960716 0.752048 0.198887
#
# Coordination Sequence:
#
# PCOD9245646 Si02
#       4
#     4   4   4   4
#     4  10  21  38  66  98 125 166 227 285 317 381
#     4  10  21  39  64  94 134 168 218 275 336 385
#     4  12  24  42  70 101 132 172 237 280 321 397
#     4  12  26  44  65  98 142 181 215 275 352 410
#
# _framework density 22.918279999999999
#
# number of rings (size 3 to 8) (size 9 to 14) (size 15 to 20)
#    0.000    1.000    2.500    4.500    7.000    0.000 
#    0.000    7.500    0.000    0.000    0.000    0.000 
#    0.000    0.000    0.000    0.000    0.000    0.000 
#
# Total GULP energy -89381.939130 kJ/mol
# GULP energy per Si atom -5586.371196 kJ/mol
# Density = 2.286612 g / cm^3
# Si number density = 22.918280 Si / 1000 Ang^3
#
#
#
# Elastic Constant Matrix: (Units=GPa)
#
#
# Indices 1 2 3 4 5 6 
#
# 1 94.8133 63.4538 30.4670 0.0000 34.7371 0.0000
# 2 63.4538 254.3807 34.8576 0.0000 21.6843 0.0000
# 3 30.4670 34.8576 60.6794 0.0000 20.8150 0.0000
# 4 0.0000 0.0000 0.0000 87.0144 0.0000 -25.4877
# 5 34.7371 21.6843 20.8150 0.0000 37.4514 0.0000
# 6 0.0000 0.0000 0.0000 -25.4877 0.0000 26.1657
#
#
#
# Elastic Compliance Matrix: (Units=1/GPa)
#
#
# Indices 1 2 3 4 5 6 
#
# 1 0.018601 -0.003070 -0.002802 0.000000 -0.013918 0.000000
# 2 -0.003070 0.004831 -0.001546 0.000000 0.000909 0.000000
# 3 -0.002802 -0.001546 0.021717 0.000000 -0.008576 0.000000
# 4 0.000000 0.000000 0.000000 0.016081 0.000000 0.015664
# 5 -0.013918 0.000909 -0.008576 0.000000 0.043851 0.000000
# 6 0.000000 0.000000 0.000000 0.015664 0.000000 0.053476
#
#
# Mechanical properties :
#
#
# Convention : Reuss Voigt Hill
#
# Bulk Modulus (GPa) = 32.98750 74.15891 53.57320
# Shear Modulus (GPa) = 27.24863 48.86597 38.05730
#
# Velocity S-wave (km/s) = 3.45185 4.62257 4.07942
# Velocity P-wave (km/s) = 5.50562 7.80507 6.75392
#
# Compressibility (1/GPa) = 0.03031451
#
# Stress axis : x y z
#
# Youngs Moduli (GPa) = 53.76062 206.99070 46.04747
#
# Poissons Ratio (x) = 0.63536 0.12901
# Poissons Ratio (y) = 0.16502 0.07118
# Poissons Ratio (z) = 0.15062 0.31999
#
# Static dielectric constant tensor:
#      x y z
#    x 0.648160 0.000000 -1.211370 
#    y 0.000000 1.851660 0.000000 
#    z -1.211370 0.000000 0.506880 
# 
# From -- ./inp_files/38386.got.cif
#   From: 2010.05.17/outbox.cif.g08.bks.cpg/sg14_20_cif.got.tgz:38386.got - 2010.06.03 17:49:19.
