data_PCOD9245224
_publ_section_title
;
Structure prediction by ZEFSAII (Michael W. Deem and Ramdas Pophale) SiO2 
 PCOD9245224
Probable space group: P 21/C
;
_chemical_formula_sum "Si O2"
_cell_formula_units_Z 28
_cell_length_a 21.979565
_cell_length_b 12.479609
_cell_length_c 9.182259
_cell_angle_alpha 90.000000
_cell_angle_beta 152.471309
_cell_angle_gamma 90.000000
_cell_volume 1164.106511
_symmetry_space_group_name_H-M "P 21/C"
_symmetry_group_IT_number 14
_symmetry_cell_setting 'monoclinic'
loop_
_space_group_symop_operation_xyz
x,y,z
-x,1/2+y,1/2-z
-x,-y,-z
x,1/2-y,1/2+z
loop_
_atom_site_type_symbol
_atom_site_label
_atom_site_fract_x
_atom_site_fract_y
_atom_site_fract_z
Si Si1 0.320679 0.091595 0.185643
Si Si2 0.410580 0.848797 0.395584
Si Si3 0.890067 0.873911 0.765722
Si Si4 0.009385 0.351342 0.016604
Si Si5 0.025020 0.491296 0.804608
Si Si6 0.649770 0.902640 0.411652
Si Si7 0.381157 0.644506 0.175534
O O1 0.437543 0.143892 0.337955
O O2 0.348743 0.119478 0.414443
O O3 0.346272 0.963861 0.224848
O O4 0.165405 0.115078 0.835187
O O5 0.332741 0.752932 0.149671
O O6 0.409486 0.832590 0.566646
O O7 0.989217 0.774947 0.959652
O O8 0.755063 0.833771 0.547435
O O9 0.865713 0.930595 0.559395
O O10 0.945342 0.951507 0.007482
O O11 0.950254 0.415182 0.026961
O O12 0.952612 0.399337 0.746110
O O13 0.687895 0.028424 0.468934
O O14 0.510866 0.881170 0.045068
#
# Coordination Sequence:
#
# PCOD9245224 Si02
#       7
#     4   4   4   4   4   4   4
#     4  10  21  38  63  91 123 159 210 256 299 379
#     4  10  21  37  58  90 128 164 199 252 309 365
#     4  11  22  42  67  91 123 165 206 265 315 374
#     4  11  22  42  67  91 123 165 206 265 315 374
#     4  10  24  40  62  94 124 152 214 264 314 372
#     4  10  21  38  63  91 123 159 210 256 299 379
#     4  10  21  37  58  90 128 164 199 252 309 365
#
# _framework density 24.052783000000002
#
# number of rings (size 3 to 8) (size 9 to 14) (size 15 to 20)
#    0.000    1.714    1.429    2.571    2.000    1.143 
#    0.000    8.571    0.000    0.000    0.000    0.000 
#    0.000    0.000    0.000    0.000    0.000    0.000 
#
# Total GULP energy -156399.143685 kJ/mol
# GULP energy per Si atom -5585.683703 kJ/mol
# Density = 2.399804 g / cm^3
# Si number density = 24.052783 Si / 1000 Ang^3
#
#
#
# Elastic Constant Matrix: (Units=GPa)
#
#
# Indices 1 2 3 4 5 6 
#
# 1 120.1312 46.6016 27.7013 0.0000 -34.2343 0.0000
# 2 46.6016 100.9433 18.8532 0.0000 -11.4873 0.0000
# 3 27.7013 18.8532 53.7501 0.0000 -12.1200 0.0000
# 4 0.0000 0.0000 0.0000 24.0955 0.0000 -7.3514
# 5 -34.2343 -11.4873 -12.1200 0.0000 35.5793 0.0000
# 6 0.0000 0.0000 0.0000 -7.3514 0.0000 815.3378
#
#
#
# Elastic Compliance Matrix: (Units=1/GPa)
#
#
# Indices 1 2 3 4 5 6 
#
# 1 0.013922 -0.004612 -0.003112 0.000000 0.010847 0.000000
# 2 -0.004612 0.012311 -0.002216 0.000000 -0.001217 0.000000
# 3 -0.003112 -0.002216 0.021826 0.000000 0.003725 0.000000
# 4 0.000000 0.000000 0.000000 0.041616 0.000000 0.000375
# 5 0.010847 -0.001217 0.003725 0.000000 0.039419 0.000000
# 6 0.000000 0.000000 0.000000 0.000375 0.000000 0.001230
#
#
# Mechanical properties :
#
#
# Convention : Reuss Voigt Hill
#
# Bulk Modulus (GPa) = 35.48630 51.23744 43.36187
# Shear Modulus (GPa) = 31.32949 187.11376 109.22163
#
# Velocity S-wave (km/s) = 3.61297 8.82960 6.74594
# Velocity P-wave (km/s) = 5.67365 11.19364 8.87378
#
# Compressibility (1/GPa) = 0.02817989
#
# Stress axis : x y z
#
# Youngs Moduli (GPa) = 71.83054 81.22884 45.81794
#
# Poissons Ratio (x) = 0.37460 0.14256
# Poissons Ratio (y) = 0.33126 0.10153
# Poissons Ratio (z) = 0.22350 0.18000
#
# Static dielectric constant tensor:
#      x y z
#    x 1.913860 0.000000 0.051670 
#    y 0.000000 2.029920 0.000000 
#    z 0.051670 0.000000 1.931050 
# 
# From -- ./inp_files/18976.got.cif
#   From: 2010.05.17/outbox.cif.g08.bks.cpg/sg14_10_cif.got.tgz:18976.got - 2010.06.03 17:49:19.
