data_PCOD9245574
_publ_section_title
;
Structure prediction by ZEFSAII (Michael W. Deem and Ramdas Pophale) SiO2 
 PCOD9245574
Probable space group: P 21/C
;
_chemical_formula_sum "Si O2"
_cell_formula_units_Z 26
_cell_length_a 20.312970
_cell_length_b 6.876109
_cell_length_c 8.940653
_cell_angle_alpha 90.000000
_cell_angle_beta 48.771231
_cell_angle_gamma 90.000000
_cell_volume 939.186439
_symmetry_space_group_name_H-M "P 21/C"
_symmetry_group_IT_number 14
_symmetry_cell_setting 'monoclinic'
loop_
_space_group_symop_operation_xyz
x,y,z
-x,1/2+y,1/2-z
-x,-y,-z
x,1/2-y,1/2+z
loop_
_atom_site_type_symbol
_atom_site_label
_atom_site_fract_x
_atom_site_fract_y
_atom_site_fract_z
Si Si1 0.500000 0.000000 0.000000
Si Si2 0.647306 0.602646 0.385317
Si Si3 0.755220 0.683926 0.975655
Si Si4 0.372792 0.771068 0.426373
Si Si5 0.247162 0.910568 0.869133
Si Si6 0.944015 0.796698 0.155632
Si Si7 0.938402 0.351047 0.248081
O O1 0.440753 0.903417 0.238230
O O2 0.431117 0.192796 0.091021
O O3 0.718454 0.537447 0.156201
O O4 0.689486 0.723271 0.453146
O O5 0.591642 0.403252 0.513174
O O6 0.770994 0.864995 0.065743
O O7 0.847616 0.625038 0.767295
O O8 0.299355 0.878600 0.637345
O O9 0.315458 0.650848 0.394738
O O10 0.152892 0.808558 0.032696
O O11 0.927840 0.561308 0.187331
O O12 0.980721 0.861444 0.259394
O O13 0.026166 0.808113 0.921067
#
# Coordination Sequence:
#
# PCOD9245574 Si02
#       7
#     2   4   4   4   4   4   4
#     4  12  28  46  72 106 134 182 244 306 368 440
#     4  11  26  46  74 104 142 188 237 302 363 441
#     4  10  24  42  69 104 143 197 237 294 362 426
#     4  11  24  47  70 101 139 185 235 300 362 438
#     4  10  22  42  69 100 141 189 238 291 361 427
#     4  10  21  40  63 100 145 188 236 290 343 419
#     4  10  21  38  63  98 142 183 238 284 341 422
#
# _framework density 27.683534999999999
#
# number of rings (size 3 to 8) (size 9 to 14) (size 15 to 20)
#    0.000    1.538    1.538    1.846    4.308    4.308 
#    0.000    3.077    0.000    0.000    0.000    0.000 
#    0.000    0.000    0.000    0.000    0.000    0.000 
#
# Total GULP energy -144975.274095 kJ/mol
# GULP energy per Si atom -5575.972081 kJ/mol
# Density = 2.762053 g / cm^3
# Si number density = 27.683535 Si / 1000 Ang^3
#
#
#
# Elastic Constant Matrix: (Units=GPa)
#
#
# Indices 1 2 3 4 5 6 
#
# 1 122.7170 14.2021 67.7205 0.0000 -15.5048 0.0000
# 2 14.2021 84.6379 54.0736 0.0000 -15.5554 0.0000
# 3 67.7205 54.0736 235.8937 0.0000 -22.7565 0.0000
# 4 0.0000 0.0000 0.0000 -55.3671 0.0000 -42.1694
# 5 -15.5048 -15.5554 -22.7565 0.0000 55.9541 0.0000
# 6 0.0000 0.0000 0.0000 -42.1694 0.0000 18.3199
#
#
#
# Elastic Compliance Matrix: (Units=1/GPa)
#
#
# Indices 1 2 3 4 5 6 
#
# 1 0.009838 0.000427 -0.002756 0.000000 0.001724 0.000000
# 2 0.000427 0.014253 -0.003118 0.000000 0.002812 0.000000
# 3 -0.002756 -0.003118 0.005816 0.000000 0.000735 0.000000
# 4 0.000000 0.000000 0.000000 -0.006560 0.000000 -0.015101
# 5 0.001724 0.002812 0.000735 0.000000 0.019430 0.000000
# 6 0.000000 0.000000 0.000000 -0.015101 0.000000 0.019827
#
#
# Mechanical properties :
#
#
# Convention : Reuss Voigt Hill
#
# Bulk Modulus (GPa) = 52.59909 79.47126 66.03517
# Shear Modulus (GPa) = 62.62908 24.26489 43.44698
#
# Velocity S-wave (km/s) = 4.76155 2.96380 3.96588
# Velocity P-wave (km/s) = 7.01934 6.36251 6.69898
#
# Compressibility (1/GPa) = 0.01901173
#
# Stress axis : x y z
#
# Youngs Moduli (GPa) = 101.64630 70.16308 171.93874
#
# Poissons Ratio (x) = -0.02994 0.47383
# Poissons Ratio (y) = -0.04337 0.53615
# Poissons Ratio (z) = 0.28012 0.21879
#
# Static dielectric constant tensor:
#      x y z
#    x -0.614940 0.000000 0.098910 
#    y 0.000000 1.960180 0.000000 
#    z 0.098910 0.000000 2.325280 
# 
# From -- ./inp_files/18692.got.cif
#   From: 2010.05.17/outbox.cif.g08.bks.cpg/sg14_10_cif.got.tgz:18692.got - 2010.06.03 17:49:19.
