data_PCOD9245825
_publ_section_title
;
Structure prediction by ZEFSAII (Michael W. Deem and Ramdas Pophale) SiO2 
 PCOD9245825
Probable space group: P 21/C
;
_chemical_formula_sum "Si O2"
_cell_formula_units_Z 32
_cell_length_a 7.950245
_cell_length_b 8.045250
_cell_length_c 22.543984
_cell_angle_alpha 90.000000
_cell_angle_beta 120.975433
_cell_angle_gamma 90.000000
_cell_volume 1236.312197
_symmetry_space_group_name_H-M "P 21/C"
_symmetry_group_IT_number 14
_symmetry_cell_setting 'monoclinic'
loop_
_space_group_symop_operation_xyz
x,y,z
-x,1/2+y,1/2-z
-x,-y,-z
x,1/2-y,1/2+z
loop_
_atom_site_type_symbol
_atom_site_label
_atom_site_fract_x
_atom_site_fract_y
_atom_site_fract_z
Si Si1 0.714918 0.351904 0.082339
Si Si2 0.701895 0.992977 0.789641
Si Si3 0.884181 0.855909 0.169782
Si Si4 0.768933 0.010917 0.033090
Si Si5 0.066850 0.497913 0.204217
Si Si6 0.640876 0.346545 0.836315
Si Si7 0.294554 0.018761 0.540423
Si Si8 0.803094 0.652392 0.421899
O O1 0.678261 0.174953 0.045063
O O2 0.517678 0.413005 0.077571
O O3 0.907154 0.357228 0.158284
O O4 0.762190 0.474820 0.036279
O O5 0.915960 0.039416 0.804854
O O6 0.637985 0.161482 0.811118
O O7 0.565374 0.934587 0.712118
O O8 0.692181 0.853300 0.839313
O O9 0.942027 0.666180 0.191292
O O10 0.769485 0.878245 0.087086
O O11 0.807796 0.938732 0.216322
O O12 0.993571 0.062984 0.058271
O O13 0.697976 0.943452 0.957032
O O14 0.208069 0.548075 0.176278
O O15 0.704241 0.361346 0.915828
O O16 0.167799 0.163796 0.547262
#
# Coordination Sequence:
#
# PCOD9245825 Si02
#       8
#     4   4   4   4   4   4   4   4
#     4  11  24  40  59  86 119 153 192 240 291 344
#     4  10  22  39  59  87 120 152 191 239 289 342
#     4  10  22  39  59  87 120 152 191 239 289 342
#     4  10  21  39  63  89 118 153 194 239 287 344
#     4  11  23  39  61  86 115 154 195 237 287 343
#     4  11  23  39  61  86 115 154 195 237 287 343
#     4  11  24  40  59  86 119 153 192 240 291 344
#     4  10  21  39  63  89 118 153 194 239 287 344
#
# _framework density 25.883431999999999
#
# number of rings (size 3 to 8) (size 9 to 14) (size 15 to 20)
#    0.000    1.500    0.000    4.500    0.000   11.500 
#    0.000    0.000    0.000    0.000    0.000    0.000 
#    0.000    0.000    0.000    0.000    0.000    0.000 
#
# Total GULP energy -179331.365245 kJ/mol
# GULP energy per Si atom -5604.105164 kJ/mol
# Density = 2.582452 g / cm^3
# Si number density = 25.883432 Si / 1000 Ang^3
#
#
#
# Elastic Constant Matrix: (Units=GPa)
#
#
# Indices 1 2 3 4 5 6 
#
# 1 86.7154 -2.5233 19.0907 0.0000 -9.3301 0.0000
# 2 -2.5233 81.0044 6.8327 0.0000 -14.7993 0.0000
# 3 19.0907 6.8327 104.2977 0.0000 -21.5998 0.0000
# 4 0.0000 0.0000 0.0000 34.5088 0.0000 -12.2598
# 5 -9.3301 -14.7993 -21.5998 0.0000 32.5253 0.0000
# 6 0.0000 0.0000 0.0000 -12.2598 0.0000 30.8817
#
#
#
# Elastic Compliance Matrix: (Units=1/GPa)
#
#
# Indices 1 2 3 4 5 6 
#
# 1 0.012248 0.001047 -0.001721 0.000000 0.002847 0.000000
# 2 0.001047 0.013572 0.000302 0.000000 0.006676 0.000000
# 3 -0.001721 0.000302 0.011374 0.000000 0.007197 0.000000
# 4 0.000000 0.000000 0.000000 0.033736 0.000000 0.013393
# 5 0.002847 0.006676 0.007197 0.000000 0.039379 0.000000
# 6 0.000000 0.000000 0.000000 0.013393 0.000000 0.037699
#
#
# Mechanical properties :
#
#
# Convention : Reuss Voigt Hill
#
# Bulk Modulus (GPa) = 27.43583 35.42419 31.43001
# Shear Modulus (GPa) = 31.07508 36.15765 33.61637
#
# Velocity S-wave (km/s) = 3.46870 3.74162 3.60774
# Velocity P-wave (km/s) = 5.16384 5.69053 5.43357
#
# Compressibility (1/GPa) = 0.03644869
#
# Stress axis : x y z
#
# Youngs Moduli (GPa) = 81.64879 73.68191 87.92296
#
# Poissons Ratio (x) = -0.07713 0.15130
# Poissons Ratio (y) = -0.08547 -0.02654
# Poissons Ratio (z) = 0.14050 -0.02224
#
# Static dielectric constant tensor:
#      x y z
#    x 2.028390 0.000000 0.015220 
#    y 0.000000 2.016500 0.000000 
#    z 0.015220 0.000000 1.981130 
# 
# From -- ./inp_files/72097.got.cif
#   From: 2010.05.17/outbox.cif.g08.bks.cpg/sg14_37_cif.got.tgz:72097.got - 2010.06.03 17:49:19.
