data_PCOD9245143
_publ_section_title
;
Structure prediction by ZEFSAII (Michael W. Deem and Ramdas Pophale) SiO2 
 PCOD9245143
Probable space group: P 21/C
;
_chemical_formula_sum "Si O2"
_cell_formula_units_Z 20
_cell_length_a 28.906023
_cell_length_b 4.939655
_cell_length_c 18.411927
_cell_angle_alpha 90.000000
_cell_angle_beta 159.137373
_cell_angle_gamma 90.000000
_cell_volume 936.248226
_symmetry_space_group_name_H-M "P 21/C"
_symmetry_group_IT_number 14
_symmetry_cell_setting 'monoclinic'
loop_
_space_group_symop_operation_xyz
x,y,z
-x,1/2+y,1/2-z
-x,-y,-z
x,1/2-y,1/2+z
loop_
_atom_site_type_symbol
_atom_site_label
_atom_site_fract_x
_atom_site_fract_y
_atom_site_fract_z
Si Si1 0.917979 0.200153 0.613866
Si Si2 0.733346 0.206862 0.719714
Si Si3 0.405873 0.903260 0.122050
Si Si4 0.670688 0.051689 0.829044
Si Si5 0.608580 0.703008 0.606639
O O1 0.869283 0.240437 0.459449
O O2 0.800576 0.298537 0.493354
O O3 0.038528 0.396029 0.807390
O O4 0.703484 0.298509 0.594532
O O5 0.637322 0.400749 0.624951
O O6 0.689812 0.901565 0.672163
O O7 0.506400 0.651953 0.278360
O O8 0.340737 0.993594 0.101926
O O9 0.540716 0.221684 0.621203
O O10 0.656339 0.788772 0.756641
#
# Coordination Sequence:
#
# PCOD9245143 Si02
#       5
#     4   4   4   4   4
#     4  11  25  42  62  85 119 170 220 250 282 348
#     4  11  21  41  62  92 127 156 198 255 308 368
#     4  12  23  38  60  99 131 153 185 250 332 377
#     4  10  22  39  63  93 126 156 205 251 307 363
#     4  10  21  36  64  94 121 156 197 256 316 359
#
# _framework density 21.361854999999998
#
# number of rings (size 3 to 8) (size 9 to 14) (size 15 to 20)
#    0.000    1.200    4.000    2.400    0.000   13.600 
#    0.000    2.000    0.000    0.000    0.000    0.000 
#    0.000    0.000    0.000    0.000    0.000    0.000 
#
# Total GULP energy -111827.475835 kJ/mol
# GULP energy per Si atom -5591.373792 kJ/mol
# Density = 2.131323 g / cm^3
# Si number density = 21.361855 Si / 1000 Ang^3
#
#
#
# Elastic Constant Matrix: (Units=GPa)
#
#
# Indices 1 2 3 4 5 6 
#
# 1 128.8450 -19.5374 21.1527 0.0000 -32.0300 0.0000
# 2 -19.5374 42.7568 -7.5699 0.0000 -2.8692 0.0000
# 3 21.1527 -7.5699 91.9302 0.0000 -15.9613 0.0000
# 4 0.0000 0.0000 0.0000 38.2434 0.0000 2.0017
# 5 -32.0300 -2.8692 -15.9613 0.0000 38.3169 0.0000
# 6 0.0000 0.0000 0.0000 2.0017 0.0000 21.3103
#
#
#
# Elastic Compliance Matrix: (Units=1/GPa)
#
#
# Indices 1 2 3 4 5 6 
#
# 1 0.011034 0.005600 -0.000435 0.000000 0.009462 0.000000
# 2 0.005600 0.026857 0.002247 0.000000 0.007628 0.000000
# 3 -0.000435 0.002247 0.011997 0.000000 0.004802 0.000000
# 4 0.000000 0.000000 0.000000 0.026278 0.000000 -0.002468
# 5 0.009462 0.007628 0.004802 0.000000 0.036579 0.000000
# 6 0.000000 0.000000 0.000000 -0.002468 0.000000 0.047158
#
#
# Mechanical properties :
#
#
# Convention : Reuss Voigt Hill
#
# Bulk Modulus (GPa) = 15.45314 27.95808 21.70561
# Shear Modulus (GPa) = 30.00347 37.53988 33.77168
#
# Velocity S-wave (km/s) = 3.75178 4.19660 3.98041
# Velocity P-wave (km/s) = 5.10073 6.04965 5.59534
#
# Compressibility (1/GPa) = 0.06471177
#
# Stress axis : x y z
#
# Youngs Moduli (GPa) = 90.62990 37.23470 83.35613
#
# Poissons Ratio (x) = -0.20851 0.03626
# Poissons Ratio (y) = -0.50751 -0.18734
# Poissons Ratio (z) = 0.03942 -0.08368
#
# Static dielectric constant tensor:
#      x y z
#    x 1.808410 0.000000 -0.049140 
#    y 0.000000 1.782480 0.000000 
#    z -0.049140 0.000000 1.795240 
# 
# From -- ./inp_files/58278.got.cif
#   From: 2010.05.17/outbox.cif.g08.bks.cpg/sg14_30_cif.got.tgz:58278.got - 2010.06.03 17:49:19.
