data_PCOD9245514
_publ_section_title
;
Structure prediction by ZEFSAII (Michael W. Deem and Ramdas Pophale) SiO2 
 PCOD9245514
Probable space group: P 21/C
;
_chemical_formula_sum "Si O2"
_cell_formula_units_Z 32
_cell_length_a 9.749699
_cell_length_b 10.398872
_cell_length_c 16.671081
_cell_angle_alpha 90.000000
_cell_angle_beta 59.411402
_cell_angle_gamma 90.000000
_cell_volume 1455.007765
_symmetry_space_group_name_H-M "P 21/C"
_symmetry_group_IT_number 14
_symmetry_cell_setting 'monoclinic'
loop_
_space_group_symop_operation_xyz
x,y,z
-x,1/2+y,1/2-z
-x,-y,-z
x,1/2-y,1/2+z
loop_
_atom_site_type_symbol
_atom_site_label
_atom_site_fract_x
_atom_site_fract_y
_atom_site_fract_z
Si Si1 0.568947 0.740421 0.386125
Si Si2 0.524692 0.960301 0.129043
Si Si3 0.756701 0.351104 0.961972
Si Si4 0.807452 0.370510 0.314339
Si Si5 0.176749 0.433002 0.549423
Si Si6 0.848455 0.899380 0.343320
Si Si7 0.028047 0.820089 0.009165
Si Si8 0.272206 0.385327 0.291084
O O1 0.507099 0.596728 0.402995
O O2 0.199196 0.507383 0.079802
O O3 0.618687 0.774278 0.280049
O O4 0.732535 0.775812 0.383627
O O5 0.357689 0.886880 0.183149
O O6 0.613637 0.969455 0.187450
O O7 0.650188 0.890485 0.033318
O O8 0.795185 0.250437 0.878249
O O9 0.572894 0.330960 0.040564
O O10 0.868301 0.303773 0.001612
O O11 0.824363 0.499304 0.364520
O O12 0.966935 0.365848 0.215336
O O13 0.039264 0.337454 0.560106
O O14 0.135334 0.557677 0.503228
O O15 0.801204 0.949658 0.266970
O O16 0.873578 0.828930 0.113734
#
# Coordination Sequence:
#
# PCOD9245514 Si02
#       8
#     4   4   4   4   4   4   4   4
#     4  10  21  38  62  85 120 167 201 245 315 362
#     4  11  21  35  62  89 126 149 209 268 294 372
#     4  11  20  37  62  88 121 164 208 250 303 372
#     4  11  22  35  60  96 116 158 210 258 313 348
#     4   9  16  32  55  88 121 144 200 257 302 351
#     4  10  23  38  59  85 127 162 206 244 310 379
#     4   9  16  32  57  86 115 155 198 246 310 356
#     4   9  21  38  55  88 120 163 198 246 316 358
#
# _framework density 21.993010000000002
#
# number of rings (size 3 to 8) (size 9 to 14) (size 15 to 20)
#    0.750    1.250    5.000    0.750    3.500    1.000 
#    0.000    0.000    0.000    0.750    0.000    0.000 
#    0.000    0.000    0.000    0.000    0.000    0.000 
#
# Total GULP energy -178555.814064 kJ/mol
# GULP energy per Si atom -5579.869189 kJ/mol
# Density = 2.194295 g / cm^3
# Si number density = 21.993010 Si / 1000 Ang^3
#
#
#
# Elastic Constant Matrix: (Units=GPa)
#
#
# Indices 1 2 3 4 5 6 
#
# 1 130.5498 10.6985 31.4079 0.0000 -25.7067 0.0000
# 2 10.6985 36.4710 9.9033 0.0000 -8.2238 0.0000
# 3 31.4079 9.9033 62.4643 0.0000 -21.1477 0.0000
# 4 0.0000 0.0000 0.0000 30.4798 0.0000 -1.0229
# 5 -25.7067 -8.2238 -21.1477 0.0000 42.7142 0.0000
# 6 0.0000 0.0000 0.0000 -1.0229 0.0000 26.2735
#
#
#
# Elastic Compliance Matrix: (Units=1/GPa)
#
#
# Indices 1 2 3 4 5 6 
#
# 1 0.009261 -0.000988 -0.003217 0.000000 0.003791 0.000000
# 2 -0.000988 0.029317 -0.002933 0.000000 0.003597 0.000000
# 3 -0.003217 -0.002933 0.020718 0.000000 0.007757 0.000000
# 4 0.000000 0.000000 0.000000 0.032852 0.000000 0.001279
# 5 0.003791 0.003597 0.007757 0.000000 0.030226 0.000000
# 6 0.000000 0.000000 0.000000 0.001279 0.000000 0.038111
#
#
# Mechanical properties :
#
#
# Convention : Reuss Voigt Hill
#
# Bulk Modulus (GPa) = 22.21274 37.05608 29.63441
# Shear Modulus (GPa) = 26.34822 31.72520 29.03671
#
# Velocity S-wave (km/s) = 3.46501 3.80216 3.63749
# Velocity P-wave (km/s) = 5.11177 6.01339 5.58082
#
# Compressibility (1/GPa) = 0.04501921
#
# Stress axis : x y z
#
# Youngs Moduli (GPa) = 107.97706 34.11039 48.26830
#
# Poissons Ratio (x) = 0.03372 0.15526
# Poissons Ratio (y) = 0.10673 0.14157
# Poissons Ratio (z) = 0.34731 0.10005
#
# Static dielectric constant tensor:
#      x y z
#    x 1.869520 0.000000 0.043570 
#    y 0.000000 1.830220 0.000000 
#    z 0.043570 0.000000 1.834090 
# 
# From -- ./inp_files/55752.got.cif
#   From: 2010.05.17/outbox.cif.g08.bks.cpg/sg14_28_cif.got.tgz:55752.got - 2010.06.03 17:49:19.
