data_PCOD9245220
_publ_section_title
;
Structure prediction by ZEFSAII (Michael W. Deem and Ramdas Pophale) SiO2 
 PCOD9245220
Probable space group: P 21/C
;
_chemical_formula_sum "Si O2"
_cell_formula_units_Z 32
_cell_length_a 16.369444
_cell_length_b 5.049743
_cell_length_c 20.958613
_cell_angle_alpha 90.000000
_cell_angle_beta 124.627263
_cell_angle_gamma 90.000000
_cell_volume 1425.590861
_symmetry_space_group_name_H-M "P 21/C"
_symmetry_group_IT_number 14
_symmetry_cell_setting 'monoclinic'
loop_
_space_group_symop_operation_xyz
x,y,z
-x,1/2+y,1/2-z
-x,-y,-z
x,1/2-y,1/2+z
loop_
_atom_site_type_symbol
_atom_site_label
_atom_site_fract_x
_atom_site_fract_y
_atom_site_fract_z
Si Si1 0.502210 0.008349 0.610032
Si Si2 0.258578 0.746695 0.418962
Si Si3 0.387063 0.235147 0.956465
Si Si4 0.954452 0.746172 0.399539
Si Si5 0.687881 0.293958 0.416963
Si Si6 0.561451 0.585512 0.266610
Si Si7 0.037067 0.891033 0.797967
Si Si8 0.129855 0.739190 0.082468
O O1 0.456586 0.255437 0.550706
O O2 0.578834 0.026592 0.702798
O O3 0.549689 0.831489 0.575634
O O4 0.406717 0.872132 0.600827
O O5 0.337716 0.546306 0.423556
O O6 0.255669 0.653405 0.491834
O O7 0.150381 0.704286 0.343090
O O8 0.302054 0.041976 0.431217
O O9 0.876536 0.530570 0.390886
O O10 0.996528 0.663512 0.350466
O O11 0.046342 0.760547 0.489821
O O12 0.902982 0.030521 0.378968
O O13 0.645302 0.536136 0.356392
O O14 0.766807 0.163457 0.404377
O O15 0.527684 0.889203 0.249618
O O16 0.974479 0.698302 0.724127
#
# Coordination Sequence:
#
# PCOD9245220 Si02
#       8
#     4   4   4   4   4   4   4   4
#     4   9  21  40  62  93 131 167 208 258 318 368
#     4  11  23  42  65  94 122 165 224 254 312 388
#     4  10  22  39  65  93 128 169 210 264 304 371
#     4  10  22  42  63  94 128 156 205 264 324 370
#     4  10  21  40  67  92 121 170 210 258 308 382
#     4  10  21  37  58  88 123 158 202 253 313 365
#     4  12  25  45  69  92 132 170 209 266 329 382
#     4  10  21  39  67  95 122 161 207 263 310 382
#
# _framework density 22.446833999999999
#
# number of rings (size 3 to 8) (size 9 to 14) (size 15 to 20)
#    0.000    1.750    1.250    2.250    0.000   10.500 
#    6.750    0.000    0.000    0.000    0.000    0.000 
#    0.000    0.000    0.000    0.000    0.000    0.000 
#
# Total GULP energy -178760.715647 kJ/mol
# GULP energy per Si atom -5586.272364 kJ/mol
# Density = 2.239574 g / cm^3
# Si number density = 22.446834 Si / 1000 Ang^3
#
#
#
# Elastic Constant Matrix: (Units=GPa)
#
#
# Indices 1 2 3 4 5 6 
#
# 1 93.9813 1.1187 6.8308 0.0000 -8.2410 0.0000
# 2 1.1187 56.0854 1.3128 0.0000 1.4184 0.0000
# 3 6.8308 1.3128 52.2551 0.0000 -10.5578 0.0000
# 4 0.0000 0.0000 0.0000 20.7179 0.0000 0.2473
# 5 -8.2410 1.4184 -10.5578 0.0000 27.3124 0.0000
# 6 0.0000 0.0000 0.0000 0.2473 0.0000 26.8178
#
#
#
# Elastic Compliance Matrix: (Units=1/GPa)
#
#
# Indices 1 2 3 4 5 6 
#
# 1 0.010967 -0.000276 -0.000819 0.000000 0.003007 0.000000
# 2 -0.000276 0.017883 -0.000670 0.000000 -0.001271 0.000000
# 3 -0.000819 -0.000670 0.020846 0.000000 0.007846 0.000000
# 4 0.000000 0.000000 0.000000 0.048273 0.000000 -0.000445
# 5 0.003007 -0.001271 0.007846 0.000000 0.040620 0.000000
# 6 0.000000 0.000000 0.000000 -0.000445 0.000000 0.037293
#
#
# Mechanical properties :
#
#
# Convention : Reuss Voigt Hill
#
# Bulk Modulus (GPa) = 21.66073 24.53849 23.09961
# Shear Modulus (GPa) = 25.66739 27.84024 26.75382
#
# Velocity S-wave (km/s) = 3.38520 3.52557 3.45610
# Velocity P-wave (km/s) = 4.99501 5.24676 5.12243
#
# Compressibility (1/GPa) = 0.04616650
#
# Stress axis : x y z
#
# Youngs Moduli (GPa) = 91.18356 55.91817 47.97084
#
# Poissons Ratio (x) = 0.01541 0.03930
# Poissons Ratio (y) = 0.02513 0.03214
# Poissons Ratio (z) = 0.07470 0.03747
#
# Static dielectric constant tensor:
#      x y z
#    x 1.804700 0.000000 0.011960 
#    y 0.000000 1.823000 0.000000 
#    z 0.011960 0.000000 1.894920 
# 
# From -- ./inp_files/67881.got.cif
#   From: 2010.05.17/outbox.cif.g08.bks.cpg/sg14_34_cif.got.tgz:67881.got - 2010.06.03 17:49:19.
