data_PCOD9245301
_publ_section_title
;
Structure prediction by ZEFSAII (Michael W. Deem and Ramdas Pophale) SiO2 
 PCOD9245301
Probable space group: P 21/C
;
_chemical_formula_sum "Si O2"
_cell_formula_units_Z 24
_cell_length_a 8.462069
_cell_length_b 8.117935
_cell_length_c 21.584848
_cell_angle_alpha 90.000000
_cell_angle_beta 138.992211
_cell_angle_gamma 90.000000
_cell_volume 972.930799
_symmetry_space_group_name_H-M "P 21/C"
_symmetry_group_IT_number 14
_symmetry_cell_setting 'monoclinic'
loop_
_space_group_symop_operation_xyz
x,y,z
-x,1/2+y,1/2-z
-x,-y,-z
x,1/2-y,1/2+z
loop_
_atom_site_type_symbol
_atom_site_label
_atom_site_fract_x
_atom_site_fract_y
_atom_site_fract_z
Si Si1 0.887226 0.211301 0.653118
Si Si2 0.463235 0.012951 0.717737
Si Si3 0.853461 0.830850 0.647152
Si Si4 0.868013 0.668416 0.391479
Si Si5 0.004910 0.707404 0.064498
Si Si6 0.480896 0.036866 0.586578
O O1 0.612863 0.195428 0.596444
O O2 0.037460 0.269110 0.756927
O O3 0.940215 0.315968 0.607491
O O4 0.953559 0.016885 0.663884
O O5 0.677440 0.980943 0.829036
O O6 0.266995 0.867243 0.653181
O O7 0.308222 0.177603 0.677045
O O8 0.582195 0.021532 0.685268
O O9 0.917381 0.725489 0.605647
O O10 0.574336 0.878393 0.577161
O O11 0.971350 0.691668 0.491058
O O12 0.802898 0.561923 0.994802
#
# Coordination Sequence:
#
# PCOD9245301 Si02
#       6
#     4   4   4   4   4   4
#     4  10  21  38  62  87 126 161 205 246 304 360
#     4  11  22  38  66  91 125 160 202 254 310 360
#     4  10  21  37  62  90 121 159 208 246 304 357
#     4  11  22  41  62  91 126 161 204 254 307 361
#     4  11  23  36  64  96 120 156 212 253 298 368
#     4   9  20  35  62  86 119 155 207 243 295 355
#
# _framework density 24.667733999999999
#
# number of rings (size 3 to 8) (size 9 to 14) (size 15 to 20)
#    1.000    0.667    3.333    2.500    4.667    0.000 
#    0.000    0.833    0.000    2.000    0.000    0.000 
#    0.000    0.000    0.000    0.000    0.000    0.000 
#
# Total GULP energy -133927.192597 kJ/mol
# GULP energy per Si atom -5580.299692 kJ/mol
# Density = 2.461159 g / cm^3
# Si number density = 24.667734 Si / 1000 Ang^3
#
#
#
# Elastic Constant Matrix: (Units=GPa)
#
#
# Indices 1 2 3 4 5 6 
#
# 1 130.5226 5.7988 40.2964 0.0000 -13.4074 0.0000
# 2 5.7988 60.6786 6.3031 0.0000 6.7719 0.0000
# 3 40.2964 6.3031 127.7688 0.0000 -8.6044 0.0000
# 4 0.0000 0.0000 0.0000 35.2040 0.0000 2.0145
# 5 -13.4074 6.7719 -8.6044 0.0000 45.7419 0.0000
# 6 0.0000 0.0000 0.0000 2.0145 0.0000 13.5486
#
#
#
# Elastic Compliance Matrix: (Units=1/GPa)
#
#
# Indices 1 2 3 4 5 6 
#
# 1 0.008713 -0.000811 -0.002560 0.000000 0.002192 0.000000
# 2 -0.000811 0.016961 -0.000776 0.000000 -0.002895 0.000000
# 3 -0.002560 -0.000776 0.008740 0.000000 0.001009 0.000000
# 4 0.000000 0.000000 0.000000 0.028650 0.000000 -0.004260
# 5 0.002192 -0.002895 0.001009 0.000000 0.023123 0.000000
# 6 0.000000 0.000000 0.000000 -0.004260 0.000000 0.074442
#
#
# Mechanical properties :
#
#
# Convention : Reuss Voigt Hill
#
# Bulk Modulus (GPa) = 38.28494 47.08518 42.68506
# Shear Modulus (GPa) = 28.14829 36.67036 32.40933
#
# Velocity S-wave (km/s) = 3.38168 3.85979 3.62862
# Velocity P-wave (km/s) = 5.54992 6.24445 5.90740
#
# Compressibility (1/GPa) = 0.02611993
#
# Stress axis : x y z
#
# Youngs Moduli (GPa) = 114.76814 58.95718 114.41234
#
# Poissons Ratio (x) = 0.04784 0.29293
# Poissons Ratio (y) = 0.09312 0.08876
# Poissons Ratio (z) = 0.29385 0.04574
#
# Static dielectric constant tensor:
#      x y z
#    x 2.058810 0.000000 0.000820 
#    y 0.000000 2.039230 0.000000 
#    z 0.000820 0.000000 1.955710 
# 
# From -- ./inp_files/65468.got.cif
#   From: 2010.05.17/outbox.cif.g08.bks.cpg/sg14_33_cif.got.tgz:65468.got - 2010.06.03 17:49:19.
