data_PCOD9245499
_publ_section_title
;
Structure prediction by ZEFSAII (Michael W. Deem and Ramdas Pophale) SiO2 
 PCOD9245499
Probable space group: P 21/C
;
_chemical_formula_sum "Si O2"
_cell_formula_units_Z 20
_cell_length_a 4.874787
_cell_length_b 13.405246
_cell_length_c 11.882183
_cell_angle_alpha 90.000000
_cell_angle_beta 89.907567
_cell_angle_gamma 90.000000
_cell_volume 776.472545
_symmetry_space_group_name_H-M "P 21/C"
_symmetry_group_IT_number 14
_symmetry_cell_setting 'monoclinic'
loop_
_space_group_symop_operation_xyz
x,y,z
-x,1/2+y,1/2-z
-x,-y,-z
x,1/2-y,1/2+z
loop_
_atom_site_type_symbol
_atom_site_label
_atom_site_fract_x
_atom_site_fract_y
_atom_site_fract_z
Si Si1 0.842857 0.205300 0.018299
Si Si2 0.310634 0.382370 0.795826
Si Si3 0.350117 0.329364 0.362303
Si Si4 0.190036 0.586036 0.049913
Si Si5 0.039112 0.522846 0.367994
O O1 0.645594 0.163307 0.920000
O O2 0.771806 0.321184 0.035033
O O3 0.150991 0.201402 0.967712
O O4 0.815341 0.131185 0.122820
O O5 0.371610 0.265063 0.779127
O O6 0.521341 0.429260 0.886748
O O7 0.008559 0.377221 0.850968
O O8 0.247704 0.454109 0.691875
O O9 0.210831 0.430755 0.317887
O O10 0.000000 0.500000 0.000000
O O11 0.000000 0.500000 0.500000
#
# Coordination Sequence:
#
# PCOD9245499 Si02
#       5
#     4   4   4   4   4
#     4   9  19  35  56  80 111 151 196 243 295 355
#     4  10  22  37  58  88 119 154 202 250 303 367
#     4   9  19  36  54  78 114 151 194 247 295 350
#     4  10  21  40  60  84 119 159 199 248 306 369
#     4  10  21  38  61  90 123 163 204 256 313 375
#
# _framework density 25.757514
#
# number of rings (size 3 to 8) (size 9 to 14) (size 15 to 20)
#    0.000    2.400    0.000    1.200    0.000    8.000 
#    0.000    6.000    0.000    0.000    0.000    0.000 
#    0.000    0.000    0.000    0.000    0.000    0.000 
#
# Total GULP energy -111632.852984 kJ/mol
# GULP energy per Si atom -5581.642649 kJ/mol
# Density = 2.569889 g / cm^3
# Si number density = 25.757514 Si / 1000 Ang^3
#
#
#
# Elastic Constant Matrix: (Units=GPa)
#
#
# Indices 1 2 3 4 5 6 
#
# 1 117.3357 29.0515 23.5349 0.0000 29.8751 0.0000
# 2 29.0515 204.7399 94.6958 0.0000 42.9564 0.0000
# 3 23.5349 94.6958 89.8243 0.0000 40.3323 0.0000
# 4 0.0000 0.0000 0.0000 43.6534 0.0000 7.6158
# 5 29.8751 42.9564 40.3323 0.0000 42.1056 0.0000
# 6 0.0000 0.0000 0.0000 7.6158 0.0000 42.3078
#
#
#
# Elastic Compliance Matrix: (Units=1/GPa)
#
#
# Indices 1 2 3 4 5 6 
#
# 1 0.010472 -0.000388 0.001446 0.000000 -0.008419 0.000000
# 2 -0.000388 0.009547 -0.010026 0.000000 0.000139 0.000000
# 3 0.001446 -0.010026 0.030166 0.000000 -0.019693 0.000000
# 4 0.000000 0.000000 0.000000 0.023650 0.000000 -0.004257
# 5 -0.008419 0.000139 -0.019693 0.000000 0.048446 0.000000
# 6 0.000000 0.000000 0.000000 -0.004257 0.000000 0.024403
#
#
# Mechanical properties :
#
#
# Convention : Reuss Voigt Hill
#
# Bulk Modulus (GPa) = 31.00847 78.49604 54.75225
# Shear Modulus (GPa) = 28.51120 43.25455 35.88287
#
# Velocity S-wave (km/s) = 3.33063 4.10237 3.73648
# Velocity P-wave (km/s) = 5.18223 7.27876 6.31807
#
# Compressibility (1/GPa) = 0.03224926
#
# Stress axis : x y z
#
# Youngs Moduli (GPa) = 95.48981 104.74240 33.15027
#
# Poissons Ratio (x) = 0.04066 -0.04793
# Poissons Ratio (y) = 0.03707 0.33235
# Poissons Ratio (z) = -0.13806 1.05010
#
# Static dielectric constant tensor:
#      x y z
#    x 2.012260 0.000000 -0.052570 
#    y 0.000000 2.310740 0.000000 
#    z -0.052570 0.000000 2.072950 
# 
# From -- ./inp_files/37126.got.cif
#   From: 2010.05.17/outbox.cif.g08.bks.cpg/sg14_19_cif.got.tgz:37126.got - 2010.06.03 17:49:19.
