data_PCOD9245988
_publ_section_title
;
Structure prediction by ZEFSAII (Michael W. Deem and Ramdas Pophale) SiO2 
 PCOD9245988
Probable space group: P 21/C
;
_chemical_formula_sum "Si O2"
_cell_formula_units_Z 28
_cell_length_a 5.137263
_cell_length_b 21.250561
_cell_length_c 13.166399
_cell_angle_alpha 90.000000
_cell_angle_beta 107.832172
_cell_angle_gamma 90.000000
_cell_volume 1368.317286
_symmetry_space_group_name_H-M "P 21/C"
_symmetry_group_IT_number 14
_symmetry_cell_setting 'monoclinic'
loop_
_space_group_symop_operation_xyz
x,y,z
-x,1/2+y,1/2-z
-x,-y,-z
x,1/2-y,1/2+z
loop_
_atom_site_type_symbol
_atom_site_label
_atom_site_fract_x
_atom_site_fract_y
_atom_site_fract_z
Si Si1 0.322152 0.193297 0.954834
Si Si2 0.199135 0.523494 0.673655
Si Si3 0.969701 0.607374 0.974828
Si Si4 0.217979 0.490047 0.902637
Si Si5 0.308339 0.442435 0.498851
Si Si6 0.579652 0.184255 0.584561
Si Si7 0.296932 0.665626 0.673598
O O1 0.454638 0.196699 0.858544
O O2 0.992290 0.186375 0.912088
O O3 0.423823 0.127251 0.015116
O O4 0.444419 0.251147 0.031594
O O5 0.272308 0.495664 0.790679
O O6 0.194076 0.465476 0.593663
O O7 0.355707 0.589862 0.674452
O O8 0.900411 0.553070 0.619949
O O9 0.676986 0.638559 0.926764
O O10 0.024615 0.548674 0.907429
O O11 0.212572 0.655453 0.974817
O O12 0.939718 0.572889 0.080632
O O13 0.500000 0.500000 0.000000
O O14 0.500000 0.500000 0.500000
O O15 0.722760 0.185995 0.711408
#
# Coordination Sequence:
#
# PCOD9245988 Si02
#       7
#     4   4   4   4   4   4   4
#     4  11  25  43  67  96 134 171 228 277 330 398
#     4  10  21  39  67  96 129 170 224 275 337 399
#     4  11  23  40  66  98 134 177 216 273 328 399
#     4  11  22  40  67 102 136 171 223 277 332 396
#     4  10  21  40  65  97 126 169 226 285 330 379
#     4  12  24  45  67  97 139 180 225 270 336 411
#     4  11  22  42  71  95 124 184 225 269 331 403
#
# _framework density 20.463090999999999
#
# number of rings (size 3 to 8) (size 9 to 14) (size 15 to 20)
#    0.000    1.143    4.286    1.714    2.000    2.286 
#    2.571    1.429    0.000    0.000    0.000    0.000 
#    0.000    0.000    0.000    0.000    0.000    0.000 
#
# Total GULP energy -156004.850937 kJ/mol
# GULP energy per Si atom -5571.601819 kJ/mol
# Density = 2.041652 g / cm^3
# Si number density = 20.463091 Si / 1000 Ang^3
#
#
#
# Elastic Constant Matrix: (Units=GPa)
#
#
# Indices 1 2 3 4 5 6 
#
# 1 82.4298 8.9138 13.8977 0.0000 -0.7221 0.0000
# 2 8.9138 82.9628 30.3345 0.0000 12.5280 0.0000
# 3 13.8977 30.3345 87.8701 0.0000 6.5433 0.0000
# 4 0.0000 0.0000 0.0000 18.4489 0.0000 -4.4809
# 5 -0.7221 12.5280 6.5433 0.0000 13.9933 0.0000
# 6 0.0000 0.0000 0.0000 -4.4809 0.0000 38.0191
#
#
#
# Elastic Compliance Matrix: (Units=1/GPa)
#
#
# Indices 1 2 3 4 5 6 
#
# 1 0.012572 -0.001060 -0.001804 0.000000 0.002441 0.000000
# 2 -0.001060 0.015549 -0.004310 0.000000 -0.011961 0.000000
# 3 -0.001804 -0.004310 0.013338 0.000000 -0.002471 0.000000
# 4 0.000000 0.000000 0.000000 0.055801 0.000000 0.006577
# 5 0.002441 -0.011961 -0.002471 0.000000 0.083453 0.000000
# 6 0.000000 0.000000 0.000000 0.006577 0.000000 0.027078
#
#
# Mechanical properties :
#
#
# Convention : Reuss Voigt Hill
#
# Bulk Modulus (GPa) = 36.88493 39.95054 38.41774
# Shear Modulus (GPa) = 21.62865 27.43336 24.53100
#
# Velocity S-wave (km/s) = 3.25462 3.66543 3.46611
# Velocity P-wave (km/s) = 5.67341 6.12204 5.90199
#
# Compressibility (1/GPa) = 0.02711134
#
# Stress axis : x y z
#
# Youngs Moduli (GPa) = 79.54359 64.31126 74.97576
#
# Poissons Ratio (x) = 0.06815 0.13528
# Poissons Ratio (y) = 0.08429 0.32312
# Poissons Ratio (z) = 0.14352 0.27716
#
# Static dielectric constant tensor:
#      x y z
#    x 1.293560 0.000000 0.342110 
#    y 0.000000 1.851590 0.000000 
#    z 0.342110 0.000000 1.603100 
# 
# From -- ./inp_files/21835.got.cif
#   From: 2010.05.17/outbox.cif.g08.bks.cpg/sg14_11_cif.got.tgz:21835.got - 2010.06.03 17:49:19.
