data_PCOD9245567
_publ_section_title
;
Structure prediction by ZEFSAII (Michael W. Deem and Ramdas Pophale) SiO2 
 PCOD9245567
Probable space group: P 21/C
;
_chemical_formula_sum "Si O2"
_cell_formula_units_Z 20
_cell_length_a 4.743160
_cell_length_b 19.332144
_cell_length_c 8.407049
_cell_angle_alpha 90.000000
_cell_angle_beta 66.876891
_cell_angle_gamma 90.000000
_cell_volume 708.957457
_symmetry_space_group_name_H-M "P 21/C"
_symmetry_group_IT_number 14
_symmetry_cell_setting 'monoclinic'
loop_
_space_group_symop_operation_xyz
x,y,z
-x,1/2+y,1/2-z
-x,-y,-z
x,1/2-y,1/2+z
loop_
_atom_site_type_symbol
_atom_site_label
_atom_site_fract_x
_atom_site_fract_y
_atom_site_fract_z
Si Si1 0.396846 0.966697 0.356764
Si Si2 0.227901 0.937471 0.904202
Si Si3 0.040478 0.634471 0.118465
Si Si4 0.631977 0.720893 0.028824
Si Si5 0.135642 0.156178 0.824104
O O1 0.093350 0.924206 0.470172
O O2 0.634788 0.906301 0.263210
O O3 0.500000 0.000000 0.500000
O O4 0.451672 0.024440 0.209570
O O5 0.104891 0.901061 0.771460
O O6 0.178761 0.879684 0.049868
O O7 0.000000 0.000000 0.000000
O O8 0.296447 0.696325 0.047619
O O9 0.718913 0.670083 0.156090
O O10 0.713124 0.795875 0.074513
O O11 0.865826 0.701203 0.835601
#
# Coordination Sequence:
#
# PCOD9245567 Si02
#       5
#     4   4   4   4   4
#     4   8  17  37  63  90 122 163 208 255 306 364
#     4   9  18  39  65  94 126 165 210 257 309 371
#     4  10  22  43  66  92 127 165 208 258 312 372
#     4  11  24  41  64  92 125 165 206 257 315 374
#     4  10  21  38  63  94 127 164 209 259 315 375
#
# _framework density 28.210436999999999
#
# number of rings (size 3 to 8) (size 9 to 14) (size 15 to 20)
#    0.000    2.400    0.000    1.200    0.000    6.400 
#    0.000   44.000    0.000    0.000    0.000    0.000 
#    0.000    0.000    0.000    0.000    0.000    0.000 
#
# Total GULP energy -112100.627952 kJ/mol
# GULP energy per Si atom -5605.031398 kJ/mol
# Density = 2.814623 g / cm^3
# Si number density = 28.210437 Si / 1000 Ang^3
#
#
#
# Elastic Constant Matrix: (Units=GPa)
#
#
# Indices 1 2 3 4 5 6 
#
# 1 119.2514 45.6469 21.0318 0.0000 6.6099 0.0000
# 2 45.6469 178.1252 73.6214 0.0000 3.6970 0.0000
# 3 21.0318 73.6214 148.2918 0.0000 -5.0277 0.0000
# 4 0.0000 0.0000 0.0000 87.4470 0.0000 0.3948
# 5 6.6099 3.6970 -5.0277 0.0000 29.1450 0.0000
# 6 0.0000 0.0000 0.0000 0.3948 0.0000 33.4692
#
#
#
# Elastic Compliance Matrix: (Units=1/GPa)
#
#
# Indices 1 2 3 4 5 6 
#
# 1 0.009403 -0.002255 -0.000278 0.000000 -0.001894 0.000000
# 2 -0.002255 0.007671 -0.003525 0.000000 -0.001070 0.000000
# 3 -0.000278 -0.003525 0.008600 0.000000 0.001994 0.000000
# 4 0.000000 0.000000 0.000000 0.011436 0.000000 -0.000135
# 5 -0.001894 -0.001070 0.001994 0.000000 0.035220 0.000000
# 6 0.000000 0.000000 0.000000 -0.000135 0.000000 0.029880
#
#
# Mechanical properties :
#
#
# Convention : Reuss Voigt Hill
#
# Bulk Modulus (GPa) = 73.75759 80.69651 77.22705
# Shear Modulus (GPa) = 42.07103 50.37014 46.22059
#
# Velocity S-wave (km/s) = 3.86596 4.23012 4.05213
# Velocity P-wave (km/s) = 6.79189 7.24747 7.02338
#
# Compressibility (1/GPa) = 0.01355793
#
# Stress axis : x y z
#
# Youngs Moduli (GPa) = 106.34893 130.36065 116.27339
#
# Poissons Ratio (x) = 0.29401 0.03234
# Poissons Ratio (y) = 0.23986 0.40984
# Poissons Ratio (z) = 0.02958 0.45949
#
# Static dielectric constant tensor:
#      x y z
#    x 2.109640 0.000000 -0.063960 
#    y 0.000000 2.230130 0.000000 
#    z -0.063960 0.000000 2.249150 
# 
# From -- ./inp_files/5683.got.cif
#   From: 2010.05.17/outbox.cif.g08.bks.cpg/sg14_3_cif.got.tgz:5683.got - 2010.06.03 17:49:19.
