data_PCOD9245749
_publ_section_title
;
Structure prediction by ZEFSAII (Michael W. Deem and Ramdas Pophale) SiO2 
 PCOD9245749
Probable space group: P 21/C
;
_chemical_formula_sum "Si O2"
_cell_formula_units_Z 32
_cell_length_a 23.292337
_cell_length_b 12.147413
_cell_length_c 5.215934
_cell_angle_alpha 90.000000
_cell_angle_beta 68.191942
_cell_angle_gamma 90.000000
_cell_volume 1370.186845
_symmetry_space_group_name_H-M "P 21/C"
_symmetry_group_IT_number 14
_symmetry_cell_setting 'monoclinic'
loop_
_space_group_symop_operation_xyz
x,y,z
-x,1/2+y,1/2-z
-x,-y,-z
x,1/2-y,1/2+z
loop_
_atom_site_type_symbol
_atom_site_label
_atom_site_fract_x
_atom_site_fract_y
_atom_site_fract_z
Si Si1 0.065591 0.673789 0.256534
Si Si2 0.387975 0.678735 0.042216
Si Si3 0.809514 0.777323 0.571972
Si Si4 0.268435 0.537219 0.375872
Si Si5 0.518884 0.822484 0.440609
Si Si6 0.057628 0.189344 0.193908
Si Si7 0.346249 0.176423 0.879641
Si Si8 0.812779 0.469746 0.005720
O O1 0.069281 0.734426 0.524161
O O2 0.998342 0.615153 0.316780
O O3 0.123197 0.593963 0.130512
O O4 0.387336 0.778299 0.251505
O O5 0.326424 0.612033 0.206652
O O6 0.453791 0.619545 0.986063
O O7 0.773228 0.739424 0.875224
O O8 0.827893 0.903482 0.548306
O O9 0.867877 0.690901 0.459853
O O10 0.297680 0.420611 0.408340
O O11 0.228192 0.575437 0.689403
O O12 0.224694 0.531642 0.198414
O O13 0.517805 0.720979 0.234870
O O14 0.584851 0.875763 0.273089
O O15 0.046683 0.209476 0.511060
O O16 0.344694 0.272188 0.666405
#
# Coordination Sequence:
#
# PCOD9245749 Si02
#       8
#     4   4   4   4   4   4   4   4
#     4  10  21  40  62  86 117 151 189 238 292 345
#     4  10  21  39  61  86 119 156 196 251 296 340
#     4  10  21  40  62  86 117 151 189 238 292 345
#     4  12  26  39  58  89 118 160 208 231 288 361
#     4   8  16  33  58  85 112 148 196 243 300 345
#     4   8  16  34  58  84 110 138 180 230 284 344
#     4  10  21  39  61  86 119 156 196 251 296 340
#     4  12  26  40  58  88 120 156 200 239 284 357
#
# _framework density 23.354479000000001
#
# number of rings (size 3 to 8) (size 9 to 14) (size 15 to 20)
#    0.000    2.000    0.000    3.000    0.000    6.500 
#    0.000   11.250    0.000   10.500    0.000    0.000 
#    0.000    0.000    0.000    0.000    0.000    0.000 
#
# Total GULP energy -178435.494682 kJ/mol
# GULP energy per Si atom -5576.109209 kJ/mol
# Density = 2.330132 g / cm^3
# Si number density = 23.354479 Si / 1000 Ang^3
#
#
#
# Elastic Constant Matrix: (Units=GPa)
#
#
# Indices 1 2 3 4 5 6 
#
# 1 145.2105 14.6653 25.0383 0.0000 -16.1641 0.0000
# 2 14.6653 18.0781 11.3274 0.0000 -4.3872 0.0000
# 3 25.0383 11.3274 148.1929 0.0000 1.2761 0.0000
# 4 0.0000 0.0000 0.0000 57.5432 0.0000 28.8823
# 5 -16.1641 -4.3872 1.2761 0.0000 50.3552 0.0000
# 6 0.0000 0.0000 0.0000 28.8823 0.0000 44.4305
#
#
#
# Elastic Compliance Matrix: (Units=1/GPa)
#
#
# Indices 1 2 3 4 5 6 
#
# 1 0.007808 -0.005245 -0.000936 0.000000 0.002073 0.000000
# 2 -0.005245 0.063001 -0.003963 0.000000 0.003906 0.000000
# 3 -0.000936 -0.003963 0.007216 0.000000 -0.000829 0.000000
# 4 0.000000 0.000000 0.000000 0.025794 0.000000 -0.016768
# 5 0.002073 0.003906 -0.000829 0.000000 0.020886 0.000000
# 6 0.000000 0.000000 0.000000 -0.016768 0.000000 0.033407
#
#
# Mechanical properties :
#
#
# Convention : Reuss Voigt Hill
#
# Bulk Modulus (GPa) = 17.31967 45.94927 31.63447
# Shear Modulus (GPa) = 25.29766 47.82915 36.56341
#
# Velocity S-wave (km/s) = 3.29478 4.53035 3.96104
# Velocity P-wave (km/s) = 4.68040 6.86170 5.87320
#
# Compressibility (1/GPa) = 0.05773783
#
# Stress axis : x y z
#
# Youngs Moduli (GPa) = 128.06646 15.87275 138.57673
#
# Poissons Ratio (x) = 0.08325 0.12975
# Poissons Ratio (y) = 0.67165 0.54920
# Poissons Ratio (z) = 0.11990 0.06291
#
# Static dielectric constant tensor:
#      x y z
#    x 1.988770 0.000000 -0.050810 
#    y 0.000000 1.876050 0.000000 
#    z -0.050810 0.000000 1.939810 
# 
# From -- ./inp_files/4475.got.cif
#   From: 2010.05.17/outbox.cif.g08.bks.cpg/sg14_3_cif.got.tgz:4475.got - 2010.06.03 17:49:19.
