data_PCOD9245794
_publ_section_title
;
Structure prediction by ZEFSAII (Michael W. Deem and Ramdas Pophale) SiO2 
 PCOD9245794
Probable space group: P 21/C
;
_chemical_formula_sum "Si O2"
_cell_formula_units_Z 20
_cell_length_a 9.394466
_cell_length_b 18.586877
_cell_length_c 4.936631
_cell_angle_alpha 90.000000
_cell_angle_beta 71.333372
_cell_angle_gamma 90.000000
_cell_volume 816.659710
_symmetry_space_group_name_H-M "P 21/C"
_symmetry_group_IT_number 14
_symmetry_cell_setting 'monoclinic'
loop_
_space_group_symop_operation_xyz
x,y,z
-x,1/2+y,1/2-z
-x,-y,-z
x,1/2-y,1/2+z
loop_
_atom_site_type_symbol
_atom_site_label
_atom_site_fract_x
_atom_site_fract_y
_atom_site_fract_z
Si Si1 0.175194 0.998895 0.824797
Si Si2 0.552121 0.581346 0.895496
Si Si3 0.006373 0.795651 0.394374
Si Si4 0.744081 0.087984 0.726090
Si Si5 0.334273 0.199618 0.301831
O O1 0.197919 0.977726 0.498113
O O2 0.278958 0.068432 0.821488
O O3 0.245116 0.936880 0.971868
O O4 0.000000 0.000000 0.000000
O O5 0.422544 0.606230 0.771275
O O6 0.567630 0.635348 0.136480
O O7 0.500000 0.500000 0.000000
O O8 0.018225 0.724748 0.572933
O O9 0.138935 0.848514 0.390421
O O10 0.839932 0.823837 0.559658
O O11 0.356579 0.232154 0.991447
#
# Coordination Sequence:
#
# PCOD9245794 Si02
#       5
#     4   4   4   4   4
#     4  11  23  40  63  90 123 167 211 259 313 378
#     4  10  24  43  65  97 135 170 214 269 328 388
#     4  10  21  39  62  90 124 167 216 264 317 387
#     4  11  23  39  61  92 125 161 207 264 320 373
#     4  10  23  41  64  91 125 169 216 264 321 388
#
# _framework density 24.490003999999999
#
# number of rings (size 3 to 8) (size 9 to 14) (size 15 to 20)
#    0.000    1.600    0.000    3.600    0.000   12.800 
#    0.000    0.000    0.000    0.000    0.000    0.000 
#    0.000    0.000    0.000    0.000    0.000    0.000 
#
# Total GULP energy -111948.266135 kJ/mol
# GULP energy per Si atom -5597.413307 kJ/mol
# Density = 2.443426 g / cm^3
# Si number density = 24.490004 Si / 1000 Ang^3
#
#
#
# Elastic Constant Matrix: (Units=GPa)
#
#
# Indices 1 2 3 4 5 6 
#
# 1 188.9258 55.5032 15.4315 0.0000 5.9356 0.0000
# 2 55.5032 63.2122 2.9197 0.0000 -6.5123 0.0000
# 3 15.4315 2.9197 70.1310 0.0000 -0.8852 0.0000
# 4 0.0000 0.0000 0.0000 34.0579 0.0000 8.7569
# 5 5.9356 -6.5123 -0.8852 0.0000 29.3832 0.0000
# 6 0.0000 0.0000 0.0000 8.7569 0.0000 59.5937
#
#
#
# Elastic Compliance Matrix: (Units=1/GPa)
#
#
# Indices 1 2 3 4 5 6 
#
# 1 0.007518 -0.006854 -0.001408 0.000000 -0.003080 0.000000
# 2 -0.006854 0.022465 0.000653 0.000000 0.006383 0.000000
# 3 -0.001408 0.000653 0.014553 0.000000 0.000868 0.000000
# 4 0.000000 0.000000 0.000000 0.030515 0.000000 -0.004484
# 5 -0.003080 0.006383 0.000868 0.000000 0.036096 0.000000
# 6 0.000000 0.000000 0.000000 -0.004484 0.000000 0.017439
#
#
# Mechanical properties :
#
#
# Convention : Reuss Voigt Hill
#
# Bulk Modulus (GPa) = 34.10695 52.21976 43.16336
# Shear Modulus (GPa) = 32.55723 41.16794 36.86258
#
# Velocity S-wave (km/s) = 3.65006 4.10446 3.88391
# Velocity P-wave (km/s) = 5.63214 6.62052 6.14623
#
# Compressibility (1/GPa) = 0.02931954
#
# Stress axis : x y z
#
# Youngs Moduli (GPa) = 133.00732 44.51342 68.71644
#
# Poissons Ratio (x) = 0.30509 0.09674
# Poissons Ratio (y) = 0.91160 -0.04490
# Poissons Ratio (z) = 0.18726 -0.02909
#
# Static dielectric constant tensor:
#      x y z
#    x 1.958440 0.000000 -0.035170 
#    y 0.000000 1.951030 0.000000 
#    z -0.035170 0.000000 1.938750 
# 
# From -- ./inp_files/1137.got.cif
#   From: 2010.05.17/outbox.cif.g08.bks.cpg/sg14_1_cif.got.tgz:1137.got - 2010.06.03 17:49:19.
