data_PCOD9245528
_publ_section_title
;
Structure prediction by ZEFSAII (Michael W. Deem and Ramdas Pophale) SiO2 
 PCOD9245528
Probable space group: P 21/C
;
_chemical_formula_sum "Si O2"
_cell_formula_units_Z 28
_cell_length_a 15.838665
_cell_length_b 13.086169
_cell_length_c 9.342591
_cell_angle_alpha 90.000000
_cell_angle_beta 47.599021
_cell_angle_gamma 90.000000
_cell_volume 1429.933676
_symmetry_space_group_name_H-M "P 21/C"
_symmetry_group_IT_number 14
_symmetry_cell_setting 'monoclinic'
loop_
_space_group_symop_operation_xyz
x,y,z
-x,1/2+y,1/2-z
-x,-y,-z
x,1/2-y,1/2+z
loop_
_atom_site_type_symbol
_atom_site_label
_atom_site_fract_x
_atom_site_fract_y
_atom_site_fract_z
Si Si1 0.399645 0.252877 0.763437
Si Si2 0.291222 0.043651 0.528568
Si Si3 0.164310 0.552248 0.900625
Si Si4 0.508746 0.945263 0.215308
Si Si5 0.391338 0.872019 0.055050
Si Si6 0.089870 0.137372 0.293247
Si Si7 0.185036 0.319868 0.367118
O O1 0.410560 0.147191 0.834473
O O2 0.529818 0.276196 0.570228
O O3 0.309613 0.232669 0.741431
O O4 0.348352 0.352070 0.900529
O O5 0.209974 0.077455 0.750200
O O6 0.216678 0.992924 0.487757
O O7 0.401821 0.974404 0.439370
O O8 0.256999 0.632360 0.733314
O O9 0.150782 0.456925 0.806537
O O10 0.042445 0.604454 0.062612
O O11 0.446192 0.915293 0.138763
O O12 0.583138 0.044857 0.096736
O O13 0.109218 0.239761 0.364733
O O14 0.137532 0.158705 0.079775
#
# Coordination Sequence:
#
# PCOD9245528 Si02
#       7
#     4   4   4   4   4   4   4
#     4  11  19  34  63  91 124 158 199 249 300 370
#     4  10  21  38  62  91 125 158 203 250 308 363
#     4  10  21  43  60  87 119 166 204 254 305 362
#     4   9  19  34  57  90 122 156 196 243 306 369
#     4   9  19  34  59  86 120 163 190 247 310 361
#     4  11  23  39  66  85 121 160 214 251 300 359
#     4  12  22  38  64  94 115 161 208 254 296 374
#
# _framework density 19.581327999999999
#
# number of rings (size 3 to 8) (size 9 to 14) (size 15 to 20)
#    0.000    1.714    2.857    2.571    0.000    1.143 
#    5.143    1.429    0.000    0.000    0.000    0.000 
#    0.000    0.000    0.000    0.000    0.000    0.000 
#
# Total GULP energy -156170.468829 kJ/mol
# GULP energy per Si atom -5577.516744 kJ/mol
# Density = 1.953676 g / cm^3
# Si number density = 19.581328 Si / 1000 Ang^3
#
#
#
# Elastic Constant Matrix: (Units=GPa)
#
#
# Indices 1 2 3 4 5 6 
#
# 1 71.5926 29.1636 48.1622 0.0000 -19.2853 0.0000
# 2 29.1636 58.4494 33.7543 0.0000 -7.2797 0.0000
# 3 48.1622 33.7543 106.9359 0.0000 -0.7367 0.0000
# 4 0.0000 0.0000 0.0000 20.2094 0.0000 -15.2498
# 5 -19.2853 -7.2797 -0.7367 0.0000 21.3830 0.0000
# 6 0.0000 0.0000 0.0000 -15.2498 0.0000 18.9239
#
#
#
# Elastic Compliance Matrix: (Units=1/GPa)
#
#
# Indices 1 2 3 4 5 6 
#
# 1 0.031458 -0.005336 -0.012304 0.000000 0.026131 0.000000
# 2 -0.005336 0.022897 -0.004805 0.000000 0.002817 0.000000
# 3 -0.012304 -0.004805 0.016326 0.000000 -0.012170 0.000000
# 4 0.000000 0.000000 0.000000 0.126257 0.000000 0.101744
# 5 0.026131 0.002817 -0.012170 0.000000 0.070874 0.000000
# 6 0.000000 0.000000 0.000000 0.101744 0.000000 0.134833
#
#
# Mechanical properties :
#
#
# Convention : Reuss Voigt Hill
#
# Bulk Modulus (GPa) = 38.77297 51.01535 44.89416
# Shear Modulus (GPa) = 10.96180 20.49642 15.72911
#
# Velocity S-wave (km/s) = 2.36859 3.23884 2.83728
# Velocity P-wave (km/s) = 5.22726 6.33217 5.80606
#
# Compressibility (1/GPa) = 0.02579116
#
# Stress axis : x y z
#
# Youngs Moduli (GPa) = 31.78864 43.67424 61.25360
#
# Poissons Ratio (x) = 0.23305 0.75365
# Poissons Ratio (y) = 0.16963 0.29431
# Poissons Ratio (z) = 0.39112 0.20984
#
# Static dielectric constant tensor:
#      x y z
#    x 1.675870 0.000000 0.003750 
#    y 0.000000 1.701890 0.000000 
#    z 0.003750 0.000000 1.736060 
# 
# From -- ./inp_files/16190.got.cif
#   From: 2010.05.17/outbox.cif.g08.bks.cpg/sg14_9_cif.got.tgz:16190.got - 2010.06.03 17:49:19.
