data_PCOD9245063
_publ_section_title
;
Structure prediction by ZEFSAII (Michael W. Deem and Ramdas Pophale) SiO2 
 PCOD9245063
Probable space group: P 21/C
;
_chemical_formula_sum "Si O2"
_cell_formula_units_Z 24
_cell_length_a 8.343112
_cell_length_b 7.785474
_cell_length_c 18.074123
_cell_angle_alpha 90.000000
_cell_angle_beta 109.931211
_cell_angle_gamma 90.000000
_cell_volume 1103.686184
_symmetry_space_group_name_H-M "P 21/C"
_symmetry_group_IT_number 14
_symmetry_cell_setting 'monoclinic'
loop_
_space_group_symop_operation_xyz
x,y,z
-x,1/2+y,1/2-z
-x,-y,-z
x,1/2-y,1/2+z
loop_
_atom_site_type_symbol
_atom_site_label
_atom_site_fract_x
_atom_site_fract_y
_atom_site_fract_z
Si Si1 0.379581 0.662557 0.341293
Si Si2 0.039068 0.658736 0.813148
Si Si3 0.578839 0.693928 0.998876
Si Si4 0.754417 0.805421 0.675274
Si Si5 0.534759 0.498875 0.787814
Si Si6 0.146408 0.083505 0.573035
O O1 0.180644 0.701663 0.315107
O O2 0.447684 0.684230 0.435344
O O3 0.432658 0.510424 0.294702
O O4 0.463550 0.823921 0.309938
O O5 0.137134 0.476628 0.830763
O O6 0.891355 0.676019 0.729664
O O7 0.949307 0.688289 0.877958
O O8 0.735668 0.680779 0.966789
O O9 0.500000 0.500000 0.000000
O O10 0.651111 0.756099 0.087763
O O11 0.615397 0.869828 0.712366
O O12 0.715151 0.467256 0.859155
O O13 0.000000 0.000000 0.500000
#
# Coordination Sequence:
#
# PCOD9245063 Si02
#       6
#     4   4   4   4   4   4
#     4  10  21  37  60  84 117 150 198 235 289 341
#     4  11  22  35  59  89 117 149 192 244 285 339
#     4  11  18  37  58  84 111 153 196 234 277 350
#     4  11  21  37  59  85 119 149 196 236 289 340
#     4  10  21  36  59  83 116 155 190 235 288 345
#     4  11  19  33  59  85 111 148 196 233 278 337
#
# _framework density 21.74531
#
# number of rings (size 3 to 8) (size 9 to 14) (size 15 to 20)
#    0.000    1.333    6.667    3.000    0.000    0.000 
#    0.000    0.000    3.667    6.000    0.000    0.000 
#    0.000    0.000    0.000    0.000    0.000    0.000 
#
# Total GULP energy -133971.062293 kJ/mol
# GULP energy per Si atom -5582.127596 kJ/mol
# Density = 2.169582 g / cm^3
# Si number density = 21.745310 Si / 1000 Ang^3
#
#
#
# Elastic Constant Matrix: (Units=GPa)
#
#
# Indices 1 2 3 4 5 6 
#
# 1 141.3249 11.3375 48.6405 0.0000 -4.0808 0.0000
# 2 11.3375 39.0791 1.9356 0.0000 -2.9670 0.0000
# 3 48.6405 1.9356 155.2058 0.0000 5.2485 0.0000
# 4 0.0000 0.0000 0.0000 34.4230 0.0000 -1.8276
# 5 -4.0808 -2.9670 5.2485 0.0000 52.1240 0.0000
# 6 0.0000 0.0000 0.0000 -1.8276 0.0000 25.8230
#
#
#
# Elastic Compliance Matrix: (Units=1/GPa)
#
#
# Indices 1 2 3 4 5 6 
#
# 1 0.008152 -0.002180 -0.002554 0.000000 0.000771 0.000000
# 2 -0.002180 0.026305 0.000311 0.000000 0.001295 0.000000
# 3 -0.002554 0.000311 0.007270 0.000000 -0.000914 0.000000
# 4 0.000000 0.000000 0.000000 0.029160 0.000000 0.002064
# 5 0.000771 0.001295 -0.000914 0.000000 0.019411 0.000000
# 6 0.000000 0.000000 0.000000 0.002064 0.000000 0.038871
#
#
# Mechanical properties :
#
#
# Convention : Reuss Voigt Hill
#
# Bulk Modulus (GPa) = 30.41153 51.04857 40.73005
# Shear Modulus (GPa) = 33.56276 40.72039 37.14158
#
# Velocity S-wave (km/s) = 3.93294 4.33206 4.13731
# Velocity P-wave (km/s) = 5.88555 6.96771 6.44936
#
# Compressibility (1/GPa) = 0.03288227
#
# Stress axis : x y z
#
# Youngs Moduli (GPa) = 122.66993 38.01626 137.54410
#
# Poissons Ratio (x) = 0.08288 0.35124
# Poissons Ratio (y) = 0.26742 -0.04282
# Poissons Ratio (z) = 0.31326 -0.01184
#
# Static dielectric constant tensor:
#      x y z
#    x 1.776050 0.000000 0.032780 
#    y 0.000000 1.884320 0.000000 
#    z 0.032780 0.000000 1.827760 
# 
# From -- ./inp_files/39582.got.cif
#   From: 2010.05.17/outbox.cif.g08.bks.cpg/sg14_20_cif.got.tgz:39582.got - 2010.06.03 17:49:19.
