data_PCOD9245823
_publ_section_title
;
Structure prediction by ZEFSAII (Michael W. Deem and Ramdas Pophale) SiO2 
 PCOD9245823
Probable space group: P 21/C
;
_chemical_formula_sum "Si O2"
_cell_formula_units_Z 24
_cell_length_a 6.538669
_cell_length_b 22.780958
_cell_length_c 7.485824
_cell_angle_alpha 90.000000
_cell_angle_beta 65.672658
_cell_angle_gamma 90.000000
_cell_volume 1016.056593
_symmetry_space_group_name_H-M "P 21/C"
_symmetry_group_IT_number 14
_symmetry_cell_setting 'monoclinic'
loop_
_space_group_symop_operation_xyz
x,y,z
-x,1/2+y,1/2-z
-x,-y,-z
x,1/2-y,1/2+z
loop_
_atom_site_type_symbol
_atom_site_label
_atom_site_fract_x
_atom_site_fract_y
_atom_site_fract_z
Si Si1 0.666079 0.065478 0.417281
Si Si2 0.904038 0.174402 0.844921
Si Si3 0.474448 0.033089 0.819718
Si Si4 0.018575 0.430012 0.527045
Si Si5 0.376218 0.174571 0.474476
Si Si6 0.641185 0.255563 0.162869
O O1 0.677934 0.057769 0.627049
O O2 0.460577 0.107943 0.437508
O O3 0.904554 0.086556 0.254730
O O4 0.618936 0.009722 0.305001
O O5 0.135890 0.180538 0.653155
O O6 0.707365 0.197734 0.789916
O O7 0.894556 0.108292 0.922241
O O8 0.858710 0.216228 0.033432
O O9 0.283613 0.081764 0.921885
O O10 0.500000 0.000000 0.000000
O O11 0.000000 0.500000 0.500000
O O12 0.431457 0.211809 0.277588
O O13 0.566029 0.203845 0.529255
#
# Coordination Sequence:
#
# PCOD9245823 Si02
#       6
#     4   4   4   4   4   4
#     4  10  21  40  63  88 129 161 209 271 314 384
#     4  11  21  42  64  91 128 168 216 270 328 386
#     4  10  22  41  62  94 123 168 215 258 327 391
#     4  10  21  39  63  88 131 166 204 273 322 382
#     4  11  21  41  62  92 125 166 212 271 322 389
#     4  10  24  39  63  93 125 167 218 267 331 386
#
# _framework density 23.620729999999998
#
# number of rings (size 3 to 8) (size 9 to 14) (size 15 to 20)
#    0.000    1.667    3.333    1.000    0.000    3.333 
#    3.000    0.000    0.000    0.000    0.000    0.000 
#    0.000    0.000    0.000    0.000    0.000    0.000 
#
# Total GULP energy -133677.486529 kJ/mol
# GULP energy per Si atom -5569.895272 kJ/mol
# Density = 2.356697 g / cm^3
# Si number density = 23.620730 Si / 1000 Ang^3
#
#
#
# Elastic Constant Matrix: (Units=GPa)
#
#
# Indices 1 2 3 4 5 6 
#
# 1 9.9342 -4.3334 20.0357 0.0000 -3.1374 0.0000
# 2 -4.3334 55.3111 6.7023 0.0000 -10.3597 0.0000
# 3 20.0357 6.7023 187.8639 0.0000 -35.0675 0.0000
# 4 0.0000 0.0000 0.0000 22.4950 0.0000 4.7121
# 5 -3.1374 -10.3597 -35.0675 0.0000 39.9098 0.0000
# 6 0.0000 0.0000 0.0000 4.7121 0.0000 17.9720
#
#
#
# Elastic Compliance Matrix: (Units=1/GPa)
#
#
# Indices 1 2 3 4 5 6 
#
# 1 0.136370 0.012665 -0.014810 0.000000 0.000995 0.000000
# 2 0.012665 0.020193 -0.001085 0.000000 0.005284 0.000000
# 3 -0.014810 -0.001085 0.007980 0.000000 0.005566 0.000000
# 4 0.000000 0.000000 0.000000 0.047038 0.000000 -0.012333
# 5 0.000995 0.005284 0.005566 0.000000 0.031397 0.000000
# 6 0.000000 0.000000 0.000000 -0.012333 0.000000 0.058876
#
#
# Mechanical properties :
#
#
# Convention : Reuss Voigt Hill
#
# Bulk Modulus (GPa) = 6.32575 33.10204 19.71390
# Shear Modulus (GPa) = 13.85009 31.45566 22.65288
#
# Velocity S-wave (km/s) = 2.42410 3.65320 3.10017
# Velocity P-wave (km/s) = 3.24328 5.64260 4.60205
#
# Compressibility (1/GPa) = 0.15808393
#
# Stress axis : x y z
#
# Youngs Moduli (GPa) = 7.33297 49.52222 125.31028
#
# Poissons Ratio (x) = -0.62720 1.85585
# Poissons Ratio (y) = -0.09287 0.13594
# Poissons Ratio (z) = 0.10860 0.05372
#
# Static dielectric constant tensor:
#      x y z
#    x 1.992470 0.000000 -0.096360 
#    y 0.000000 2.080530 0.000000 
#    z -0.096360 0.000000 2.271780 
# 
# From -- ./inp_files/10147.got.cif
#   From: 2010.05.17/outbox.cif.g08.bks.cpg/sg14_6_cif.got.tgz:10147.got - 2010.06.03 17:49:19.
