data_PCOD9245222
_publ_section_title
;
Structure prediction by ZEFSAII (Michael W. Deem and Ramdas Pophale) SiO2 
 PCOD9245222
Probable space group: P 21/C
;
_chemical_formula_sum "Si O2"
_cell_formula_units_Z 32
_cell_length_a 26.063255
_cell_length_b 11.548015
_cell_length_c 25.980808
_cell_angle_alpha 90.000000
_cell_angle_beta 169.237634
_cell_angle_gamma 90.000000
_cell_volume 1460.215196
_symmetry_space_group_name_H-M "P 21/C"
_symmetry_group_IT_number 14
_symmetry_cell_setting 'monoclinic'
loop_
_space_group_symop_operation_xyz
x,y,z
-x,1/2+y,1/2-z
-x,-y,-z
x,1/2-y,1/2+z
loop_
_atom_site_type_symbol
_atom_site_label
_atom_site_fract_x
_atom_site_fract_y
_atom_site_fract_z
Si Si1 0.308889 0.083833 0.743506
Si Si2 0.157510 0.593796 0.965365
Si Si3 0.091118 0.295390 0.382115
Si Si4 0.450659 0.330019 0.492730
Si Si5 0.106569 0.740684 0.506665
Si Si6 0.977936 0.047081 0.154998
Si Si7 0.459964 0.399605 0.204751
Si Si8 0.171490 0.897036 0.805558
O O1 0.003772 0.095965 0.420457
O O2 0.400368 0.952723 0.847391
O O3 0.363653 0.160176 0.847676
O O4 0.514266 0.116374 0.900025
O O5 0.386190 0.504011 0.170817
O O6 0.237877 0.681302 0.089921
O O7 0.920018 0.512625 0.755133
O O8 0.044847 0.660288 0.804783
O O9 0.112899 0.413509 0.436242
O O10 0.356784 0.221651 0.626380
O O11 0.920482 0.207559 0.249053
O O12 0.174946 0.301661 0.252680
O O13 0.679791 0.238477 0.736010
O O14 0.049625 0.617631 0.424499
O O15 0.277473 0.069599 0.474434
O O16 0.771638 0.098830 0.994638
#
# Coordination Sequence:
#
# PCOD9245222 Si02
#       8
#     4   4   4   4   4   4   4   4
#     4  11  22  42  64  96 119 158 204 260 322 360
#     4  10  21  37  58  89 126 158 201 239 299 362
#     4  10  24  41  59  88 129 169 206 244 289 367
#     4  11  23  39  65  92 127 149 201 270 320 367
#     4  12  22  38  61  93 123 164 196 256 311 373
#     4  11  24  38  58  84 123 163 207 242 297 361
#     4  10  23  37  57  83 118 170 201 248 285 352
#     4  11  23  40  65  91 125 164 203 248 303 368
#
# _framework density 21.914577999999999
#
# number of rings (size 3 to 8) (size 9 to 14) (size 15 to 20)
#    0.000    1.250    3.750    1.500    1.750   11.000 
#    0.000    0.000    0.000    4.500    0.000    0.000 
#    0.000    0.000    0.000    0.000    0.000    0.000 
#
# Total GULP energy -179124.760615 kJ/mol
# GULP energy per Si atom -5597.648769 kJ/mol
# Density = 2.186470 g / cm^3
# Si number density = 21.914578 Si / 1000 Ang^3
#
#
#
# Elastic Constant Matrix: (Units=GPa)
#
#
# Indices 1 2 3 4 5 6 
#
# 1 53.7669 16.5681 -3.7487 0.0000 -10.5678 0.0000
# 2 16.5681 103.1568 -8.9769 0.0000 -3.7408 0.0000
# 3 -3.7487 -8.9769 58.4550 0.0000 -16.9213 0.0000
# 4 0.0000 0.0000 0.0000 12.2309 0.0000 -4.5104
# 5 -10.5678 -3.7408 -16.9213 0.0000 36.5962 0.0000
# 6 0.0000 0.0000 0.0000 -4.5104 0.0000 24.9012
#
#
#
# Elastic Compliance Matrix: (Units=1/GPa)
#
#
# Indices 1 2 3 4 5 6 
#
# 1 0.021103 -0.002868 0.002993 0.000000 0.007184 0.000000
# 2 -0.002868 0.010339 0.001697 0.000000 0.001013 0.000000
# 3 0.002993 0.001697 0.020620 0.000000 0.010572 0.000000
# 4 0.000000 0.000000 0.000000 0.087612 0.000000 0.015869
# 5 0.007184 0.001013 0.010572 0.000000 0.034392 0.000000
# 6 0.000000 0.000000 0.000000 0.015869 0.000000 0.043033
#
#
# Mechanical properties :
#
#
# Convention : Reuss Voigt Hill
#
# Bulk Modulus (GPa) = 17.95170 24.78487 21.36828
# Shear Modulus (GPa) = 21.54938 28.84809 25.19874
#
# Velocity S-wave (km/s) = 3.13922 3.63214 3.39464
# Velocity P-wave (km/s) = 4.62050 5.37813 5.01365
#
# Compressibility (1/GPa) = 0.05570503
#
# Stress axis : x y z
#
# Youngs Moduli (GPa) = 47.38559 96.72001 48.49658
#
# Poissons Ratio (x) = 0.27744 -0.14513
# Poissons Ratio (y) = 0.13593 -0.08230
# Poissons Ratio (z) = -0.14181 -0.16415
#
# Static dielectric constant tensor:
#      x y z
#    x 1.798850 0.000000 -0.019350 
#    y 0.000000 1.835750 0.000000 
#    z -0.019350 0.000000 1.821140 
# 
# From -- ./inp_files/78342.got.cif
#   From: 2010.05.17/outbox.cif.g08.bks.cpg/sg14_40_cif.got.tgz:78342.got - 2010.06.03 17:49:19.
