data_PCOD9245927
_publ_section_title
;
Structure prediction by ZEFSAII (Michael W. Deem and Ramdas Pophale) SiO2 
 PCOD9245927
Probable space group: P 21/C
;
_chemical_formula_sum "Si O2"
_cell_formula_units_Z 28
_cell_length_a 8.178070
_cell_length_b 9.761426
_cell_length_c 14.229092
_cell_angle_alpha 90.000000
_cell_angle_beta 95.287281
_cell_angle_gamma 90.000000
_cell_volume 1131.070016
_symmetry_space_group_name_H-M "P 21/C"
_symmetry_group_IT_number 14
_symmetry_cell_setting 'monoclinic'
loop_
_space_group_symop_operation_xyz
x,y,z
-x,1/2+y,1/2-z
-x,-y,-z
x,1/2-y,1/2+z
loop_
_atom_site_type_symbol
_atom_site_label
_atom_site_fract_x
_atom_site_fract_y
_atom_site_fract_z
Si Si1 0.648175 0.941507 0.295193
Si Si2 0.351387 0.925135 0.048043
Si Si3 0.857128 0.042545 0.144101
Si Si4 0.795841 0.838438 0.853264
Si Si5 0.633928 0.998534 0.593003
Si Si6 0.132975 0.246656 0.429639
Si Si7 0.225173 0.854487 0.549761
O O1 0.708350 0.033019 0.210566
O O2 0.701450 0.782814 0.295013
O O3 0.461618 0.957340 0.319601
O O4 0.743441 0.011052 0.387012
O O5 0.358737 0.765849 0.078662
O O6 0.299085 0.019692 0.131771
O O7 0.500000 0.000000 0.000000
O O8 0.207448 0.915190 0.962111
O O9 0.895352 0.882391 0.132254
O O10 0.022507 0.125320 0.176364
O O11 0.811362 0.787924 0.962513
O O12 0.761128 0.109589 0.559636
O O13 0.500000 0.000000 0.500000
O O14 0.732521 0.857650 0.603328
O O15 0.956084 0.183161 0.431709
#
# Coordination Sequence:
#
# PCOD9245927 Si02
#       7
#     4   4   4   4   4   4   4
#     4  11  26  42  66  99 139 170 221 287 350 394
#     4  11  23  41  70  97 130 180 231 271 334 411
#     4  11  25  43  64  98 142 172 221 284 349 405
#     4  11  21  44  66  90 135 177 221 273 334 414
#     4  10  21  39  65  93 130 169 218 274 326 401
#     4  11  20  41  67  94 124 179 225 269 328 410
#     4  11  21  40  69 100 125 176 236 270 328 413
#
# _framework density 24.755319
#
# number of rings (size 3 to 8) (size 9 to 14) (size 15 to 20)
#    0.000    1.143    5.714    2.143    8.000    0.000 
#    5.143    0.000    0.000    0.000    0.000    0.000 
#    0.000    0.000    0.000    0.000    0.000    0.000 
#
# Total GULP energy -156488.781244 kJ/mol
# GULP energy per Si atom -5588.885044 kJ/mol
# Density = 2.469898 g / cm^3
# Si number density = 24.755319 Si / 1000 Ang^3
#
#
#
# Elastic Constant Matrix: (Units=GPa)
#
#
# Indices 1 2 3 4 5 6 
#
# 1 107.0500 42.6213 31.0282 0.0000 -26.6240 0.0000
# 2 42.6213 141.0585 25.1160 0.0000 -14.0545 0.0000
# 3 31.0282 25.1160 91.4565 0.0000 -22.1684 0.0000
# 4 0.0000 0.0000 0.0000 18.5807 0.0000 -14.8114
# 5 -26.6240 -14.0545 -22.1684 0.0000 31.8863 0.0000
# 6 0.0000 0.0000 0.0000 -14.8114 0.0000 43.5209
#
#
#
# Elastic Compliance Matrix: (Units=1/GPa)
#
#
# Indices 1 2 3 4 5 6 
#
# 1 0.013045 -0.002808 -0.001581 0.000000 0.008556 0.000000
# 2 -0.002808 0.008193 -0.001191 0.000000 0.000439 0.000000
# 3 -0.001581 -0.001191 0.013651 0.000000 0.007645 0.000000
# 4 0.000000 0.000000 0.000000 0.073855 0.000000 0.025135
# 5 0.008556 0.000439 0.007645 0.000000 0.044014 0.000000
# 6 0.000000 0.000000 0.000000 0.025135 0.000000 0.031532
#
#
# Mechanical properties :
#
#
# Convention : Reuss Voigt Hill
#
# Bulk Modulus (GPa) = 42.14068 59.67734 50.90901
# Shear Modulus (GPa) = 24.58690 34.85087 29.71889
#
# Velocity S-wave (km/s) = 3.15492 3.75615 3.46859
# Velocity P-wave (km/s) = 5.50738 6.55521 6.05401
#
# Compressibility (1/GPa) = 0.02373004
#
# Stress axis : x y z
#
# Youngs Moduli (GPa) = 76.65521 122.04865 73.25553
#
# Poissons Ratio (x) = 0.34268 0.11581
# Poissons Ratio (y) = 0.21523 0.08726
# Poissons Ratio (z) = 0.12119 0.14538
#
# Static dielectric constant tensor:
#      x y z
#    x 2.016460 0.000000 -0.021270 
#    y 0.000000 2.009600 0.000000 
#    z -0.021270 0.000000 2.006670 
# 
# From -- ./inp_files/54794.got.cif
#   From: 2010.05.17/outbox.cif.g08.bks.cpg/sg14_28_cif.got.tgz:54794.got - 2010.06.03 17:49:19.
