data_PCOD9245072
_publ_section_title
;
Structure prediction by ZEFSAII (Michael W. Deem and Ramdas Pophale) SiO2 
 PCOD9245072
Probable space group: P 21/C
;
_chemical_formula_sum "Si O2"
_cell_formula_units_Z 32
_cell_length_a 15.229010
_cell_length_b 11.284708
_cell_length_c 18.869156
_cell_angle_alpha 90.000000
_cell_angle_beta 28.410429
_cell_angle_gamma 90.000000
_cell_volume 1542.853157
_symmetry_space_group_name_H-M "P 21/C"
_symmetry_group_IT_number 14
_symmetry_cell_setting 'monoclinic'
loop_
_space_group_symop_operation_xyz
x,y,z
-x,1/2+y,1/2-z
-x,-y,-z
x,1/2-y,1/2+z
loop_
_atom_site_type_symbol
_atom_site_label
_atom_site_fract_x
_atom_site_fract_y
_atom_site_fract_z
Si Si1 0.040735 0.103312 0.026265
Si Si2 0.818979 0.198345 0.423944
Si Si3 0.775777 0.264848 0.293274
Si Si4 0.992278 0.919671 0.178041
Si Si5 0.552266 0.863133 0.247844
Si Si6 0.575003 0.878195 0.481006
Si Si7 0.017049 0.032231 0.648864
Si Si8 0.582125 0.619521 0.147077
O O1 0.242861 0.152024 0.867345
O O2 0.880783 0.198176 0.154392
O O3 0.000000 0.000000 0.000000
O O4 0.046376 0.033697 0.096323
O O5 0.850128 0.217575 0.317650
O O6 0.611134 0.154638 0.580058
O O7 0.852801 0.321264 0.438873
O O8 0.948690 0.107491 0.375176
O O9 0.562492 0.228203 0.442031
O O10 0.837584 0.401837 0.246639
O O11 0.787765 0.870975 0.305549
O O12 0.981603 0.947857 0.268017
O O13 0.530076 0.752411 0.209187
O O14 0.524038 0.002631 0.246840
O O15 0.566453 0.886053 0.572671
O O16 0.500000 0.000000 0.500000
O O17 0.201077 0.096495 0.489093
#
# Coordination Sequence:
#
# PCOD9245072 Si02
#       8
#     4   4   4   4   4   4   4   4
#     4  12  23  35  60  92 125 148 200 264 314 356
#     4  10  21  38  61  83 122 161 205 249 304 373
#     4  11  20  36  60  85 115 156 202 245 301 365
#     4  10  21  36  59  91 117 156 206 255 303 367
#     4  11  22  38  60  93 122 164 208 258 314 375
#     4  11  20  36  63  91 121 158 206 265 312 357
#     4   9  18  37  60  82 115 160 200 248 297 370
#     4  10  21  37  62  88 127 159 208 261 312 374
#
# _framework density 20.740794999999999
#
# number of rings (size 3 to 8) (size 9 to 14) (size 15 to 20)
#    0.000    1.500    3.750    3.000    1.750    0.000 
#    0.000    0.625    2.750    2.250    0.000    0.000 
#    0.000    0.000    0.000    0.000    0.000    0.000 
#
# Total GULP energy -178267.811553 kJ/mol
# GULP energy per Si atom -5570.869111 kJ/mol
# Density = 2.069359 g / cm^3
# Si number density = 20.740795 Si / 1000 Ang^3
#
#
#
# Elastic Constant Matrix: (Units=GPa)
#
#
# Indices 1 2 3 4 5 6 
#
# 1 25.7862 2.8456 -2.2119 0.0000 3.3280 0.0000
# 2 2.8456 63.9785 1.4721 0.0000 15.0859 0.0000
# 3 -2.2119 1.4721 53.6046 0.0000 -5.5066 0.0000
# 4 0.0000 0.0000 0.0000 29.2375 0.0000 -2.4316
# 5 3.3280 15.0859 -5.5066 0.0000 25.0514 0.0000
# 6 0.0000 0.0000 0.0000 -2.4316 0.0000 27.6308
#
#
#
# Elastic Compliance Matrix: (Units=1/GPa)
#
#
# Indices 1 2 3 4 5 6 
#
# 1 0.039550 -0.000709 0.001182 0.000000 -0.004567 0.000000
# 2 -0.000709 0.018376 -0.001699 0.000000 -0.011345 0.000000
# 3 0.001182 -0.001699 0.019275 0.000000 0.005103 0.000000
# 4 0.000000 0.000000 0.000000 0.034455 0.000000 0.003032
# 5 -0.004567 -0.011345 0.005103 0.000000 0.048478 0.000000
# 6 0.000000 0.000000 0.000000 0.003032 0.000000 0.036458
#
#
# Mechanical properties :
#
#
# Convention : Reuss Voigt Hill
#
# Bulk Modulus (GPa) = 13.37839 16.39790 14.88814
# Shear Modulus (GPa) = 22.32531 25.80150 24.06341
#
# Velocity S-wave (km/s) = 3.28441 3.53086 3.40986
# Velocity P-wave (km/s) = 4.56589 4.95438 4.76410
#
# Compressibility (1/GPa) = 0.07474742
#
# Stress axis : x y z
#
# Youngs Moduli (GPa) = 25.28470 54.41853 51.88129
#
# Poissons Ratio (x) = 0.03861 -0.06134
# Poissons Ratio (y) = 0.01794 0.08817
# Poissons Ratio (z) = -0.02989 0.09248
#
# Static dielectric constant tensor:
#      x y z
#    x 1.747240 0.000000 -0.008200 
#    y 0.000000 1.808950 0.000000 
#    z -0.008200 0.000000 1.803590 
# 
# From -- ./inp_files/59388.got.cif
#   From: 2010.05.17/outbox.cif.g08.bks.cpg/sg14_30_cif.got.tgz:59388.got - 2010.06.03 17:49:19.
