data_PCOD9245651
_publ_section_title
;
Structure prediction by ZEFSAII (Michael W. Deem and Ramdas Pophale) SiO2 
 PCOD9245651
Probable space group: P 21/C
;
_chemical_formula_sum "Si O2"
_cell_formula_units_Z 28
_cell_length_a 7.408839
_cell_length_b 19.852199
_cell_length_c 10.723755
_cell_angle_alpha 90.000000
_cell_angle_beta 132.824867
_cell_angle_gamma 90.000000
_cell_volume 1156.823862
_symmetry_space_group_name_H-M "P 21/C"
_symmetry_group_IT_number 14
_symmetry_cell_setting 'monoclinic'
loop_
_space_group_symop_operation_xyz
x,y,z
-x,1/2+y,1/2-z
-x,-y,-z
x,1/2-y,1/2+z
loop_
_atom_site_type_symbol
_atom_site_label
_atom_site_fract_x
_atom_site_fract_y
_atom_site_fract_z
Si Si1 0.731391 0.982134 0.520509
Si Si2 0.997100 0.958228 0.869895
Si Si3 0.706924 0.828358 0.420570
Si Si4 0.771796 0.683292 0.518227
Si Si5 0.522769 0.101523 0.306438
Si Si6 0.219169 0.672043 0.528989
Si Si7 0.094672 0.689118 0.895494
O O1 0.963081 0.994793 0.721433
O O2 0.711957 0.904279 0.473164
O O3 0.500000 0.000000 0.500000
O O4 0.691832 0.034108 0.387109
O O5 0.743515 0.917364 0.765891
O O6 0.208044 0.902525 0.967401
O O7 0.000000 0.000000 0.000000
O O8 0.697025 0.761454 0.500735
O O9 0.475397 0.818944 0.219603
O O10 0.959026 0.819537 0.463188
O O11 0.546831 0.640595 0.353773
O O12 0.902951 0.660971 0.705995
O O13 0.998820 0.677132 0.526962
O O14 0.655156 0.148941 0.469081
O O15 0.161590 0.732644 0.407462
#
# Coordination Sequence:
#
# PCOD9245651 Si02
#       7
#     4   4   4   4   4   4   4
#     4  10  22  39  67  93 130 172 217 277 322 388
#     4  10  21  38  67 101 124 168 232 273 324 390
#     4  11  23  43  62 101 133 170 227 273 324 405
#     4  10  23  41  67  93 131 175 219 270 334 393
#     4  10  22  41  64  94 128 173 217 265 342 391
#     4  10  21  39  64  93 128 167 226 268 320 404
#     4  11  24  41  64  95 133 176 212 277 338 390
#
# _framework density 24.204204000000001
#
# number of rings (size 3 to 8) (size 9 to 14) (size 15 to 20)
#    0.000    1.714    1.429    2.571    8.000    2.857 
#    2.571    0.714    0.000    0.000    0.000    0.000 
#    0.000    0.000    0.000    0.000    0.000    0.000 
#
# Total GULP energy -156306.826686 kJ/mol
# GULP energy per Si atom -5582.386667 kJ/mol
# Density = 2.414911 g / cm^3
# Si number density = 24.204204 Si / 1000 Ang^3
#
#
#
# Elastic Constant Matrix: (Units=GPa)
#
#
# Indices 1 2 3 4 5 6 
#
# 1 36.1652 16.8510 -0.9038 0.0000 -0.4101 0.0000
# 2 16.8510 129.3149 59.6560 0.0000 -8.7957 0.0000
# 3 -0.9038 59.6560 161.6339 0.0000 -0.4575 0.0000
# 4 0.0000 0.0000 0.0000 48.5616 0.0000 -1.4088
# 5 -0.4101 -8.7957 -0.4575 0.0000 23.7285 0.0000
# 6 0.0000 0.0000 0.0000 -1.4088 0.0000 12.4457
#
#
#
# Elastic Compliance Matrix: (Units=1/GPa)
#
#
# Indices 1 2 3 4 5 6 
#
# 1 0.029970 -0.004901 0.001973 0.000000 -0.001261 0.000000
# 2 -0.004901 0.010402 -0.003856 0.000000 0.003697 0.000000
# 3 0.001973 -0.003856 0.007618 0.000000 -0.001248 0.000000
# 4 0.000000 0.000000 0.000000 0.020660 0.000000 0.002339
# 5 -0.001261 0.003697 -0.001248 0.000000 0.043468 0.000000
# 6 0.000000 0.000000 0.000000 0.002339 0.000000 0.080614
#
#
# Mechanical properties :
#
#
# Convention : Reuss Voigt Hill
#
# Bulk Modulus (GPa) = 29.05252 53.14672 41.09962
# Shear Modulus (GPa) = 22.95959 33.71455 28.33707
#
# Velocity S-wave (km/s) = 3.08324 3.73623 3.42533
# Velocity P-wave (km/s) = 4.97034 6.37322 5.71499
#
# Compressibility (1/GPa) = 0.03442042
#
# Stress axis : x y z
#
# Youngs Moduli (GPa) = 33.36707 96.13411 131.27564
#
# Poissons Ratio (x) = 0.47118 -0.25900
# Poissons Ratio (y) = 0.16354 0.50622
# Poissons Ratio (z) = -0.06583 0.37071
#
# Static dielectric constant tensor:
#      x y z
#    x 1.616880 0.000000 -0.544680 
#    y 0.000000 1.999340 0.000000 
#    z -0.544680 0.000000 1.317740 
# 
# From -- ./inp_files/26853.got.cif
#   From: 2010.05.17/outbox.cif.g08.bks.cpg/sg14_14_cif.got.tgz:26853.got - 2010.06.03 17:49:19.
