data_PCOD9245135
_publ_section_title
;
Structure prediction by ZEFSAII (Michael W. Deem and Ramdas Pophale) SiO2 
 PCOD9245135
Probable space group: P 21/C
;
_chemical_formula_sum "Si O2"
_cell_formula_units_Z 28
_cell_length_a 7.251904
_cell_length_b 16.991315
_cell_length_c 16.378397
_cell_angle_alpha 90.000000
_cell_angle_beta 145.113735
_cell_angle_gamma 90.000000
_cell_volume 1154.271376
_symmetry_space_group_name_H-M "P 21/C"
_symmetry_group_IT_number 14
_symmetry_cell_setting 'monoclinic'
loop_
_space_group_symop_operation_xyz
x,y,z
-x,1/2+y,1/2-z
-x,-y,-z
x,1/2-y,1/2+z
loop_
_atom_site_type_symbol
_atom_site_label
_atom_site_fract_x
_atom_site_fract_y
_atom_site_fract_z
Si Si1 0.849005 0.693303 0.144019
Si Si2 0.898709 0.886143 0.953417
Si Si3 0.401710 0.524223 0.744484
Si Si4 0.332328 0.603134 0.873762
Si Si5 0.155167 0.145843 0.672941
Si Si6 0.746754 0.291847 0.543113
Si Si7 0.567316 0.246721 0.718659
O O1 0.615659 0.769273 0.066902
O O2 0.050984 0.691546 0.300980
O O3 0.102952 0.705457 0.163643
O O4 0.623817 0.619193 0.042159
O O5 0.708527 0.807799 0.907507
O O6 0.638223 0.941317 0.813842
O O7 0.085499 0.929501 0.093692
O O8 0.168696 0.864028 0.984161
O O9 0.373630 0.528071 0.831411
O O10 0.723514 0.571132 0.834512
O O11 0.378051 0.676898 0.827140
O O12 0.005663 0.110812 0.701831
O O13 0.452747 0.206595 0.761438
O O14 0.875500 0.209268 0.550811
#
# Coordination Sequence:
#
# PCOD9245135 Si02
#       7
#     4   4   4   4   4   4   4
#     4  11  20  38  64 103 125 165 212 273 333 374
#     4  10  23  42  63  97 129 175 226 264 323 390
#     4  10  22  44  65  91 134 175 218 269 324 393
#     4  10  22  39  63  93 126 168 211 268 328 384
#     4   9  19  38  60  93 122 163 208 263 322 372
#     4  10  21  39  68  94 131 164 220 270 324 389
#     4  10  21  36  63  95 127 161 213 272 310 384
#
# _framework density 24.257726000000002
#
# number of rings (size 3 to 8) (size 9 to 14) (size 15 to 20)
#    0.000    2.000    2.857    0.857    4.000    0.000 
#   18.000    2.857    0.000    0.000    0.000    0.000 
#    0.000    0.000    0.000    0.000    0.000    0.000 
#
# Total GULP energy -156191.029065 kJ/mol
# GULP energy per Si atom -5578.251038 kJ/mol
# Density = 2.420251 g / cm^3
# Si number density = 24.257726 Si / 1000 Ang^3
#
#
#
# Elastic Constant Matrix: (Units=GPa)
#
#
# Indices 1 2 3 4 5 6 
#
# 1 158.4898 24.1460 38.1840 0.0000 26.5664 0.0000
# 2 24.1460 40.5902 1.2475 0.0000 -9.7096 0.0000
# 3 38.1840 1.2475 88.6454 0.0000 -5.1866 0.0000
# 4 0.0000 0.0000 0.0000 19.6013 0.0000 -8.0335
# 5 26.5664 -9.7096 -5.1866 0.0000 29.2158 0.0000
# 6 0.0000 0.0000 0.0000 -8.0335 0.0000 22.4147
#
#
#
# Elastic Compliance Matrix: (Units=1/GPa)
#
#
# Indices 1 2 3 4 5 6 
#
# 1 0.011928 -0.010602 -0.005891 0.000000 -0.015416 0.000000
# 2 -0.010602 0.036190 0.005381 0.000000 0.022624 0.000000
# 3 -0.005891 0.005381 0.014309 0.000000 0.009685 0.000000
# 4 0.000000 0.000000 0.000000 0.059801 0.000000 0.021433
# 5 -0.015416 0.022624 0.009685 0.000000 0.057484 0.000000
# 6 0.000000 0.000000 0.000000 0.021433 0.000000 0.052295
#
#
# Mechanical properties :
#
#
# Convention : Reuss Voigt Hill
#
# Bulk Modulus (GPa) = 24.87324 46.09782 35.48553
# Shear Modulus (GPa) = 18.68234 29.18957 23.93595
#
# Velocity S-wave (km/s) = 2.77819 3.47264 3.14464
# Velocity P-wave (km/s) = 4.53510 5.92651 5.27687
#
# Compressibility (1/GPa) = 0.04020385
#
# Stress axis : x y z
#
# Youngs Moduli (GPa) = 83.83598 27.63203 69.88461
#
# Poissons Ratio (x) = 0.29296 0.41167
# Poissons Ratio (y) = 0.88885 -0.37607
# Poissons Ratio (z) = 0.49386 -0.14870
#
# Static dielectric constant tensor:
#      x y z
#    x 1.966780 0.000000 -0.034050 
#    y 0.000000 1.964210 0.000000 
#    z -0.034050 0.000000 2.045180 
# 
# From -- ./inp_files/66011.got.cif
#   From: 2010.05.17/outbox.cif.g08.bks.cpg/sg14_34_cif.got.tgz:66011.got - 2010.06.03 17:49:19.
