data_PCOD9245384
_publ_section_title
;
Structure prediction by ZEFSAII (Michael W. Deem and Ramdas Pophale) SiO2 
 PCOD9245384
Probable space group: P 21/C
;
_chemical_formula_sum "Si O2"
_cell_formula_units_Z 28
_cell_length_a 8.059586
_cell_length_b 29.882321
_cell_length_c 5.239308
_cell_angle_alpha 90.000000
_cell_angle_beta 102.739786
_cell_angle_gamma 90.000000
_cell_volume 1230.766227
_symmetry_space_group_name_H-M "P 21/C"
_symmetry_group_IT_number 14
_symmetry_cell_setting 'monoclinic'
loop_
_space_group_symop_operation_xyz
x,y,z
-x,1/2+y,1/2-z
-x,-y,-z
x,1/2-y,1/2+z
loop_
_atom_site_type_symbol
_atom_site_label
_atom_site_fract_x
_atom_site_fract_y
_atom_site_fract_z
Si Si1 0.326516 0.863733 0.242965
Si Si2 0.270543 0.219731 0.107704
Si Si3 0.472832 0.126416 0.183124
Si Si4 0.848770 0.984663 0.643640
Si Si5 0.430865 0.531329 0.251701
Si Si6 0.865267 0.277375 0.442297
Si Si7 0.118678 0.937080 0.948235
O O1 0.389284 0.859670 0.552122
O O2 0.171989 0.898533 0.158974
O O3 0.253627 0.819745 0.089621
O O4 0.475745 0.878063 0.098894
O O5 0.314602 0.250751 0.369630
O O6 0.349017 0.169780 0.147047
O O7 0.066281 0.212825 0.029136
O O8 0.442641 0.073758 0.252074
O O9 0.663047 0.995666 0.468158
O O10 0.853077 0.017738 0.884364
O O11 0.000000 0.000000 0.500000
O O12 0.929984 0.937953 0.768724
O O13 0.500000 0.500000 0.500000
O O14 0.262911 0.559803 0.281804
O O15 0.827645 0.245082 0.661103
#
# Coordination Sequence:
#
# PCOD9245384 Si02
#       7
#     4   4   4   4   4   4   4
#     4  11  22  39  63  89 123 150 204 257 293 357
#     4  10  22  42  63  86 125 160 195 246 306 369
#     4  11  23  40  61  93 121 161 203 245 307 360
#     4   9  17  36  57  77 112 153 198 239 296 346
#     4  10  21  38  56  84 123 159 199 252 292 353
#     4  10  22  41  62  90 121 154 195 248 305 359
#     4   9  19  36  57  82 112 157 195 246 299 344
#
# _framework density 22.750057000000002
#
# number of rings (size 3 to 8) (size 9 to 14) (size 15 to 20)
#    0.000    2.000    1.429    1.714    0.000    4.000 
#    7.714    2.857    0.000    0.000    0.000    0.000 
#    0.000    0.000    0.000    0.000    0.000    0.000 
#
# Total GULP energy -155911.972305 kJ/mol
# GULP energy per Si atom -5568.284725 kJ/mol
# Density = 2.269828 g / cm^3
# Si number density = 22.750057 Si / 1000 Ang^3
#
#
#
# Elastic Constant Matrix: (Units=GPa)
#
#
# Indices 1 2 3 4 5 6 
#
# 1 47.1428 -5.7947 -0.1972 0.0000 1.3311 0.0000
# 2 -5.7947 97.4746 29.6437 0.0000 9.5461 0.0000
# 3 -0.1972 29.6437 126.9653 0.0000 7.7557 0.0000
# 4 0.0000 0.0000 0.0000 26.5583 0.0000 7.0122
# 5 1.3311 9.5461 7.7557 0.0000 35.3198 0.0000
# 6 0.0000 0.0000 0.0000 7.0122 0.0000 32.1307
#
#
#
# Elastic Compliance Matrix: (Units=1/GPa)
#
#
# Indices 1 2 3 4 5 6 
#
# 1 0.021423 0.001458 -0.000237 0.000000 -0.001149 0.000000
# 2 0.001458 0.011356 -0.002492 0.000000 -0.002577 0.000000
# 3 -0.000237 -0.002492 0.008530 0.000000 -0.001191 0.000000
# 4 0.000000 0.000000 0.000000 0.039955 0.000000 -0.008720
# 5 -0.001149 -0.002577 -0.001191 0.000000 0.029314 0.000000
# 6 0.000000 0.000000 0.000000 -0.008720 0.000000 0.033026
#
#
# Mechanical properties :
#
#
# Convention : Reuss Voigt Hill
#
# Bulk Modulus (GPa) = 25.79438 35.43180 30.61309
# Shear Modulus (GPa) = 31.43312 35.33049 33.38180
#
# Velocity S-wave (km/s) = 3.72112 3.94507 3.83473
# Velocity P-wave (km/s) = 5.46123 6.02989 5.75259
#
# Compressibility (1/GPa) = 0.03876814
#
# Stress axis : x y z
#
# Youngs Moduli (GPa) = 46.67913 88.05982 117.22924
#
# Poissons Ratio (x) = -0.12841 0.02778
# Poissons Ratio (y) = -0.06807 0.29210
# Poissons Ratio (z) = 0.01106 0.21942
#
# Static dielectric constant tensor:
#      x y z
#    x 2.027270 0.000000 -0.012690 
#    y 0.000000 1.890300 0.000000 
#    z -0.012690 0.000000 1.887230 
# 
# From -- ./inp_files/2091.got.cif
#   From: 2010.05.17/outbox.cif.g08.bks.cpg/sg14_2_cif.got.tgz:2091.got - 2010.06.03 17:49:19.
