data_PCOD9245320
_publ_section_title
;
Structure prediction by ZEFSAII (Michael W. Deem and Ramdas Pophale) SiO2 
 PCOD9245320
Probable space group: P 21/C
;
_chemical_formula_sum "Si O2"
_cell_formula_units_Z 28
_cell_length_a 8.737131
_cell_length_b 13.857644
_cell_length_c 14.900566
_cell_angle_alpha 90.000000
_cell_angle_beta 39.703130
_cell_angle_gamma 90.000000
_cell_volume 1152.477925
_symmetry_space_group_name_H-M "P 21/C"
_symmetry_group_IT_number 14
_symmetry_cell_setting 'monoclinic'
loop_
_space_group_symop_operation_xyz
x,y,z
-x,1/2+y,1/2-z
-x,-y,-z
x,1/2-y,1/2+z
loop_
_atom_site_type_symbol
_atom_site_label
_atom_site_fract_x
_atom_site_fract_y
_atom_site_fract_z
Si Si1 0.113563 0.210928 0.638695
Si Si2 0.439083 0.646131 0.008459
Si Si3 0.496098 0.486386 0.369431
Si Si4 0.293100 0.867049 0.076948
Si Si5 0.042660 0.116107 0.312031
Si Si6 0.895809 0.258563 0.043093
Si Si7 0.383330 0.343833 0.263647
O O1 0.369400 0.164127 0.500785
O O2 0.134957 0.297998 0.702925
O O3 0.974286 0.238122 0.611631
O O4 0.953023 0.131392 0.759665
O O5 0.582076 0.622802 0.853948
O O6 0.335656 0.754929 0.039813
O O7 0.203928 0.582331 0.124429
O O8 0.510392 0.407398 0.442236
O O9 0.304061 0.566503 0.485113
O O10 0.745719 0.543055 0.263982
O O11 0.447651 0.430518 0.301180
O O12 0.955349 0.151353 0.450116
O O13 0.599739 0.262800 0.179722
O O14 0.109616 0.188680 0.906998
#
# Coordination Sequence:
#
# PCOD9245320 Si02
#       7
#     4   4   4   4   4   4   4
#     4  11  20  40  64  92 125 172 215 269 317 402
#     4  10  21  41  66  91 128 173 215 267 323 400
#     4  11  21  41  65  96 125 173 217 273 324 389
#     4  10  21  37  63  92 125 165 217 261 320 390
#     4  10  23  40  67  90 130 170 222 268 322 388
#     4  11  23  39  65  99 124 174 223 264 320 410
#     4  11  23  41  67  96 129 167 226 266 327 390
#
# _framework density 24.295477999999999
#
# number of rings (size 3 to 8) (size 9 to 14) (size 15 to 20)
#    0.000    1.429    4.286    0.857    4.000    2.286 
#    0.000    1.429    3.143    0.000    0.000    0.000 
#    0.000    0.000    0.000    0.000    0.000    0.000 
#
# Total GULP energy -156064.859533 kJ/mol
# GULP energy per Si atom -5573.744983 kJ/mol
# Density = 2.424018 g / cm^3
# Si number density = 24.295478 Si / 1000 Ang^3
#
#
#
# Elastic Constant Matrix: (Units=GPa)
#
#
# Indices 1 2 3 4 5 6 
#
# 1 54.1547 2.6991 3.9678 0.0000 -4.9862 0.0000
# 2 2.6991 61.8671 27.8041 0.0000 3.1984 0.0000
# 3 3.9678 27.8041 112.3891 0.0000 -22.1564 0.0000
# 4 0.0000 0.0000 0.0000 31.5897 0.0000 2.4872
# 5 -4.9862 3.1984 -22.1564 0.0000 39.0818 0.0000
# 6 0.0000 0.0000 0.0000 2.4872 0.0000 35.2575
#
#
#
# Elastic Compliance Matrix: (Units=1/GPa)
#
#
# Indices 1 2 3 4 5 6 
#
# 1 0.018740 -0.000982 0.000077 0.000000 0.002515 0.000000
# 2 -0.000982 0.018984 -0.005621 0.000000 -0.004866 0.000000
# 3 0.000077 -0.005621 0.011684 0.000000 0.007094 0.000000
# 4 0.000000 0.000000 0.000000 0.031833 0.000000 -0.002246
# 5 0.002515 -0.004866 0.007094 0.000000 0.030328 0.000000
# 6 0.000000 0.000000 0.000000 -0.002246 0.000000 0.028521
#
#
# Mechanical properties :
#
#
# Convention : Reuss Voigt Hill
#
# Bulk Modulus (GPa) = 27.50547 33.03922 30.27235
# Shear Modulus (GPa) = 30.25500 34.11514 32.18507
#
# Velocity S-wave (km/s) = 3.53270 3.75130 3.64364
# Velocity P-wave (km/s) = 5.29016 5.69135 5.49442
#
# Compressibility (1/GPa) = 0.03635640
#
# Stress axis : x y z
#
# Youngs Moduli (GPa) = 53.36043 52.67512 85.58697
#
# Poissons Ratio (x) = 0.05175 -0.00661
# Poissons Ratio (y) = 0.05242 0.48109
# Poissons Ratio (z) = -0.00412 0.29609
#
# Static dielectric constant tensor:
#      x y z
#    x 1.979570 0.000000 -0.063580 
#    y 0.000000 1.987160 0.000000 
#    z -0.063580 0.000000 2.007940 
# 
# From -- ./inp_files/55920.got.cif
#   From: 2010.05.17/outbox.cif.g08.bks.cpg/sg14_28_cif.got.tgz:55920.got - 2010.06.03 17:49:19.
