data_PCOD9245608
_publ_section_title
;
Structure prediction by ZEFSAII (Michael W. Deem and Ramdas Pophale) SiO2 
 PCOD9245608
Probable space group: P 21/C
;
_chemical_formula_sum "Si O2"
_cell_formula_units_Z 24
_cell_length_a 8.171626
_cell_length_b 11.919619
_cell_length_c 9.661205
_cell_angle_alpha 90.000000
_cell_angle_beta 96.507669
_cell_angle_gamma 90.000000
_cell_volume 934.963823
_symmetry_space_group_name_H-M "P 21/C"
_symmetry_group_IT_number 14
_symmetry_cell_setting 'monoclinic'
loop_
_space_group_symop_operation_xyz
x,y,z
-x,1/2+y,1/2-z
-x,-y,-z
x,1/2-y,1/2+z
loop_
_atom_site_type_symbol
_atom_site_label
_atom_site_fract_x
_atom_site_fract_y
_atom_site_fract_z
Si Si1 0.506905 0.366367 0.306664
Si Si2 0.212148 0.024831 0.637543
Si Si3 0.338077 0.811719 0.479796
Si Si4 0.754749 0.541481 0.373114
Si Si5 0.919944 0.877923 0.649465
Si Si6 0.973405 0.325707 0.454398
O O1 0.324733 0.398489 0.242871
O O2 0.538551 0.269406 0.422033
O O3 0.580315 0.483489 0.373351
O O4 0.600940 0.332898 0.171236
O O5 0.120110 0.098262 0.513562
O O6 0.312454 0.928459 0.561644
O O7 0.072235 0.957054 0.706375
O O8 0.161844 0.746815 0.472017
O O9 0.761968 0.588940 0.219520
O O10 0.873260 0.434514 0.402171
O O11 0.852196 0.637018 0.464891
O O12 0.980541 0.752625 0.669224
#
# Coordination Sequence:
#
# PCOD9245608 Si02
#       6
#     4   4   4   4   4   4
#     4  11  23  43  67  94 131 175 214 267 329 389
#     4  10  22  40  60  92 124 163 220 261 323 378
#     4  10  22  40  67  92 128 176 207 267 331 379
#     4  10  21  39  65  88 129 171 214 271 319 386
#     4  10  21  38  65  88 123 169 213 270 316 386
#     4   9  22  38  60  96 125 167 220 264 325 384
#
# _framework density 25.669442
#
# number of rings (size 3 to 8) (size 9 to 14) (size 15 to 20)
#    0.000    2.000    1.667    0.500    7.000    1.333 
#    3.000    0.833    0.000    0.000    0.000    0.000 
#    0.000    0.000    0.000    0.000    0.000    0.000 
#
# Total GULP energy -134258.735912 kJ/mol
# GULP energy per Si atom -5594.113996 kJ/mol
# Density = 2.561102 g / cm^3
# Si number density = 25.669442 Si / 1000 Ang^3
#
#
#
# Elastic Constant Matrix: (Units=GPa)
#
#
# Indices 1 2 3 4 5 6 
#
# 1 89.6765 38.3957 58.3535 0.0000 8.1273 0.0000
# 2 38.3957 87.8725 40.7941 0.0000 -1.9521 0.0000
# 3 58.3535 40.7941 100.1065 0.0000 11.9459 0.0000
# 4 0.0000 0.0000 0.0000 29.1339 0.0000 20.4918
# 5 8.1273 -1.9521 11.9459 0.0000 45.2554 0.0000
# 6 0.0000 0.0000 0.0000 20.4918 0.0000 29.2484
#
#
#
# Elastic Compliance Matrix: (Units=1/GPa)
#
#
# Indices 1 2 3 4 5 6 
#
# 1 0.019044 -0.004015 -0.009330 0.000000 -0.001130 0.000000
# 2 -0.004015 0.015094 -0.004104 0.000000 0.002455 0.000000
# 3 -0.009330 -0.004104 0.017472 0.000000 -0.003113 0.000000
# 4 0.000000 0.000000 0.000000 0.067672 0.000000 -0.047412
# 5 -0.001130 0.002455 -0.003113 0.000000 0.023228 0.000000
# 6 0.000000 0.000000 0.000000 -0.047412 0.000000 0.067407
#
#
# Mechanical properties :
#
#
# Convention : Reuss Voigt Hill
#
# Bulk Modulus (GPa) = 59.83473 61.41577 60.62525
# Shear Modulus (GPa) = 19.96938 30.06836 25.01887
#
# Velocity S-wave (km/s) = 2.79219 3.42624 3.12533
# Velocity P-wave (km/s) = 5.80994 6.29521 6.05744
#
# Compressibility (1/GPa) = 0.01671270
#
# Stress axis : x y z
#
# Youngs Moduli (GPa) = 52.51081 66.25139 57.23568
#
# Poissons Ratio (x) = 0.26599 0.53400
# Poissons Ratio (y) = 0.21083 0.23487
# Poissons Ratio (z) = 0.48992 0.27187
#
# Static dielectric constant tensor:
#      x y z
#    x 2.002230 0.000000 -0.014890 
#    y 0.000000 2.019470 0.000000 
#    z -0.014890 0.000000 2.019740 
# 
# From -- ./inp_files/24269.got.cif
#   From: 2010.05.17/outbox.cif.g08.bks.cpg/sg14_13_cif.got.tgz:24269.got - 2010.06.03 17:49:19.
