data_PCOD9245886
_publ_section_title
;
Structure prediction by ZEFSAII (Michael W. Deem and Ramdas Pophale) SiO2 
 PCOD9245886
Probable space group: P 21/C
;
_chemical_formula_sum "Si O2"
_cell_formula_units_Z 28
_cell_length_a 11.340844
_cell_length_b 15.677605
_cell_length_c 9.449272
_cell_angle_alpha 90.000000
_cell_angle_beta 134.483300
_cell_angle_gamma 90.000000
_cell_volume 1198.643008
_symmetry_space_group_name_H-M "P 21/C"
_symmetry_group_IT_number 14
_symmetry_cell_setting 'monoclinic'
loop_
_space_group_symop_operation_xyz
x,y,z
-x,1/2+y,1/2-z
-x,-y,-z
x,1/2-y,1/2+z
loop_
_atom_site_type_symbol
_atom_site_label
_atom_site_fract_x
_atom_site_fract_y
_atom_site_fract_z
Si Si1 0.835661 0.092021 0.262862
Si Si2 0.445069 0.830890 0.791995
Si Si3 0.044990 0.220409 0.573303
Si Si4 0.208959 0.086478 0.885228
Si Si5 0.801862 0.605105 0.305397
Si Si6 0.162956 0.877199 0.041169
Si Si7 0.543548 0.349888 0.036925
O O1 0.715174 0.119504 0.286341
O O2 0.998122 0.150722 0.416849
O O3 0.757765 0.116714 0.045828
O O4 0.851713 0.991081 0.262221
O O5 0.446055 0.830000 0.621868
O O6 0.603079 0.885214 0.978821
O O7 0.461980 0.737342 0.876291
O O8 0.887326 0.279208 0.469834
O O9 0.097614 0.167853 0.754789
O O10 0.181251 0.291601 0.652053
O O11 0.198486 0.063070 0.040969
O O12 0.626671 0.597981 0.082121
O O13 0.977158 0.582973 0.381780
O O14 0.293050 0.899601 0.272038
#
# Coordination Sequence:
#
# PCOD9245886 Si02
#       7
#     4   4   4   4   4   4   4
#     4  12  24  39  64  96 133 168 211 263 335 369
#     4  11  22  39  62  96 123 168 212 267 318 382
#     4  10  21  39  64  93 121 169 220 257 304 386
#     4  11  23  41  62  94 135 165 211 274 321 379
#     4   9  22  40  67  92 124 167 222 261 309 379
#     4  10  23  41  68  96 125 170 217 268 302 391
#     4  11  21  39  70  93 125 163 222 266 314 369
#
# _framework density 23.359749999999998
#
# number of rings (size 3 to 8) (size 9 to 14) (size 15 to 20)
#    0.857    0.571    2.857    2.571    2.000    0.571 
#    2.571    2.857    0.000    0.000    0.000    0.000 
#    0.000    0.000    0.000    0.000    0.000    0.000 
#
# Total GULP energy -156295.665569 kJ/mol
# GULP energy per Si atom -5581.988056 kJ/mol
# Density = 2.330658 g / cm^3
# Si number density = 23.359750 Si / 1000 Ang^3
#
#
#
# Elastic Constant Matrix: (Units=GPa)
#
#
# Indices 1 2 3 4 5 6 
#
# 1 69.4665 5.3922 25.0169 0.0000 5.8398 0.0000
# 2 5.3922 50.0895 5.6771 0.0000 0.6633 0.0000
# 3 25.0169 5.6771 119.1267 0.0000 8.2136 0.0000
# 4 0.0000 0.0000 0.0000 27.6825 0.0000 -7.4804
# 5 5.8398 0.6633 8.2136 0.0000 39.1633 0.0000
# 6 0.0000 0.0000 0.0000 -7.4804 0.0000 25.8732
#
#
#
# Elastic Compliance Matrix: (Units=1/GPa)
#
#
# Indices 1 2 3 4 5 6 
#
# 1 0.015767 -0.001320 -0.003133 0.000000 -0.001672 0.000000
# 2 -0.001320 0.020184 -0.000685 0.000000 -0.000001 0.000000
# 3 -0.003133 -0.000685 0.009185 0.000000 -0.001448 0.000000
# 4 0.000000 0.000000 0.000000 0.039185 0.000000 0.011329
# 5 -0.001672 -0.000001 -0.001448 0.000000 0.026087 0.000000
# 6 0.000000 0.000000 0.000000 0.011329 0.000000 0.041926
#
#
# Mechanical properties :
#
#
# Convention : Reuss Voigt Hill
#
# Bulk Modulus (GPa) = 28.68590 34.53946 31.61268
# Shear Modulus (GPa) = 28.69795 32.05022 30.37408
#
# Velocity S-wave (km/s) = 3.50883 3.70811 3.60984
# Velocity P-wave (km/s) = 5.35934 5.75773 5.56210
#
# Compressibility (1/GPa) = 0.03486033
#
# Stress axis : x y z
#
# Youngs Moduli (GPa) = 63.42499 49.54424 108.87595
#
# Poissons Ratio (x) = 0.06540 0.34109
# Poissons Ratio (y) = 0.08373 0.07453
# Poissons Ratio (z) = 0.19870 0.03392
#
# Static dielectric constant tensor:
#      x y z
#    x 1.846620 0.000000 0.022250 
#    y 0.000000 1.936000 0.000000 
#    z 0.022250 0.000000 1.889050 
# 
# From -- ./inp_files/30330.got.cif
#   From: 2010.05.17/outbox.cif.g08.bks.cpg/sg14_16_cif.got.tgz:30330.got - 2010.06.03 17:49:19.
