data_PCOD9245962
_publ_section_title
;
Structure prediction by ZEFSAII (Michael W. Deem and Ramdas Pophale) SiO2 
 PCOD9245962
Probable space group: P 21/C
;
_chemical_formula_sum "Si O2"
_cell_formula_units_Z 28
_cell_length_a 8.520710
_cell_length_b 15.608900
_cell_length_c 10.834450
_cell_angle_alpha 90.000000
_cell_angle_beta 73.283193
_cell_angle_gamma 90.000000
_cell_volume 1380.071999
_symmetry_space_group_name_H-M "P 21/C"
_symmetry_group_IT_number 14
_symmetry_cell_setting 'monoclinic'
loop_
_space_group_symop_operation_xyz
x,y,z
-x,1/2+y,1/2-z
-x,-y,-z
x,1/2-y,1/2+z
loop_
_atom_site_type_symbol
_atom_site_label
_atom_site_fract_x
_atom_site_fract_y
_atom_site_fract_z
Si Si1 0.392320 0.668584 0.088970
Si Si2 0.657543 0.848630 0.724465
Si Si3 0.297571 0.655452 0.697460
Si Si4 0.908796 0.493810 0.151955
Si Si5 0.618231 0.439964 0.555007
Si Si6 0.227725 0.998640 0.729895
Si Si7 0.415913 0.170048 0.692493
O O1 0.570834 0.664702 0.112694
O O2 0.284087 0.742505 0.179187
O O3 0.309214 0.577690 0.132081
O O4 0.437859 0.687834 0.937950
O O5 0.508229 0.880436 0.843080
O O6 0.697401 0.753445 0.763579
O O7 0.788741 0.924262 0.690815
O O8 0.187457 0.596284 0.810891
O O9 0.280212 0.613207 0.567277
O O10 0.484418 0.647632 0.705225
O O11 0.040355 0.498221 0.232218
O O12 0.000000 0.500000 0.000000
O O13 0.500000 0.500000 0.500000
O O14 0.730639 0.481766 0.635598
O O15 0.314094 0.087741 0.676759
#
# Coordination Sequence:
#
# PCOD9245962 Si02
#       7
#     4   4   4   4   4   4   4
#     4  10  21  39  66  95 117 160 221 265 303 365
#     4  10  22  38  65  92 121 162 213 264 309 360
#     4  11  22  39  68  91 122 164 211 268 313 358
#     4  12  25  43  60  91 139 172 198 253 326 391
#     4  11  19  42  66  92 121 159 221 272 302 358
#     4  11  24  37  62  94 132 171 203 247 327 388
#     4  11  20  38  67  94 116 163 219 265 305 360
#
# _framework density 20.288796000000001
#
# number of rings (size 3 to 8) (size 9 to 14) (size 15 to 20)
#    0.000    1.143    4.286    3.000    0.000    1.714 
#    0.000    0.000    0.000    0.000    0.000    0.000 
#    0.000    0.000    0.000    0.000    0.000    0.000 
#
# Total GULP energy -156188.660630 kJ/mol
# GULP energy per Si atom -5578.166451 kJ/mol
# Density = 2.024262 g / cm^3
# Si number density = 20.288796 Si / 1000 Ang^3
#
#
#
# Elastic Constant Matrix: (Units=GPa)
#
#
# Indices 1 2 3 4 5 6 
#
# 1 87.4771 51.3724 15.7342 0.0000 6.9552 0.0000
# 2 51.3724 164.9422 34.3396 0.0000 -11.5709 0.0000
# 3 15.7342 34.3396 88.5924 0.0000 4.9011 0.0000
# 4 0.0000 0.0000 0.0000 18.9900 0.0000 1.7374
# 5 6.9552 -11.5709 4.9011 0.0000 27.9625 0.0000
# 6 0.0000 0.0000 0.0000 1.7374 0.0000 9.6045
#
#
#
# Elastic Compliance Matrix: (Units=1/GPa)
#
#
# Indices 1 2 3 4 5 6 
#
# 1 0.014857 -0.004939 -0.000411 0.000000 -0.005667 0.000000
# 2 -0.004939 0.008535 -0.002721 0.000000 0.005237 0.000000
# 3 -0.000411 -0.002721 0.012594 0.000000 -0.003231 0.000000
# 4 0.000000 0.000000 0.000000 0.053546 0.000000 -0.009686
# 5 -0.005667 0.005237 -0.003231 0.000000 0.039905 0.000000
# 6 0.000000 0.000000 0.000000 -0.009686 0.000000 0.105871
#
#
# Mechanical properties :
#
#
# Convention : Reuss Voigt Hill
#
# Bulk Modulus (GPa) = 50.39211 60.43379 55.41295
# Shear Modulus (GPa) = 19.37511 27.28242 23.32877
#
# Velocity S-wave (km/s) = 3.09361 3.67100 3.39460
# Velocity P-wave (km/s) = 6.13611 6.91518 6.53726
#
# Compressibility (1/GPa) = 0.01984438
#
# Stress axis : x y z
#
# Youngs Moduli (GPa) = 67.30972 117.16517 79.40338
#
# Poissons Ratio (x) = 0.57872 0.03260
# Poissons Ratio (y) = 0.33246 0.21604
# Poissons Ratio (z) = 0.02763 0.31878
#
# Static dielectric constant tensor:
#      x y z
#    x 1.705410 0.000000 0.048230 
#    y 0.000000 1.769890 0.000000 
#    z 0.048230 0.000000 1.809220 
# 
# From -- ./inp_files/25103.got.cif
#   From: 2010.05.17/outbox.cif.g08.bks.cpg/sg14_13_cif.got.tgz:25103.got - 2010.06.03 17:49:19.
