data_PCOD9245343
_publ_section_title
;
Structure prediction by ZEFSAII (Michael W. Deem and Ramdas Pophale) SiO2 
 PCOD9245343
Probable space group: P 21/C
;
_chemical_formula_sum "Si O2"
_cell_formula_units_Z 28
_cell_length_a 9.441077
_cell_length_b 11.480256
_cell_length_c 14.035416
_cell_angle_alpha 90.000000
_cell_angle_beta 121.433666
_cell_angle_gamma 90.000000
_cell_volume 1297.991672
_symmetry_space_group_name_H-M "P 21/C"
_symmetry_group_IT_number 14
_symmetry_cell_setting 'monoclinic'
loop_
_space_group_symop_operation_xyz
x,y,z
-x,1/2+y,1/2-z
-x,-y,-z
x,1/2-y,1/2+z
loop_
_atom_site_type_symbol
_atom_site_label
_atom_site_fract_x
_atom_site_fract_y
_atom_site_fract_z
Si Si1 0.735016 0.197939 0.273466
Si Si2 0.265004 0.198555 0.373148
Si Si3 0.553085 0.368062 0.540146
Si Si4 0.145373 0.428794 0.648049
Si Si5 0.808435 0.356171 0.468224
Si Si6 0.042766 0.031984 0.408593
Si Si7 0.960417 0.373435 0.256007
O O1 0.578481 0.148994 0.162277
O O2 0.732090 0.252140 0.377663
O O3 0.881319 0.103637 0.318080
O O4 0.798408 0.307304 0.234298
O O5 0.428298 0.269776 0.457213
O O6 0.259225 0.137545 0.265882
O O7 0.204022 0.106041 0.432292
O O8 0.119009 0.293801 0.322622
O O9 0.500000 0.500000 0.500000
O O10 0.723174 0.354309 0.540458
O O11 0.221542 0.520077 0.598439
O O12 0.032270 0.512134 0.675918
O O13 0.009410 0.347935 0.547413
O O14 0.000000 0.000000 0.500000
O O15 0.056206 0.912650 0.356824
#
# Coordination Sequence:
#
# PCOD9245343 Si02
#       7
#     4   4   4   4   4   4   4
#     4  10  23  40  62  91 120 166 204 254 320 367
#     4  10  21  39  63  91 127 168 202 263 321 384
#     4  12  25  43  60  85 134 170 202 257 329 390
#     4   9  19  38  67  94 115 162 218 256 316 377
#     4  10  21  40  65  90 124 162 208 267 312 379
#     4  10  21  37  64  96 118 155 218 266 306 365
#     4   9  18  39  62  88 122 151 210 261 302 364
#
# _framework density 21.571785999999999
#
# number of rings (size 3 to 8) (size 9 to 14) (size 15 to 20)
#    0.000    2.000    0.000    4.286    4.000    2.286 
#    5.143    6.429    0.000    0.000    0.000    0.000 
#    0.000    0.000    0.000    0.000    0.000    0.000 
#
# Total GULP energy -156221.570234 kJ/mol
# GULP energy per Si atom -5579.341794 kJ/mol
# Density = 2.152269 g / cm^3
# Si number density = 21.571786 Si / 1000 Ang^3
#
#
#
# Elastic Constant Matrix: (Units=GPa)
#
#
# Indices 1 2 3 4 5 6 
#
# 1 33.7848 4.0034 10.2599 0.0000 -7.5126 0.0000
# 2 4.0034 60.1080 37.6038 0.0000 7.1556 0.0000
# 3 10.2599 37.6038 104.4345 0.0000 -8.9455 0.0000
# 4 0.0000 0.0000 0.0000 33.8537 0.0000 -1.6419
# 5 -7.5126 7.1556 -8.9455 0.0000 34.8923 0.0000
# 6 0.0000 0.0000 0.0000 -1.6419 0.0000 17.5465
#
#
#
# Elastic Compliance Matrix: (Units=1/GPa)
#
#
# Indices 1 2 3 4 5 6 
#
# 1 0.031885 -0.001709 -0.001942 0.000000 0.006718 0.000000
# 2 -0.001709 0.023126 -0.008790 0.000000 -0.007364 0.000000
# 3 -0.001942 -0.008790 0.013343 0.000000 0.004805 0.000000
# 4 0.000000 0.000000 0.000000 0.029674 0.000000 0.002777
# 5 0.006718 -0.007364 0.004805 0.000000 0.032848 0.000000
# 6 0.000000 0.000000 0.000000 0.002777 0.000000 0.057251
#
#
# Mechanical properties :
#
#
# Convention : Reuss Voigt Hill
#
# Bulk Modulus (GPa) = 23.00263 33.56238 28.28250
# Shear Modulus (GPa) = 21.97814 27.02253 24.50033
#
# Velocity S-wave (km/s) = 3.19539 3.54316 3.37376
# Velocity P-wave (km/s) = 4.92955 5.68603 5.32125
#
# Compressibility (1/GPa) = 0.04347329
#
# Stress axis : x y z
#
# Youngs Moduli (GPa) = 31.36268 43.24094 74.94693
#
# Poissons Ratio (x) = 0.07388 0.14554
# Poissons Ratio (y) = 0.05358 0.65878
# Poissons Ratio (z) = 0.06090 0.38009
#
# Static dielectric constant tensor:
#      x y z
#    x 1.777030 0.000000 -0.017370 
#    y 0.000000 1.800600 0.000000 
#    z -0.017370 0.000000 1.880840 
# 
# From -- ./inp_files/40393.got.cif
#   From: 2010.05.17/outbox.cif.g08.bks.cpg/sg14_21_cif.got.tgz:40393.got - 2010.06.03 17:49:19.
