data_PCOD9245132
_publ_section_title
;
Structure prediction by ZEFSAII (Michael W. Deem and Ramdas Pophale) SiO2 
 PCOD9245132
Probable space group: P 21/C
;
_chemical_formula_sum "Si O2"
_cell_formula_units_Z 32
_cell_length_a 32.973504
_cell_length_b 7.975183
_cell_length_c 19.633047
_cell_angle_alpha 90.000000
_cell_angle_beta 15.326774
_cell_angle_gamma 90.000000
_cell_volume 1364.676324
_symmetry_space_group_name_H-M "P 21/C"
_symmetry_group_IT_number 14
_symmetry_cell_setting 'monoclinic'
loop_
_space_group_symop_operation_xyz
x,y,z
-x,1/2+y,1/2-z
-x,-y,-z
x,1/2-y,1/2+z
loop_
_atom_site_type_symbol
_atom_site_label
_atom_site_fract_x
_atom_site_fract_y
_atom_site_fract_z
Si Si1 0.944489 0.107984 0.469281
Si Si2 0.849226 0.268293 0.754418
Si Si3 0.704998 0.707463 0.563983
Si Si4 0.107641 0.237064 0.006818
Si Si5 0.799187 0.871464 0.281089
Si Si6 0.199651 0.798053 0.430057
Si Si7 0.637677 0.140343 0.218494
Si Si8 0.345520 0.362418 0.721166
O O1 0.858116 0.128474 0.681084
O O2 0.865640 0.226167 0.539821
O O3 0.931710 0.922274 0.459095
O O4 0.118896 0.156386 0.203955
O O5 0.781607 0.437184 0.831727
O O6 0.022844 0.316809 0.494353
O O7 0.753451 0.209055 0.973721
O O8 0.699108 0.760858 0.495104
O O9 0.604088 0.549135 0.750355
O O10 0.665847 0.857325 0.678890
O O11 0.948926 0.148160 0.283854
O O12 0.214575 0.153068 0.776912
O O13 0.201766 0.262788 0.922962
O O14 0.276235 0.647977 0.347900
O O15 0.320477 0.950056 0.235019
O O16 0.493963 0.263420 0.455978
#
# Coordination Sequence:
#
# PCOD9245132 Si02
#       8
#     4   4   4   4   4   4   4   4
#     4  10  21  36  63  96 119 156 217 266 306 365
#     4  10  21  37  62  91 123 160 207 262 318 372
#     4  11  21  38  63  91 126 159 208 261 312 372
#     4  11  21  40  61  94 119 162 211 264 309 367
#     4  10  21  36  63  92 119 159 216 264 307 369
#     4  11  22  39  65  90 124 167 214 261 311 375
#     4  12  23  42  61  90 130 170 198 256 328 389
#     4  11  26  40  60  93 131 160 208 257 322 388
#
# _framework density 23.448785999999998
#
# number of rings (size 3 to 8) (size 9 to 14) (size 15 to 20)
#    0.000    1.250    3.750    2.250    3.500    3.000 
#    0.000    5.000    0.000    0.000    0.000    0.000 
#    0.000    0.000    0.000    0.000    0.000    0.000 
#
# Total GULP energy -179034.749719 kJ/mol
# GULP energy per Si atom -5594.835929 kJ/mol
# Density = 2.339542 g / cm^3
# Si number density = 23.448786 Si / 1000 Ang^3
#
#
#
# Elastic Constant Matrix: (Units=GPa)
#
#
# Indices 1 2 3 4 5 6 
#
# 1 66.9939 14.2138 26.3991 0.0000 22.9817 0.0000
# 2 14.2138 52.5436 15.0436 0.0000 -1.9499 0.0000
# 3 26.3991 15.0436 84.1172 0.0000 8.5028 0.0000
# 4 0.0000 0.0000 0.0000 31.6829 0.0000 9.9850
# 5 22.9817 -1.9499 8.5028 0.0000 25.9717 0.0000
# 6 0.0000 0.0000 0.0000 9.9850 0.0000 26.7828
#
#
#
# Elastic Compliance Matrix: (Units=1/GPa)
#
#
# Indices 1 2 3 4 5 6 
#
# 1 0.025501 -0.006353 -0.004693 0.000000 -0.021506 0.000000
# 2 -0.006353 0.021836 -0.002736 0.000000 0.008157 0.000000
# 3 -0.004693 -0.002736 0.013912 0.000000 -0.000607 0.000000
# 4 0.000000 0.000000 0.000000 0.035765 0.000000 -0.013334
# 5 -0.021506 0.008157 -0.000607 0.000000 0.058345 0.000000
# 6 0.000000 0.000000 0.000000 -0.013334 0.000000 0.042308
#
#
# Mechanical properties :
#
#
# Convention : Reuss Voigt Hill
#
# Bulk Modulus (GPa) = 29.68651 34.99642 32.34147
# Shear Modulus (GPa) = 21.14524 26.75403 23.94964
#
# Velocity S-wave (km/s) = 3.00619 3.38147 3.19934
# Velocity P-wave (km/s) = 4.97365 5.49571 5.24118
#
# Compressibility (1/GPa) = 0.03368534
#
# Stress axis : x y z
#
# Youngs Moduli (GPa) = 39.21353 45.79520 71.88165
#
# Poissons Ratio (x) = 0.29093 0.33736
# Poissons Ratio (y) = 0.24912 0.19667
# Poissons Ratio (z) = 0.18404 0.12529
#
# Static dielectric constant tensor:
#      x y z
#    x 1.894180 0.000000 -0.006770 
#    y 0.000000 1.921160 0.000000 
#    z -0.006770 0.000000 1.870310 
# 
# From -- ./inp_files/62655.got.cif
#   From: 2010.05.17/outbox.cif.g08.bks.cpg/sg14_32_cif.got.tgz:62655.got - 2010.06.03 17:49:19.
