data_PCOD9245475
_publ_section_title
;
Structure prediction by ZEFSAII (Michael W. Deem and Ramdas Pophale) SiO2 
 PCOD9245475
Probable space group: P 21/C
;
_chemical_formula_sum "Si O2"
_cell_formula_units_Z 20
_cell_length_a 7.033251
_cell_length_b 7.485621
_cell_length_c 17.291913
_cell_angle_alpha 90.000000
_cell_angle_beta 126.798431
_cell_angle_gamma 90.000000
_cell_volume 728.991952
_symmetry_space_group_name_H-M "P 21/C"
_symmetry_group_IT_number 14
_symmetry_cell_setting 'monoclinic'
loop_
_space_group_symop_operation_xyz
x,y,z
-x,1/2+y,1/2-z
-x,-y,-z
x,1/2-y,1/2+z
loop_
_atom_site_type_symbol
_atom_site_label
_atom_site_fract_x
_atom_site_fract_y
_atom_site_fract_z
Si Si1 0.267402 0.621007 0.532481
Si Si2 0.384274 0.603380 0.181369
Si Si3 0.168230 0.638507 0.869211
Si Si4 0.392349 0.260828 0.614418
Si Si5 0.230330 0.228379 0.337591
O O1 0.244588 0.739396 0.604775
O O2 0.137592 0.722538 0.431652
O O3 0.226960 0.413908 0.539355
O O4 0.554793 0.642721 0.584693
O O5 0.436576 0.635893 0.282910
O O6 0.290728 0.408798 0.136343
O O7 0.641888 0.621514 0.202180
O O8 0.436707 0.677944 0.907910
O O9 0.155845 0.425010 0.880221
O O10 0.989229 0.674974 0.755137
#
# Coordination Sequence:
#
# PCOD9245475 Si02
#       5
#     4   4   4   4   4
#     4  10  21  38  61  85 117 148 201 230 284 346
#     4   9  20  36  59  82 117 155 189 235 289 337
#     4  11  21  37  62  87 116 153 193 237 285 340
#     4  11  19  35  63  83 113 159 188 234 294 333
#     4   9  21  36  58  84 120 146 188 241 283 335
#
# _framework density 27.435146
#
# number of rings (size 3 to 8) (size 9 to 14) (size 15 to 20)
#    1.200    0.800    2.000    2.400    0.000    0.000 
#    0.000    1.000    4.400    3.600    0.000    0.000 
#    0.000    0.000    0.000    0.000    0.000    0.000 
#
# Total GULP energy -111958.121786 kJ/mol
# GULP energy per Si atom -5597.906089 kJ/mol
# Density = 2.737270 g / cm^3
# Si number density = 27.435146 Si / 1000 Ang^3
#
#
#
# Elastic Constant Matrix: (Units=GPa)
#
#
# Indices 1 2 3 4 5 6 
#
# 1 43.1075 19.8152 20.4321 0.0000 17.5463 0.0000
# 2 19.8152 170.4965 32.2558 0.0000 22.2471 0.0000
# 3 20.4321 32.2558 103.7056 0.0000 24.1853 0.0000
# 4 0.0000 0.0000 0.0000 48.0179 0.0000 10.9801
# 5 17.5463 22.2471 24.1853 0.0000 40.2606 0.0000
# 6 0.0000 0.0000 0.0000 10.9801 0.0000 45.6996
#
#
#
# Elastic Compliance Matrix: (Units=1/GPa)
#
#
# Indices 1 2 3 4 5 6 
#
# 1 0.029459 -0.001533 -0.002943 0.000000 -0.010224 0.000000
# 2 -0.001533 0.006565 -0.001221 0.000000 -0.002226 0.000000
# 3 -0.002943 -0.001221 0.011799 0.000000 -0.005131 0.000000
# 4 0.000000 0.000000 0.000000 0.022036 0.000000 -0.005295
# 5 -0.010224 -0.002226 -0.005131 0.000000 0.033606 0.000000
# 6 0.000000 0.000000 0.000000 -0.005295 0.000000 0.023154
#
#
# Mechanical properties :
#
#
# Convention : Reuss Voigt Hill
#
# Bulk Modulus (GPa) = 27.45041 51.36842 39.40942
# Shear Modulus (GPa) = 33.29895 43.11604 38.20750
#
# Velocity S-wave (km/s) = 3.48765 3.96859 3.73587
# Velocity P-wave (km/s) = 5.12304 6.30586 5.74497
#
# Compressibility (1/GPa) = 0.03642932
#
# Stress axis : x y z
#
# Youngs Moduli (GPa) = 33.94571 152.32751 84.75530
#
# Poissons Ratio (x) = 0.23351 0.24943
# Poissons Ratio (y) = 0.05204 0.10346
# Poissons Ratio (z) = 0.09990 0.18594
#
# Static dielectric constant tensor:
#      x y z
#    x 2.176100 0.000000 -0.025250 
#    y 0.000000 2.103410 0.000000 
#    z -0.025250 0.000000 2.039090 
# 
# From -- ./inp_files/27702.got.cif
#   From: 2010.05.17/outbox.cif.g08.bks.cpg/sg14_14_cif.got.tgz:27702.got - 2010.06.03 17:49:19.
