data_PCOD9245396
_publ_section_title
;
Structure prediction by ZEFSAII (Michael W. Deem and Ramdas Pophale) SiO2 
 PCOD9245396
Probable space group: P 21/C
;
_chemical_formula_sum "Si O2"
_cell_formula_units_Z 32
_cell_length_a 11.951433
_cell_length_b 7.769216
_cell_length_c 29.221475
_cell_angle_alpha 90.000000
_cell_angle_beta 28.079792
_cell_angle_gamma 90.000000
_cell_volume 1277.156688
_symmetry_space_group_name_H-M "P 21/C"
_symmetry_group_IT_number 14
_symmetry_cell_setting 'monoclinic'
loop_
_space_group_symop_operation_xyz
x,y,z
-x,1/2+y,1/2-z
-x,-y,-z
x,1/2-y,1/2+z
loop_
_atom_site_type_symbol
_atom_site_label
_atom_site_fract_x
_atom_site_fract_y
_atom_site_fract_z
Si Si1 0.439656 0.752289 0.362526
Si Si2 0.969912 0.197941 0.425260
Si Si3 0.805660 0.575894 0.790067
Si Si4 0.496093 0.231817 0.830236
Si Si5 0.579485 0.469087 0.211262
Si Si6 0.981416 0.754555 0.820147
Si Si7 0.362194 0.460629 0.003703
Si Si8 0.140768 0.466196 0.496090
O O1 0.209632 0.843382 0.468036
O O2 0.392374 0.566250 0.401465
O O3 0.692118 0.804702 0.291926
O O4 0.393274 0.787473 0.326170
O O5 0.991051 0.407993 0.419601
O O6 0.196820 0.080320 0.352011
O O7 0.819520 0.119278 0.438303
O O8 0.002815 0.455130 0.697140
O O9 0.573359 0.463927 0.890212
O O10 0.902141 0.666525 0.800951
O O11 0.518816 0.414164 0.794904
O O12 0.753281 0.202588 0.759984
O O13 0.461260 0.099712 0.800082
O O14 0.256087 0.222984 0.948548
O O15 0.800219 0.704153 0.926106
O O16 0.500000 0.500000 0.000000
O O17 0.000000 0.500000 0.500000
#
# Coordination Sequence:
#
# PCOD9245396 Si02
#       8
#     4   4   4   4   4   4   4   4
#     4   9  20  37  61  86 122 164 210 254 323 390
#     4   9  19  35  61  86 117 164 210 256 323 390
#     4  10  22  41  66  95 128 171 222 275 328 395
#     4  12  24  37  61  91 128 163 217 269 330 393
#     4  12  21  39  56  89 126 162 213 261 327 393
#     4  11  23  41  67  94 126 170 224 271 330 391
#     4   9  19  40  66  92 124 171 222 266 328 400
#     4  10  21  38  57  89 124 164 207 263 319 392
#
# _framework density 25.055657
#
# number of rings (size 3 to 8) (size 9 to 14) (size 15 to 20)
#    0.750    1.000    3.750    1.125    1.750    0.000 
#    0.000    0.625    0.000    0.000    0.000    0.000 
#    0.000    0.000    0.000    0.000    0.000    0.000 
#
# Total GULP energy -178144.813896 kJ/mol
# GULP energy per Si atom -5567.025434 kJ/mol
# Density = 2.499863 g / cm^3
# Si number density = 25.055657 Si / 1000 Ang^3
#
#
#
# Elastic Constant Matrix: (Units=GPa)
#
#
# Indices 1 2 3 4 5 6 
#
# 1 93.8357 -2.8093 5.3544 0.0000 -24.0984 0.0000
# 2 -2.8093 50.1417 -1.2983 0.0000 -3.7351 0.0000
# 3 5.3544 -1.2983 48.6548 0.0000 -7.0742 0.0000
# 4 0.0000 0.0000 0.0000 41.3542 0.0000 -0.4491
# 5 -24.0984 -3.7351 -7.0742 0.0000 36.7774 0.0000
# 6 0.0000 0.0000 0.0000 -0.4491 0.0000 39.8994
#
#
#
# Elastic Compliance Matrix: (Units=1/GPa)
#
#
# Indices 1 2 3 4 5 6 
#
# 1 0.012906 0.001358 -0.000138 0.000000 0.008568 0.000000
# 2 0.001358 0.020273 0.000844 0.000000 0.003111 0.000000
# 3 -0.000138 0.000844 0.021182 0.000000 0.004070 0.000000
# 4 0.000000 0.000000 0.000000 0.024184 0.000000 0.000272
# 5 0.008568 0.003111 0.004070 0.000000 0.033903 0.000000
# 6 0.000000 0.000000 0.000000 0.000272 0.000000 0.025066
#
#
# Mechanical properties :
#
#
# Convention : Reuss Voigt Hill
#
# Bulk Modulus (GPa) = 17.09760 21.68067 19.38913
# Shear Modulus (GPa) = 32.70442 36.36523 34.53482
#
# Velocity S-wave (km/s) = 3.61677 3.81383 3.71661
# Velocity P-wave (km/s) = 4.92748 5.29769 5.11593
#
# Compressibility (1/GPa) = 0.05848775
#
# Stress axis : x y z
#
# Youngs Moduli (GPa) = 77.48441 49.32639 47.20908
#
# Poissons Ratio (x) = -0.06697 0.00653
# Poissons Ratio (y) = -0.10520 -0.03984
# Poissons Ratio (z) = 0.01072 -0.04162
#
# Static dielectric constant tensor:
#      x y z
#    x 1.959020 0.000000 0.070160 
#    y 0.000000 2.285460 0.000000 
#    z 0.070160 0.000000 2.068370 
# 
# From -- ./inp_files/79932.got.cif
#   From: 2010.05.17/outbox.cif.g08.bks.cpg/sg14_40_cif.got.tgz:79932.got - 2010.06.03 17:49:19.
