data_PCOD9245432
_publ_section_title
;
Structure prediction by ZEFSAII (Michael W. Deem and Ramdas Pophale) SiO2 
 PCOD9245432
Probable space group: P 21/C
;
_chemical_formula_sum "Si O2"
_cell_formula_units_Z 32
_cell_length_a 9.220817
_cell_length_b 9.433652
_cell_length_c 23.690595
_cell_angle_alpha 90.000000
_cell_angle_beta 126.190699
_cell_angle_gamma 90.000000
_cell_volume 1663.140687
_symmetry_space_group_name_H-M "P 21/C"
_symmetry_group_IT_number 14
_symmetry_cell_setting 'monoclinic'
loop_
_space_group_symop_operation_xyz
x,y,z
-x,1/2+y,1/2-z
-x,-y,-z
x,1/2-y,1/2+z
loop_
_atom_site_type_symbol
_atom_site_label
_atom_site_fract_x
_atom_site_fract_y
_atom_site_fract_z
Si Si1 0.895458 0.586101 0.797416
Si Si2 0.615785 0.924736 0.478873
Si Si3 0.522341 0.066287 0.826968
Si Si4 0.985359 0.041137 0.430334
Si Si5 0.391935 0.638676 0.127735
Si Si6 0.302278 0.552016 0.749087
Si Si7 0.411035 0.700082 0.361277
Si Si8 0.023989 0.614251 0.280915
O O1 0.680589 0.574946 0.743824
O O2 0.956632 0.581945 0.876708
O O3 0.978218 0.450225 0.783201
O O4 0.954265 0.727448 0.777688
O O5 0.621304 0.039176 0.429607
O O6 0.500000 0.000000 0.500000
O O7 0.513573 0.788270 0.431914
O O8 0.822649 0.891616 0.541113
O O9 0.656534 0.084045 0.805857
O O10 0.536027 0.915920 0.860404
O O11 0.556800 0.200952 0.874390
O O12 0.800014 0.128669 0.384933
O O13 0.000000 0.000000 0.500000
O O14 0.552992 0.569987 0.200987
O O15 0.342468 0.686559 0.798496
O O16 0.105104 0.490526 0.714430
O O17 0.234873 0.619962 0.343898
#
# Coordination Sequence:
#
# PCOD9245432 Si02
#       8
#     4   4   4   4   4   4   4   4
#     4  11  22  37  61  93 128 155 204 262 321 375
#     4  10  22  41  66  85 118 170 216 248 289 371
#     4  11  22  36  62  92 127 151 190 272 323 362
#     4  10  22  39  61  87 121 171 216 248 287 375
#     4  10  21  38  59  93 119 156 205 248 314 365
#     4  11  20  35  58  89 123 158 192 239 321 390
#     4  10  23  39  55  92 124 155 207 252 313 372
#     4  11  22  35  58  92 128 155 195 259 329 375
#
# _framework density 19.240705999999999
#
# number of rings (size 3 to 8) (size 9 to 14) (size 15 to 20)
#    0.000    1.500    3.750    1.500    3.500    0.000 
#    0.000    2.500    0.000    3.000    0.000    0.000 
#    0.000    0.000    0.000    0.000    0.000    0.000 
#
# Total GULP energy -178433.299701 kJ/mol
# GULP energy per Si atom -5576.040616 kJ/mol
# Density = 1.919691 g / cm^3
# Si number density = 19.240706 Si / 1000 Ang^3
#
#
#
# Elastic Constant Matrix: (Units=GPa)
#
#
# Indices 1 2 3 4 5 6 
#
# 1 105.6487 7.8056 17.2099 0.0000 9.3243 0.0000
# 2 7.8056 86.9394 16.4615 0.0000 -0.1322 0.0000
# 3 17.2099 16.4615 33.6643 0.0000 0.5308 0.0000
# 4 0.0000 0.0000 0.0000 6.5878 0.0000 4.5709
# 5 9.3243 -0.1322 0.5308 0.0000 19.5131 0.0000
# 6 0.0000 0.0000 0.0000 4.5709 0.0000 31.0500
#
#
#
# Elastic Compliance Matrix: (Units=1/GPa)
#
#
# Indices 1 2 3 4 5 6 
#
# 1 0.010794 0.000059 -0.005468 0.000000 -0.005009 0.000000
# 2 0.000059 0.012677 -0.006233 0.000000 0.000227 0.000000
# 3 -0.005468 -0.006233 0.035523 0.000000 0.001604 0.000000
# 4 0.000000 0.000000 0.000000 0.169066 0.000000 -0.024889
# 5 -0.005009 0.000227 0.001604 0.000000 0.053599 0.000000
# 6 0.000000 0.000000 0.000000 -0.024889 0.000000 0.035870
#
#
# Mechanical properties :
#
#
# Convention : Reuss Voigt Hill
#
# Bulk Modulus (GPa) = 28.00309 34.35626 31.17968
# Shear Modulus (GPa) = 14.17574 23.74855 18.96214
#
# Velocity S-wave (km/s) = 2.71727 3.51705 3.14271
# Velocity P-wave (km/s) = 4.94272 5.86410 5.42301
#
# Compressibility (1/GPa) = 0.03571035
#
# Stress axis : x y z
#
# Youngs Moduli (GPa) = 92.64649 78.88007 28.15103
#
# Poissons Ratio (x) = -0.00462 0.15392
# Poissons Ratio (y) = -0.00543 0.17546
# Poissons Ratio (z) = 0.50656 0.49163
#
# Static dielectric constant tensor:
#      x y z
#    x 1.698620 0.000000 0.023800 
#    y 0.000000 1.683600 0.000000 
#    z 0.023800 0.000000 1.620130 
# 
# From -- ./inp_files/72082.got.cif
#   From: 2010.05.17/outbox.cif.g08.bks.cpg/sg14_37_cif.got.tgz:72082.got - 2010.06.03 17:49:19.
