data_PCOD9245349
_publ_section_title
;
Structure prediction by ZEFSAII (Michael W. Deem and Ramdas Pophale) SiO2 
 PCOD9245349
Probable space group: P 21/C
;
_chemical_formula_sum "Si O2"
_cell_formula_units_Z 32
_cell_length_a 6.105515
_cell_length_b 16.495879
_cell_length_c 14.364971
_cell_angle_alpha 90.000000
_cell_angle_beta 64.727959
_cell_angle_gamma 90.000000
_cell_volume 1308.310174
_symmetry_space_group_name_H-M "P 21/C"
_symmetry_group_IT_number 14
_symmetry_cell_setting 'monoclinic'
loop_
_space_group_symop_operation_xyz
x,y,z
-x,1/2+y,1/2-z
-x,-y,-z
x,1/2-y,1/2+z
loop_
_atom_site_type_symbol
_atom_site_label
_atom_site_fract_x
_atom_site_fract_y
_atom_site_fract_z
Si Si1 0.705711 0.669127 0.281328
Si Si2 0.601864 0.934281 0.618207
Si Si3 0.452577 0.167759 0.001600
Si Si4 0.039446 0.718137 0.620203
Si Si5 0.256121 0.067703 0.891121
Si Si6 0.917945 0.688778 0.965834
Si Si7 0.235944 0.919194 0.297851
Si Si8 0.079257 0.532978 0.268790
O O1 0.611912 0.627292 0.204630
O O2 0.499369 0.668001 0.397140
O O3 0.842307 0.752038 0.230849
O O4 0.913220 0.610870 0.285894
O O5 0.732400 0.886383 0.512396
O O6 0.320501 0.956602 0.662669
O O7 0.749604 0.013787 0.622352
O O8 0.684920 0.200133 0.903136
O O9 0.360146 0.082848 0.975396
O O10 0.241277 0.233906 0.030817
O O11 0.940820 0.636710 0.591113
O O12 0.037974 0.789584 0.543334
O O13 0.490325 0.087696 0.785773
O O14 0.153535 0.986730 0.862153
O O15 0.119707 0.662212 0.856816
O O16 0.073973 0.958377 0.245706
#
# Coordination Sequence:
#
# PCOD9245349 Si02
#       8
#     4   4   4   4   4   4   4   4
#     4  10  23  40  63  89 121 165 207 253 314 368
#     4   9  20  40  59  91 125 159 200 257 309 370
#     4  11  24  38  61  92 119 168 211 252 314 364
#     4  10  23  42  61  91 131 157 205 265 302 373
#     4  10  23  40  59  90 125 162 208 259 306 362
#     4  10  22  37  60  96 124 158 205 254 315 370
#     4  10  21  37  65  90 122 163 204 248 316 372
#     4  10  21  40  63  87 125 167 202 258 304 360
#
# _framework density 24.459032000000001
#
# number of rings (size 3 to 8) (size 9 to 14) (size 15 to 20)
#    0.000    2.000    0.000    1.875    5.250    4.000 
#    0.000    8.750    0.000    0.000    0.000    0.000 
#    0.000    0.000    0.000    0.000    0.000    0.000 
#
# Total GULP energy -178933.155848 kJ/mol
# GULP energy per Si atom -5591.661120 kJ/mol
# Density = 2.440336 g / cm^3
# Si number density = 24.459032 Si / 1000 Ang^3
#
#
#
# Elastic Constant Matrix: (Units=GPa)
#
#
# Indices 1 2 3 4 5 6 
#
# 1 56.0744 18.3276 9.8153 0.0000 -15.3360 0.0000
# 2 18.3276 35.4791 -1.6118 0.0000 -1.0665 0.0000
# 3 9.8153 -1.6118 50.6499 0.0000 -11.0901 0.0000
# 4 0.0000 0.0000 0.0000 32.3564 0.0000 -5.3114
# 5 -15.3360 -1.0665 -11.0901 0.0000 27.9353 0.0000
# 6 0.0000 0.0000 0.0000 -5.3114 0.0000 30.2810
#
#
#
# Elastic Compliance Matrix: (Units=1/GPa)
#
#
# Indices 1 2 3 4 5 6 
#
# 1 0.026120 -0.013231 -0.002687 0.000000 0.012768 0.000000
# 2 -0.013231 0.034992 0.002606 0.000000 -0.004893 0.000000
# 3 -0.002687 0.002606 0.021954 0.000000 0.007340 0.000000
# 4 0.000000 0.000000 0.000000 0.031822 0.000000 0.005582
# 5 0.012768 -0.004893 0.007340 0.000000 0.045533 0.000000
# 6 0.000000 0.000000 0.000000 0.005582 0.000000 0.034003
#
#
# Mechanical properties :
#
#
# Convention : Reuss Voigt Hill
#
# Bulk Modulus (GPa) = 17.71748 21.69617 19.70683
# Shear Modulus (GPa) = 20.84517 25.82601 23.33559
#
# Velocity S-wave (km/s) = 2.92250 3.25297 3.09215
# Velocity P-wave (km/s) = 4.31827 4.79570 4.56323
#
# Compressibility (1/GPa) = 0.05644144
#
# Stress axis : x y z
#
# Youngs Moduli (GPa) = 38.28434 28.57799 45.54946
#
# Poissons Ratio (x) = 0.37813 0.12240
# Poissons Ratio (y) = 0.50656 -0.11871
# Poissons Ratio (z) = 0.10288 -0.07448
#
# Static dielectric constant tensor:
#      x y z
#    x 1.920450 0.000000 0.040470 
#    y 0.000000 1.939320 0.000000 
#    z 0.040470 0.000000 2.007830 
# 
# From -- ./inp_files/37851.got.cif
#   From: 2010.05.17/outbox.cif.g08.bks.cpg/sg14_19_cif.got.tgz:37851.got - 2010.06.03 17:49:19.
