data_PCOD9245968
_publ_section_title
;
Structure prediction by ZEFSAII (Michael W. Deem and Ramdas Pophale) SiO2 
 PCOD9245968
Probable space group: P 21/C
;
_chemical_formula_sum "Si O2"
_cell_formula_units_Z 28
_cell_length_a 7.434610
_cell_length_b 10.674427
_cell_length_c 14.863551
_cell_angle_alpha 90.000000
_cell_angle_beta 81.814759
_cell_angle_gamma 90.000000
_cell_volume 1167.558008
_symmetry_space_group_name_H-M "P 21/C"
_symmetry_group_IT_number 14
_symmetry_cell_setting 'monoclinic'
loop_
_space_group_symop_operation_xyz
x,y,z
-x,1/2+y,1/2-z
-x,-y,-z
x,1/2-y,1/2+z
loop_
_atom_site_type_symbol
_atom_site_label
_atom_site_fract_x
_atom_site_fract_y
_atom_site_fract_z
Si Si1 0.884797 0.166978 0.512463
Si Si2 0.135379 0.509886 0.263257
Si Si3 0.501595 0.916178 0.809176
Si Si4 0.014336 0.763483 0.690088
Si Si5 0.778096 0.921367 0.432758
Si Si6 0.570824 0.313160 0.304581
Si Si7 0.494453 0.708767 0.485352
O O1 0.996374 0.197476 0.413408
O O2 0.714298 0.259063 0.525442
O O3 0.033849 0.158855 0.579936
O O4 0.802236 0.028165 0.505902
O O5 0.284064 0.559413 0.321821
O O6 0.978822 0.613218 0.254246
O O7 0.235347 0.494059 0.159791
O O8 0.080643 0.369239 0.291051
O O9 0.531819 0.790188 0.748533
O O10 0.562058 0.890529 0.906965
O O11 0.577453 0.046552 0.765470
O O12 0.225197 0.734878 0.697177
O O13 0.610809 0.833248 0.462055
O O14 0.490663 0.323626 0.410905
#
# Coordination Sequence:
#
# PCOD9245968 Si02
#       7
#     4   4   4   4   4   4   4
#     4   9  21  40  62  97 131 167 220 271 320 399
#     4  10  22  39  63  93 130 165 223 268 325 399
#     4  11  24  43  66  97 131 172 224 269 335 397
#     4   9  21  41  60  92 131 166 212 274 325 391
#     4  10  21  39  66  96 127 176 221 263 334 391
#     4  10  24  44  64  99 130 172 221 270 331 399
#     4  11  23  42  67  95 136 170 220 275 332 386
#
# _framework density 23.981680000000001
#
# number of rings (size 3 to 8) (size 9 to 14) (size 15 to 20)
#    0.000    2.000    0.000    2.571    6.000    3.429 
#    2.571    1.429    0.000    0.000    0.000    0.000 
#    0.000    0.000    0.000    0.000    0.000    0.000 
#
# Total GULP energy -156499.026807 kJ/mol
# GULP energy per Si atom -5589.250957 kJ/mol
# Density = 2.392710 g / cm^3
# Si number density = 23.981680 Si / 1000 Ang^3
#
#
#
# Elastic Constant Matrix: (Units=GPa)
#
#
# Indices 1 2 3 4 5 6 
#
# 1 30.5053 11.6699 23.7197 0.0000 10.1912 0.0000
# 2 11.6699 163.9767 43.7066 0.0000 0.7673 0.0000
# 3 23.7197 43.7066 62.4522 0.0000 10.1693 0.0000
# 4 0.0000 0.0000 0.0000 35.3423 0.0000 -1.2788
# 5 10.1912 0.7673 10.1693 0.0000 15.1694 0.0000
# 6 0.0000 0.0000 0.0000 -1.2788 0.0000 37.6034
#
#
#
# Elastic Compliance Matrix: (Units=1/GPa)
#
#
# Indices 1 2 3 4 5 6 
#
# 1 0.054045 0.000811 -0.017035 0.000000 -0.024931 0.000000
# 2 0.000811 0.007681 -0.006209 0.000000 0.003229 0.000000
# 3 -0.017035 -0.006209 0.027965 0.000000 -0.006989 0.000000
# 4 0.000000 0.000000 0.000000 0.028330 0.000000 0.000963
# 5 -0.024931 0.003229 -0.006989 0.000000 0.087193 0.000000
# 6 0.000000 0.000000 0.000000 0.000963 0.000000 0.026626
#
#
# Mechanical properties :
#
#
# Convention : Reuss Voigt Hill
#
# Bulk Modulus (GPa) = 22.30861 46.12518 34.21690
# Shear Modulus (GPa) = 17.14399 29.47890 23.31144
#
# Velocity S-wave (km/s) = 2.67662 3.50984 3.12116
# Velocity P-wave (km/s) = 4.34453 5.97499 5.22377
#
# Compressibility (1/GPa) = 0.04482573
#
# Stress axis : x y z
#
# Youngs Moduli (GPa) = 18.50302 130.19907 35.75852
#
# Poissons Ratio (x) = -0.10556 0.60913
# Poissons Ratio (y) = -0.01500 0.22202
# Poissons Ratio (z) = 0.31519 0.80839
#
# Static dielectric constant tensor:
#      x y z
#    x 1.949160 0.000000 -0.006370 
#    y 0.000000 1.989490 0.000000 
#    z -0.006370 0.000000 1.937150 
# 
# From -- ./inp_files/39649.got.cif
#   From: 2010.05.17/outbox.cif.g08.bks.cpg/sg14_20_cif.got.tgz:39649.got - 2010.06.03 17:49:19.
