data_PCOD9245029
_publ_section_title
;
Structure prediction by ZEFSAII (Michael W. Deem and Ramdas Pophale) SiO2 
 PCOD9245029
Probable space group: P 21/C
;
_chemical_formula_sum "Si O2"
_cell_formula_units_Z 28
_cell_length_a 12.505852
_cell_length_b 13.257157
_cell_length_c 6.894996
_cell_angle_alpha 90.000000
_cell_angle_beta 68.974206
_cell_angle_gamma 90.000000
_cell_volume 1067.024371
_symmetry_space_group_name_H-M "P 21/C"
_symmetry_group_IT_number 14
_symmetry_cell_setting 'monoclinic'
loop_
_space_group_symop_operation_xyz
x,y,z
-x,1/2+y,1/2-z
-x,-y,-z
x,1/2-y,1/2+z
loop_
_atom_site_type_symbol
_atom_site_label
_atom_site_fract_x
_atom_site_fract_y
_atom_site_fract_z
Si Si1 0.375312 0.509130 0.803654
Si Si2 0.225619 0.886222 0.874637
Si Si3 0.850108 0.848111 0.897218
Si Si4 0.384885 0.446580 0.378585
Si Si5 0.000000 0.000000 0.500000
Si Si6 0.807214 0.343953 0.048186
Si Si7 0.000000 0.000000 0.000000
Si Si8 0.832678 0.612945 0.952555
O O1 0.405515 0.440784 0.597155
O O2 0.491275 0.561556 0.801605
O O3 0.293228 0.434859 0.983685
O O4 0.294421 0.598506 0.774660
O O5 0.342449 0.941884 0.851684
O O6 0.223951 0.876848 0.646482
O O7 0.126608 0.962339 0.997139
O O8 0.199288 0.774543 0.958756
O O9 0.960270 0.881403 0.945080
O O10 0.860671 0.898904 0.671083
O O11 0.846332 0.726483 0.878655
O O12 0.726149 0.874449 0.073583
O O13 0.921442 0.102777 0.548646
O O14 0.065853 0.036806 0.678303
#
# Coordination Sequence:
#
# PCOD9245029 Si02
#       8
#     4   4   4   4   2   4   2   4
#     4   9  20  40  61  83 116 155 195 241 289 338
#     4  11  23  38  60  88 118 154 194 239 290 346
#     4  10  21  36  57  83 111 146 186 231 282 335
#     4   9  20  40  61  83 116 155 195 241 289 338
#     4  10  22  38  56  80 112 150 190 230 282 340
#     4  11  23  38  60  88 118 154 194 239 290 346
#     4  10  22  38  56  80 112 150 190 230 282 340
#     4  10  21  36  57  83 111 146 186 231 282 335
#
# _framework density 26.241199999999999
#
# number of rings (size 3 to 8) (size 9 to 14) (size 15 to 20)
#    0.000    2.000    0.000    2.571    0.000   10.857 
#    0.000    2.857    0.000    0.000    0.000    0.000 
#    0.000    0.000    0.000    0.000    0.000    0.000 
#
# Total GULP energy -155916.018715 kJ/mol
# GULP energy per Si atom -5568.429240 kJ/mol
# Density = 2.618147 g / cm^3
# Si number density = 26.241200 Si / 1000 Ang^3
#
#
#
# Elastic Constant Matrix: (Units=GPa)
#
#
# Indices 1 2 3 4 5 6 
#
# 1 155.2499 34.6277 12.1603 0.0000 -48.2214 0.0000
# 2 34.6277 145.7146 -12.0300 0.0000 -17.9949 0.0000
# 3 12.1603 -12.0300 78.0428 0.0000 5.2450 0.0000
# 4 0.0000 0.0000 0.0000 33.0718 0.0000 3.5225
# 5 -48.2214 -17.9949 5.2450 0.0000 56.6866 0.0000
# 6 0.0000 0.0000 0.0000 3.5225 0.0000 30.9399
#
#
#
# Elastic Compliance Matrix: (Units=1/GPa)
#
#
# Indices 1 2 3 4 5 6 
#
# 1 0.009318 -0.001448 -0.002191 0.000000 0.007669 0.000000
# 2 -0.001448 0.007439 0.001305 0.000000 0.001009 0.000000
# 3 -0.002191 0.001305 0.013537 0.000000 -0.002702 0.000000
# 4 0.000000 0.000000 0.000000 0.030608 0.000000 -0.003485
# 5 0.007669 0.001009 -0.002702 0.000000 0.024735 0.000000
# 6 0.000000 0.000000 0.000000 -0.003485 0.000000 0.032717
#
#
# Mechanical properties :
#
#
# Convention : Reuss Voigt Hill
#
# Bulk Modulus (GPa) = 39.02209 49.83593 44.42901
# Shear Modulus (GPa) = 38.00372 47.08960 42.54666
#
# Velocity S-wave (km/s) = 3.80971 4.24074 4.03099
# Velocity P-wave (km/s) = 5.85275 6.55829 6.21554
#
# Compressibility (1/GPa) = 0.02562651
#
# Stress axis : x y z
#
# Youngs Moduli (GPa) = 107.31957 134.42396 73.86900
#
# Poissons Ratio (x) = 0.19465 0.16181
# Poissons Ratio (y) = 0.15540 -0.09636
# Poissons Ratio (z) = 0.23509 -0.17536
#
# Static dielectric constant tensor:
#      x y z
#    x 1.765750 0.000000 0.113650 
#    y 0.000000 1.942410 0.000000 
#    z 0.113650 0.000000 1.923980 
# 
# From -- ./inp_files/13068.got.cif
#   From: 2010.05.17/outbox.cif.g08.bks.cpg/sg14_7_cif.got.tgz:13068.got - 2010.06.03 17:49:19.
