data_PCOD9245612
_publ_section_title
;
Structure prediction by ZEFSAII (Michael W. Deem and Ramdas Pophale) SiO2 
 PCOD9245612
Probable space group: P 21/C
;
_chemical_formula_sum "Si O2"
_cell_formula_units_Z 12
_cell_length_a 15.728238
_cell_length_b 5.296373
_cell_length_c 9.246111
_cell_angle_alpha 90.000000
_cell_angle_beta 35.246192
_cell_angle_gamma 90.000000
_cell_volume 444.489979
_symmetry_space_group_name_H-M "P 21/C"
_symmetry_group_IT_number 14
_symmetry_cell_setting 'monoclinic'
loop_
_space_group_symop_operation_xyz
x,y,z
-x,1/2+y,1/2-z
-x,-y,-z
x,1/2-y,1/2+z
loop_
_atom_site_type_symbol
_atom_site_label
_atom_site_fract_x
_atom_site_fract_y
_atom_site_fract_z
Si Si1 0.328937 0.376869 0.531595
Si Si2 0.052549 0.486601 0.759561
Si Si3 0.610191 0.120149 0.461304
O O1 0.228775 0.468277 0.538538
O O2 0.325705 0.601159 0.653924
O O3 0.498349 0.331030 0.251468
O O4 0.276391 0.099550 0.653268
O O5 0.004980 0.735650 0.739591
O O6 0.000000 0.500000 0.000000
O O7 0.500000 0.000000 0.500000
#
# Coordination Sequence:
#
# PCOD9245612 Si02
#       3
#     4   4   4
#     4  10  23  39  61  96 124 171 223 273 339 399
#     4  12  28  47  73 102 141 188 232 285 342 414
#     4  10  21  38  65  90 127 165 217 282 335 396
#
# _framework density 26.997235
#
# number of rings (size 3 to 8) (size 9 to 14) (size 15 to 20)
#    0.000    1.333    0.000    4.000    9.333    0.000 
#    0.000    0.000    0.000    0.000    0.000    0.000 
#    0.000    0.000    0.000    0.000    0.000    0.000 
#
# Total GULP energy -67158.364474 kJ/mol
# GULP energy per Si atom -5596.530373 kJ/mol
# Density = 2.693579 g / cm^3
# Si number density = 26.997235 Si / 1000 Ang^3
#
#
#
# Elastic Constant Matrix: (Units=GPa)
#
#
# Indices 1 2 3 4 5 6 
#
# 1 139.8462 36.2769 35.5067 0.0000 4.4060 0.0000
# 2 36.2769 178.1339 42.6857 0.0000 14.0852 0.0000
# 3 35.5067 42.6857 83.8661 0.0000 1.0548 0.0000
# 4 0.0000 0.0000 0.0000 21.2624 0.0000 5.2036
# 5 4.4060 14.0852 1.0548 0.0000 51.4943 0.0000
# 6 0.0000 0.0000 0.0000 5.2036 0.0000 74.3458
#
#
#
# Elastic Compliance Matrix: (Units=1/GPa)
#
#
# Indices 1 2 3 4 5 6 
#
# 1 0.008158 -0.000916 -0.002983 0.000000 -0.000386 0.000000
# 2 -0.000916 0.006646 -0.002973 0.000000 -0.001678 0.000000
# 3 -0.002983 -0.002973 0.014690 0.000000 0.000768 0.000000
# 4 0.000000 0.000000 0.000000 0.047851 0.000000 -0.003349
# 5 -0.000386 -0.001678 0.000768 0.000000 0.019896 0.000000
# 6 0.000000 0.000000 0.000000 -0.003349 0.000000 0.013685
#
#
# Mechanical properties :
#
#
# Convention : Reuss Voigt Hill
#
# Bulk Modulus (GPa) = 63.49507 70.08719 66.79113
# Shear Modulus (GPa) = 38.48517 48.57895 43.53206
#
# Velocity S-wave (km/s) = 3.77971 4.24654 4.01991
# Velocity P-wave (km/s) = 6.52828 7.07541 6.80734
#
# Compressibility (1/GPa) = 0.01574925
#
# Stress axis : x y z
#
# Youngs Moduli (GPa) = 122.58185 150.47668 68.07199
#
# Poissons Ratio (x) = 0.13784 0.20304
# Poissons Ratio (y) = 0.11229 0.20241
# Poissons Ratio (z) = 0.36562 0.44744
#
# Static dielectric constant tensor:
#      x y z
#    x 2.019350 0.000000 0.006660 
#    y 0.000000 2.170130 0.000000 
#    z 0.006660 0.000000 2.369600 
# 
# From -- ./inp_files/7064.got.cif
#   From: 2010.05.17/outbox.cif.g08.bks.cpg/sg14_4_cif.got.tgz:7064.got - 2010.06.03 17:49:19.
