data_PCOD9245381
_publ_section_title
;
Structure prediction by ZEFSAII (Michael W. Deem and Ramdas Pophale) SiO2 
 PCOD9245381
Probable space group: P 21/C
;
_chemical_formula_sum "Si O2"
_cell_formula_units_Z 32
_cell_length_a 14.578768
_cell_length_b 10.715549
_cell_length_c 24.062912
_cell_angle_alpha 90.000000
_cell_angle_beta 155.667356
_cell_angle_gamma 90.000000
_cell_volume 1548.873767
_symmetry_space_group_name_H-M "P 21/C"
_symmetry_group_IT_number 14
_symmetry_cell_setting 'monoclinic'
loop_
_space_group_symop_operation_xyz
x,y,z
-x,1/2+y,1/2-z
-x,-y,-z
x,1/2-y,1/2+z
loop_
_atom_site_type_symbol
_atom_site_label
_atom_site_fract_x
_atom_site_fract_y
_atom_site_fract_z
Si Si1 0.830661 0.551744 0.643935
Si Si2 0.379813 0.811523 0.929249
Si Si3 0.223396 0.030728 0.412591
Si Si4 0.637939 0.034593 0.818107
Si Si5 0.982778 0.766484 0.139306
Si Si6 0.711300 0.758902 0.878589
Si Si7 0.636990 0.895601 0.633442
Si Si8 0.083199 0.378603 0.608921
O O1 0.769594 0.407615 0.618280
O O2 0.601866 0.622193 0.530294
O O3 0.913703 0.605621 0.631560
O O4 0.020973 0.568957 0.796651
O O5 0.236874 0.758617 0.798644
O O6 0.467479 0.709260 0.019532
O O7 0.147123 0.153290 0.402199
O O8 0.262043 0.056294 0.368407
O O9 0.464115 0.990318 0.566747
O O10 0.444038 0.136350 0.702830
O O11 0.578844 0.893497 0.806979
O O12 0.785649 0.999148 0.844940
O O13 0.822568 0.094623 0.960835
O O14 0.897725 0.763916 0.029676
O O15 0.838602 0.769236 0.889819
O O16 0.823530 0.855311 0.778925
#
# Coordination Sequence:
#
# PCOD9245381 Si02
#       8
#     4   4   4   4   4   4   4   4
#     4  10  21  38  53  88 127 156 192 253 302 357
#     4  10  22  38  56  90 126 156 198 248 316 360
#     4  10  22  34  60  90 122 158 206 242 304 368
#     4   9  21  44  60  93 117 164 211 257 310 362
#     4  11  21  38  62  89 121 163 203 250 300 379
#     4  10  22  40  67  89 122 165 212 253 314 361
#     4  11  20  38  61  90 118 159 202 245 307 375
#     4   9  22  40  63  85 128 159 201 264 309 356
#
# _framework density 20.660173
#
# number of rings (size 3 to 8) (size 9 to 14) (size 15 to 20)
#    0.750    1.250    2.500    0.750    1.750    2.000 
#    4.500    1.875    0.000    0.000    0.000    0.000 
#    0.000    0.000    0.000    0.000    0.000    0.000 
#
# Total GULP energy -178234.270919 kJ/mol
# GULP energy per Si atom -5569.820966 kJ/mol
# Density = 2.061315 g / cm^3
# Si number density = 20.660173 Si / 1000 Ang^3
#
#
#
# Elastic Constant Matrix: (Units=GPa)
#
#
# Indices 1 2 3 4 5 6 
#
# 1 22.6795 10.9814 31.2702 0.0000 -4.8110 0.0000
# 2 10.9814 70.3727 33.8400 0.0000 -0.0660 0.0000
# 3 31.2702 33.8400 115.2584 0.0000 -21.6678 0.0000
# 4 0.0000 0.0000 0.0000 29.0625 0.0000 6.9788
# 5 -4.8110 -0.0660 -21.6678 0.0000 31.3194 0.0000
# 6 0.0000 0.0000 0.0000 6.9788 0.0000 15.6629
#
#
#
# Elastic Compliance Matrix: (Units=1/GPa)
#
#
# Indices 1 2 3 4 5 6 
#
# 1 0.070857 -0.001867 -0.019117 0.000000 -0.002345 0.000000
# 2 -0.001867 0.017003 -0.005211 0.000000 -0.003856 0.000000
# 3 -0.019117 -0.005211 0.017057 0.000000 0.008853 0.000000
# 4 0.000000 0.000000 0.000000 0.038531 0.000000 -0.017168
# 5 -0.002345 -0.003856 0.008853 0.000000 0.037686 0.000000
# 6 0.000000 0.000000 0.000000 -0.017168 0.000000 0.071495
#
#
# Mechanical properties :
#
#
# Convention : Reuss Voigt Hill
#
# Bulk Modulus (GPa) = 19.03705 40.05486 29.54596
# Shear Modulus (GPa) = 15.50265 24.02355 19.76310
#
# Velocity S-wave (km/s) = 2.74225 3.41368 3.09622
# Velocity P-wave (km/s) = 4.38873 5.91330 5.20712
#
# Compressibility (1/GPa) = 0.05252914
#
# Stress axis : x y z
#
# Youngs Moduli (GPa) = 14.11300 58.81194 58.62783
#
# Poissons Ratio (x) = 0.10977 1.12077
# Poissons Ratio (y) = 0.02634 0.30549
# Poissons Ratio (z) = 0.26979 0.30645
#
# Static dielectric constant tensor:
#      x y z
#    x 1.774400 0.000000 0.078680 
#    y 0.000000 1.833670 0.000000 
#    z 0.078680 0.000000 1.897660 
# 
# From -- ./inp_files/77833.got.cif
#   From: 2010.05.17/outbox.cif.g08.bks.cpg/sg14_39_cif.got.tgz:77833.got - 2010.06.03 17:49:19.
