data_PCOD9245133
_publ_section_title
;
Structure prediction by ZEFSAII (Michael W. Deem and Ramdas Pophale) SiO2 
 PCOD9245133
Probable space group: P 21/C
;
_chemical_formula_sum "Si O2"
_cell_formula_units_Z 24
_cell_length_a 10.193667
_cell_length_b 8.384209
_cell_length_c 31.689562
_cell_angle_alpha 90.000000
_cell_angle_beta 150.727504
_cell_angle_gamma 90.000000
_cell_volume 1324.297188
_symmetry_space_group_name_H-M "P 21/C"
_symmetry_group_IT_number 14
_symmetry_cell_setting 'monoclinic'
loop_
_space_group_symop_operation_xyz
x,y,z
-x,1/2+y,1/2-z
-x,-y,-z
x,1/2-y,1/2+z
loop_
_atom_site_type_symbol
_atom_site_label
_atom_site_fract_x
_atom_site_fract_y
_atom_site_fract_z
Si Si1 0.555218 0.887777 0.975062
Si Si2 0.816182 0.457198 0.749154
Si Si3 0.790755 0.941480 0.563849
Si Si4 0.281046 0.929216 0.063451
Si Si5 0.235534 0.943681 0.535316
Si Si6 0.243898 0.668348 0.825191
O O1 0.316372 0.784735 0.885349
O O2 0.658745 0.993851 0.965323
O O3 0.757934 0.746709 0.045237
O O4 0.500000 0.000000 0.000000
O O5 0.513055 0.517320 0.660948
O O6 0.815072 0.278276 0.731200
O O7 0.974733 0.468627 0.837071
O O8 0.990928 0.562476 0.765891
O O9 0.500000 0.000000 0.500000
O O10 0.847763 0.034561 0.536759
O O11 0.289575 0.739595 0.061017
O O12 0.000000 0.000000 0.000000
O O13 0.499828 0.055695 0.611991
O O14 0.000000 0.000000 0.500000
#
# Coordination Sequence:
#
# PCOD9245133 Si02
#       6
#     4   4   4   4   4   4
#     4  10  21  36  63  92 122 161 205 254 310 363
#     4  11  22  38  64  92 128 159 214 252 312 364
#     4  11  21  39  63  94 126 161 211 257 306 368
#     4  11  24  43  64  87 125 166 208 258 315 374
#     4  11  22  43  66  88 128 168 205 257 319 369
#     4  10  22  36  61  95 123 165 205 257 306 367
#
# _framework density 18.122820000000001
#
# number of rings (size 3 to 8) (size 9 to 14) (size 15 to 20)
#    0.000    1.333    3.333    5.000    4.667    0.000 
#    0.000    6.667    0.000    0.000    0.000    0.000 
#    0.000    0.000    0.000    0.000    0.000    0.000 
#
# Total GULP energy -133958.787893 kJ/mol
# GULP energy per Si atom -5581.616162 kJ/mol
# Density = 1.808157 g / cm^3
# Si number density = 18.122820 Si / 1000 Ang^3
#
#
#
# Elastic Constant Matrix: (Units=GPa)
#
#
# Indices 1 2 3 4 5 6 
#
# 1 82.8495 24.9189 61.1840 0.0000 -8.1662 0.0000
# 2 24.9189 96.3395 33.0647 0.0000 2.7064 0.0000
# 3 61.1840 33.0647 141.2112 0.0000 0.8937 0.0000
# 4 0.0000 0.0000 0.0000 24.5833 0.0000 1.6047
# 5 -8.1662 2.7064 0.8937 0.0000 30.2110 0.0000
# 6 0.0000 0.0000 0.0000 1.6047 0.0000 33.5315
#
#
#
# Elastic Compliance Matrix: (Units=1/GPa)
#
#
# Indices 1 2 3 4 5 6 
#
# 1 0.019057 -0.002436 -0.007722 0.000000 0.005598 0.000000
# 2 -0.002436 0.011625 -0.001656 0.000000 -0.001651 0.000000
# 3 -0.007722 -0.001656 0.010829 0.000000 -0.002259 0.000000
# 4 0.000000 0.000000 0.000000 0.040805 0.000000 -0.001953
# 5 0.005598 -0.001651 -0.002259 0.000000 0.034828 0.000000
# 6 0.000000 0.000000 0.000000 -0.001953 0.000000 0.029916
#
#
# Mechanical properties :
#
#
# Convention : Reuss Voigt Hill
#
# Bulk Modulus (GPa) = 55.91904 62.08169 59.00037
# Shear Modulus (GPa) = 28.30432 31.08067 29.69249
#
# Velocity S-wave (km/s) = 3.95626 4.14575 4.05211
# Velocity P-wave (km/s) = 7.19666 7.56616 7.38372
#
# Compressibility (1/GPa) = 0.01788300
#
# Stress axis : x y z
#
# Youngs Moduli (GPa) = 52.47303 86.02276 92.34052
#
# Poissons Ratio (x) = 0.20958 0.71307
# Poissons Ratio (y) = 0.12784 0.15291
# Poissons Ratio (z) = 0.40521 0.14245
#
# Static dielectric constant tensor:
#      x y z
#    x 1.595260 0.000000 -0.034250 
#    y 0.000000 1.640580 0.000000 
#    z -0.034250 0.000000 1.593950 
# 
# From -- ./inp_files/59000.got.cif
#   From: 2010.05.17/outbox.cif.g08.bks.cpg/sg14_30_cif.got.tgz:59000.got - 2010.06.03 17:49:19.
