data_PCOD9245311
_publ_section_title
;
Structure prediction by ZEFSAII (Michael W. Deem and Ramdas Pophale) SiO2 
 PCOD9245311
Probable space group: P 21/C
;
_chemical_formula_sum "Si O2"
_cell_formula_units_Z 26
_cell_length_a 24.608127
_cell_length_b 7.148318
_cell_length_c 12.783977
_cell_angle_alpha 90.000000
_cell_angle_beta 25.005618
_cell_angle_gamma 90.000000
_cell_volume 950.578469
_symmetry_space_group_name_H-M "P 21/C"
_symmetry_group_IT_number 14
_symmetry_cell_setting 'monoclinic'
loop_
_space_group_symop_operation_xyz
x,y,z
-x,1/2+y,1/2-z
-x,-y,-z
x,1/2-y,1/2+z
loop_
_atom_site_type_symbol
_atom_site_label
_atom_site_fract_x
_atom_site_fract_y
_atom_site_fract_z
Si Si1 0.185788 0.450818 0.047289
Si Si2 0.177237 0.393717 0.687161
Si Si3 0.312019 0.906183 0.757919
Si Si4 0.411594 0.838654 0.248179
Si Si5 0.327494 0.219716 0.117907
Si Si6 0.813118 0.236534 0.709279
Si Si7 0.000000 0.000000 0.000000
O O1 0.114516 0.303336 0.256864
O O2 0.086298 0.608774 0.252458
O O3 0.324558 0.496671 0.852795
O O4 0.210061 0.352418 0.896138
O O5 0.228040 0.488795 0.492779
O O6 0.291338 0.319757 0.563020
O O7 0.115438 0.551845 0.869729
O O8 0.422974 0.802607 0.629758
O O9 0.232940 0.750841 0.830202
O O10 0.351955 0.065012 0.605925
O O11 0.319752 0.741706 0.493592
O O12 0.544378 0.886512 0.069879
O O13 0.892335 0.419446 0.597781
#
# Coordination Sequence:
#
# PCOD9245311 Si02
#       7
#     4   4   4   4   4   4   2
#     4  10  22  40  62  91 126 165 218 275 331 399
#     4  10  23  41  64 100 132 171 228 276 341 416
#     4  10  22  41  65  97 137 178 224 276 340 407
#     4  10  21  37  62  95 130 173 216 264 333 409
#     4  11  21  37  62  95 134 171 212 271 333 402
#     4  10  22  41  64  90 128 173 221 281 341 402
#     4  10  22  44  68  90 124 176 230 280 344 410
#
# _framework density 27.351766000000001
#
# number of rings (size 3 to 8) (size 9 to 14) (size 15 to 20)
#    0.000    1.846    0.000    3.692    0.000    8.000 
#    0.000   18.462    0.000    0.000    0.000    0.000 
#    0.000    0.000    0.000    0.000    0.000    0.000 
#
# Total GULP energy -145054.007389 kJ/mol
# GULP energy per Si atom -5579.000284 kJ/mol
# Density = 2.728951 g / cm^3
# Si number density = 27.351766 Si / 1000 Ang^3
#
#
#
# Elastic Constant Matrix: (Units=GPa)
#
#
# Indices 1 2 3 4 5 6 
#
# 1 122.4811 31.9781 28.7384 0.0000 9.7505 0.0000
# 2 31.9781 100.2216 9.2911 0.0000 12.0809 0.0000
# 3 28.7384 9.2911 88.5068 0.0000 2.8070 0.0000
# 4 0.0000 0.0000 0.0000 39.6018 0.0000 9.4396
# 5 9.7505 12.0809 2.8070 0.0000 36.4010 0.0000
# 6 0.0000 0.0000 0.0000 9.4396 0.0000 61.7246
#
#
#
# Elastic Compliance Matrix: (Units=1/GPa)
#
#
# Indices 1 2 3 4 5 6 
#
# 1 0.009628 -0.002633 -0.002803 0.000000 -0.001489 0.000000
# 2 -0.002633 0.011200 -0.000226 0.000000 -0.002994 0.000000
# 3 -0.002803 -0.000226 0.012236 0.000000 -0.000118 0.000000
# 4 0.000000 0.000000 0.000000 0.026207 0.000000 -0.004008
# 5 -0.001489 -0.002994 -0.000118 0.000000 0.028874 0.000000
# 6 0.000000 0.000000 0.000000 -0.004008 0.000000 0.016814
#
#
# Mechanical properties :
#
#
# Convention : Reuss Voigt Hill
#
# Bulk Modulus (GPa) = 45.99528 50.13607 48.06567
# Shear Modulus (GPa) = 40.47673 43.62559 42.05116
#
# Velocity S-wave (km/s) = 3.85107 3.99806 3.92525
# Velocity P-wave (km/s) = 6.05202 6.29940 6.17695
#
# Compressibility (1/GPa) = 0.02174136
#
# Stress axis : x y z
#
# Youngs Moduli (GPa) = 103.86324 89.28714 81.72573
#
# Poissons Ratio (x) = 0.23507 0.22905
# Poissons Ratio (y) = 0.27344 0.01846
# Poissons Ratio (z) = 0.29109 0.02017
#
# Static dielectric constant tensor:
#      x y z
#    x 2.167010 0.000000 0.048990 
#    y 0.000000 2.439630 0.000000 
#    z 0.048990 0.000000 2.245200 
# 
# From -- ./inp_files/35720.got.cif
#   From: 2010.05.17/outbox.cif.g08.bks.cpg/sg14_18_cif.got.tgz:35720.got - 2010.06.03 17:49:19.
