data_PCOD9245668
_publ_section_title
;
Structure prediction by ZEFSAII (Michael W. Deem and Ramdas Pophale) SiO2 
 PCOD9245668
Probable space group: P 21/C
;
_chemical_formula_sum "Si O2"
_cell_formula_units_Z 20
_cell_length_a 8.588312
_cell_length_b 5.447689
_cell_length_c 18.169101
_cell_angle_alpha 90.000000
_cell_angle_beta 64.114813
_cell_angle_gamma 90.000000
_cell_volume 764.781062
_symmetry_space_group_name_H-M "P 21/C"
_symmetry_group_IT_number 14
_symmetry_cell_setting 'monoclinic'
loop_
_space_group_symop_operation_xyz
x,y,z
-x,1/2+y,1/2-z
-x,-y,-z
x,1/2-y,1/2+z
loop_
_atom_site_type_symbol
_atom_site_label
_atom_site_fract_x
_atom_site_fract_y
_atom_site_fract_z
Si Si1 0.715602 0.042320 0.753487
Si Si2 0.370573 0.822612 0.985515
Si Si3 0.844893 0.686646 0.529307
Si Si4 0.453303 0.456990 0.167639
Si Si5 0.050796 0.540966 0.107244
O O1 0.657895 0.295519 0.804013
O O2 0.594066 0.045290 0.704517
O O3 0.665235 0.784449 0.800964
O O4 0.924202 0.031541 0.699255
O O5 0.448489 0.582577 0.930071
O O6 0.314547 0.004696 0.929131
O O7 0.203059 0.743705 0.068568
O O8 0.500000 0.000000 0.000000
O O9 0.000000 0.500000 0.500000
O O10 0.900775 0.878246 0.579314
O O11 0.853747 0.808489 0.447728
#
# Coordination Sequence:
#
# PCOD9245668 Si02
#       5
#     4   4   4   4   4
#     4  10  22  39  69 102 141 177 238 310 366 415
#     4  11  25  42  67 104 146 193 238 290 359 441
#     4   9  19  35  66  97 136 168 243 288 344 411
#     4  10  23  39  65 107 140 181 235 305 367 416
#     4  10  21  38  68 103 130 184 240 295 354 421
#
# _framework density 26.151275999999999
#
# number of rings (size 3 to 8) (size 9 to 14) (size 15 to 20)
#    0.000    2.000    0.000    3.600   16.800    0.800 
#    0.000    0.000    4.400    0.000    0.000    0.000 
#    0.000    0.000    0.000    0.000    0.000    0.000 
#
# Total GULP energy -111725.382053 kJ/mol
# GULP energy per Si atom -5586.269103 kJ/mol
# Density = 2.609175 g / cm^3
# Si number density = 26.151276 Si / 1000 Ang^3
#
#
#
# Elastic Constant Matrix: (Units=GPa)
#
#
# Indices 1 2 3 4 5 6 
#
# 1 89.9331 47.2617 57.9944 0.0000 -21.2947 0.0000
# 2 47.2617 186.3673 76.9666 0.0000 -44.6025 0.0000
# 3 57.9944 76.9666 127.6365 0.0000 -48.2562 0.0000
# 4 0.0000 0.0000 0.0000 36.8236 0.0000 -6.9901
# 5 -21.2947 -44.6025 -48.2562 0.0000 49.8000 0.0000
# 6 0.0000 0.0000 0.0000 -6.9901 0.0000 27.6317
#
#
#
# Elastic Compliance Matrix: (Units=1/GPa)
#
#
# Indices 1 2 3 4 5 6 
#
# 1 0.016033 -0.001527 -0.006769 0.000000 -0.001071 0.000000
# 2 -0.001527 0.007702 -0.002508 0.000000 0.003814 0.000000
# 3 -0.006769 -0.002508 0.016538 0.000000 0.010884 0.000000
# 4 0.000000 0.000000 0.000000 0.028526 0.000000 0.007216
# 5 -0.001071 0.003814 0.010884 0.000000 0.033586 0.000000
# 6 0.000000 0.000000 0.000000 0.007216 0.000000 0.038016
#
#
# Mechanical properties :
#
#
# Convention : Reuss Voigt Hill
#
# Bulk Modulus (GPa) = 53.57781 85.37580 69.47681
# Shear Modulus (GPa) = 29.72088 37.63201 33.67644
#
# Velocity S-wave (km/s) = 3.37486 3.79755 3.59242
# Velocity P-wave (km/s) = 5.97648 7.20738 6.62060
#
# Compressibility (1/GPa) = 0.01866444
#
# Stress axis : x y z
#
# Youngs Moduli (GPa) = 62.36973 129.84086 60.46557
#
# Poissons Ratio (x) = 0.19822 0.40932
# Poissons Ratio (y) = 0.09521 0.15168
# Poissons Ratio (z) = 0.42221 0.32570
#
# Static dielectric constant tensor:
#      x y z
#    x 2.080350 0.000000 -0.061930 
#    y 0.000000 1.894350 0.000000 
#    z -0.061930 0.000000 2.128090 
# 
# From -- ./inp_files/54007.got.cif
#   From: 2010.05.17/outbox.cif.g08.bks.cpg/sg14_28_cif.got.tgz:54007.got - 2010.06.03 17:49:19.
