data_PCOD9245992
_publ_section_title
;
Structure prediction by ZEFSAII (Michael W. Deem and Ramdas Pophale) SiO2 
 PCOD9245992
Probable space group: P 21/C
;
_chemical_formula_sum "Si O2"
_cell_formula_units_Z 20
_cell_length_a 4.998984
_cell_length_b 7.816265
_cell_length_c 18.957698
_cell_angle_alpha 90.000000
_cell_angle_beta 84.681844
_cell_angle_gamma 90.000000
_cell_volume 737.552796
_symmetry_space_group_name_H-M "P 21/C"
_symmetry_group_IT_number 14
_symmetry_cell_setting 'monoclinic'
loop_
_space_group_symop_operation_xyz
x,y,z
-x,1/2+y,1/2-z
-x,-y,-z
x,1/2-y,1/2+z
loop_
_atom_site_type_symbol
_atom_site_label
_atom_site_fract_x
_atom_site_fract_y
_atom_site_fract_z
Si Si1 0.791492 0.923755 0.280026
Si Si2 0.528728 0.930351 0.830492
Si Si3 0.914928 0.463808 0.098582
Si Si4 0.287943 0.766969 0.619489
Si Si5 0.545465 0.781267 0.465547
O O1 0.666364 0.734664 0.290453
O O2 0.285931 0.902579 0.165356
O O3 0.070808 0.915752 0.318108
O O4 0.729843 0.000942 0.205293
O O5 0.358196 0.929306 0.668045
O O6 0.476465 0.866885 0.911126
O O7 0.664164 0.424618 0.056552
O O8 0.004527 0.661590 0.097414
O O9 0.156799 0.348136 0.059914
O O10 0.469205 0.737300 0.546649
#
# Coordination Sequence:
#
# PCOD9245992 Si02
#       5
#     4   4   4   4   4
#     4   9  20  38  66  95 137 177 231 276 345 403
#     4  11  20  40  69 100 138 184 232 283 345 415
#     4   9  22  41  70  95 137 176 222 281 342 404
#     4  10  21  39  68 102 135 183 224 288 342 412
#     4  11  22  43  70 102 136 177 228 283 344 407
#
# _framework density 27.116706000000001
#
# number of rings (size 3 to 8) (size 9 to 14) (size 15 to 20)
#    1.200    0.800    2.000    1.800    0.000    0.000 
#    0.000   23.000    0.000    0.000    0.000    0.000 
#    0.000    0.000    0.000    0.000    0.000    0.000 
#
# Total GULP energy -111735.282526 kJ/mol
# GULP energy per Si atom -5586.764126 kJ/mol
# Density = 2.705499 g / cm^3
# Si number density = 27.116706 Si / 1000 Ang^3
#
#
#
# Elastic Constant Matrix: (Units=GPa)
#
#
# Indices 1 2 3 4 5 6 
#
# 1 80.6880 4.3248 47.7420 0.0000 21.8502 0.0000
# 2 4.3248 166.4095 51.6364 0.0000 -0.8855 0.0000
# 3 47.7420 51.6364 125.0390 0.0000 11.1479 0.0000
# 4 0.0000 0.0000 0.0000 60.1160 0.0000 7.5081
# 5 21.8502 -0.8855 11.1479 0.0000 38.4874 0.0000
# 6 0.0000 0.0000 0.0000 7.5081 0.0000 14.2973
#
#
#
# Elastic Compliance Matrix: (Units=1/GPa)
#
#
# Indices 1 2 3 4 5 6 
#
# 1 0.018845 0.001674 -0.007120 0.000000 -0.008598 0.000000
# 2 0.001674 0.007080 -0.003585 0.000000 0.000251 0.000000
# 3 -0.007120 -0.003585 0.012157 0.000000 0.000438 0.000000
# 4 0.000000 0.000000 0.000000 0.017802 0.000000 -0.009349
# 5 -0.008598 0.000251 0.000438 0.000000 0.030743 0.000000
# 6 0.000000 0.000000 0.000000 -0.009349 0.000000 0.074853
#
#
# Mechanical properties :
#
#
# Convention : Reuss Voigt Hill
#
# Bulk Modulus (GPa) = 49.95164 64.39366 57.17265
# Shear Modulus (GPa) = 26.85078 40.47570 33.66324
#
# Velocity S-wave (km/s) = 3.15015 3.86767 3.52720
# Velocity P-wave (km/s) = 5.62958 6.61389 6.14149
#
# Compressibility (1/GPa) = 0.02001936
#
# Stress axis : x y z
#
# Youngs Moduli (GPa) = 53.06522 141.25218 82.25431
#
# Poissons Ratio (x) = -0.23643 0.58564
# Poissons Ratio (y) = -0.08882 0.29489
# Poissons Ratio (z) = 0.37782 0.50640
#
# Static dielectric constant tensor:
#      x y z
#    x 2.261400 0.000000 -0.052930 
#    y 0.000000 2.158760 0.000000 
#    z -0.052930 0.000000 2.188280 
# 
# From -- ./inp_files/52813.got.cif
#   From: 2010.05.17/outbox.cif.g08.bks.cpg/sg14_27_cif.got.tgz:52813.got - 2010.06.03 17:49:19.
