data_PCOD9245759
_publ_section_title
;
Structure prediction by ZEFSAII (Michael W. Deem and Ramdas Pophale) SiO2 
 PCOD9245759
Probable space group: P 21/C
;
_chemical_formula_sum "Si O2"
_cell_formula_units_Z 24
_cell_length_a 13.847924
_cell_length_b 15.172488
_cell_length_c 4.959866
_cell_angle_alpha 90.000000
_cell_angle_beta 91.140374
_cell_angle_gamma 90.000000
_cell_volume 1041.898448
_symmetry_space_group_name_H-M "P 21/C"
_symmetry_group_IT_number 14
_symmetry_cell_setting 'monoclinic'
loop_
_space_group_symop_operation_xyz
x,y,z
-x,1/2+y,1/2-z
-x,-y,-z
x,1/2-y,1/2+z
loop_
_atom_site_type_symbol
_atom_site_label
_atom_site_fract_x
_atom_site_fract_y
_atom_site_fract_z
Si Si1 0.341580 0.375942 0.676764
Si Si2 0.972544 0.808825 0.181736
Si Si3 0.548001 0.305564 0.830494
Si Si4 0.779471 0.599908 0.812091
Si Si5 0.680934 0.443564 0.543628
Si Si6 0.193026 0.810235 0.278688
O O1 0.435426 0.326489 0.782308
O O2 0.290677 0.345683 0.397189
O O3 0.372986 0.477024 0.614139
O O4 0.257910 0.380445 0.893632
O O5 0.961711 0.723512 0.375190
O O6 0.888790 0.875096 0.260346
O O7 0.081873 0.839901 0.236929
O O8 0.568630 0.222513 0.635870
O O9 0.610509 0.385717 0.721416
O O10 0.756004 0.499050 0.731890
O O11 0.738383 0.384715 0.333996
O O12 0.207009 0.774727 0.581473
#
# Coordination Sequence:
#
# PCOD9245759 Si02
#       6
#     4   4   4   4   4   4
#     4  10  24  41  60  91 119 157 193 249 293 353
#     4  10  21  39  61  89 121 157 199 244 290 346
#     4  12  26  41  65  89 117 157 201 245 295 353
#     4  10  23  38  64  87 121 161 190 248 293 352
#     4  10  25  41  63  87 124 154 199 243 300 348
#     4  10  22  39  63  89 119 156 200 245 291 348
#
# _framework density 23.034873000000001
#
# number of rings (size 3 to 8) (size 9 to 14) (size 15 to 20)
#    1.000    0.667    0.000    3.500    4.667    5.333 
#    0.000    0.833    0.000    0.000    0.000    0.000 
#    0.000    0.000    0.000    0.000    0.000    0.000 
#
# Total GULP energy -134313.585814 kJ/mol
# GULP energy per Si atom -5596.399409 kJ/mol
# Density = 2.298245 g / cm^3
# Si number density = 23.034873 Si / 1000 Ang^3
#
#
#
# Elastic Constant Matrix: (Units=GPa)
#
#
# Indices 1 2 3 4 5 6 
#
# 1 78.6802 28.1389 15.1024 0.0000 -15.9432 0.0000
# 2 28.1389 56.3304 3.9035 0.0000 -6.2725 0.0000
# 3 15.1024 3.9035 69.7230 0.0000 -3.0580 0.0000
# 4 0.0000 0.0000 0.0000 14.8719 0.0000 -12.8169
# 5 -15.9432 -6.2725 -3.0580 0.0000 35.2499 0.0000
# 6 0.0000 0.0000 0.0000 -12.8169 0.0000 11.4029
#
#
#
# Elastic Compliance Matrix: (Units=1/GPa)
#
#
# Indices 1 2 3 4 5 6 
#
# 1 0.017321 -0.007752 -0.003046 0.000000 0.006191 0.000000
# 2 -0.007752 0.021634 0.000485 0.000000 0.000386 0.000000
# 3 -0.003046 0.000485 0.014976 0.000000 0.000008 0.000000
# 4 0.000000 0.000000 0.000000 2.146835 0.000000 2.413043
# 5 0.006191 0.000386 0.000008 0.000000 0.031238 0.000000
# 6 0.000000 0.000000 0.000000 2.413043 0.000000 2.799958
#
#
# Mechanical properties :
#
#
# Convention : Reuss Voigt Hill
#
# Bulk Modulus (GPa) = 30.02672 33.22484 31.62578
# Shear Modulus (GPa) = 0.98742 22.81086 11.89914
#
# Velocity S-wave (km/s) = 0.65543 3.15028 2.27529
# Velocity P-wave (km/s) = 3.69275 5.26188 4.54554
#
# Compressibility (1/GPa) = 0.03330367
#
# Stress axis : x y z
#
# Youngs Moduli (GPa) = 57.73252 46.22317 66.77565
#
# Poissons Ratio (x) = 0.35833 0.20342
# Poissons Ratio (y) = 0.44755 -0.03238
# Poissons Ratio (z) = 0.17587 -0.02241
#
# Static dielectric constant tensor:
#      x y z
#    x 1.837360 0.000000 0.023360 
#    y 0.000000 1.880150 0.000000 
#    z 0.023360 0.000000 1.824370 
# 
# From -- ./inp_files/2666.got.cif
#   From: 2010.05.17/outbox.cif.g08.bks.cpg/sg14_2_cif.got.tgz:2666.got - 2010.06.03 17:49:19.
