data_PCOD9245745
_publ_section_title
;
Structure prediction by ZEFSAII (Michael W. Deem and Ramdas Pophale) SiO2 
 PCOD9245745
Probable space group: P 21/C
;
_chemical_formula_sum "Si O2"
_cell_formula_units_Z 32
_cell_length_a 11.564420
_cell_length_b 8.445989
_cell_length_c 26.796284
_cell_angle_alpha 90.000000
_cell_angle_beta 149.568918
_cell_angle_gamma 90.000000
_cell_volume 1325.652672
_symmetry_space_group_name_H-M "P 21/C"
_symmetry_group_IT_number 14
_symmetry_cell_setting 'monoclinic'
loop_
_space_group_symop_operation_xyz
x,y,z
-x,1/2+y,1/2-z
-x,-y,-z
x,1/2-y,1/2+z
loop_
_atom_site_type_symbol
_atom_site_label
_atom_site_fract_x
_atom_site_fract_y
_atom_site_fract_z
Si Si1 0.630194 0.036109 0.290861
Si Si2 0.548144 0.361120 0.374563
Si Si3 0.967444 0.324795 0.050374
Si Si4 0.209557 0.850240 0.359253
Si Si5 0.762505 0.612522 0.276744
Si Si6 0.322601 0.445302 0.998977
Si Si7 0.763713 0.456865 0.677763
Si Si8 0.915066 0.259128 0.328253
O O1 0.529688 0.950990 0.204343
O O2 0.803722 0.913042 0.382635
O O3 0.427592 0.085386 0.251041
O O4 0.773473 0.184208 0.322245
O O5 0.807054 0.302935 0.464052
O O6 0.378314 0.210419 0.316474
O O7 0.477505 0.467749 0.395682
O O8 0.797046 0.467435 0.999938
O O9 0.052703 0.232606 0.131492
O O10 0.274933 0.935502 0.435193
O O11 0.226113 0.660513 0.365188
O O12 0.413763 0.907412 0.399171
O O13 0.963041 0.912307 0.250390
O O14 0.866714 0.442864 0.304488
O O15 0.178312 0.286929 0.934612
O O16 0.836042 0.342761 0.751020
#
# Coordination Sequence:
#
# PCOD9245745 Si02
#       8
#     4   4   4   4   4   4   4   4
#     4   9  20  42  59  89 126 161 201 251 303 361
#     4  10  23  40  60  92 126 157 206 253 302 366
#     4  10  22  38  62  88 125 164 196 256 305 360
#     4  10  21  39  61  85 118 161 201 255 298 366
#     4  11  21  37  67  86 121 163 200 250 307 364
#     4   9  21  40  58  84 126 155 200 254 306 354
#     4  10  23  37  60  87 121 157 202 254 301 357
#     4   9  19  37  58  86 117 157 200 249 309 355
#
# _framework density 24.139054000000002
#
# number of rings (size 3 to 8) (size 9 to 14) (size 15 to 20)
#    0.000    2.250    0.000    3.750    5.250    2.000 
#    0.000    0.625    0.000    0.000    0.000    0.000 
#    0.000    0.000    0.000    0.000    0.000    0.000 
#
# Total GULP energy -178866.398517 kJ/mol
# GULP energy per Si atom -5589.574954 kJ/mol
# Density = 2.408411 g / cm^3
# Si number density = 24.139054 Si / 1000 Ang^3
#
#
#
# Elastic Constant Matrix: (Units=GPa)
#
#
# Indices 1 2 3 4 5 6 
#
# 1 67.3046 22.7875 16.9646 0.0000 23.3650 0.0000
# 2 22.7875 96.3584 10.1028 0.0000 6.5112 0.0000
# 3 16.9646 10.1028 74.2799 0.0000 12.2020 0.0000
# 4 0.0000 0.0000 0.0000 30.7972 0.0000 7.6093
# 5 23.3650 6.5112 12.2020 0.0000 26.4908 0.0000
# 6 0.0000 0.0000 0.0000 7.6093 0.0000 34.3488
#
#
#
# Elastic Compliance Matrix: (Units=1/GPa)
#
#
# Indices 1 2 3 4 5 6 
#
# 1 0.023108 -0.004031 -0.001670 0.000000 -0.018621 0.000000
# 2 -0.004031 0.011339 -0.000809 0.000000 0.001141 0.000000
# 3 -0.001670 -0.000809 0.014799 0.000000 -0.005145 0.000000
# 4 0.000000 0.000000 0.000000 0.034351 0.000000 -0.007610
# 5 -0.018621 0.001141 -0.005145 0.000000 0.056262 0.000000
# 6 0.000000 0.000000 0.000000 -0.007610 0.000000 0.030799
#
#
# Mechanical properties :
#
#
# Convention : Reuss Voigt Hill
#
# Bulk Modulus (GPa) = 27.60534 37.51698 32.56116
# Shear Modulus (GPa) = 25.54220 30.86656 28.20438
#
# Velocity S-wave (km/s) = 3.25642 3.57977 3.42191
# Velocity P-wave (km/s) = 5.05962 5.71508 5.39731
#
# Compressibility (1/GPa) = 0.03622488
#
# Stress axis : x y z
#
# Youngs Moduli (GPa) = 43.27476 88.19128 67.57115
#
# Poissons Ratio (x) = 0.35553 0.11287
# Poissons Ratio (y) = 0.17446 0.05466
# Poissons Ratio (z) = 0.07229 0.07134
#
# Static dielectric constant tensor:
#      x y z
#    x 1.944540 0.000000 -0.027430 
#    y 0.000000 1.944770 0.000000 
#    z -0.027430 0.000000 1.922470 
# 
# From -- ./inp_files/80047.got.cif
#   From: 2010.05.17/outbox.cif.g08.bks.cpg/sg14_41_cif.got.tgz:80047.got - 2010.06.03 17:49:19.
