data_PCOD9245189
_publ_section_title
;
Structure prediction by ZEFSAII (Michael W. Deem and Ramdas Pophale) SiO2 
 PCOD9245189
Probable space group: P 21/C
;
_chemical_formula_sum "Si O2"
_cell_formula_units_Z 28
_cell_length_a 13.796858
_cell_length_b 8.241890
_cell_length_c 14.318679
_cell_angle_alpha 90.000000
_cell_angle_beta 69.516138
_cell_angle_gamma 90.000000
_cell_volume 1525.257969
_symmetry_space_group_name_H-M "P 21/C"
_symmetry_group_IT_number 14
_symmetry_cell_setting 'monoclinic'
loop_
_space_group_symop_operation_xyz
x,y,z
-x,1/2+y,1/2-z
-x,-y,-z
x,1/2-y,1/2+z
loop_
_atom_site_type_symbol
_atom_site_label
_atom_site_fract_x
_atom_site_fract_y
_atom_site_fract_z
Si Si1 0.083819 0.636350 0.786514
Si Si2 0.245232 0.364464 0.748118
Si Si3 0.844274 0.882948 0.373382
Si Si4 0.747410 0.811885 0.071548
Si Si5 0.206535 0.760208 0.569112
Si Si6 0.377374 0.501763 0.536597
Si Si7 0.897473 0.402682 0.566134
O O1 0.155307 0.493505 0.802979
O O2 0.134807 0.670995 0.669578
O O3 0.087140 0.801890 0.844891
O O4 0.965491 0.583118 0.820182
O O5 0.195159 0.223528 0.700353
O O6 0.288450 0.297909 0.830705
O O7 0.329598 0.445486 0.651852
O O8 0.824884 0.780603 0.474601
O O9 0.786003 0.052653 0.406256
O O10 0.808525 0.961663 0.097128
O O11 0.659921 0.879576 0.032242
O O12 0.317043 0.669231 0.532813
O O13 0.144523 0.728384 0.494637
O O14 0.500000 0.500000 0.500000
O O15 0.000000 0.500000 0.500000
#
# Coordination Sequence:
#
# PCOD9245189 Si02
#       7
#     4   4   4   4   4   4   4
#     4  11  22  33  56  83 122 168 190 231 286 356
#     4  10  22  37  57  87 115 152 201 242 290 353
#     4  11  21  34  55  84 124 158 191 239 289 353
#     4  10  21  37  57  84 117 150 198 246 290 350
#     4  10  23  36  56  85 112 154 200 237 294 355
#     4   9  21  45  63  79 113 152 194 258 307 343
#     4  11  22  35  53  84 120 160 197 230 283 347
#
# _framework density 18.35755
#
# number of rings (size 3 to 8) (size 9 to 14) (size 15 to 20)
#    0.000    1.714    1.429    3.429    6.000    1.143 
#    0.000   11.429    0.000    0.000    0.000    0.000 
#    0.000    0.000    0.000    0.000    0.000    0.000 
#
# Total GULP energy -156299.815383 kJ/mol
# GULP energy per Si atom -5582.136264 kJ/mol
# Density = 1.831577 g / cm^3
# Si number density = 18.357550 Si / 1000 Ang^3
#
#
#
# Elastic Constant Matrix: (Units=GPa)
#
#
# Indices 1 2 3 4 5 6 
#
# 1 101.9333 24.3722 35.4384 0.0000 -28.3791 0.0000
# 2 24.3722 78.9501 14.8855 0.0000 -9.3254 0.0000
# 3 35.4384 14.8855 69.7456 0.0000 1.7602 0.0000
# 4 0.0000 0.0000 0.0000 28.4027 0.0000 7.3660
# 5 -28.3791 -9.3254 1.7602 0.0000 24.5208 0.0000
# 6 0.0000 0.0000 0.0000 7.3660 0.0000 14.1248
#
#
#
# Elastic Compliance Matrix: (Units=1/GPa)
#
#
# Indices 1 2 3 4 5 6 
#
# 1 0.020602 -0.001491 -0.010757 0.000000 0.024049 0.000000
# 2 -0.001491 0.014011 -0.002328 0.000000 0.003770 0.000000
# 3 -0.010757 -0.002328 0.020674 0.000000 -0.014819 0.000000
# 4 0.000000 0.000000 0.000000 0.040714 0.000000 -0.021232
# 5 0.024049 0.003770 -0.014819 0.000000 0.071112 0.000000
# 6 0.000000 0.000000 0.000000 -0.021232 0.000000 0.081870
#
#
# Mechanical properties :
#
#
# Convention : Reuss Voigt Hill
#
# Bulk Modulus (GPa) = 38.26198 44.44680 41.35439
# Shear Modulus (GPa) = 17.43096 25.13851 21.28474
#
# Velocity S-wave (km/s) = 3.08478 3.70453 3.40877
# Velocity P-wave (km/s) = 5.79446 6.52398 6.17001
#
# Compressibility (1/GPa) = 0.02613560
#
# Stress axis : x y z
#
# Youngs Moduli (GPa) = 48.53923 71.37400 48.36962
#
# Poissons Ratio (x) = 0.10644 0.52030
# Poissons Ratio (y) = 0.07238 0.11259
# Poissons Ratio (z) = 0.52212 0.16614
#
# Static dielectric constant tensor:
#      x y z
#    x 1.593670 0.000000 0.021140 
#    y 0.000000 1.662590 0.000000 
#    z 0.021140 0.000000 1.632210 
# 
# From -- ./inp_files/31722.got.cif
#   From: 2010.05.17/outbox.cif.g08.bks.cpg/sg14_16_cif.got.tgz:31722.got - 2010.06.03 17:49:19.
