data_PCOD9245696
_publ_section_title
;
Structure prediction by ZEFSAII (Michael W. Deem and Ramdas Pophale) SiO2 
 PCOD9245696
Probable space group: P 21/C
;
_chemical_formula_sum "Si O2"
_cell_formula_units_Z 24
_cell_length_a 8.809563
_cell_length_b 12.916731
_cell_length_c 15.751158
_cell_angle_alpha 90.000000
_cell_angle_beta 32.344856
_cell_angle_gamma 90.000000
_cell_volume 958.924814
_symmetry_space_group_name_H-M "P 21/C"
_symmetry_group_IT_number 14
_symmetry_cell_setting 'monoclinic'
loop_
_space_group_symop_operation_xyz
x,y,z
-x,1/2+y,1/2-z
-x,-y,-z
x,1/2-y,1/2+z
loop_
_atom_site_type_symbol
_atom_site_label
_atom_site_fract_x
_atom_site_fract_y
_atom_site_fract_z
Si Si1 0.401745 0.448063 0.133609
Si Si2 0.515649 0.972227 0.224968
Si Si3 0.994333 0.136079 0.176651
Si Si4 0.009874 0.232964 0.817218
Si Si5 0.388534 0.905699 0.110773
Si Si6 0.100953 0.835531 0.952486
O O1 0.590869 0.466074 0.128076
O O2 0.119857 0.520311 0.286818
O O3 0.311163 0.327926 0.171193
O O4 0.500000 0.500000 0.000000
O O5 0.318630 0.943480 0.238816
O O6 0.644336 0.085804 0.147516
O O7 0.799797 0.898301 0.091964
O O8 0.955561 0.161310 0.293545
O O9 0.852657 0.200778 0.166520
O O10 0.325524 0.159496 0.011796
O O11 0.831029 0.156462 0.840958
O O12 0.925807 0.238694 0.954943
O O13 0.500000 0.000000 0.000000
#
# Coordination Sequence:
#
# PCOD9245696 Si02
#       6
#     4   4   4   4   4   4
#     4  10  21  39  57  80 116 154 176 222 293 334
#     4   8  15  32  59  77 102 146 188 220 267 332
#     4  10  22  37  56  84 112 144 189 227 274 336
#     4  11  21  36  61  83 110 146 186 235 273 321
#     4  11  18  36  61  84 102 141 197 235 257 318
#     4   8  15  34  55  77 106 146 183 217 273 333
#
# _framework density 25.028029
#
# number of rings (size 3 to 8) (size 9 to 14) (size 15 to 20)
#    0.000    2.333    3.333    2.000    2.333    0.000 
#    3.000    4.167    0.000    0.000    0.000    0.000 
#    0.000    0.000    0.000    0.000    0.000    0.000 
#
# Total GULP energy -133777.745176 kJ/mol
# GULP energy per Si atom -5574.072716 kJ/mol
# Density = 2.497106 g / cm^3
# Si number density = 25.028029 Si / 1000 Ang^3
#
#
#
# Elastic Constant Matrix: (Units=GPa)
#
#
# Indices 1 2 3 4 5 6 
#
# 1 115.0024 9.1007 31.9032 0.0000 46.3309 0.0000
# 2 9.1007 40.8901 -1.9229 0.0000 16.9076 0.0000
# 3 31.9032 -1.9229 55.6566 0.0000 30.0086 0.0000
# 4 0.0000 0.0000 0.0000 23.3234 0.0000 12.8327
# 5 46.3309 16.9076 30.0086 0.0000 52.0937 0.0000
# 6 0.0000 0.0000 0.0000 12.8327 0.0000 35.9595
#
#
#
# Elastic Compliance Matrix: (Units=1/GPa)
#
#
# Indices 1 2 3 4 5 6 
#
# 1 0.013794 0.001884 -0.001302 0.000000 -0.012130 0.000000
# 2 0.001884 0.031647 0.009363 0.000000 -0.017341 0.000000
# 3 -0.001302 0.009363 0.029085 0.000000 -0.018635 0.000000
# 4 0.000000 0.000000 0.000000 0.053351 0.000000 -0.019039
# 5 -0.012130 -0.017341 -0.018635 0.000000 0.046347 0.000000
# 6 0.000000 0.000000 0.000000 -0.019039 0.000000 0.034604
#
#
# Mechanical properties :
#
#
# Convention : Reuss Voigt Hill
#
# Bulk Modulus (GPa) = 10.59138 32.19012 21.39075
# Shear Modulus (GPa) = 22.68510 33.77319 28.22915
#
# Velocity S-wave (km/s) = 3.01389 3.67742 3.36207
# Velocity P-wave (km/s) = 4.04381 5.56065 4.86175
#
# Compressibility (1/GPa) = 0.09441643
#
# Stress axis : x y z
#
# Youngs Moduli (GPa) = 72.49374 31.59869 34.38241
#
# Poissons Ratio (x) = -0.05954 0.04476
# Poissons Ratio (y) = -0.13660 -0.32192
# Poissons Ratio (z) = 0.09438 -0.29586
#
# Static dielectric constant tensor:
#      x y z
#    x 2.040820 0.000000 0.054620 
#    y 0.000000 2.070140 0.000000 
#    z 0.054620 0.000000 2.166760 
# 
# From -- ./inp_files/25964.got.cif
#   From: 2010.05.17/outbox.cif.g08.bks.cpg/sg14_13_cif.got.tgz:25964.got - 2010.06.03 17:49:19.
