data_PCOD9245555
_publ_section_title
;
Structure prediction by ZEFSAII (Michael W. Deem and Ramdas Pophale) SiO2 
 PCOD9245555
Probable space group: P 21/C
;
_chemical_formula_sum "Si O2"
_cell_formula_units_Z 32
_cell_length_a 10.517189
_cell_length_b 7.958920
_cell_length_c 29.837104
_cell_angle_alpha 90.000000
_cell_angle_beta 152.745183
_cell_angle_gamma 90.000000
_cell_volume 1143.739906
_symmetry_space_group_name_H-M "P 21/C"
_symmetry_group_IT_number 14
_symmetry_cell_setting 'monoclinic'
loop_
_space_group_symop_operation_xyz
x,y,z
-x,1/2+y,1/2-z
-x,-y,-z
x,1/2-y,1/2+z
loop_
_atom_site_type_symbol
_atom_site_label
_atom_site_fract_x
_atom_site_fract_y
_atom_site_fract_z
Si Si1 0.256436 0.117006 0.136502
Si Si2 0.858758 0.181618 0.244040
Si Si3 0.608175 0.676069 0.951789
Si Si4 0.006034 0.980649 0.373547
Si Si5 0.471613 0.026957 0.701611
Si Si6 0.147366 0.769538 0.060779
Si Si7 0.316482 0.395512 0.373727
Si Si8 0.756280 0.158239 0.084490
O O1 0.266395 0.057513 0.191239
O O2 0.468078 0.272111 0.193924
O O3 0.295221 0.941067 0.122456
O O4 0.979958 0.195946 0.027867
O O5 0.642391 0.327597 0.162070
O O6 0.965854 0.129915 0.326057
O O7 0.144680 0.229868 0.308730
O O8 0.702721 0.019998 0.174060
O O9 0.479820 0.779288 0.953487
O O10 0.720413 0.510504 0.010973
O O11 0.879593 0.748060 0.010477
O O12 0.752477 0.980366 0.327878
O O13 0.038436 0.811939 0.356059
O O14 0.335116 0.897007 0.623634
O O15 0.142490 0.490659 0.359205
O O16 0.604803 0.370030 0.489654
#
# Coordination Sequence:
#
# PCOD9245555 Si02
#       8
#     4   4   4   4   4   4   4   4
#     4  11  22  43  71  93 131 167 209 274 332 375
#     4  11  21  37  58  86 123 164 213 259 303 370
#     4  10  21  38  63  90 125 169 206 256 316 377
#     4  11  23  40  62  90 129 164 210 258 314 378
#     4  11  23  42  67 100 124 167 217 262 325 399
#     4  10  23  42  68  96 129 168 211 268 326 387
#     4  10  22  34  59  84 118 173 218 249 305 358
#     4  10  21  40  59  86 127 171 206 258 307 371
#
# _framework density 27.978389
#
# number of rings (size 3 to 8) (size 9 to 14) (size 15 to 20)
#    0.000    1.500    2.500    3.000    1.750    3.000 
#    0.000    0.000    0.000    0.000    0.000    0.000 
#    0.000    0.000    0.000    0.000    0.000    0.000 
#
# Total GULP energy -178972.571780 kJ/mol
# GULP energy per Si atom -5592.892868 kJ/mol
# Density = 2.791471 g / cm^3
# Si number density = 27.978389 Si / 1000 Ang^3
#
#
#
# Elastic Constant Matrix: (Units=GPa)
#
#
# Indices 1 2 3 4 5 6 
#
# 1 79.2753 15.9443 4.0856 0.0000 -3.8236 0.0000
# 2 15.9443 157.3111 46.6345 0.0000 7.8165 0.0000
# 3 4.0856 46.6345 162.3684 0.0000 -10.3704 0.0000
# 4 0.0000 0.0000 0.0000 54.0926 0.0000 -2.5636
# 5 -3.8236 7.8165 -10.3704 0.0000 15.8990 0.0000
# 6 0.0000 0.0000 0.0000 -2.5636 0.0000 27.5240
#
#
#
# Elastic Compliance Matrix: (Units=1/GPa)
#
#
# Indices 1 2 3 4 5 6 
#
# 1 0.013133 -0.001667 0.000420 0.000000 0.004252 0.000000
# 2 -0.001667 0.007550 -0.002493 0.000000 -0.005739 0.000000
# 3 0.000420 -0.002493 0.007251 0.000000 0.006056 0.000000
# 4 0.000000 0.000000 0.000000 0.018569 0.000000 0.001729
# 5 0.004252 -0.005739 0.006056 0.000000 0.070691 0.000000
# 6 0.000000 0.000000 0.000000 0.001729 0.000000 0.036493
#
#
# Mechanical properties :
#
#
# Convention : Reuss Voigt Hill
#
# Bulk Modulus (GPa) = 48.89027 59.14263 54.01645
# Shear Modulus (GPa) = 29.76453 41.65580 35.71017
#
# Velocity S-wave (km/s) = 3.26519 3.86276 3.57648
# Velocity P-wave (km/s) = 5.63272 6.40930 6.03352
#
# Compressibility (1/GPa) = 0.02045397
#
# Stress axis : x y z
#
# Youngs Moduli (GPa) = 76.14443 132.45068 137.90973
#
# Poissons Ratio (x) = 0.22077 -0.05790
# Poissons Ratio (y) = 0.12692 0.34382
# Poissons Ratio (z) = -0.03197 0.33021
#
# Static dielectric constant tensor:
#      x y z
#    x 2.243240 0.000000 0.004160 
#    y 0.000000 2.200550 0.000000 
#    z 0.004160 0.000000 2.146470 
# 
# From -- ./inp_files/80034.got.cif
#   From: 2010.05.17/outbox.cif.g08.bks.cpg/sg14_41_cif.got.tgz:80034.got - 2010.06.03 17:49:19.
