data_PCOD9245319
_publ_section_title
;
Structure prediction by ZEFSAII (Michael W. Deem and Ramdas Pophale) SiO2 
 PCOD9245319
Probable space group: P 21/C
;
_chemical_formula_sum "Si O2"
_cell_formula_units_Z 32
_cell_length_a 16.893259
_cell_length_b 11.435878
_cell_length_c 8.629034
_cell_angle_alpha 90.000000
_cell_angle_beta 127.299504
_cell_angle_gamma 90.000000
_cell_volume 1326.092150
_symmetry_space_group_name_H-M "P 21/C"
_symmetry_group_IT_number 14
_symmetry_cell_setting 'monoclinic'
loop_
_space_group_symop_operation_xyz
x,y,z
-x,1/2+y,1/2-z
-x,-y,-z
x,1/2-y,1/2+z
loop_
_atom_site_type_symbol
_atom_site_label
_atom_site_fract_x
_atom_site_fract_y
_atom_site_fract_z
Si Si1 0.876663 0.912535 0.537421
Si Si2 0.100965 0.262004 0.202520
Si Si3 0.635042 0.014631 0.814256
Si Si4 0.399516 0.993494 0.565231
Si Si5 0.685679 0.014353 0.209305
Si Si6 0.689974 0.261580 0.540717
Si Si7 0.940260 0.971065 0.154130
Si Si8 0.901959 0.161370 0.879896
O O1 0.859416 0.797099 0.415981
O O2 0.861661 0.861778 0.691103
O O3 0.801417 0.008929 0.392075
O O4 0.990521 0.949106 0.655028
O O5 0.121246 0.376774 0.327059
O O6 0.980672 0.248412 0.054257
O O7 0.651407 0.966923 0.658800
O O8 0.515536 0.020970 0.687693
O O9 0.678779 0.146146 0.885906
O O10 0.667393 0.956071 0.018265
O O11 0.376527 0.854026 0.543835
O O12 0.365363 0.035867 0.696244
O O13 0.659750 0.149125 0.143481
O O14 0.804099 0.219574 0.695733
O O15 0.025275 0.902964 0.156785
O O16 0.878900 0.059418 0.975909
#
# Coordination Sequence:
#
# PCOD9245319 Si02
#       8
#     4   4   4   4   4   4   4   4
#     4  11  23  42  62  90 128 173 226 269 331 392
#     4  11  22  41  61  87 132 178 214 274 330 394
#     4   9  24  40  69 103 127 171 219 275 345 408
#     4  11  20  45  68  96 139 166 214 284 344 404
#     4  10  23  42  68  98 132 174 225 276 327 407
#     4  10  22  39  70 101 129 172 224 279 328 411
#     4  10  21  37  63  91 126 180 219 277 325 388
#     4  10  21  39  63  96 130 171 229 269 334 387
#
# _framework density 24.131053000000001
#
# number of rings (size 3 to 8) (size 9 to 14) (size 15 to 20)
#    0.750    1.000    1.250    3.000    0.000    2.000 
#    2.250    1.250    0.000    0.000    0.000    0.000 
#    0.000    0.000    0.000    0.000    0.000    0.000 
#
# Total GULP energy -178436.057646 kJ/mol
# GULP energy per Si atom -5576.126801 kJ/mol
# Density = 2.407613 g / cm^3
# Si number density = 24.131053 Si / 1000 Ang^3
#
#
#
# Elastic Constant Matrix: (Units=GPa)
#
#
# Indices 1 2 3 4 5 6 
#
# 1 70.1914 7.8911 43.6584 0.0000 -7.7781 0.0000
# 2 7.8911 29.5963 25.3329 0.0000 -7.4129 0.0000
# 3 43.6584 25.3329 137.9075 0.0000 -11.2642 0.0000
# 4 0.0000 0.0000 0.0000 37.5273 0.0000 3.5584
# 5 -7.7781 -7.4129 -11.2642 0.0000 45.9704 0.0000
# 6 0.0000 0.0000 0.0000 3.5584 0.0000 23.5276
#
#
#
# Elastic Compliance Matrix: (Units=1/GPa)
#
#
# Indices 1 2 3 4 5 6 
#
# 1 0.017870 0.000462 -0.005601 0.000000 0.001726 0.000000
# 2 0.000462 0.041149 -0.007303 0.000000 0.004924 0.000000
# 3 -0.005601 -0.007303 0.010400 0.000000 0.000423 0.000000
# 4 0.000000 0.000000 0.000000 0.027035 0.000000 -0.004089
# 5 0.001726 0.004924 0.000423 0.000000 0.022943 0.000000
# 6 0.000000 0.000000 0.000000 -0.004089 0.000000 0.043122
#
#
# Mechanical properties :
#
#
# Convention : Reuss Voigt Hill
#
# Bulk Modulus (GPa) = 22.45410 43.49556 32.97483
# Shear Modulus (GPa) = 24.72209 32.12591 28.42400
#
# Velocity S-wave (km/s) = 3.20424 3.65267 3.43578
# Velocity P-wave (km/s) = 4.79738 5.98775 5.42531
#
# Compressibility (1/GPa) = 0.04453530
#
# Stress axis : x y z
#
# Youngs Moduli (GPa) = 55.96008 24.30184 96.14929
#
# Poissons Ratio (x) = -0.01123 0.53854
# Poissons Ratio (y) = -0.02585 0.70217
# Poissons Ratio (z) = 0.31344 0.17747
#
# Static dielectric constant tensor:
#      x y z
#    x 1.940680 0.000000 -0.087010 
#    y 0.000000 1.919760 0.000000 
#    z -0.087010 0.000000 2.063360 
# 
# From -- ./inp_files/18966.got.cif
#   From: 2010.05.17/outbox.cif.g08.bks.cpg/sg14_10_cif.got.tgz:18966.got - 2010.06.03 17:49:19.
