data_PCOD9245262
_publ_section_title
;
Structure prediction by ZEFSAII (Michael W. Deem and Ramdas Pophale) SiO2 
 PCOD9245262
Probable space group: P 21/C
;
_chemical_formula_sum "Si O2"
_cell_formula_units_Z 28
_cell_length_a 21.880210
_cell_length_b 11.593523
_cell_length_c 27.812766
_cell_angle_alpha 90.000000
_cell_angle_beta 168.659299
_cell_angle_gamma 90.000000
_cell_volume 1387.359152
_symmetry_space_group_name_H-M "P 21/C"
_symmetry_group_IT_number 14
_symmetry_cell_setting 'monoclinic'
loop_
_space_group_symop_operation_xyz
x,y,z
-x,1/2+y,1/2-z
-x,-y,-z
x,1/2-y,1/2+z
loop_
_atom_site_type_symbol
_atom_site_label
_atom_site_fract_x
_atom_site_fract_y
_atom_site_fract_z
Si Si1 0.845095 0.097730 0.664478
Si Si2 0.681177 0.747733 0.780719
Si Si3 0.721678 0.247694 0.321193
Si Si4 0.950543 0.354294 0.351058
Si Si5 0.238585 0.597778 0.557973
Si Si6 0.493331 0.000014 0.828869
Si Si7 0.646421 0.854233 0.546913
O O1 0.629180 0.178425 0.466421
O O2 0.948252 0.165427 0.792365
O O3 0.647088 0.986899 0.529390
O O4 0.161826 0.041849 0.889038
O O5 0.613616 0.612241 0.725112
O O6 0.947262 0.781237 0.947271
O O7 0.824150 0.776714 0.943145
O O8 0.652658 0.321542 0.315403
O O9 0.461927 0.276639 0.080912
O O10 0.717553 0.112209 0.329030
O O11 0.606400 0.340038 0.106411
O O12 0.058941 0.486967 0.441276
O O13 0.474964 0.541861 0.702184
O O14 0.987138 0.665481 0.331224
#
# Coordination Sequence:
#
# PCOD9245262 Si02
#       7
#     4   4   4   4   4   4   4
#     4  10  21  37  60  88 120 155 200 247 296 345
#     4  11  22  40  63  87 122 163 198 241 302 359
#     4  11  22  40  63  87 122 163 198 241 302 359
#     4   9  18  35  60  90 116 148 199 246 290 352
#     4  10  21  37  60  88 120 155 200 247 296 345
#     4  10  25  38  59  92 124 156 198 252 297 356
#     4   9  18  35  60  90 116 148 199 246 290 352
#
# _framework density 20.182227999999999
#
# number of rings (size 3 to 8) (size 9 to 14) (size 15 to 20)
#    0.000    2.286    0.000    4.714    8.000    2.286 
#    0.000    1.429    0.000    5.143    0.000    0.000 
#    0.000    0.000    0.000    0.000    0.000    0.000 
#
# Total GULP energy -156308.591377 kJ/mol
# GULP energy per Si atom -5582.449692 kJ/mol
# Density = 2.013629 g / cm^3
# Si number density = 20.182228 Si / 1000 Ang^3
#
#
#
# Elastic Constant Matrix: (Units=GPa)
#
#
# Indices 1 2 3 4 5 6 
#
# 1 48.8196 15.2540 25.0682 0.0000 -3.2893 0.0000
# 2 15.2540 53.7424 16.1552 0.0000 -5.6014 0.0000
# 3 25.0682 16.1552 49.8201 0.0000 -3.1541 0.0000
# 4 0.0000 0.0000 0.0000 -29.4435 0.0000 -50.7818
# 5 -3.2893 -5.6014 -3.1541 0.0000 11.2787 0.0000
# 6 0.0000 0.0000 0.0000 -50.7818 0.0000 -37.5586
#
#
#
# Elastic Compliance Matrix: (Units=1/GPa)
#
#
# Indices 1 2 3 4 5 6 
#
# 1 0.028523 -0.003930 -0.012903 0.000000 0.002759 0.000000
# 2 -0.003930 0.021995 -0.004618 0.000000 0.008486 0.000000
# 3 -0.012903 -0.004618 0.028178 0.000000 0.001823 0.000000
# 4 0.000000 0.000000 0.000000 0.025499 0.000000 -0.034477
# 5 0.002759 0.008486 0.001823 0.000000 0.094192 0.000000
# 6 0.000000 0.000000 0.000000 -0.034477 0.000000 0.019990
#
#
# Mechanical properties :
#
#
# Convention : Reuss Voigt Hill
#
# Bulk Modulus (GPa) = 27.93715 29.48188 28.70951
# Shear Modulus (GPa) = 18.30101 -4.75103 6.77499
#
# Velocity S-wave (km/s) = 3.01456 -1.53596 1.83417
# Velocity P-wave (km/s) = 5.09797 3.39028 4.32916
#
# Compressibility (1/GPa) = 0.03579463
#
# Stress axis : x y z
#
# Youngs Moduli (GPa) = 35.05974 45.46427 35.48919
#
# Poissons Ratio (x) = 0.17865 0.45792
# Poissons Ratio (y) = 0.13777 0.16389
# Poissons Ratio (z) = 0.45238 0.20995
#
# Static dielectric constant tensor:
#      x y z
#    x 1.724830 0.000000 0.009480 
#    y 0.000000 1.715180 0.000000 
#    z 0.009480 0.000000 1.723240 
# 
# From -- ./inp_files/80662.got.cif
#   From: 2010.05.17/outbox.cif.g08.bks.cpg/sg14_41_cif.got.tgz:80662.got - 2010.06.03 17:49:19.
