data_PCOD9245013
_publ_section_title
;
Structure prediction by ZEFSAII (Michael W. Deem and Ramdas Pophale) SiO2 
 PCOD9245013
Probable space group: P 21/C
;
_chemical_formula_sum "Si O2"
_cell_formula_units_Z 16
_cell_length_a 19.453702
_cell_length_b 8.480951
_cell_length_c 5.409503
_cell_angle_alpha 90.000000
_cell_angle_beta 44.679898
_cell_angle_gamma 90.000000
_cell_volume 627.551315
_symmetry_space_group_name_H-M "P 21/C"
_symmetry_group_IT_number 14
_symmetry_cell_setting 'monoclinic'
loop_
_space_group_symop_operation_xyz
x,y,z
-x,1/2+y,1/2-z
-x,-y,-z
x,1/2-y,1/2+z
loop_
_atom_site_type_symbol
_atom_site_label
_atom_site_fract_x
_atom_site_fract_y
_atom_site_fract_z
Si Si1 0.769723 0.664055 0.210293
Si Si2 0.242118 0.703049 0.784373
Si Si3 0.533233 0.670358 0.823493
Si Si4 0.025792 0.827673 0.342174
O O1 0.802995 0.738317 0.385019
O O2 0.790120 0.478435 0.134804
O O3 0.651586 0.672114 0.515979
O O4 0.296375 0.748421 0.394700
O O5 0.143653 0.808261 0.032779
O O6 0.503135 0.710905 0.620796
O O7 0.500000 0.500000 0.000000
O O8 0.993189 0.710241 0.646547
O O9 0.000000 0.000000 0.500000
#
# Coordination Sequence:
#
# PCOD9245013 Si02
#       4
#     4   4   4   4
#     4  10  21  38  58  83 116 151 190 236 282 334
#     4  10  21  38  58  85 112 146 190 231 283 340
#     4  10  21  36  56  84 116 152 192 234 282 332
#     4  10  21  40  60  84 114 145 185 233 283 342
#
# _framework density 25.495923999999999
#
# number of rings (size 3 to 8) (size 9 to 14) (size 15 to 20)
#    0.000    2.000    0.000    3.000    0.000    2.000 
#    0.000   30.000    0.000    0.000    0.000    0.000 
#    0.000    0.000    0.000    0.000    0.000    0.000 
#
# Total GULP energy -89672.155449 kJ/mol
# GULP energy per Si atom -5604.509716 kJ/mol
# Density = 2.543789 g / cm^3
# Si number density = 25.495924 Si / 1000 Ang^3
#
#
#
# Elastic Constant Matrix: (Units=GPa)
#
#
# Indices 1 2 3 4 5 6 
#
# 1 109.3651 6.2826 45.7721 0.0000 31.4981 0.0000
# 2 6.2826 133.1681 26.5063 0.0000 30.0716 0.0000
# 3 45.7721 26.5063 144.1893 0.0000 29.9997 0.0000
# 4 0.0000 0.0000 0.0000 54.4952 0.0000 13.3323
# 5 31.4981 30.0716 29.9997 0.0000 62.0356 0.0000
# 6 0.0000 0.0000 0.0000 13.3323 0.0000 26.8595
#
#
#
# Elastic Compliance Matrix: (Units=1/GPa)
#
#
# Indices 1 2 3 4 5 6 
#
# 1 0.011766 0.001182 -0.002880 0.000000 -0.005154 0.000000
# 2 0.001182 0.008630 -0.001075 0.000000 -0.004264 0.000000
# 3 -0.002880 -0.001075 0.008489 0.000000 -0.002122 0.000000
# 4 0.000000 0.000000 0.000000 0.020887 0.000000 -0.010367
# 5 -0.005154 -0.004264 -0.002122 0.000000 0.021830 0.000000
# 6 0.000000 0.000000 0.000000 -0.010367 0.000000 0.042377
#
#
# Mechanical properties :
#
#
# Convention : Reuss Voigt Hill
#
# Bulk Modulus (GPa) = 42.84553 60.42717 51.63635
# Shear Modulus (GPa) = 39.27659 49.22216 44.24937
#
# Velocity S-wave (km/s) = 3.92918 4.39861 4.17051
# Velocity P-wave (km/s) = 6.11768 7.03912 6.59451
#
# Compressibility (1/GPa) = 0.02333966
#
# Stress axis : x y z
#
# Youngs Moduli (GPa) = 84.99413 115.87046 117.80617
#
# Poissons Ratio (x) = -0.13696 0.33926
# Poissons Ratio (y) = -0.10047 0.12659
# Poissons Ratio (z) = 0.24477 0.12451
#
# Static dielectric constant tensor:
#      x y z
#    x 2.081260 0.000000 0.004170 
#    y 0.000000 1.890970 0.000000 
#    z 0.004170 0.000000 2.065330 
# 
# From -- ./inp_files/3424.got.cif
#   From: 2010.05.17/outbox.cif.g08.bks.cpg/sg14_2_cif.got.tgz:3424.got - 2010.06.03 17:49:19.
