data_PCOD9245181
_publ_section_title
;
Structure prediction by ZEFSAII (Michael W. Deem and Ramdas Pophale) SiO2 
 PCOD9245181
Probable space group: P 21/C
;
_chemical_formula_sum "Si O2"
_cell_formula_units_Z 24
_cell_length_a 17.349477
_cell_length_b 7.658771
_cell_length_c 19.193044
_cell_angle_alpha 90.000000
_cell_angle_beta 159.435837
_cell_angle_gamma 90.000000
_cell_volume 895.804427
_symmetry_space_group_name_H-M "P 21/C"
_symmetry_group_IT_number 14
_symmetry_cell_setting 'monoclinic'
loop_
_space_group_symop_operation_xyz
x,y,z
-x,1/2+y,1/2-z
-x,-y,-z
x,1/2-y,1/2+z
loop_
_atom_site_type_symbol
_atom_site_label
_atom_site_fract_x
_atom_site_fract_y
_atom_site_fract_z
Si Si1 0.216059 0.885294 0.499279
Si Si2 0.245116 0.395075 0.414102
Si Si3 0.237503 0.328344 0.769281
Si Si4 0.295198 0.454298 0.218311
Si Si5 0.565649 0.113851 0.740696
Si Si6 0.267635 0.808699 0.269983
O O1 0.219661 0.987850 0.577188
O O2 0.263246 0.683187 0.557863
O O3 0.002082 0.940494 0.275071
O O4 0.435905 0.940883 0.645395
O O5 0.187718 0.288649 0.294350
O O6 0.437080 0.533889 0.559388
O O7 0.371022 0.259390 0.570123
O O8 0.142986 0.523423 0.695881
O O9 0.189578 0.222925 0.657837
O O10 0.502377 0.320885 0.994451
O O11 0.233461 0.604248 0.223577
O O12 0.680145 0.121086 0.763553
#
# Coordination Sequence:
#
# PCOD9245181 Si02
#       6
#     4   4   4   4   4   4
#     4  10  21  37  57  79 115 145 191 232 278 338
#     4   9  19  36  56  83 111 142 189 233 272 335
#     4   9  16  32  59  80 113 148 181 226 289 334
#     4   9  19  34  56  82 113 150 176 233 286 328
#     4   9  21  37  54  78 111 150 183 234 282 323
#     4   8  16  32  53  80 107 146 185 223 277 331
#
# _framework density 26.791561000000002
#
# number of rings (size 3 to 8) (size 9 to 14) (size 15 to 20)
#    0.000    3.667    0.000    2.000    2.333    3.333 
#    0.000    3.333    7.333    0.000    0.000    0.000 
#    0.000    0.000    0.000    0.000    0.000    0.000 
#
# Total GULP energy -133903.585982 kJ/mol
# GULP energy per Si atom -5579.316083 kJ/mol
# Density = 2.673058 g / cm^3
# Si number density = 26.791561 Si / 1000 Ang^3
#
#
#
# Elastic Constant Matrix: (Units=GPa)
#
#
# Indices 1 2 3 4 5 6 
#
# 1 30.4339 8.3792 3.7913 0.0000 -0.1644 0.0000
# 2 8.3792 69.1170 -16.2431 0.0000 -2.4278 0.0000
# 3 3.7913 -16.2431 119.5480 0.0000 16.0912 0.0000
# 4 0.0000 0.0000 0.0000 29.8054 0.0000 -2.2765
# 5 -0.1644 -2.4278 16.0912 0.0000 30.8499 0.0000
# 6 0.0000 0.0000 0.0000 -2.2765 0.0000 23.8401
#
#
#
# Elastic Compliance Matrix: (Units=1/GPa)
#
#
# Indices 1 2 3 4 5 6 
#
# 1 0.034344 -0.004563 -0.001813 0.000000 0.000769 0.000000
# 2 -0.004563 0.015552 0.002255 0.000000 0.000024 0.000000
# 3 -0.001813 0.002255 0.009363 0.000000 -0.004716 0.000000
# 4 0.000000 0.000000 0.000000 0.033797 0.000000 0.003227
# 5 0.000769 0.000024 -0.004716 0.000000 0.034881 0.000000
# 6 0.000000 0.000000 0.000000 0.003227 0.000000 0.042254
#
#
# Mechanical properties :
#
#
# Convention : Reuss Voigt Hill
#
# Bulk Modulus (GPa) = 19.60078 23.43931 21.52004
# Shear Modulus (GPa) = 25.58328 31.77716 28.68022
#
# Velocity S-wave (km/s) = 3.09350 3.44770 3.27539
# Velocity P-wave (km/s) = 4.48236 4.96151 4.72801
#
# Compressibility (1/GPa) = 0.05101839
#
# Stress axis : x y z
#
# Youngs Moduli (GPa) = 29.11691 64.30029 106.79811
#
# Poissons Ratio (x) = 0.29338 0.19359
# Poissons Ratio (y) = 0.13285 -0.24079
# Poissons Ratio (z) = 0.05278 -0.14497
#
# Static dielectric constant tensor:
#      x y z
#    x 2.148070 0.000000 0.068550 
#    y 0.000000 2.236650 0.000000 
#    z 0.068550 0.000000 2.239410 
# 
# From -- ./inp_files/69809.got.cif
#   From: 2010.05.17/outbox.cif.g08.bks.cpg/sg14_35_cif.got.tgz:69809.got - 2010.06.03 17:49:19.
