data_PCOD9245808
_publ_section_title
;
Structure prediction by ZEFSAII (Michael W. Deem and Ramdas Pophale) SiO2 
 PCOD9245808
Probable space group: P 21/C
;
_chemical_formula_sum "Si O2"
_cell_formula_units_Z 28
_cell_length_a 9.488868
_cell_length_b 23.720985
_cell_length_c 7.524274
_cell_angle_alpha 90.000000
_cell_angle_beta 144.312719
_cell_angle_gamma 90.000000
_cell_volume 987.982065
_symmetry_space_group_name_H-M "P 21/C"
_symmetry_group_IT_number 14
_symmetry_cell_setting 'monoclinic'
loop_
_space_group_symop_operation_xyz
x,y,z
-x,1/2+y,1/2-z
-x,-y,-z
x,1/2-y,1/2+z
loop_
_atom_site_type_symbol
_atom_site_label
_atom_site_fract_x
_atom_site_fract_y
_atom_site_fract_z
Si Si1 0.520039 0.218946 0.537562
Si Si2 0.680038 0.051432 0.118658
Si Si3 0.590505 0.058100 0.399338
Si Si4 0.767136 0.649102 0.545454
Si Si5 0.098163 0.036318 0.265346
Si Si6 0.904765 0.140397 0.926329
Si Si7 0.597142 0.667038 0.737710
O O1 0.431388 0.187215 0.266393
O O2 0.547280 0.283325 0.514743
O O3 0.766640 0.192403 0.865632
O O4 0.341685 0.198951 0.514275
O O5 0.757241 0.070630 0.396815
O O6 0.548165 0.107694 0.907621
O O7 0.909173 0.032830 0.235439
O O8 0.500000 0.000000 0.000000
O O9 0.334303 0.085560 0.092897
O O10 0.701891 0.092964 0.674728
O O11 0.633404 0.991232 0.460611
O O12 0.995723 0.660321 0.659565
O O13 0.795828 0.657216 0.784896
O O14 0.099133 0.102541 0.227428
O O15 0.000000 0.000000 0.000000
#
# Coordination Sequence:
#
# PCOD9245808 Si02
#       7
#     4   4   4   4   4   4   4
#     4  11  22  47  68  98 137 179 226 298 349 406
#     4  11  24  42  67 100 137 186 234 282 355 427
#     4   9  22  39  66  92 137 179 218 283 333 402
#     4  10  23  43  67 102 136 181 228 281 347 415
#     4  10  21  39  62  95 134 176 224 279 339 411
#     4  10  22  44  67  96 137 174 233 278 349 418
#     4  11  23  44  72  97 140 178 228 293 350 413
#
# _framework density 28.340595
#
# number of rings (size 3 to 8) (size 9 to 14) (size 15 to 20)
#    0.000    1.714    2.857    0.429    8.000    1.714 
#    5.143    0.000    0.000    0.000    0.000    0.000 
#    0.000    0.000    0.000    0.000    0.000    0.000 
#
# Total GULP energy -156264.149731 kJ/mol
# GULP energy per Si atom -5580.862490 kJ/mol
# Density = 2.827609 g / cm^3
# Si number density = 28.340595 Si / 1000 Ang^3
#
#
#
# Elastic Constant Matrix: (Units=GPa)
#
#
# Indices 1 2 3 4 5 6 
#
# 1 188.0372 21.7478 11.4764 0.0000 -5.5702 0.0000
# 2 21.7478 179.6198 18.6896 0.0000 9.8860 0.0000
# 3 11.4764 18.6896 36.9565 0.0000 -3.5374 0.0000
# 4 0.0000 0.0000 0.0000 25.8087 0.0000 -6.3003
# 5 -5.5702 9.8860 -3.5374 0.0000 43.4204 0.0000
# 6 0.0000 0.0000 0.0000 -6.3003 0.0000 43.2520
#
#
#
# Elastic Compliance Matrix: (Units=1/GPa)
#
#
# Indices 1 2 3 4 5 6 
#
# 1 0.005487 -0.000564 -0.001350 0.000000 0.000722 0.000000
# 2 -0.000564 0.006046 -0.003045 0.000000 -0.001697 0.000000
# 3 -0.001350 -0.003045 0.029296 0.000000 0.002907 0.000000
# 4 0.000000 0.000000 0.000000 0.040175 0.000000 0.005852
# 5 0.000722 -0.001697 0.002907 0.000000 0.023746 0.000000
# 6 0.000000 0.000000 0.000000 0.005852 0.000000 0.023973
#
#
# Mechanical properties :
#
#
# Convention : Reuss Voigt Hill
#
# Bulk Modulus (GPa) = 32.34949 56.49344 44.42147
# Shear Modulus (GPa) = 33.56966 46.00953 39.78960
#
# Velocity S-wave (km/s) = 3.44540 4.03358 3.75104
# Velocity P-wave (km/s) = 5.22179 6.45523 5.87099
#
# Compressibility (1/GPa) = 0.03091239
#
# Stress axis : x y z
#
# Youngs Moduli (GPa) = 182.24690 165.40479 34.13427
#
# Poissons Ratio (x) = 0.09323 0.04607
# Poissons Ratio (y) = 0.10273 0.10393
# Poissons Ratio (z) = 0.24599 0.50363
#
# Static dielectric constant tensor:
#      x y z
#    x 2.245430 0.000000 -0.161970 
#    y 0.000000 2.257720 0.000000 
#    z -0.161970 0.000000 2.408150 
# 
# From -- ./inp_files/11101.got.cif
#   From: 2010.05.17/outbox.cif.g08.bks.cpg/sg14_6_cif.got.tgz:11101.got - 2010.06.03 17:49:19.
