data_PCOD9245015
_publ_section_title
;
Structure prediction by ZEFSAII (Michael W. Deem and Ramdas Pophale) SiO2 
 PCOD9245015
Probable space group: P 21/C
;
_chemical_formula_sum "Si O2"
_cell_formula_units_Z 24
_cell_length_a 5.138215
_cell_length_b 18.730179
_cell_length_c 10.144000
_cell_angle_alpha 90.000000
_cell_angle_beta 78.314080
_cell_angle_gamma 90.000000
_cell_volume 956.020160
_symmetry_space_group_name_H-M "P 21/C"
_symmetry_group_IT_number 14
_symmetry_cell_setting 'monoclinic'
loop_
_space_group_symop_operation_xyz
x,y,z
-x,1/2+y,1/2-z
-x,-y,-z
x,1/2-y,1/2+z
loop_
_atom_site_type_symbol
_atom_site_label
_atom_site_fract_x
_atom_site_fract_y
_atom_site_fract_z
Si Si1 0.046901 0.785558 0.644719
Si Si2 0.767510 0.185205 0.639839
Si Si3 0.072223 0.434317 0.396965
Si Si4 0.477009 0.123577 0.322585
Si Si5 0.518051 0.414644 0.514710
Si Si6 0.270875 0.409502 0.109417
O O1 0.131393 0.729802 0.746480
O O2 0.170177 0.764577 0.491677
O O3 0.226437 0.853656 0.668367
O O4 0.740684 0.810859 0.659021
O O5 0.476407 0.150908 0.645756
O O6 0.980309 0.121477 0.607593
O O7 0.274120 0.384521 0.456246
O O8 0.207001 0.456997 0.245393
O O9 0.000000 0.500000 0.500000
O O10 0.790977 0.395828 0.415162
O O11 0.488805 0.099221 0.171145
O O12 0.381670 0.072034 0.452364
O O13 0.500000 0.500000 0.500000
#
# Coordination Sequence:
#
# PCOD9245015 Si02
#       6
#     4   4   4   4   4   4
#     4  10  21  36  56  85 116 151 193 236 287 348
#     4  10  21  36  56  85 116 151 193 236 287 348
#     4  10  21  38  58  85 114 146 195 245 289 345
#     4  10  21  38  58  82 117 155 192 237 292 347
#     4  10  21  38  58  85 114 146 195 245 289 345
#     4  10  21  38  58  82 117 155 192 237 292 347
#
# _framework density 25.104071999999999
#
# number of rings (size 3 to 8) (size 9 to 14) (size 15 to 20)
#    0.000    2.000    0.000    3.000    0.000    4.000 
#    0.000    6.667    0.000    0.000    0.000    0.000 
#    0.000    0.000    0.000    0.000    0.000    0.000 
#
# Total GULP energy -133874.154560 kJ/mol
# GULP energy per Si atom -5578.089773 kJ/mol
# Density = 2.504693 g / cm^3
# Si number density = 25.104072 Si / 1000 Ang^3
#
#
#
# Elastic Constant Matrix: (Units=GPa)
#
#
# Indices 1 2 3 4 5 6 
#
# 1 148.9629 -11.5326 -32.4649 0.0000 3.9143 0.0000
# 2 -11.5326 19.9488 4.0919 0.0000 -7.2361 0.0000
# 3 -32.4649 4.0919 98.8425 0.0000 -7.0558 0.0000
# 4 0.0000 0.0000 0.0000 36.0694 0.0000 10.3117
# 5 3.9143 -7.2361 -7.0558 0.0000 37.0483 0.0000
# 6 0.0000 0.0000 0.0000 10.3117 0.0000 8.5765
#
#
#
# Elastic Compliance Matrix: (Units=1/GPa)
#
#
# Indices 1 2 3 4 5 6 
#
# 1 0.007522 0.004028 0.002335 0.000000 0.000437 0.000000
# 2 0.004028 0.056328 -0.000257 0.000000 0.010527 0.000000
# 3 0.002335 -0.000257 0.011023 0.000000 0.001802 0.000000
# 4 0.000000 0.000000 0.000000 0.042245 0.000000 -0.050792
# 5 0.000437 0.010527 0.001802 0.000000 0.029345 0.000000
# 6 0.000000 0.000000 0.000000 -0.050792 0.000000 0.177665
#
#
# Mechanical properties :
#
#
# Convention : Reuss Voigt Hill
#
# Bulk Modulus (GPa) = 11.48286 20.88254 16.18270
# Shear Modulus (GPa) = 14.66510 36.84951 25.75731
#
# Velocity S-wave (km/s) = 2.41959 3.83544 3.20663
# Velocity P-wave (km/s) = 3.51993 5.28683 4.49113
#
# Compressibility (1/GPa) = 0.08708631
#
# Stress axis : x y z
#
# Youngs Moduli (GPa) = 132.93650 17.75302 90.71605
#
# Poissons Ratio (x) = -0.07151 -0.21184
# Poissons Ratio (y) = -0.53549 0.02334
# Poissons Ratio (z) = -0.31043 0.00457
#
# Static dielectric constant tensor:
#      x y z
#    x 2.161750 0.000000 0.007670 
#    y 0.000000 1.834180 0.000000 
#    z 0.007670 0.000000 2.013980 
# 
# From -- ./inp_files/6240.got.cif
#   From: 2010.05.17/outbox.cif.g08.bks.cpg/sg14_4_cif.got.tgz:6240.got - 2010.06.03 17:49:19.
