data_PCOD9245071
_publ_section_title
;
Structure prediction by ZEFSAII (Michael W. Deem and Ramdas Pophale) SiO2 
 PCOD9245071
Probable space group: P 21/C
;
_chemical_formula_sum "Si O2"
_cell_formula_units_Z 28
_cell_length_a 10.749689
_cell_length_b 11.045276
_cell_length_c 11.235341
_cell_angle_alpha 90.000000
_cell_angle_beta 52.142329
_cell_angle_gamma 90.000000
_cell_volume 1053.250315
_symmetry_space_group_name_H-M "P 21/C"
_symmetry_group_IT_number 14
_symmetry_cell_setting 'monoclinic'
loop_
_space_group_symop_operation_xyz
x,y,z
-x,1/2+y,1/2-z
-x,-y,-z
x,1/2-y,1/2+z
loop_
_atom_site_type_symbol
_atom_site_label
_atom_site_fract_x
_atom_site_fract_y
_atom_site_fract_z
Si Si1 0.451253 0.592872 0.383074
Si Si2 0.316139 0.597302 0.802731
Si Si3 0.678929 0.665701 0.038219
Si Si4 0.937252 0.656818 0.364505
Si Si5 0.411411 0.849768 0.508555
Si Si6 0.786924 0.372914 0.656536
Si Si7 0.018245 0.579255 0.819414
O O1 0.556456 0.475671 0.351148
O O2 0.399282 0.704042 0.497028
O O3 0.294689 0.554637 0.401103
O O4 0.574481 0.655794 0.217073
O O5 0.390048 0.588519 0.893064
O O6 0.289618 0.740976 0.813801
O O7 0.145265 0.563465 0.848809
O O8 0.574827 0.636630 0.983947
O O9 0.759007 0.797172 0.976417
O O10 0.835875 0.585901 0.963993
O O11 0.025969 0.636138 0.438792
O O12 0.027582 0.780744 0.262350
O O13 0.956508 0.536208 0.278129
O O14 0.280599 0.904543 0.674094
#
# Coordination Sequence:
#
# PCOD9245071 Si02
#       7
#     4   4   4   4   4   4   4
#     4  10  21  36  59  89 116 157 206 247 296 364
#     4  10  21  37  57  92 116 152 211 249 297 358
#     4   9  21  37  60  88 119 156 202 253 299 363
#     4   9  19  37  60  87 121 159 198 247 308 351
#     4  10  21  38  58  84 120 162 195 244 311 359
#     4   9  21  39  56  87 125 154 196 256 305 359
#     4   9  20  37  59  92 120 156 202 255 296 363
#
# _framework density 26.584371999999998
#
# number of rings (size 3 to 8) (size 9 to 14) (size 15 to 20)
#    0.857    1.714    0.000    0.857    4.000    2.286 
#    2.571    4.286    0.000    0.857    0.000    0.000 
#    0.000    0.000    0.000    0.000    0.000    0.000 
#
# Total GULP energy -156248.092497 kJ/mol
# GULP energy per Si atom -5580.289018 kJ/mol
# Density = 2.652387 g / cm^3
# Si number density = 26.584372 Si / 1000 Ang^3
#
#
#
# Elastic Constant Matrix: (Units=GPa)
#
#
# Indices 1 2 3 4 5 6 
#
# 1 161.2078 38.7329 49.8628 0.0000 -23.2153 0.0000
# 2 38.7329 140.7809 22.4946 0.0000 12.4908 0.0000
# 3 49.8628 22.4946 54.0625 0.0000 -7.1506 0.0000
# 4 0.0000 0.0000 0.0000 46.9675 0.0000 2.6186
# 5 -23.2153 12.4908 -7.1506 0.0000 37.3462 0.0000
# 6 0.0000 0.0000 0.0000 2.6186 0.0000 53.7880
#
#
#
# Elastic Compliance Matrix: (Units=1/GPa)
#
#
# Indices 1 2 3 4 5 6 
#
# 1 0.009746 -0.001955 -0.007477 0.000000 0.005281 0.000000
# 2 -0.001955 0.008402 -0.002283 0.000000 -0.004463 0.000000
# 3 -0.007477 -0.002283 0.026500 0.000000 0.001190 0.000000
# 4 0.000000 0.000000 0.000000 0.021349 0.000000 -0.001039
# 5 0.005281 -0.004463 0.001190 0.000000 0.031779 0.000000
# 6 0.000000 0.000000 0.000000 -0.001039 0.000000 0.018642
#
#
# Mechanical properties :
#
#
# Convention : Reuss Voigt Hill
#
# Bulk Modulus (GPa) = 47.12897 64.24798 55.68848
# Shear Modulus (GPa) = 34.03164 43.95108 38.99136
#
# Velocity S-wave (km/s) = 3.58178 4.07045 3.83391
# Velocity P-wave (km/s) = 5.90526 6.80525 6.37117
#
# Compressibility (1/GPa) = 0.02121837
#
# Stress axis : x y z
#
# Youngs Moduli (GPa) = 102.60490 119.02092 37.73526
#
# Poissons Ratio (x) = 0.23272 0.28215
# Poissons Ratio (y) = 0.20062 0.08614
# Poissons Ratio (z) = 0.76718 0.27170
#
# Static dielectric constant tensor:
#      x y z
#    x 2.082420 0.000000 0.007510 
#    y 0.000000 2.240450 0.000000 
#    z 0.007510 0.000000 2.171510 
# 
# From -- ./inp_files/44025.got.cif
#   From: 2010.05.17/outbox.cif.g08.bks.cpg/sg14_23_cif.got.tgz:44025.got - 2010.06.03 17:49:19.
