data_PCOD9245139
_publ_section_title
;
Structure prediction by ZEFSAII (Michael W. Deem and Ramdas Pophale) SiO2 
 PCOD9245139
Probable space group: P 21/C
;
_chemical_formula_sum "Si O2"
_cell_formula_units_Z 24
_cell_length_a 5.316980
_cell_length_b 14.173837
_cell_length_c 13.017556
_cell_angle_alpha 90.000000
_cell_angle_beta 70.655481
_cell_angle_gamma 90.000000
_cell_volume 925.644034
_symmetry_space_group_name_H-M "P 21/C"
_symmetry_group_IT_number 14
_symmetry_cell_setting 'monoclinic'
loop_
_space_group_symop_operation_xyz
x,y,z
-x,1/2+y,1/2-z
-x,-y,-z
x,1/2-y,1/2+z
loop_
_atom_site_type_symbol
_atom_site_label
_atom_site_fract_x
_atom_site_fract_y
_atom_site_fract_z
Si Si1 0.165182 0.167041 0.454266
Si Si2 0.095225 0.089461 0.258348
Si Si3 0.324199 0.230051 0.630269
Si Si4 0.525447 0.186594 0.813175
Si Si5 0.787184 0.340631 0.467897
Si Si6 0.692842 0.489856 0.646731
O O1 0.974358 0.257857 0.481092
O O2 0.046839 0.094712 0.387704
O O3 0.219836 0.149881 0.566741
O O4 0.431024 0.209451 0.362422
O O5 0.118579 0.198149 0.212956
O O6 0.386185 0.042402 0.204973
O O7 0.874386 0.040785 0.217831
O O8 0.520808 0.191327 0.691325
O O9 0.492954 0.300017 0.535446
O O10 0.314385 0.102312 0.863892
O O11 0.777502 0.155093 0.846015
O O12 0.791190 0.435780 0.531681
#
# Coordination Sequence:
#
# PCOD9245139 Si02
#       6
#     4   4   4   4   4   4
#     4  10  21  38  63  88 115 163 208 251 290 365
#     4  10  23  39  62  86 126 161 203 245 305 359
#     4   9  20  40  57  90 114 165 203 251 291 368
#     4  10  23  37  62  87 125 157 203 250 311 356
#     4  10  21  36  64  87 121 155 208 251 299 357
#     4  11  23  42  59  95 126 160 193 257 309 357
#
# _framework density 25.927896
#
# number of rings (size 3 to 8) (size 9 to 14) (size 15 to 20)
#    0.000    2.000    1.667    0.500   11.667    0.667 
#    0.000    1.667    0.000    0.000    0.000    0.000 
#    0.000    0.000    0.000    0.000    0.000    0.000 
#
# Total GULP energy -134149.013326 kJ/mol
# GULP energy per Si atom -5589.542222 kJ/mol
# Density = 2.586888 g / cm^3
# Si number density = 25.927896 Si / 1000 Ang^3
#
#
#
# Elastic Constant Matrix: (Units=GPa)
#
#
# Indices 1 2 3 4 5 6 
#
# 1 86.1135 3.6023 22.3352 0.0000 27.0670 0.0000
# 2 3.6023 43.8112 5.2674 0.0000 -2.1421 0.0000
# 3 22.3352 5.2674 134.6705 0.0000 55.3347 0.0000
# 4 0.0000 0.0000 0.0000 17.5245 0.0000 -5.0339
# 5 27.0670 -2.1421 55.3347 0.0000 53.6643 0.0000
# 6 0.0000 0.0000 0.0000 -5.0339 0.0000 33.0421
#
#
#
# Elastic Compliance Matrix: (Units=1/GPa)
#
#
# Indices 1 2 3 4 5 6 
#
# 1 0.014000 -0.001699 0.001169 0.000000 -0.008335 0.000000
# 2 -0.001699 0.023459 -0.002382 0.000000 0.004249 0.000000
# 3 0.001169 -0.002382 0.013198 0.000000 -0.014293 0.000000
# 4 0.000000 0.000000 0.000000 0.059674 0.000000 0.009091
# 5 -0.008335 0.004249 -0.014293 0.000000 0.037746 0.000000
# 6 0.000000 0.000000 0.000000 0.009091 0.000000 0.031650
#
#
# Mechanical properties :
#
#
# Convention : Reuss Voigt Hill
#
# Bulk Modulus (GPa) = 22.30478 36.33388 29.31933
# Shear Modulus (GPa) = 24.93826 36.40554 30.67190
#
# Velocity S-wave (km/s) = 3.10470 3.75121 3.44316
# Velocity P-wave (km/s) = 4.63396 5.72765 5.20958
#
# Compressibility (1/GPa) = 0.04483343
#
# Stress axis : x y z
#
# Youngs Moduli (GPa) = 71.42762 42.62748 75.77033
#
# Poissons Ratio (x) = 0.07243 -0.08859
# Poissons Ratio (y) = 0.12137 0.18047
# Poissons Ratio (z) = -0.08351 0.10153
#
# Static dielectric constant tensor:
#      x y z
#    x 2.125990 0.000000 -0.034770 
#    y 0.000000 2.002800 0.000000 
#    z -0.034770 0.000000 2.105520 
# 
# From -- ./inp_files/21214.got.cif
#   From: 2010.05.17/outbox.cif.g08.bks.cpg/sg14_11_cif.got.tgz:21214.got - 2010.06.03 17:49:19.
