data_PCOD9245478
_publ_section_title
;
Structure prediction by ZEFSAII (Michael W. Deem and Ramdas Pophale) SiO2 
 PCOD9245478
Probable space group: P 21/C
;
_chemical_formula_sum "Si O2"
_cell_formula_units_Z 28
_cell_length_a 16.705432
_cell_length_b 9.784833
_cell_length_c 9.866140
_cell_angle_alpha 90.000000
_cell_angle_beta 109.629357
_cell_angle_gamma 90.000000
_cell_volume 1518.995514
_symmetry_space_group_name_H-M "P 21/C"
_symmetry_group_IT_number 14
_symmetry_cell_setting 'monoclinic'
loop_
_space_group_symop_operation_xyz
x,y,z
-x,1/2+y,1/2-z
-x,-y,-z
x,1/2-y,1/2+z
loop_
_atom_site_type_symbol
_atom_site_label
_atom_site_fract_x
_atom_site_fract_y
_atom_site_fract_z
Si Si1 0.568958 0.883975 0.699344
Si Si2 0.912891 0.086359 0.979239
Si Si3 0.568221 0.885232 0.377439
Si Si4 0.064186 0.493169 0.912929
Si Si5 0.762097 0.614011 0.987073
Si Si6 0.763411 0.615977 0.308958
Si Si7 0.955363 0.264680 0.764673
O O1 0.561220 0.853145 0.534119
O O2 0.555012 0.749234 0.780345
O O3 0.666290 0.931116 0.779219
O O4 0.500654 0.999684 0.694131
O O5 0.833992 0.994053 0.890087
O O6 0.956608 0.845032 0.664540
O O7 0.907368 0.135952 0.131810
O O8 0.000000 0.000000 0.000000
O O9 0.665393 0.933564 0.408055
O O10 0.163396 0.492785 0.002874
O O11 0.082659 0.777442 0.111771
O O12 0.039464 0.618117 0.803449
O O13 0.000000 0.500000 0.000000
O O14 0.776530 0.747553 0.903950
O O15 0.768993 0.644686 0.151555
#
# Coordination Sequence:
#
# PCOD9245478 Si02
#       7
#     4   4   4   4   4   4   4
#     4   9  19  38  61  89 115 153 188 241 285 351
#     4  12  23  39  57  82 117 152 192 239 285 340
#     4   9  19  38  61  87 118 148 193 234 295 341
#     4  12  25  38  59  86 115 152 200 239 288 339
#     4  10  21  38  62  83 116 154 194 235 286 351
#     4  10  21  38  61  86 116 153 197 235 291 343
#     4  12  24  39  57  81 113 151 191 239 287 334
#
# _framework density 18.433233999999999
#
# number of rings (size 3 to 8) (size 9 to 14) (size 15 to 20)
#    0.000    1.429    4.286    0.857    2.000    0.571 
#    2.571    0.000    0.000    0.000    0.000    0.000 
#    0.000    0.000    0.000    0.000    0.000    0.000 
#
# Total GULP energy -156170.345504 kJ/mol
# GULP energy per Si atom -5577.512339 kJ/mol
# Density = 1.839128 g / cm^3
# Si number density = 18.433234 Si / 1000 Ang^3
#
#
#
# Elastic Constant Matrix: (Units=GPa)
#
#
# Indices 1 2 3 4 5 6 
#
# 1 132.9315 75.8644 49.0765 0.0000 13.0497 0.0000
# 2 75.8644 85.8136 28.2419 0.0000 16.1312 0.0000
# 3 49.0765 28.2419 68.9725 0.0000 12.6884 0.0000
# 4 0.0000 0.0000 0.0000 37.9485 0.0000 -2.9264
# 5 13.0497 16.1312 12.6884 0.0000 20.5780 0.0000
# 6 0.0000 0.0000 0.0000 -2.9264 0.0000 33.8737
#
#
#
# Elastic Compliance Matrix: (Units=1/GPa)
#
#
# Indices 1 2 3 4 5 6 
#
# 1 0.018160 -0.014314 -0.007902 0.000000 0.004577 0.000000
# 2 -0.014314 0.026055 0.001809 0.000000 -0.012463 0.000000
# 3 -0.007902 0.001809 0.021115 0.000000 -0.009426 0.000000
# 4 0.000000 0.000000 0.000000 0.026528 0.000000 0.002292
# 5 0.004577 -0.012463 -0.009426 0.000000 0.061274 0.000000
# 6 0.000000 0.000000 0.000000 0.002292 0.000000 0.029719
#
#
# Mechanical properties :
#
#
# Convention : Reuss Voigt Hill
#
# Bulk Modulus (GPa) = 40.79168 66.00924 53.40046
# Shear Modulus (GPa) = 21.56675 27.44904 24.50789
#
# Velocity S-wave (km/s) = 3.42423 3.86308 3.65025
# Velocity P-wave (km/s) = 6.14908 7.46897 6.84093
#
# Compressibility (1/GPa) = 0.02451480
#
# Stress axis : x y z
#
# Youngs Moduli (GPa) = 55.06631 38.38009 47.36052
#
# Poissons Ratio (x) = 0.54938 0.37426
# Poissons Ratio (y) = 0.78823 -0.08568
# Poissons Ratio (z) = 0.43515 -0.06943
#
# Static dielectric constant tensor:
#      x y z
#    x 1.667110 0.000000 -0.050800 
#    y 0.000000 1.621690 0.000000 
#    z -0.050800 0.000000 1.728550 
# 
# From -- ./inp_files/15378.got.cif
#   From: 2010.05.17/outbox.cif.g08.bks.cpg/sg14_8_cif.got.tgz:15378.got - 2010.06.03 17:49:19.
