data_PCOD9245309
_publ_section_title
;
Structure prediction by ZEFSAII (Michael W. Deem and Ramdas Pophale) SiO2 
 PCOD9245309
Probable space group: P 21/C
;
_chemical_formula_sum "Si O2"
_cell_formula_units_Z 20
_cell_length_a 7.624830
_cell_length_b 24.301448
_cell_length_c 5.073648
_cell_angle_alpha 90.000000
_cell_angle_beta 70.846295
_cell_angle_gamma 90.000000
_cell_volume 888.075324
_symmetry_space_group_name_H-M "P 21/C"
_symmetry_group_IT_number 14
_symmetry_cell_setting 'monoclinic'
loop_
_space_group_symop_operation_xyz
x,y,z
-x,1/2+y,1/2-z
-x,-y,-z
x,1/2-y,1/2+z
loop_
_atom_site_type_symbol
_atom_site_label
_atom_site_fract_x
_atom_site_fract_y
_atom_site_fract_z
Si Si1 0.555814 0.104568 0.023201
Si Si2 0.283982 0.786237 0.238716
Si Si3 0.100458 0.973043 0.701996
Si Si4 0.652171 0.566067 0.872609
Si Si5 0.953268 0.386314 0.152417
O O1 0.564789 0.167803 0.920007
O O2 0.424466 0.073298 0.882729
O O3 0.772019 0.087248 0.888569
O O4 0.482632 0.094316 0.349588
O O5 0.297461 0.763023 0.524901
O O6 0.093852 0.821781 0.310986
O O7 0.073350 0.909491 0.634047
O O8 0.300837 0.001936 0.598749
O O9 0.000000 0.000000 0.500000
O O10 0.000000 0.000000 0.000000
O O11 0.849793 0.597349 0.825162
#
# Coordination Sequence:
#
# PCOD9245309 Si02
#       5
#     4   4   4   4   4
#     4  10  24  38  65  90 123 164 208 255 306 365
#     4  10  22  43  63  86 124 161 207 267 313 352
#     4  10  21  37  62  94 130 165 195 254 306 368
#     4  11  21  41  63  95 127 163 206 248 309 384
#     4   9  24  41  65  91 131 162 207 256 308 367
#
# _framework density 22.520612
#
# number of rings (size 3 to 8) (size 9 to 14) (size 15 to 20)
#    1.200    0.800    0.000    3.600    0.000   11.200 
#    0.000    6.000    0.000    0.000    0.000    0.000 
#    0.000    0.000    0.000    0.000    0.000    0.000 
#
# Total GULP energy -111621.296486 kJ/mol
# GULP energy per Si atom -5581.064824 kJ/mol
# Density = 2.246935 g / cm^3
# Si number density = 22.520612 Si / 1000 Ang^3
#
#
#
# Elastic Constant Matrix: (Units=GPa)
#
#
# Indices 1 2 3 4 5 6 
#
# 1 100.4486 -2.5770 5.0944 0.0000 -11.0301 0.0000
# 2 -2.5770 70.9438 -6.9542 0.0000 -7.1976 0.0000
# 3 5.0944 -6.9542 99.9143 0.0000 -8.2312 0.0000
# 4 0.0000 0.0000 0.0000 43.1629 0.0000 3.6059
# 5 -11.0301 -7.1976 -8.2312 0.0000 34.9315 0.0000
# 6 0.0000 0.0000 0.0000 3.6059 0.0000 36.1182
#
#
#
# Elastic Compliance Matrix: (Units=1/GPa)
#
#
# Indices 1 2 3 4 5 6 
#
# 1 0.010353 0.000698 -0.000202 0.000000 0.003365 0.000000
# 2 0.000698 0.014604 0.001272 0.000000 0.003529 0.000000
# 3 -0.000202 0.001272 0.010324 0.000000 0.002631 0.000000
# 4 0.000000 0.000000 0.000000 0.023363 0.000000 -0.002332
# 5 0.003365 0.003529 0.002631 0.000000 0.031037 0.000000
# 6 0.000000 0.000000 0.000000 -0.002332 0.000000 0.027920
#
#
# Mechanical properties :
#
#
# Convention : Reuss Voigt Hill
#
# Bulk Modulus (GPa) = 25.76306 29.15923 27.46115
# Shear Modulus (GPa) = 39.36862 41.22542 40.29702
#
# Velocity S-wave (km/s) = 4.18558 4.28315 4.23465
# Velocity P-wave (km/s) = 5.90114 6.11853 6.01082
#
# Compressibility (1/GPa) = 0.03881526
#
# Stress axis : x y z
#
# Youngs Moduli (GPa) = 96.59014 68.47584 96.86047
#
# Poissons Ratio (x) = -0.04777 0.01957
# Poissons Ratio (y) = -0.06739 -0.12317
# Poissons Ratio (z) = 0.01952 -0.08707
#
# Static dielectric constant tensor:
#      x y z
#    x 1.873690 0.000000 -0.018050 
#    y 0.000000 1.919680 0.000000 
#    z -0.018050 0.000000 1.940790 
# 
# From -- ./inp_files/1776.got.cif
#   From: 2010.05.17/outbox.cif.g08.bks.cpg/sg14_1_cif.got.tgz:1776.got - 2010.06.03 17:49:19.
