data_PCOD9245249
_publ_section_title
;
Structure prediction by ZEFSAII (Michael W. Deem and Ramdas Pophale) SiO2 
 PCOD9245249
Probable space group: P 21/C
;
_chemical_formula_sum "Si O2"
_cell_formula_units_Z 32
_cell_length_a 11.876435
_cell_length_b 9.278440
_cell_length_c 20.235519
_cell_angle_alpha 90.000000
_cell_angle_beta 134.696275
_cell_angle_gamma 90.000000
_cell_volume 1585.077292
_symmetry_space_group_name_H-M "P 21/C"
_symmetry_group_IT_number 14
_symmetry_cell_setting 'monoclinic'
loop_
_space_group_symop_operation_xyz
x,y,z
-x,1/2+y,1/2-z
-x,-y,-z
x,1/2-y,1/2+z
loop_
_atom_site_type_symbol
_atom_site_label
_atom_site_fract_x
_atom_site_fract_y
_atom_site_fract_z
Si Si1 0.626510 0.444104 0.659384
Si Si2 0.225799 0.442220 0.143350
Si Si3 0.266666 0.755868 0.599511
Si Si4 0.247209 0.466620 0.785918
Si Si5 0.477475 0.823016 0.310643
Si Si6 0.999156 0.194530 0.099009
Si Si7 0.781254 0.279154 0.132380
Si Si8 0.507373 0.744701 0.577734
O O1 0.702804 0.512349 0.756380
O O2 0.511791 0.319469 0.640229
O O3 0.756150 0.358169 0.669902
O O4 0.540019 0.574006 0.586653
O O5 0.193090 0.589400 0.089808
O O6 0.359672 0.363208 0.155835
O O7 0.092046 0.328302 0.105701
O O8 0.349421 0.700608 0.699694
O O9 0.407293 0.770243 0.603751
O O10 0.134053 0.656049 0.510448
O O11 0.400296 0.550537 0.821269
O O12 0.125229 0.420905 0.678284
O O13 0.173861 0.579572 0.807407
O O14 0.324337 0.324968 0.850169
O O15 0.902411 0.245776 0.123873
O O16 0.607974 0.299340 0.027515
#
# Coordination Sequence:
#
# PCOD9245249 Si02
#       8
#     4   4   4   4   4   4   4   4
#     4  10  21  37  63  89 119 158 205 254 303 357
#     4  11  20  38  65  87 124 161 205 246 317 367
#     4  10  21  37  59  95 125 150 201 256 309 374
#     4  11  22  40  63  86 118 164 201 254 310 360
#     4  10  21  38  63  92 120 156 205 254 300 374
#     4  11  24  37  62  86 125 166 194 251 314 372
#     4  10  25  40  58  89 126 156 212 250 300 370
#     4  11  19  39  65  90 117 159 207 260 300 355
#
# _framework density 20.188291
#
# number of rings (size 3 to 8) (size 9 to 14) (size 15 to 20)
#    0.000    1.500    3.750    1.125    3.500    0.500 
#    0.000    1.250    0.000    0.000    0.000    0.000 
#    0.000    0.000    0.000    0.000    0.000    0.000 
#
# Total GULP energy -178579.278542 kJ/mol
# GULP energy per Si atom -5580.602454 kJ/mol
# Density = 2.014234 g / cm^3
# Si number density = 20.188291 Si / 1000 Ang^3
#
#
#
# Elastic Constant Matrix: (Units=GPa)
#
#
# Indices 1 2 3 4 5 6 
#
# 1 76.9394 3.9221 -11.2758 0.0000 -17.3112 0.0000
# 2 3.9221 67.7065 17.2102 0.0000 -16.0018 0.0000
# 3 -11.2758 17.2102 29.6138 0.0000 -7.5142 0.0000
# 4 0.0000 0.0000 0.0000 24.2651 0.0000 -5.5923
# 5 -17.3112 -16.0018 -7.5142 0.0000 13.1028 0.0000
# 6 0.0000 0.0000 0.0000 -5.5923 0.0000 19.1047
#
#
#
# Elastic Compliance Matrix: (Units=1/GPa)
#
#
# Indices 1 2 3 4 5 6 
#
# 1 0.029507 0.006784 0.022571 0.000000 0.060215 0.000000
# 2 0.006784 0.023483 -0.001770 0.000000 0.036627 0.000000
# 3 0.022571 -0.001770 0.058994 0.000000 0.061491 0.000000
# 4 0.000000 0.000000 0.000000 0.044193 0.000000 0.012936
# 5 0.060215 0.036627 0.061491 0.000000 0.235869 0.000000
# 6 0.000000 0.000000 0.000000 0.012936 0.000000 0.056130
#
#
# Mechanical properties :
#
#
# Convention : Reuss Voigt Hill
#
# Bulk Modulus (GPa) = 5.98246 21.55253 13.76750
# Shear Modulus (GPa) = 11.14274 22.25473 16.69873
#
# Velocity S-wave (km/s) = 2.35189 3.32378 2.87914
# Velocity P-wave (km/s) = 3.21636 5.04271 4.22930
#
# Compressibility (1/GPa) = 0.16715522
#
# Stress axis : x y z
#
# Youngs Moduli (GPa) = 33.88970 42.58399 16.95092
#
# Poissons Ratio (x) = -0.28891 -0.38261
# Poissons Ratio (y) = -0.22992 0.03001
# Poissons Ratio (z) = -0.76494 0.07539
#
# Static dielectric constant tensor:
#      x y z
#    x 1.691520 0.000000 -0.003380 
#    y 0.000000 1.730480 0.000000 
#    z -0.003380 0.000000 1.721380 
# 
# From -- ./inp_files/67053.got.cif
#   From: 2010.05.17/outbox.cif.g08.bks.cpg/sg14_34_cif.got.tgz:67053.got - 2010.06.03 17:49:19.
