data_PCOD9245899
_publ_section_title
;
Structure prediction by ZEFSAII (Michael W. Deem and Ramdas Pophale) SiO2 
 PCOD9245899
Probable space group: P 21/C
;
_chemical_formula_sum "Si O2"
_cell_formula_units_Z 30
_cell_length_a 6.955503
_cell_length_b 14.971467
_cell_length_c 16.064962
_cell_angle_alpha 90.000000
_cell_angle_beta 137.344404
_cell_angle_gamma 90.000000
_cell_volume 1133.547002
_symmetry_space_group_name_H-M "P 21/C"
_symmetry_group_IT_number 14
_symmetry_cell_setting 'monoclinic'
loop_
_space_group_symop_operation_xyz
x,y,z
-x,1/2+y,1/2-z
-x,-y,-z
x,1/2-y,1/2+z
loop_
_atom_site_type_symbol
_atom_site_label
_atom_site_fract_x
_atom_site_fract_y
_atom_site_fract_z
Si Si1 0.558487 0.948097 0.275793
Si Si2 0.500000 0.500000 0.000000
Si Si3 0.741723 0.807581 0.030485
Si Si4 0.207423 0.739841 0.801178
Si Si5 0.054332 0.010743 0.885791
Si Si6 0.129313 0.559874 0.241822
Si Si7 0.119485 0.850395 0.449733
Si Si8 0.690121 0.338190 0.454389
O O1 0.276393 0.966857 0.238360
O O2 0.454758 0.878898 0.172399
O O3 0.848705 0.903557 0.398847
O O4 0.650920 0.040070 0.261055
O O5 0.177506 0.463147 0.890667
O O6 0.383650 0.582631 0.026056
O O7 0.539654 0.815185 0.047545
O O8 0.045426 0.782799 0.165101
O O9 0.797810 0.908372 0.017458
O O10 0.551799 0.742207 0.913214
O O11 0.096188 0.682472 0.844179
O O12 0.134816 0.843891 0.784467
O O13 0.195057 0.005492 0.839923
O O14 0.105794 0.917454 0.947639
O O15 0.162435 0.757557 0.512064
#
# Coordination Sequence:
#
# PCOD9245899 Si02
#       8
#     4   2   4   4   4   4   4   4
#     4  11  24  41  62  99 132 171 228 285 344 409
#     4  10  22  38  70  98 132 188 220 274 356 418
#     4  11  21  39  66  99 129 177 226 279 342 411
#     4  11  21  38  70  94 133 177 227 276 339 407
#     4  12  23  41  66  96 130 176 226 284 348 397
#     4  11  21  42  68  94 136 178 229 283 346 410
#     4  10  21  39  64  97 133 178 226 274 345 414
#     4  11  20  39  67  90 132 176 222 282 343 400
#
# _framework density 26.465599000000001
#
# number of rings (size 3 to 8) (size 9 to 14) (size 15 to 20)
#    0.000    1.067    5.333    4.000    0.000    0.000 
#    4.800    2.667    0.000    0.000    0.000    0.000 
#    0.000    0.000    0.000    0.000    0.000    0.000 
#
# Total GULP energy -167343.689612 kJ/mol
# GULP energy per Si atom -5578.122987 kJ/mol
# Density = 2.640536 g / cm^3
# Si number density = 26.465599 Si / 1000 Ang^3
#
#
#
# Elastic Constant Matrix: (Units=GPa)
#
#
# Indices 1 2 3 4 5 6 
#
# 1 78.8919 7.0388 11.6299 0.0000 15.9642 0.0000
# 2 7.0388 69.9941 47.7016 0.0000 -3.2255 0.0000
# 3 11.6299 47.7016 119.1175 0.0000 18.0590 0.0000
# 4 0.0000 0.0000 0.0000 47.6546 0.0000 5.0039
# 5 15.9642 -3.2255 18.0590 0.0000 26.0545 0.0000
# 6 0.0000 0.0000 0.0000 5.0039 0.0000 16.9069
#
#
#
# Elastic Compliance Matrix: (Units=1/GPa)
#
#
# Indices 1 2 3 4 5 6 
#
# 1 0.014826 -0.002808 0.001237 0.000000 -0.010289 0.000000
# 2 -0.002808 0.022176 -0.010374 0.000000 0.011656 0.000000
# 3 0.001237 -0.010374 0.014234 0.000000 -0.011908 0.000000
# 4 0.000000 0.000000 0.000000 0.021657 0.000000 -0.006410
# 5 -0.010289 0.011656 -0.011908 0.000000 0.054382 0.000000
# 6 0.000000 0.000000 0.000000 -0.006410 0.000000 0.061045
#
#
# Mechanical properties :
#
#
# Convention : Reuss Voigt Hill
#
# Bulk Modulus (GPa) = 36.56801 44.52712 40.54756
# Shear Modulus (GPa) = 22.59124 31.56541 27.07833
#
# Velocity S-wave (km/s) = 2.92483 3.45729 3.20214
# Velocity P-wave (km/s) = 5.02527 5.72697 5.38756
#
# Compressibility (1/GPa) = 0.02734631
#
# Stress axis : x y z
#
# Youngs Moduli (GPa) = 67.44988 45.09352 70.25524
#
# Poissons Ratio (x) = 0.12662 -0.08690
# Poissons Ratio (y) = 0.18940 0.72880
# Poissons Ratio (z) = -0.08343 0.46778
#
# Static dielectric constant tensor:
#      x y z
#    x 2.050570 0.000000 -0.048960 
#    y 0.000000 2.105640 0.000000 
#    z -0.048960 0.000000 2.151070 
# 
# From -- ./inp_files/72466.got.cif
#   From: 2010.05.17/outbox.cif.g08.bks.cpg/sg14_37_cif.got.tgz:72466.got - 2010.06.03 17:49:19.
