data_PCOD9245835
_publ_section_title
;
Structure prediction by ZEFSAII (Michael W. Deem and Ramdas Pophale) SiO2 
 PCOD9245835
Probable space group: P 21/C
;
_chemical_formula_sum "Si O2"
_cell_formula_units_Z 26
_cell_length_a 16.710100
_cell_length_b 4.981963
_cell_length_c 14.140519
_cell_angle_alpha 90.000000
_cell_angle_beta 118.050195
_cell_angle_gamma 90.000000
_cell_volume 1038.908523
_symmetry_space_group_name_H-M "P 21/C"
_symmetry_group_IT_number 14
_symmetry_cell_setting 'monoclinic'
loop_
_space_group_symop_operation_xyz
x,y,z
-x,1/2+y,1/2-z
-x,-y,-z
x,1/2-y,1/2+z
loop_
_atom_site_type_symbol
_atom_site_label
_atom_site_fract_x
_atom_site_fract_y
_atom_site_fract_z
Si Si1 0.649792 0.386444 0.161250
Si Si2 0.188668 0.486067 0.950857
Si Si3 0.796630 0.486554 0.673513
Si Si4 0.500000 0.500000 0.000000
Si Si5 0.500945 0.514471 0.358733
Si Si6 0.655848 0.754750 0.339226
Si Si7 0.007598 0.482155 0.189428
O O1 0.711587 0.128489 0.183558
O O2 0.681888 0.576451 0.262121
O O3 0.542876 0.288745 0.121870
O O4 0.616830 0.522444 0.047340
O O5 0.199150 0.782451 0.913442
O O6 0.082278 0.460813 0.920995
O O7 0.203055 0.281598 0.870323
O O8 0.259125 0.404298 0.069991
O O9 0.889797 0.460499 0.785310
O O10 0.493948 0.224000 0.927103
O O11 0.601808 0.555551 0.378909
O O12 0.427461 0.450020 0.236557
O O13 0.003297 0.178255 0.225346
#
# Coordination Sequence:
#
# PCOD9245835 Si02
#       7
#     4   4   4   2   4   4   4
#     4  10  23  38  56  88 118 161 202 255 306 359
#     4  10  23  37  66  90 119 161 208 250 312 372
#     4  10  21  39  63  91 121 157 209 258 300 365
#     4   8  20  38  54  80 112 152 208 238 294 346
#     4  10  22  40  56  82 122 160 208 250 305 364
#     4  12  23  39  62  85 126 165 202 255 317 371
#     4   8  16  36  59  88 117 153 201 254 301 363
#
# _framework density 25.026267000000001
#
# number of rings (size 3 to 8) (size 9 to 14) (size 15 to 20)
#    0.923    1.231    1.538    0.923    4.308    1.846 
#    0.000    0.769    0.000    0.923    0.000    0.000 
#    0.000    0.000    0.000    0.000    0.000    0.000 
#
# Total GULP energy -145139.359932 kJ/mol
# GULP energy per Si atom -5582.283074 kJ/mol
# Density = 2.496931 g / cm^3
# Si number density = 25.026267 Si / 1000 Ang^3
#
#
#
# Elastic Constant Matrix: (Units=GPa)
#
#
# Indices 1 2 3 4 5 6 
#
# 1 83.7056 6.6128 30.3243 0.0000 37.2357 0.0000
# 2 6.6128 94.7209 9.1142 0.0000 -0.8125 0.0000
# 3 30.3243 9.1142 115.7400 0.0000 38.1070 0.0000
# 4 0.0000 0.0000 0.0000 33.3732 0.0000 2.9313
# 5 37.2357 -0.8125 38.1070 0.0000 37.9701 0.0000
# 6 0.0000 0.0000 0.0000 2.9313 0.0000 31.5148
#
#
#
# Elastic Compliance Matrix: (Units=1/GPa)
#
#
# Indices 1 2 3 4 5 6 
#
# 1 0.021829 -0.001942 0.002233 0.000000 -0.023690 0.000000
# 2 -0.001942 0.010876 -0.001570 0.000000 0.003713 0.000000
# 3 0.002233 -0.001570 0.013308 0.000000 -0.015580 0.000000
# 4 0.000000 0.000000 0.000000 0.030211 0.000000 -0.002810
# 5 -0.023690 0.003713 -0.015580 0.000000 0.065284 0.000000
# 6 0.000000 0.000000 0.000000 -0.002810 0.000000 0.031992
#
#
# Mechanical properties :
#
#
# Convention : Reuss Voigt Hill
#
# Bulk Modulus (GPa) = 23.01186 42.91878 32.96532
# Shear Modulus (GPa) = 26.24071 37.11265 31.67668
#
# Velocity S-wave (km/s) = 3.24161 3.85508 3.56158
# Velocity P-wave (km/s) = 4.81931 6.08295 5.48762
#
# Compressibility (1/GPa) = 0.04345586
#
# Stress axis : x y z
#
# Youngs Moduli (GPa) = 45.81004 91.94686 75.14168
#
# Poissons Ratio (x) = 0.17857 -0.16783
# Poissons Ratio (y) = 0.08897 0.11798
# Poissons Ratio (z) = -0.10232 0.14437
#
# Static dielectric constant tensor:
#      x y z
#    x 2.130040 0.000000 0.002360 
#    y 0.000000 1.998890 0.000000 
#    z 0.002360 0.000000 2.031110 
# 
# From -- ./inp_files/49507.got.cif
#   From: 2010.05.17/outbox.cif.g08.bks.cpg/sg14_25_cif.got.tgz:49507.got - 2010.06.03 17:49:19.
