data_PCOD9245513
_publ_section_title
;
Structure prediction by ZEFSAII (Michael W. Deem and Ramdas Pophale) SiO2 
 PCOD9245513
Probable space group: P 21/C
;
_chemical_formula_sum "Si O2"
_cell_formula_units_Z 28
_cell_length_a 13.786807
_cell_length_b 6.722607
_cell_length_c 23.068193
_cell_angle_alpha 90.000000
_cell_angle_beta 146.875773
_cell_angle_gamma 90.000000
_cell_volume 1168.342839
_symmetry_space_group_name_H-M "P 21/C"
_symmetry_group_IT_number 14
_symmetry_cell_setting 'monoclinic'
loop_
_space_group_symop_operation_xyz
x,y,z
-x,1/2+y,1/2-z
-x,-y,-z
x,1/2-y,1/2+z
loop_
_atom_site_type_symbol
_atom_site_label
_atom_site_fract_x
_atom_site_fract_y
_atom_site_fract_z
Si Si1 0.198564 0.414574 0.044521
Si Si2 0.857384 0.670192 0.860765
Si Si3 0.385953 0.418116 0.022969
Si Si4 0.016507 0.043985 0.891121
Si Si5 0.780859 0.032971 0.672425
Si Si6 0.315793 0.948596 0.966207
Si Si7 0.725582 0.594930 0.673229
O O1 0.345521 0.457966 0.069583
O O2 0.094481 0.217673 0.969605
O O3 0.053641 0.589108 0.972819
O O4 0.257449 0.371617 0.139568
O O5 0.788150 0.554670 0.769372
O O6 0.878388 0.902182 0.855186
O O7 0.257880 0.546312 0.915856
O O8 0.344381 0.187059 0.989689
O O9 0.588763 0.439687 0.105811
O O10 0.175657 0.906363 0.945936
O O11 0.926993 0.128946 0.787386
O O12 0.822327 0.796533 0.702276
O O13 0.251413 0.935987 0.867013
O O14 0.513699 0.864745 0.070011
#
# Coordination Sequence:
#
# PCOD9245513 Si02
#       7
#     4   4   4   4   4   4   4
#     4  10  22  39  58  83 116 153 195 236 286 354
#     4  10  22  39  58  83 116 153 195 236 286 354
#     4   9  19  36  54  84 117 146 192 240 288 349
#     4  10  21  38  62  84 115 150 196 244 298 342
#     4   9  19  35  57  86 114 147 191 243 298 341
#     4   9  19  35  57  86 114 147 191 243 298 341
#     4   9  19  36  54  84 117 146 192 240 288 349
#
# _framework density 23.965567
#
# number of rings (size 3 to 8) (size 9 to 14) (size 15 to 20)
#    0.000    2.571    0.000    0.429    6.000    0.000 
#    0.000    7.143    0.000    0.000    0.000    0.000 
#    0.000    0.000    0.000    0.000    0.000    0.000 
#
# Total GULP energy -156446.538019 kJ/mol
# GULP energy per Si atom -5587.376358 kJ/mol
# Density = 2.391102 g / cm^3
# Si number density = 23.965567 Si / 1000 Ang^3
#
#
#
# Elastic Constant Matrix: (Units=GPa)
#
#
# Indices 1 2 3 4 5 6 
#
# 1 131.8064 8.4246 5.8640 0.0000 -24.3584 0.0000
# 2 8.4246 39.6545 4.3397 0.0000 -4.8526 0.0000
# 3 5.8640 4.3397 48.7546 0.0000 -18.6370 0.0000
# 4 0.0000 0.0000 0.0000 28.2381 0.0000 -4.2065
# 5 -24.3584 -4.8526 -18.6370 0.0000 30.3677 0.0000
# 6 0.0000 0.0000 0.0000 -4.2065 0.0000 29.7085
#
#
#
# Elastic Compliance Matrix: (Units=1/GPa)
#
#
# Indices 1 2 3 4 5 6 
#
# 1 0.009137 -0.001144 0.002266 0.000000 0.008537 0.000000
# 2 -0.001144 0.025897 -0.001224 0.000000 0.002469 0.000000
# 3 0.002266 -0.001224 0.027394 0.000000 0.018434 0.000000
# 4 0.000000 0.000000 0.000000 0.036176 0.000000 0.005122
# 5 0.008537 0.002469 0.018434 0.000000 0.051485 0.000000
# 6 0.000000 0.000000 0.000000 0.005122 0.000000 0.034386
#
#
# Mechanical properties :
#
#
# Convention : Reuss Voigt Hill
#
# Bulk Modulus (GPa) = 16.07097 28.60801 22.33949
# Shear Modulus (GPa) = 24.34042 31.10200 27.72121
#
# Velocity S-wave (km/s) = 3.19037 3.60638 3.40473
# Velocity P-wave (km/s) = 4.50463 5.41335 4.97976
#
# Compressibility (1/GPa) = 0.06222401
#
# Stress axis : x y z
#
# Youngs Moduli (GPa) = 109.44712 38.61450 36.50447
#
# Poissons Ratio (x) = 0.04419 -0.08273
# Poissons Ratio (y) = 0.12526 0.04467
# Poissons Ratio (z) = -0.24803 0.04725
#
# Static dielectric constant tensor:
#      x y z
#    x 1.940610 0.000000 -0.009590 
#    y 0.000000 2.015690 0.000000 
#    z -0.009590 0.000000 1.902400 
# 
# From -- ./inp_files/73653.got.cif
#   From: 2010.05.17/outbox.cif.g08.bks.cpg/sg14_37_cif.got.tgz:73653.got - 2010.06.03 17:49:19.
