data_PCOD9245310
_publ_section_title
;
Structure prediction by ZEFSAII (Michael W. Deem and Ramdas Pophale) SiO2 
 PCOD9245310
Probable space group: P 21/C
;
_chemical_formula_sum "Si O2"
_cell_formula_units_Z 32
_cell_length_a 11.584275
_cell_length_b 15.023357
_cell_length_c 15.147743
_cell_angle_alpha 90.000000
_cell_angle_beta 27.973056
_cell_angle_gamma 90.000000
_cell_volume 1236.541632
_symmetry_space_group_name_H-M "P 21/C"
_symmetry_group_IT_number 14
_symmetry_cell_setting 'monoclinic'
loop_
_space_group_symop_operation_xyz
x,y,z
-x,1/2+y,1/2-z
-x,-y,-z
x,1/2-y,1/2+z
loop_
_atom_site_type_symbol
_atom_site_label
_atom_site_fract_x
_atom_site_fract_y
_atom_site_fract_z
Si Si1 0.841617 0.084953 0.577441
Si Si2 0.300378 0.688639 0.492340
Si Si3 0.207045 0.695254 0.206342
Si Si4 0.513557 0.644714 0.522949
Si Si5 0.277581 0.053236 0.478567
Si Si6 0.061675 0.459337 0.677340
Si Si7 0.793978 0.449141 0.585605
Si Si8 0.178845 0.282123 0.913217
O O1 0.726052 0.043378 0.567963
O O2 0.017944 0.170220 0.445963
O O3 0.667841 0.109684 0.777376
O O4 0.000000 0.000000 0.500000
O O5 0.134349 0.748364 0.667220
O O6 0.426918 0.622114 0.481135
O O7 0.183158 0.642483 0.486237
O O8 0.544867 0.744646 0.297981
O O9 0.173788 0.595517 0.198541
O O10 0.995746 0.711428 0.421855
O O11 0.457508 0.747874 0.063595
O O12 0.771059 0.599505 0.371028
O O13 0.563347 0.065389 0.305401
O O14 0.065594 0.044885 0.693133
O O15 0.218135 0.135755 0.454889
O O16 0.235117 0.485675 0.478967
O O17 0.000000 0.500000 0.500000
#
# Coordination Sequence:
#
# PCOD9245310 Si02
#       8
#     4   4   4   4   4   4   4   4
#     4   9  16  31  59  96 121 145 191 260 317 366
#     4   9  20  41  62  89 124 163 208 257 325 375
#     4   9  22  40  57  95 123 168 205 258 323 374
#     4   9  20  40  61  93 124 160 206 261 321 373
#     4  10  21  37  62  95 121 162 206 260 319 374
#     4  12  23  41  65  93 130 161 218 265 314 387
#     4  11  25  44  62  93 128 171 215 264 318 377
#     4   9  17  36  60  87 127 156 199 254 321 372
#
# _framework density 25.878629
#
# number of rings (size 3 to 8) (size 9 to 14) (size 15 to 20)
#    0.750    1.500    1.250    1.500    1.750    3.000 
#    6.750    1.250    0.000    0.000    0.000    0.000 
#    0.000    0.000    0.000    0.000    0.000    0.000 
#
# Total GULP energy -178449.852953 kJ/mol
# GULP energy per Si atom -5576.557905 kJ/mol
# Density = 2.581973 g / cm^3
# Si number density = 25.878629 Si / 1000 Ang^3
#
#
#
# Elastic Constant Matrix: (Units=GPa)
#
#
# Indices 1 2 3 4 5 6 
#
# 1 82.3367 2.2722 12.9286 0.0000 13.4229 0.0000
# 2 2.2722 42.4465 -16.0126 0.0000 8.6645 0.0000
# 3 12.9286 -16.0126 89.7883 0.0000 18.5071 0.0000
# 4 0.0000 0.0000 0.0000 21.3676 0.0000 6.9113
# 5 13.4229 8.6645 18.5071 0.0000 18.8724 0.0000
# 6 0.0000 0.0000 0.0000 6.9113 0.0000 19.5399
#
#
#
# Elastic Compliance Matrix: (Units=1/GPa)
#
#
# Indices 1 2 3 4 5 6 
#
# 1 0.013838 0.001826 0.000670 0.000000 -0.011338 0.000000
# 2 0.001826 0.033482 0.011461 0.000000 -0.027910 0.000000
# 3 0.000670 0.011461 0.017882 0.000000 -0.023274 0.000000
# 4 0.000000 0.000000 0.000000 0.052846 0.000000 -0.018691
# 5 -0.011338 -0.027910 -0.023274 0.000000 0.096689 0.000000
# 6 0.000000 0.000000 0.000000 -0.018691 0.000000 0.057789
#
#
# Mechanical properties :
#
#
# Convention : Reuss Voigt Hill
#
# Bulk Modulus (GPa) = 10.73922 23.66086 17.20004
# Shear Modulus (GPa) = 18.13903 26.31486 22.22694
#
# Velocity S-wave (km/s) = 2.65037 3.19228 2.93387
# Velocity P-wave (km/s) = 3.67761 4.76974 4.25883
#
# Compressibility (1/GPa) = 0.09311663
#
# Stress axis : x y z
#
# Youngs Moduli (GPa) = 72.26494 29.86683 55.92229
#
# Poissons Ratio (x) = -0.05455 -0.03748
# Poissons Ratio (y) = -0.13198 -0.64092
# Poissons Ratio (z) = -0.04843 -0.34230
#
# Static dielectric constant tensor:
#      x y z
#    x 2.137830 0.000000 -0.042180 
#    y 0.000000 2.072630 0.000000 
#    z -0.042180 0.000000 2.029970 
# 
# From -- ./inp_files/45374.got.cif
#   From: 2010.05.17/outbox.cif.g08.bks.cpg/sg14_23_cif.got.tgz:45374.got - 2010.06.03 17:49:19.
