data_PCOD9245606
_publ_section_title
;
Structure prediction by ZEFSAII (Michael W. Deem and Ramdas Pophale) SiO2 
 PCOD9245606
Probable space group: P 21/C
;
_chemical_formula_sum "Si O2"
_cell_formula_units_Z 24
_cell_length_a 5.837851
_cell_length_b 12.439650
_cell_length_c 14.298435
_cell_angle_alpha 90.000000
_cell_angle_beta 115.691574
_cell_angle_gamma 90.000000
_cell_volume 935.712259
_symmetry_space_group_name_H-M "P 21/C"
_symmetry_group_IT_number 14
_symmetry_cell_setting 'monoclinic'
loop_
_space_group_symop_operation_xyz
x,y,z
-x,1/2+y,1/2-z
-x,-y,-z
x,1/2-y,1/2+z
loop_
_atom_site_type_symbol
_atom_site_label
_atom_site_fract_x
_atom_site_fract_y
_atom_site_fract_z
Si Si1 0.614837 0.892788 0.848381
Si Si2 0.558690 0.655810 0.831253
Si Si3 0.821519 0.068213 0.362641
Si Si4 0.772378 0.883575 0.060253
Si Si5 0.885540 0.485508 0.228139
Si Si6 0.319404 0.713617 0.590261
O O1 0.670736 0.768755 0.881682
O O2 0.331542 0.896653 0.758916
O O3 0.763663 0.940256 0.786928
O O4 0.676763 0.954673 0.954689
O O5 0.737748 0.552228 0.873453
O O6 0.293275 0.615899 0.827023
O O7 0.482805 0.679891 0.710536
O O8 0.747292 0.159257 0.421458
O O9 0.093463 0.053999 0.363309
O O10 0.517711 0.816074 0.043166
O O11 0.872265 0.938014 0.173364
O O12 0.041638 0.836826 0.066118
#
# Coordination Sequence:
#
# PCOD9245606 Si02
#       6
#     4   4   4   4   4   4
#     4  10  23  37  64  93 126 164 209 264 323 378
#     4   9  20  40  58  91 121 168 212 263 308 381
#     4  10  21  38  65  87 120 169 220 256 309 382
#     4  11  23  42  60  97 132 161 203 268 327 371
#     4  10  21  38  67  91 125 166 216 267 313 381
#     4  10  23  39  63  88 127 168 208 260 316 379
#
# _framework density 25.648909
#
# number of rings (size 3 to 8) (size 9 to 14) (size 15 to 20)
#    0.000    2.000    1.667    0.500    9.333    2.000 
#    0.000    1.667    0.000    0.000    0.000    0.000 
#    0.000    0.000    0.000    0.000    0.000    0.000 
#
# Total GULP energy -133737.731807 kJ/mol
# GULP energy per Si atom -5572.405492 kJ/mol
# Density = 2.559053 g / cm^3
# Si number density = 25.648909 Si / 1000 Ang^3
#
#
#
# Elastic Constant Matrix: (Units=GPa)
#
#
# Indices 1 2 3 4 5 6 
#
# 1 107.8547 57.6155 41.5551 0.0000 -13.4345 0.0000
# 2 57.6155 150.3530 -4.7412 0.0000 -6.8022 0.0000
# 3 41.5551 -4.7412 45.5439 0.0000 -9.6481 0.0000
# 4 0.0000 0.0000 0.0000 18.9481 0.0000 -0.7869
# 5 -13.4345 -6.8022 -9.6481 0.0000 11.8419 0.0000
# 6 0.0000 0.0000 0.0000 -0.7869 0.0000 36.4318
#
#
#
# Elastic Compliance Matrix: (Units=1/GPa)
#
#
# Indices 1 2 3 4 5 6 
#
# 1 0.022662 -0.009190 -0.020916 0.000000 0.003390 0.000000
# 2 -0.009190 0.010689 0.010382 0.000000 0.004172 0.000000
# 3 -0.020916 0.010382 0.046360 0.000000 0.020006 0.000000
# 4 0.000000 0.000000 0.000000 0.052823 0.000000 0.001141
# 5 0.003390 0.004172 0.020006 0.000000 0.106987 0.000000
# 6 0.000000 0.000000 0.000000 0.001141 0.000000 0.027473
#
#
# Mechanical properties :
#
#
# Convention : Reuss Voigt Hill
#
# Bulk Modulus (GPa) = 24.83718 54.73448 39.78583
# Shear Modulus (GPa) = 15.63167 27.39919 21.51543
#
# Velocity S-wave (km/s) = 2.47138 3.27194 2.89942
# Velocity P-wave (km/s) = 4.22471 5.97163 5.17245
#
# Compressibility (1/GPa) = 0.04026222
#
# Stress axis : x y z
#
# Youngs Moduli (GPa) = 44.12662 93.55490 21.57043
#
# Poissons Ratio (x) = 0.85980 0.45117
# Poissons Ratio (y) = 0.40554 -0.22394
# Poissons Ratio (z) = 0.92295 -0.97129
#
# Static dielectric constant tensor:
#      x y z
#    x 2.091760 0.000000 0.033770 
#    y 0.000000 2.118540 0.000000 
#    z 0.033770 0.000000 2.018660 
# 
# From -- ./inp_files/53036.got.cif
#   From: 2010.05.17/outbox.cif.g08.bks.cpg/sg14_27_cif.got.tgz:53036.got - 2010.06.03 17:49:19.
