data_PCOD9245989
_publ_section_title
;
Structure prediction by ZEFSAII (Michael W. Deem and Ramdas Pophale) SiO2 
 PCOD9245989
Probable space group: P 21/C
;
_chemical_formula_sum "Si O2"
_cell_formula_units_Z 28
_cell_length_a 15.289732
_cell_length_b 17.602088
_cell_length_c 8.091436
_cell_angle_alpha 90.000000
_cell_angle_beta 36.195969
_cell_angle_gamma 90.000000
_cell_volume 1286.013490
_symmetry_space_group_name_H-M "P 21/C"
_symmetry_group_IT_number 14
_symmetry_cell_setting 'monoclinic'
loop_
_space_group_symop_operation_xyz
x,y,z
-x,1/2+y,1/2-z
-x,-y,-z
x,1/2-y,1/2+z
loop_
_atom_site_type_symbol
_atom_site_label
_atom_site_fract_x
_atom_site_fract_y
_atom_site_fract_z
Si Si1 0.657990 0.037817 0.718510
Si Si2 0.265040 0.146273 0.784161
Si Si3 0.923141 0.950858 0.470502
Si Si4 0.765489 0.702379 0.302572
Si Si5 0.802311 0.477756 0.635473
Si Si6 0.400102 0.854326 0.687238
Si Si7 0.573718 0.193507 0.737581
O O1 0.722729 0.026145 0.434324
O O2 0.639772 0.128769 0.754899
O O3 0.775809 0.997631 0.654800
O O4 0.500000 0.000000 0.000000
O O5 0.192586 0.209217 0.777826
O O6 0.437816 0.128304 0.485393
O O7 0.186920 0.066452 0.918452
O O8 0.262281 0.185322 0.965347
O O9 0.875621 0.864073 0.579155
O O10 0.000000 0.000000 0.500000
O O11 0.032477 0.947881 0.145583
O O12 0.603850 0.696931 0.460882
O O13 0.702692 0.428334 0.659545
O O14 0.354698 0.775897 0.844171
O O15 0.410771 0.831729 0.476602
#
# Coordination Sequence:
#
# PCOD9245989 Si02
#       7
#     4   4   4   4   4   4   4
#     4  11  24  43  72  96 132 185 233 278 339 409
#     4  10  21  39  67  96 132 176 231 275 334 410
#     4  12  25  44  65  96 141 175 222 283 346 410
#     4  10  21  40  64  95 129 177 224 277 335 404
#     4  11  24  42  65 101 135 178 221 288 350 408
#     4   9  20  37  62  96 133 171 223 282 333 400
#     4   9  19  39  64  94 127 170 232 276 326 400
#
# _framework density 21.772711000000001
#
# number of rings (size 3 to 8) (size 9 to 14) (size 15 to 20)
#    0.000    1.714    2.857    0.857    2.000    4.571 
#    2.571    1.429    0.000    0.000    0.000    0.000 
#    0.000    0.000    0.000    0.000    0.000    0.000 
#
# Total GULP energy -156249.654098 kJ/mol
# GULP energy per Si atom -5580.344789 kJ/mol
# Density = 2.172316 g / cm^3
# Si number density = 21.772711 Si / 1000 Ang^3
#
#
#
# Elastic Constant Matrix: (Units=GPa)
#
#
# Indices 1 2 3 4 5 6 
#
# 1 46.9439 21.9000 24.5099 0.0000 -9.7443 0.0000
# 2 21.9000 130.3106 23.8173 0.0000 3.9083 0.0000
# 3 24.5099 23.8173 98.8065 0.0000 0.7954 0.0000
# 4 0.0000 0.0000 0.0000 26.2868 0.0000 -3.7039
# 5 -9.7443 3.9083 0.7954 0.0000 13.8802 0.0000
# 6 0.0000 0.0000 0.0000 -3.7039 0.0000 32.5503
#
#
#
# Elastic Compliance Matrix: (Units=1/GPa)
#
#
# Indices 1 2 3 4 5 6 
#
# 1 0.032337 -0.004882 -0.007042 0.000000 0.024480 0.000000
# 2 -0.004882 0.008829 -0.000870 0.000000 -0.005863 0.000000
# 3 -0.007042 -0.000870 0.012121 0.000000 -0.005393 0.000000
# 4 0.000000 0.000000 0.000000 0.038662 0.000000 0.004399
# 5 0.024480 -0.005863 -0.005393 0.000000 0.091191 0.000000
# 6 0.000000 0.000000 0.000000 0.004399 0.000000 0.031222
#
#
# Mechanical properties :
#
#
# Convention : Reuss Voigt Hill
#
# Bulk Modulus (GPa) = 36.10126 46.27949 41.19037
# Shear Modulus (GPa) = 20.06555 28.26571 24.16563
#
# Velocity S-wave (km/s) = 3.03907 3.60699 3.33514
# Velocity P-wave (km/s) = 5.37880 6.21683 5.81294
#
# Compressibility (1/GPa) = 0.02769987
#
# Stress axis : x y z
#
# Youngs Moduli (GPa) = 30.92388 113.25937 82.50295
#
# Poissons Ratio (x) = 0.55291 0.58098
# Poissons Ratio (y) = 0.15096 0.07179
# Poissons Ratio (z) = 0.21776 0.09855
#
# Static dielectric constant tensor:
#      x y z
#    x 1.825380 0.000000 0.014690 
#    y 0.000000 1.830220 0.000000 
#    z 0.014690 0.000000 1.842570 
# 
# From -- ./inp_files/16653.got.cif
#   From: 2010.05.17/outbox.cif.g08.bks.cpg/sg14_9_cif.got.tgz:16653.got - 2010.06.03 17:49:19.
