data_PCOD9245355
_publ_section_title
;
Structure prediction by ZEFSAII (Michael W. Deem and Ramdas Pophale) SiO2 
 PCOD9245355
Probable space group: P 21/C
;
_chemical_formula_sum "Si O2"
_cell_formula_units_Z 16
_cell_length_a 7.714595
_cell_length_b 4.986988
_cell_length_c 21.882712
_cell_angle_alpha 90.000000
_cell_angle_beta 128.729757
_cell_angle_gamma 90.000000
_cell_volume 656.758923
_symmetry_space_group_name_H-M "P 21/C"
_symmetry_group_IT_number 14
_symmetry_cell_setting 'monoclinic'
loop_
_space_group_symop_operation_xyz
x,y,z
-x,1/2+y,1/2-z
-x,-y,-z
x,1/2-y,1/2+z
loop_
_atom_site_type_symbol
_atom_site_label
_atom_site_fract_x
_atom_site_fract_y
_atom_site_fract_z
Si Si1 0.802216 0.803735 0.814358
Si Si2 0.332873 0.697004 0.283064
Si Si3 0.446865 0.355246 0.051602
Si Si4 0.838158 0.336671 0.508701
O O1 0.757946 0.597370 0.749845
O O2 0.583716 0.793412 0.809978
O O3 0.016325 0.743938 0.901801
O O4 0.811380 0.099078 0.788543
O O5 0.357166 0.793455 0.357627
O O6 0.280650 0.575825 0.045604
O O7 0.336409 0.069118 0.014339
O O8 0.500000 0.500000 0.000000
O O9 0.000000 0.500000 0.500000
#
# Coordination Sequence:
#
# PCOD9245355 Si02
#       4
#     4   4   4   4
#     4  10  21  37  65  99 127 168 226 285 321 383
#     4  10  21  38  63  97 133 170 217 277 341 388
#     4  12  26  44  67 101 143 181 217 279 353 407
#     4  12  24  42  71 103 131 174 240 280 323 400
#
# _framework density 24.362058999999999
#
# number of rings (size 3 to 8) (size 9 to 14) (size 15 to 20)
#    0.000    1.000    2.500    4.500    7.000    0.000 
#    0.000    5.000    0.000    0.000    0.000    0.000 
#    0.000    0.000    0.000    0.000    0.000    0.000 
#
# Total GULP energy -89627.138518 kJ/mol
# GULP energy per Si atom -5601.696157 kJ/mol
# Density = 2.430661 g / cm^3
# Si number density = 24.362059 Si / 1000 Ang^3
#
#
#
# Elastic Constant Matrix: (Units=GPa)
#
#
# Indices 1 2 3 4 5 6 
#
# 1 33.4841 4.4699 6.5189 0.0000 -17.8888 0.0000
# 2 4.4699 113.8995 3.4986 0.0000 10.3727 0.0000
# 3 6.5189 3.4986 103.4651 0.0000 -0.7842 0.0000
# 4 0.0000 0.0000 0.0000 48.8769 0.0000 8.9627
# 5 -17.8888 10.3727 -0.7842 0.0000 32.1423 0.0000
# 6 0.0000 0.0000 0.0000 8.9627 0.0000 19.7430
#
#
#
# Elastic Compliance Matrix: (Units=1/GPa)
#
#
# Indices 1 2 3 4 5 6 
#
# 1 0.044922 -0.004078 -0.002493 0.000000 0.026256 0.000000
# 2 -0.004078 0.009427 -0.000102 0.000000 -0.005314 0.000000
# 3 -0.002493 -0.000102 0.009817 0.000000 -0.001115 0.000000
# 4 0.000000 0.000000 0.000000 0.022317 0.000000 -0.010131
# 5 0.026256 -0.005314 -0.001115 0.000000 0.047412 0.000000
# 6 0.000000 0.000000 0.000000 -0.010131 0.000000 0.055250
#
#
# Mechanical properties :
#
#
# Convention : Reuss Voigt Hill
#
# Bulk Modulus (GPa) = 19.67734 31.09151 25.38443
# Shear Modulus (GPa) = 22.78608 35.90986 29.34797
#
# Velocity S-wave (km/s) = 3.06160 3.84345 3.47458
# Velocity P-wave (km/s) = 4.53789 5.69966 5.15163
#
# Compressibility (1/GPa) = 0.05081987
#
# Stress axis : x y z
#
# Youngs Moduli (GPa) = 22.26075 106.08100 101.86207
#
# Poissons Ratio (x) = 0.43255 0.25399
# Poissons Ratio (y) = 0.09077 0.01040
# Poissons Ratio (z) = 0.05551 0.01083
#
# Static dielectric constant tensor:
#      x y z
#    x 2.091880 0.000000 -0.043960 
#    y 0.000000 1.846910 0.000000 
#    z -0.043960 0.000000 1.871780 
# 
# From -- ./inp_files/38338.got.cif
#   From: 2010.05.17/outbox.cif.g08.bks.cpg/sg14_20_cif.got.tgz:38338.got - 2010.06.03 17:49:19.
