data_PCOD9245688
_publ_section_title
;
Structure prediction by ZEFSAII (Michael W. Deem and Ramdas Pophale) SiO2 
 PCOD9245688
Probable space group: P 21/C
;
_chemical_formula_sum "Si O2"
_cell_formula_units_Z 20
_cell_length_a 6.777885
_cell_length_b 13.754385
_cell_length_c 9.064985
_cell_angle_alpha 90.000000
_cell_angle_beta 74.146005
_cell_angle_gamma 90.000000
_cell_volume 812.942661
_symmetry_space_group_name_H-M "P 21/C"
_symmetry_group_IT_number 14
_symmetry_cell_setting 'monoclinic'
loop_
_space_group_symop_operation_xyz
x,y,z
-x,1/2+y,1/2-z
-x,-y,-z
x,1/2-y,1/2+z
loop_
_atom_site_type_symbol
_atom_site_label
_atom_site_fract_x
_atom_site_fract_y
_atom_site_fract_z
Si Si1 0.057017 0.374844 0.794365
Si Si2 0.005579 0.923826 0.186372
Si Si3 0.206533 0.224354 0.556365
Si Si4 0.428264 0.604198 0.084686
Si Si5 0.654312 0.044446 0.087278
O O1 0.143545 0.330044 0.624149
O O2 0.190476 0.469158 0.360540
O O3 0.096309 0.489857 0.770930
O O4 0.149038 0.309966 0.905083
O O5 0.926476 0.841961 0.308319
O O6 0.183895 0.892140 0.039007
O O7 0.812596 0.125656 0.372918
O O8 0.441583 0.189447 0.518320
O O9 0.462249 0.596186 0.254770
O O10 0.500000 0.500000 0.000000
O O11 0.500000 0.000000 0.000000
#
# Coordination Sequence:
#
# PCOD9245688 Si02
#       5
#     4   4   4   4   4
#     4  11  27  44  74 107 142 185 240 293 360 413
#     4  10  23  44  70 102 142 183 235 288 353 419
#     4  12  26  46  75 101 148 183 237 298 349 422
#     4  11  24  47  73 103 139 191 240 282 355 427
#     4  10  21  38  75 100 131 178 241 283 350 408
#
# _framework density 24.601983000000001
#
# number of rings (size 3 to 8) (size 9 to 14) (size 15 to 20)
#    0.000    1.200    4.000    1.800   11.200    1.600 
#    3.600    0.000    0.000    0.000    0.000    0.000 
#    0.000    0.000    0.000    0.000    0.000    0.000 
#
# Total GULP energy -111860.201554 kJ/mol
# GULP energy per Si atom -5593.010078 kJ/mol
# Density = 2.454599 g / cm^3
# Si number density = 24.601983 Si / 1000 Ang^3
#
#
#
# Elastic Constant Matrix: (Units=GPa)
#
#
# Indices 1 2 3 4 5 6 
#
# 1 73.7919 -3.9555 16.6852 0.0000 -20.4837 0.0000
# 2 -3.9555 62.8229 24.4568 0.0000 -20.3299 0.0000
# 3 16.6852 24.4568 150.5558 0.0000 -27.2769 0.0000
# 4 0.0000 0.0000 0.0000 61.0219 0.0000 -4.5260
# 5 -20.4837 -20.3299 -27.2769 0.0000 50.2720 0.0000
# 6 0.0000 0.0000 0.0000 -4.5260 0.0000 22.3195
#
#
#
# Elastic Compliance Matrix: (Units=1/GPa)
#
#
# Indices 1 2 3 4 5 6 
#
# 1 0.016091 0.003863 -0.001042 0.000000 0.007553 0.000000
# 2 0.003863 0.019699 -0.002107 0.000000 0.008397 0.000000
# 3 -0.001042 -0.002107 0.007617 0.000000 0.002856 0.000000
# 4 0.000000 0.000000 0.000000 0.016638 0.000000 0.003374
# 5 0.007553 0.008397 0.002856 0.000000 0.027915 0.000000
# 6 0.000000 0.000000 0.000000 0.003374 0.000000 0.045488
#
#
# Mechanical properties :
#
#
# Convention : Reuss Voigt Hill
#
# Bulk Modulus (GPa) = 22.30397 40.17149 31.23773
# Shear Modulus (GPa) = 34.02181 43.38826 38.70504
#
# Velocity S-wave (km/s) = 3.72276 4.20409 3.97072
# Velocity P-wave (km/s) = 5.25016 6.31901 5.80922
#
# Compressibility (1/GPa) = 0.04483506
#
# Stress axis : x y z
#
# Youngs Moduli (GPa) = 62.14637 50.76528 131.28017
#
# Poissons Ratio (x) = -0.19612 0.13684
# Poissons Ratio (y) = -0.24008 0.27657
# Poissons Ratio (z) = 0.06478 0.10695
#
# Static dielectric constant tensor:
#      x y z
#    x 2.046970 0.000000 0.080300 
#    y 0.000000 1.965010 0.000000 
#    z 0.080300 0.000000 2.041850 
# 
# From -- ./inp_files/9008.got.cif
#   From: 2010.05.17/outbox.cif.g08.bks.cpg/sg14_5_cif.got.tgz:9008.got - 2010.06.03 17:49:19.
