data_PCOD9245601
_publ_section_title
;
Structure prediction by ZEFSAII (Michael W. Deem and Ramdas Pophale) SiO2 
 PCOD9245601
Probable space group: P 21/C
;
_chemical_formula_sum "Si O2"
_cell_formula_units_Z 32
_cell_length_a 18.843380
_cell_length_b 9.422456
_cell_length_c 9.425720
_cell_angle_alpha 90.000000
_cell_angle_beta 73.311538
_cell_angle_gamma 90.000000
_cell_volume 1603.056096
_symmetry_space_group_name_H-M "P 21/C"
_symmetry_group_IT_number 14
_symmetry_cell_setting 'monoclinic'
loop_
_space_group_symop_operation_xyz
x,y,z
-x,1/2+y,1/2-z
-x,-y,-z
x,1/2-y,1/2+z
loop_
_atom_site_type_symbol
_atom_site_label
_atom_site_fract_x
_atom_site_fract_y
_atom_site_fract_z
Si Si1 0.854913 0.172312 0.640778
Si Si2 0.484942 0.795477 0.939046
Si Si3 0.413828 0.238943 0.374314
Si Si4 0.758529 0.247804 0.448479
Si Si5 0.646751 0.033410 0.120807
Si Si6 0.057481 0.403152 0.876452
Si Si7 0.622173 0.052989 0.467266
Si Si8 0.005926 0.351581 0.581616
O O1 0.829389 0.196050 0.495188
O O2 0.926673 0.270224 0.629101
O O3 0.872416 0.008104 0.664216
O O4 0.786386 0.222001 0.775205
O O5 0.553228 0.813269 0.793347
O O6 0.450235 0.638493 0.940999
O O7 0.417936 0.899756 0.940241
O O8 0.516240 0.802132 0.078967
O O9 0.355381 0.364641 0.392345
O O10 0.383352 0.107410 0.479862
O O11 0.722242 0.389655 0.533995
O O12 0.694124 0.130832 0.488185
O O13 0.626766 0.066368 0.295056
O O14 0.031650 0.376313 0.729292
O O15 0.000000 0.500000 0.000000
O O16 0.059241 0.255435 0.961845
O O17 0.000000 0.500000 0.500000
#
# Coordination Sequence:
#
# PCOD9245601 Si02
#       8
#     4   4   4   4   4   4   4   4
#     4  11  22  42  67  93 123 167 215 245 301 382
#     4  11  22  37  65  89 117 160 203 260 327 385
#     4  12  22  38  63  87 123 155 202 267 333 366
#     4  11  24  42  66  86 119 176 215 250 302 379
#     4  11  23  41  60  90 123 160 210 260 313 373
#     4  10  21  38  64  98 132 164 206 257 311 365
#     4  11  23  42  59  89 128 157 208 267 308 376
#     4  11  21  39  67 102 137 162 201 265 325 365
#
# _framework density 19.961873000000001
#
# number of rings (size 3 to 8) (size 9 to 14) (size 15 to 20)
#    0.000    1.000    3.750    5.250    0.000    1.000 
#    0.000    3.750    0.000    0.000    0.000    0.000 
#    0.000    0.000    0.000    0.000    0.000    0.000 
#
# Total GULP energy -178753.320912 kJ/mol
# GULP energy per Si atom -5586.041278 kJ/mol
# Density = 1.991644 g / cm^3
# Si number density = 19.961873 Si / 1000 Ang^3
#
#
#
# Elastic Constant Matrix: (Units=GPa)
#
#
# Indices 1 2 3 4 5 6 
#
# 1 47.9712 20.8511 -2.5597 0.0000 2.4378 0.0000
# 2 20.8511 104.8925 14.4199 0.0000 1.3798 0.0000
# 3 -2.5597 14.4199 79.0370 0.0000 3.7132 0.0000
# 4 0.0000 0.0000 0.0000 29.9026 0.0000 7.0838
# 5 2.4378 1.3798 3.7132 0.0000 26.4130 0.0000
# 6 0.0000 0.0000 0.0000 7.0838 0.0000 14.8155
#
#
#
# Elastic Compliance Matrix: (Units=1/GPa)
#
#
# Indices 1 2 3 4 5 6 
#
# 1 0.023136 -0.004808 0.001726 0.000000 -0.002127 0.000000
# 2 -0.004808 0.010780 -0.002131 0.000000 0.000180 0.000000
# 3 0.001726 -0.002131 0.013186 0.000000 -0.001902 0.000000
# 4 0.000000 0.000000 0.000000 0.037714 0.000000 -0.018032
# 5 -0.002127 0.000180 -0.001902 0.000000 0.038314 0.000000
# 6 0.000000 0.000000 0.000000 -0.018032 0.000000 0.076119
#
#
# Mechanical properties :
#
#
# Convention : Reuss Voigt Hill
#
# Bulk Modulus (GPa) = 27.26537 33.03593 30.15065
# Shear Modulus (GPa) = 22.53263 27.50552 25.01907
#
# Velocity S-wave (km/s) = 3.36338 3.71604 3.54410
# Velocity P-wave (km/s) = 5.36391 5.91586 5.64663
#
# Compressibility (1/GPa) = 0.03667656
#
# Stress axis : x y z
#
# Youngs Moduli (GPa) = 43.22246 92.76431 75.83607
#
# Poissons Ratio (x) = 0.44606 -0.13093
# Poissons Ratio (y) = 0.20783 0.16160
# Poissons Ratio (z) = -0.07462 0.19768
#
# Static dielectric constant tensor:
#      x y z
#    x 1.699830 0.000000 0.005670 
#    y 0.000000 1.721330 0.000000 
#    z 0.005670 0.000000 1.695010 
# 
# From -- ./inp_files/18612.got.cif
#   From: 2010.05.17/outbox.cif.g08.bks.cpg/sg14_10_cif.got.tgz:18612.got - 2010.06.03 17:49:19.
