data_PCOD9245357
_publ_section_title
;
Structure prediction by ZEFSAII (Michael W. Deem and Ramdas Pophale) SiO2 
 PCOD9245357
Probable space group: P 21/C
;
_chemical_formula_sum "Si O2"
_cell_formula_units_Z 32
_cell_length_a 11.934480
_cell_length_b 15.493500
_cell_length_c 16.806019
_cell_angle_alpha 90.000000
_cell_angle_beta 147.246457
_cell_angle_gamma 90.000000
_cell_volume 1681.265912
_symmetry_space_group_name_H-M "P 21/C"
_symmetry_group_IT_number 14
_symmetry_cell_setting 'monoclinic'
loop_
_space_group_symop_operation_xyz
x,y,z
-x,1/2+y,1/2-z
-x,-y,-z
x,1/2-y,1/2+z
loop_
_atom_site_type_symbol
_atom_site_label
_atom_site_fract_x
_atom_site_fract_y
_atom_site_fract_z
Si Si1 0.203557 0.294943 0.880487
Si Si2 0.115202 0.470521 0.301967
Si Si3 0.668284 0.506993 0.032586
Si Si4 0.754662 0.160872 0.129833
Si Si5 0.580969 0.114885 0.338548
Si Si6 0.639146 0.731920 0.697962
Si Si7 0.953941 0.584247 0.916249
Si Si8 0.547880 0.855316 0.910897
O O1 0.247459 0.269133 0.814284
O O2 0.960235 0.281443 0.751127
O O3 0.262061 0.394043 0.932188
O O4 0.347814 0.238691 0.024461
O O5 0.174345 0.567618 0.357383
O O6 0.121777 0.457429 0.211469
O O7 0.284243 0.410307 0.441177
O O8 0.876120 0.454881 0.181104
O O9 0.584812 0.466170 0.900914
O O10 0.500000 0.500000 0.000000
O O11 0.660747 0.151440 0.162014
O O12 0.568832 0.190993 0.963172
O O13 0.446839 0.190579 0.299044
O O14 0.488725 0.103102 0.196050
O O15 0.825926 0.131315 0.468957
O O16 0.782832 0.660136 0.828160
O O17 0.000000 0.500000 0.000000
#
# Coordination Sequence:
#
# PCOD9245357 Si02
#       8
#     4   4   4   4   4   4   4   4
#     4  10  21  40  66  93 124 176 223 261 338 405
#     4  10  21  38  63  90 118 165 215 261 323 399
#     4  10  21  41  66  87 125 177 215 260 331 402
#     4  10  21  37  66  89 120 168 217 268 325 400
#     4  11  25  39  64  96 133 168 217 281 325 401
#     4  11  22  39  66  93 131 170 223 278 331 395
#     4  11  23  40  66  98 131 171 224 279 337 398
#     4  11  23  39  61  94 128 160 214 273 327 386
#
# _framework density 19.033276999999998
#
# number of rings (size 3 to 8) (size 9 to 14) (size 15 to 20)
#    0.000    1.500    3.750    1.875    3.500    4.000 
#    0.000    0.625    0.000    0.000    0.000    0.000 
#    0.000    0.000    0.000    0.000    0.000    0.000 
#
# Total GULP energy -178430.727350 kJ/mol
# GULP energy per Si atom -5575.960230 kJ/mol
# Density = 1.898996 g / cm^3
# Si number density = 19.033277 Si / 1000 Ang^3
#
#
#
# Elastic Constant Matrix: (Units=GPa)
#
#
# Indices 1 2 3 4 5 6 
#
# 1 101.1300 31.4880 74.1668 0.0000 5.1172 0.0000
# 2 31.4880 77.0610 47.8131 0.0000 6.1707 0.0000
# 3 74.1668 47.8131 118.1393 0.0000 -1.3957 0.0000
# 4 0.0000 0.0000 0.0000 34.6912 0.0000 -3.2577
# 5 5.1172 6.1707 -1.3957 0.0000 39.7641 0.0000
# 6 0.0000 0.0000 0.0000 -3.2577 0.0000 20.5122
#
#
#
# Elastic Compliance Matrix: (Units=1/GPa)
#
#
# Indices 1 2 3 4 5 6 
#
# 1 0.018635 -0.000150 -0.011671 0.000000 -0.002785 0.000000
# 2 -0.000150 0.017679 -0.007096 0.000000 -0.002973 0.000000
# 3 -0.011671 -0.007096 0.018702 0.000000 0.003260 0.000000
# 4 0.000000 0.000000 0.000000 0.029262 0.000000 0.004647
# 5 -0.002785 -0.002973 0.003260 0.000000 0.026082 0.000000
# 6 0.000000 0.000000 0.000000 0.004647 0.000000 0.049490
#
#
# Mechanical properties :
#
#
# Convention : Reuss Voigt Hill
#
# Bulk Modulus (GPa) = 58.20114 67.02956 62.61535
# Shear Modulus (GPa) = 24.58067 28.51766 26.54917
#
# Velocity S-wave (km/s) = 3.59758 3.87499 3.73886
# Velocity P-wave (km/s) = 6.92111 7.43736 7.18387
#
# Compressibility (1/GPa) = 0.01718180
#
# Stress axis : x y z
#
# Youngs Moduli (GPa) = 53.66142 56.56493 53.47033
#
# Poissons Ratio (x) = 0.00849 0.62406
# Poissons Ratio (y) = 0.00806 0.37941
# Poissons Ratio (z) = 0.62629 0.40137
#
# Static dielectric constant tensor:
#      x y z
#    x 1.686020 0.000000 0.023060 
#    y 0.000000 1.715940 0.000000 
#    z 0.023060 0.000000 1.665300 
# 
# From -- ./inp_files/58009.got.cif
#   From: 2010.05.17/outbox.cif.g08.bks.cpg/sg14_30_cif.got.tgz:58009.got - 2010.06.03 17:49:19.
