data_PCOD9245712
_publ_section_title
;
Structure prediction by ZEFSAII (Michael W. Deem and Ramdas Pophale) SiO2 
 PCOD9245712
Probable space group: P 21/C
;
_chemical_formula_sum "Si O2"
_cell_formula_units_Z 32
_cell_length_a 5.243648
_cell_length_b 17.209686
_cell_length_c 18.692999
_cell_angle_alpha 90.000000
_cell_angle_beta 128.982965
_cell_angle_gamma 90.000000
_cell_volume 1311.271385
_symmetry_space_group_name_H-M "P 21/C"
_symmetry_group_IT_number 14
_symmetry_cell_setting 'monoclinic'
loop_
_space_group_symop_operation_xyz
x,y,z
-x,1/2+y,1/2-z
-x,-y,-z
x,1/2-y,1/2+z
loop_
_atom_site_type_symbol
_atom_site_label
_atom_site_fract_x
_atom_site_fract_y
_atom_site_fract_z
Si Si1 0.777048 0.405998 0.779543
Si Si2 0.934839 0.527465 0.313985
Si Si3 0.805003 0.277706 0.273360
Si Si4 0.949088 0.049340 0.610517
Si Si5 0.855359 0.799763 0.025721
Si Si6 0.754996 0.893188 0.198567
Si Si7 0.349915 0.359089 0.073984
Si Si8 0.265355 0.893515 0.995484
O O1 0.419177 0.435162 0.739841
O O2 0.783021 0.313886 0.779892
O O3 0.025187 0.456644 0.873366
O O4 0.870097 0.429590 0.715078
O O5 0.946074 0.439633 0.288445
O O6 0.124462 0.539369 0.421406
O O7 0.531873 0.311062 0.170956
O O8 0.858758 0.307760 0.364047
O O9 0.147751 0.304017 0.295691
O O10 0.215793 0.080698 0.715797
O O11 0.068648 0.086305 0.557881
O O12 0.614031 0.087144 0.579810
O O13 0.781987 0.709538 0.999537
O O14 0.534308 0.843493 0.999274
O O15 0.977591 0.838517 0.973998
O O16 0.448522 0.921793 0.099098
#
# Coordination Sequence:
#
# PCOD9245712 Si02
#       8
#     4   4   4   4   4   4   4   4
#     4  11  23  39  60  86 117 155 203 248 292 347
#     4  11  22  38  60  89 121 157 199 241 295 364
#     4  10  22  40  61  87 119 156 195 249 299 346
#     4  10  21  39  59  83 113 156 201 242 290 350
#     4  11  24  39  60  92 121 156 205 243 291 359
#     4   9  21  38  60  88 120 157 196 239 300 365
#     4  11  21  40  63  84 117 159 196 244 299 349
#     4  11  21  37  57  89 126 156 188 244 300 358
#
# _framework density 24.403798999999999
#
# number of rings (size 3 to 8) (size 9 to 14) (size 15 to 20)
#    0.000    1.500    0.000    6.375    0.000    8.000 
#    0.000    7.500    0.000    0.000    0.000    0.000 
#    0.000    0.000    0.000    0.000    0.000    0.000 
#
# Total GULP energy -178995.539044 kJ/mol
# GULP energy per Si atom -5593.610595 kJ/mol
# Density = 2.434825 g / cm^3
# Si number density = 24.403799 Si / 1000 Ang^3
#
#
#
# Elastic Constant Matrix: (Units=GPa)
#
#
# Indices 1 2 3 4 5 6 
#
# 1 141.0359 38.0107 1.7906 0.0000 -5.1996 0.0000
# 2 38.0107 95.2982 0.4468 0.0000 3.6625 0.0000
# 3 1.7906 0.4468 72.4877 0.0000 -8.6322 0.0000
# 4 0.0000 0.0000 0.0000 31.2621 0.0000 -10.0587
# 5 -5.1996 3.6625 -8.6322 0.0000 12.3017 0.0000
# 6 0.0000 0.0000 0.0000 -10.0587 0.0000 29.7082
#
#
#
# Elastic Compliance Matrix: (Units=1/GPa)
#
#
# Indices 1 2 3 4 5 6 
#
# 1 0.008191 -0.003452 0.000386 0.000000 0.004761 0.000000
# 2 -0.003452 0.012085 -0.000645 0.000000 -0.005510 0.000000
# 3 0.000386 -0.000645 0.015093 0.000000 0.010946 0.000000
# 4 0.000000 0.000000 0.000000 0.035898 0.000000 0.012155
# 5 0.004761 -0.005510 0.010946 0.000000 0.092624 0.000000
# 6 0.000000 0.000000 0.000000 0.012155 0.000000 0.037776
#
#
# Mechanical properties :
#
#
# Convention : Reuss Voigt Hill
#
# Bulk Modulus (GPa) = 35.78219 43.25756 39.51987
# Shear Modulus (GPa) = 22.89307 32.55931 27.72619
#
# Velocity S-wave (km/s) = 3.06616 3.65662 3.37433
# Velocity P-wave (km/s) = 5.21819 5.96591 5.60453
#
# Compressibility (1/GPa) = 0.02794687
#
# Stress axis : x y z
#
# Youngs Moduli (GPa) = 122.07986 82.74704 66.25390
#
# Poissons Ratio (x) = 0.28564 -0.02557
# Poissons Ratio (y) = 0.42142 0.04276
# Poissons Ratio (z) = -0.04711 0.05340
#
# Static dielectric constant tensor:
#      x y z
#    x 1.938300 0.000000 0.025350 
#    y 0.000000 1.962140 0.000000 
#    z 0.025350 0.000000 1.962210 
# 
# From -- ./inp_files/63879.got.cif
#   From: 2010.05.17/outbox.cif.g08.bks.cpg/sg14_32_cif.got.tgz:63879.got - 2010.06.03 17:49:19.
