data_PCOD9245935
_publ_section_title
;
Structure prediction by ZEFSAII (Michael W. Deem and Ramdas Pophale) SiO2 
 PCOD9245935
Probable space group: P 21/C
;
_chemical_formula_sum "Si O2"
_cell_formula_units_Z 24
_cell_length_a 5.135932
_cell_length_b 13.068183
_cell_length_c 14.181854
_cell_angle_alpha 90.000000
_cell_angle_beta 74.868294
_cell_angle_gamma 90.000000
_cell_volume 918.845585
_symmetry_space_group_name_H-M "P 21/C"
_symmetry_group_IT_number 14
_symmetry_cell_setting 'monoclinic'
loop_
_space_group_symop_operation_xyz
x,y,z
-x,1/2+y,1/2-z
-x,-y,-z
x,1/2-y,1/2+z
loop_
_atom_site_type_symbol
_atom_site_label
_atom_site_fract_x
_atom_site_fract_y
_atom_site_fract_z
Si Si1 0.130673 0.284149 0.010144
Si Si2 0.980109 0.487532 0.301530
Si Si3 0.711619 0.187896 0.917807
Si Si4 0.628023 0.655640 0.827082
Si Si5 0.712625 0.529103 0.125654
Si Si6 0.270503 0.678901 0.257721
O O1 0.404008 0.222629 0.957978
O O2 0.138269 0.397002 0.961390
O O3 0.881473 0.222831 0.991648
O O4 0.154150 0.304311 0.119033
O O5 0.233665 0.409956 0.269228
O O6 0.064426 0.600280 0.325790
O O7 0.760699 0.429707 0.385316
O O8 0.883087 0.501176 0.202504
O O9 0.837464 0.252645 0.818230
O O10 0.428624 0.574498 0.897397
O O11 0.454426 0.747589 0.802686
O O12 0.472547 0.600215 0.186900
#
# Coordination Sequence:
#
# PCOD9245935 Si02
#       6
#     4   4   4   4   4   4
#     4  11  25  42  64 102 138 169 211 281 345 386
#     4  11  22  40  70  93 127 179 232 270 319 405
#     4  11  23  43  64  93 135 174 218 271 329 393
#     4  11  24  40  66  97 135 169 221 280 338 388
#     4  10  21  39  65  96 129 170 222 279 325 394
#     4  10  22  40  64  97 127 177 229 268 322 403
#
# _framework density 26.119731000000002
#
# number of rings (size 3 to 8) (size 9 to 14) (size 15 to 20)
#    0.000    1.333    3.333    2.500    4.667    0.667 
#    0.000    1.667    0.000    0.000    0.000    0.000 
#    0.000    0.000    0.000    0.000    0.000    0.000 
#
# Total GULP energy -134597.910546 kJ/mol
# GULP energy per Si atom -5608.246273 kJ/mol
# Density = 2.606028 g / cm^3
# Si number density = 26.119731 Si / 1000 Ang^3
#
#
#
# Elastic Constant Matrix: (Units=GPa)
#
#
# Indices 1 2 3 4 5 6 
#
# 1 81.8458 20.0679 7.1256 0.0000 20.9389 0.0000
# 2 20.0679 126.8267 18.4618 0.0000 12.4463 0.0000
# 3 7.1256 18.4618 80.0267 0.0000 23.9793 0.0000
# 4 0.0000 0.0000 0.0000 37.1704 0.0000 3.6401
# 5 20.9389 12.4463 23.9793 0.0000 56.6622 0.0000
# 6 0.0000 0.0000 0.0000 3.6401 0.0000 55.0583
#
#
#
# Elastic Compliance Matrix: (Units=1/GPa)
#
#
# Indices 1 2 3 4 5 6 
#
# 1 0.013886 -0.001804 0.000686 0.000000 -0.005025 0.000000
# 2 -0.001804 0.008458 -0.001642 0.000000 -0.000496 0.000000
# 3 0.000686 -0.001642 0.014638 0.000000 -0.006087 0.000000
# 4 0.000000 0.000000 0.000000 0.027078 0.000000 -0.001790
# 5 -0.005025 -0.000496 -0.006087 0.000000 0.022191 0.000000
# 6 0.000000 0.000000 0.000000 -0.001790 0.000000 0.018281
#
#
# Mechanical properties :
#
#
# Convention : Reuss Voigt Hill
#
# Bulk Modulus (GPa) = 31.78489 42.22330 37.00410
# Shear Modulus (GPa) = 41.48020 45.98111 43.73065
#
# Velocity S-wave (km/s) = 3.98939 4.20026 4.09618
# Velocity P-wave (km/s) = 5.78063 6.30264 6.04727
#
# Compressibility (1/GPa) = 0.03146149
#
# Stress axis : x y z
#
# Youngs Moduli (GPa) = 72.01296 118.23242 68.31743
#
# Poissons Ratio (x) = 0.21328 -0.04683
# Poissons Ratio (y) = 0.12990 0.11217
# Poissons Ratio (z) = -0.04937 0.19412
#
# Static dielectric constant tensor:
#      x y z
#    x 2.103160 0.000000 -0.076610 
#    y 0.000000 2.054850 0.000000 
#    z -0.076610 0.000000 2.043900 
# 
# From -- ./inp_files/52987.got.cif
#   From: 2010.05.17/outbox.cif.g08.bks.cpg/sg14_27_cif.got.tgz:52987.got - 2010.06.03 17:49:19.
