data_PCOD9245121
_publ_section_title
;
Structure prediction by ZEFSAII (Michael W. Deem and Ramdas Pophale) SiO2 
 PCOD9245121
Probable space group: P 21/C
;
_chemical_formula_sum "Si O2"
_cell_formula_units_Z 32
_cell_length_a 12.073755
_cell_length_b 8.425872
_cell_length_c 21.411645
_cell_angle_alpha 90.000000
_cell_angle_beta 130.640391
_cell_angle_gamma 90.000000
_cell_volume 1652.881208
_symmetry_space_group_name_H-M "P 21/C"
_symmetry_group_IT_number 14
_symmetry_cell_setting 'monoclinic'
loop_
_space_group_symop_operation_xyz
x,y,z
-x,1/2+y,1/2-z
-x,-y,-z
x,1/2-y,1/2+z
loop_
_atom_site_type_symbol
_atom_site_label
_atom_site_fract_x
_atom_site_fract_y
_atom_site_fract_z
Si Si1 0.889050 0.185221 0.512671
Si Si2 0.782799 0.706459 0.571942
Si Si3 0.803006 0.110397 0.222815
Si Si4 0.526400 0.235338 0.561038
Si Si5 0.431014 0.880009 0.561700
Si Si6 0.024358 0.644168 0.088140
Si Si7 0.029325 0.602623 0.340097
Si Si8 0.740549 0.767656 0.693980
O O1 0.720423 0.135099 0.457855
O O2 0.918774 0.233730 0.452152
O O3 0.918766 0.306165 0.579420
O O4 0.002915 0.041818 0.566400
O O5 0.618687 0.655459 0.495154
O O6 0.895677 0.567310 0.627297
O O7 0.760251 0.805947 0.627207
O O8 0.862024 0.802339 0.547277
O O9 0.649486 0.189500 0.149240
O O10 0.873108 0.161684 0.313880
O O11 0.908523 0.162035 0.204058
O O12 0.781957 0.918347 0.216564
O O13 0.584184 0.204956 0.511859
O O14 0.472844 0.063439 0.565076
O O15 0.571757 0.800500 0.646121
O O16 0.855576 0.622550 0.272026
#
# Coordination Sequence:
#
# PCOD9245121 Si02
#       8
#     4   4   4   4   4   4   4   4
#     4  11  23  42  62  84 121 171 196 242 307 366
#     4  10  22  37  61  92 123 152 197 250 305 356
#     4  11  22  37  62  93 121 152 204 254 302 348
#     4  10  21  36  62  92 120 154 196 257 301 356
#     4  10  21  37  60  90 123 153 199 245 311 359
#     4  11  23  41  62  85 123 161 207 242 298 366
#     4  11  22  37  64  91 123 152 203 255 300 352
#     4  10  22  35  60  96 120 148 200 254 299 350
#
# _framework density 19.360132
#
# number of rings (size 3 to 8) (size 9 to 14) (size 15 to 20)
#    0.000    1.500    5.000    0.000    3.500    2.000 
#    0.000    2.500    0.000    0.000    0.000    0.000 
#    0.000    0.000    0.000    0.000    0.000    0.000 
#
# Total GULP energy -178524.857210 kJ/mol
# GULP energy per Si atom -5578.901788 kJ/mol
# Density = 1.931607 g / cm^3
# Si number density = 19.360132 Si / 1000 Ang^3
#
#
#
# Elastic Constant Matrix: (Units=GPa)
#
#
# Indices 1 2 3 4 5 6 
#
# 1 79.2621 6.4280 53.7279 0.0000 0.3341 0.0000
# 2 6.4280 27.5458 23.3501 0.0000 0.0875 0.0000
# 3 53.7279 23.3501 124.1415 0.0000 10.8977 0.0000
# 4 0.0000 0.0000 0.0000 26.6344 0.0000 7.2789
# 5 0.3341 0.0875 10.8977 0.0000 37.2696 0.0000
# 6 0.0000 0.0000 0.0000 7.2789 0.0000 18.2614
#
#
#
# Elastic Compliance Matrix: (Units=1/GPa)
#
#
# Indices 1 2 3 4 5 6 
#
# 1 0.018243 0.003099 -0.008686 0.000000 0.002369 0.000000
# 2 0.003099 0.043915 -0.009842 0.000000 0.002747 0.000000
# 3 -0.008686 -0.009842 0.014017 0.000000 -0.003998 0.000000
# 4 0.000000 0.000000 0.000000 0.042135 0.000000 -0.016795
# 5 0.002369 0.002747 -0.003998 0.000000 0.027973 0.000000
# 6 0.000000 0.000000 0.000000 -0.016795 0.000000 0.061455
#
#
# Mechanical properties :
#
#
# Convention : Reuss Voigt Hill
#
# Bulk Modulus (GPa) = 22.06791 44.21792 33.14291
# Shear Modulus (GPa) = 19.70815 26.26264 22.98540
#
# Velocity S-wave (km/s) = 3.19404 3.68711 3.44939
# Velocity P-wave (km/s) = 5.00259 6.40434 5.74637
#
# Compressibility (1/GPa) = 0.04531467
#
# Stress axis : x y z
#
# Youngs Moduli (GPa) = 54.81511 22.77151 71.34240
#
# Poissons Ratio (x) = -0.07056 0.61970
# Poissons Ratio (y) = -0.16985 0.70217
# Poissons Ratio (z) = 0.47614 0.22412
#
# Static dielectric constant tensor:
#      x y z
#    x 1.685530 0.000000 -0.003500 
#    y 0.000000 1.730670 0.000000 
#    z -0.003500 0.000000 1.698950 
# 
# From -- ./inp_files/67070.got.cif
#   From: 2010.05.17/outbox.cif.g08.bks.cpg/sg14_34_cif.got.tgz:67070.got - 2010.06.03 17:49:19.
