data_PCOD9245961
_publ_section_title
;
Structure prediction by ZEFSAII (Michael W. Deem and Ramdas Pophale) SiO2 
 PCOD9245961
Probable space group: P 21/C
;
_chemical_formula_sum "Si O2"
_cell_formula_units_Z 28
_cell_length_a 12.219877
_cell_length_b 17.257942
_cell_length_c 5.374047
_cell_angle_alpha 90.000000
_cell_angle_beta 68.094835
_cell_angle_gamma 90.000000
_cell_volume 1051.508766
_symmetry_space_group_name_H-M "P 21/C"
_symmetry_group_IT_number 14
_symmetry_cell_setting 'monoclinic'
loop_
_space_group_symop_operation_xyz
x,y,z
-x,1/2+y,1/2-z
-x,-y,-z
x,1/2-y,1/2+z
loop_
_atom_site_type_symbol
_atom_site_label
_atom_site_fract_x
_atom_site_fract_y
_atom_site_fract_z
Si Si1 0.789986 0.091720 0.067000
Si Si2 0.659824 0.197533 0.499932
Si Si3 0.078997 0.286084 0.675274
Si Si4 0.344726 0.223970 0.534999
Si Si5 0.393717 0.946006 0.173651
Si Si6 0.993093 0.589986 0.960286
Si Si7 0.236444 0.061229 0.624523
O O1 0.776756 0.146904 0.319285
O O2 0.801072 0.001891 0.140185
O O3 0.668686 0.092460 0.011754
O O4 0.892225 0.114338 0.789739
O O5 0.654163 0.249751 0.253260
O O6 0.579813 0.122216 0.648661
O O7 0.030513 0.251558 0.467017
O O8 0.219989 0.269614 0.582589
O O9 0.039560 0.372951 0.748043
O O10 0.405856 0.234533 0.215611
O O11 0.320032 0.134097 0.613814
O O12 0.300779 0.006720 0.370065
O O13 0.500000 0.000000 0.000000
O O14 0.877328 0.603278 0.891616
O O15 0.000000 0.500000 0.000000
#
# Coordination Sequence:
#
# PCOD9245961 Si02
#       7
#     4   4   4   4   4   4   4
#     4  11  26  43  76 110 152 203 245 308 382 452
#     4  11  24  51  80 112 154 194 260 316 377 457
#     4  10  22  39  60  92 137 190 232 286 357 427
#     4  10  21  39  66  93 141 188 233 293 362 439
#     4  11  26  51  80 111 150 201 253 322 383 452
#     4  12  24  40  69 106 154 196 250 303 375 456
#     4  11  24  43  70 106 148 193 250 308 377 456
#
# _framework density 26.628405999999998
#
# number of rings (size 3 to 8) (size 9 to 14) (size 15 to 20)
#    0.000    1.143    5.714    0.429    6.000    4.571 
#    0.000    1.429    0.000    0.000    0.000    0.000 
#    0.000    0.000    0.000    0.000    0.000    0.000 
#
# Total GULP energy -156615.698526 kJ/mol
# GULP energy per Si atom -5593.417804 kJ/mol
# Density = 2.656780 g / cm^3
# Si number density = 26.628406 Si / 1000 Ang^3
#
#
#
# Elastic Constant Matrix: (Units=GPa)
#
#
# Indices 1 2 3 4 5 6 
#
# 1 83.0383 15.2469 30.9569 0.0000 -5.1634 0.0000
# 2 15.2469 154.7946 70.8333 0.0000 5.3751 0.0000
# 3 30.9569 70.8333 184.0105 0.0000 12.7949 0.0000
# 4 0.0000 0.0000 0.0000 76.3139 0.0000 8.4956
# 5 -5.1634 5.3751 12.7949 0.0000 34.4426 0.0000
# 6 0.0000 0.0000 0.0000 8.4956 0.0000 25.2974
#
#
#
# Elastic Compliance Matrix: (Units=1/GPa)
#
#
# Indices 1 2 3 4 5 6 
#
# 1 0.013133 -0.000353 -0.002273 0.000000 0.002868 0.000000
# 2 -0.000353 0.007851 -0.002950 0.000000 -0.000182 0.000000
# 3 -0.002273 -0.002950 0.007128 0.000000 -0.002528 0.000000
# 4 0.000000 0.000000 0.000000 0.013613 0.000000 -0.004572
# 5 0.002868 -0.000182 -0.002528 0.000000 0.030431 0.000000
# 6 0.000000 0.000000 0.000000 -0.004572 0.000000 0.041065
#
#
# Mechanical properties :
#
#
# Convention : Reuss Voigt Hill
#
# Bulk Modulus (GPa) = 58.96137 72.87973 65.92055
# Shear Modulus (GPa) = 38.45326 47.53121 42.99223
#
# Velocity S-wave (km/s) = 3.80421 4.22949 4.02247
# Velocity P-wave (km/s) = 6.44099 7.16101 6.81052
#
# Compressibility (1/GPa) = 0.01696026
#
# Stress axis : x y z
#
# Youngs Moduli (GPa) = 76.14295 127.36777 140.28524
#
# Poissons Ratio (x) = 0.04497 0.31887
# Poissons Ratio (y) = 0.02688 0.41387
# Poissons Ratio (z) = 0.17307 0.37576
#
# Static dielectric constant tensor:
#      x y z
#    x 2.171120 0.000000 -0.001790 
#    y 0.000000 2.264850 0.000000 
#    z -0.001790 0.000000 2.125170 
# 
# From -- ./inp_files/3769.got.cif
#   From: 2010.05.17/outbox.cif.g08.bks.cpg/sg14_2_cif.got.tgz:3769.got - 2010.06.03 17:49:19.
