data_PCOD9245330
_publ_section_title
;
Structure prediction by ZEFSAII (Michael W. Deem and Ramdas Pophale) SiO2 
 PCOD9245330
Probable space group: P 21/C
;
_chemical_formula_sum "Si O2"
_cell_formula_units_Z 32
_cell_length_a 23.255860
_cell_length_b 9.507330
_cell_length_c 17.840398
_cell_angle_alpha 90.000000
_cell_angle_beta 22.259456
_cell_angle_gamma 90.000000
_cell_volume 1494.194190
_symmetry_space_group_name_H-M "P 21/C"
_symmetry_group_IT_number 14
_symmetry_cell_setting 'monoclinic'
loop_
_space_group_symop_operation_xyz
x,y,z
-x,1/2+y,1/2-z
-x,-y,-z
x,1/2-y,1/2+z
loop_
_atom_site_type_symbol
_atom_site_label
_atom_site_fract_x
_atom_site_fract_y
_atom_site_fract_z
Si Si1 0.764319 0.498705 0.078964
Si Si2 0.351980 0.247196 0.869592
Si Si3 0.890475 0.983836 0.848129
Si Si4 0.379829 0.151344 0.499061
Si Si5 0.852267 0.435681 0.219675
Si Si6 0.698816 0.339925 0.935926
Si Si7 0.634489 0.908114 0.877778
Si Si8 0.293396 0.727043 0.406063
O O1 0.681723 0.597886 0.119959
O O2 0.761485 0.583455 0.159471
O O3 0.681256 0.349026 0.184302
O O4 0.933822 0.457564 0.852099
O O5 0.336256 0.257041 0.978528
O O6 0.521515 0.204812 0.640275
O O7 0.221745 0.142957 0.997361
O O8 0.863781 0.023775 0.793016
O O9 0.844083 0.125723 0.946844
O O10 0.372643 0.248662 0.581815
O O11 0.559375 0.128173 0.267353
O O12 0.294327 0.002032 0.598639
O O13 0.817667 0.268295 0.254564
O O14 0.701751 0.503898 0.365563
O O15 0.000000 0.500000 0.000000
O O16 0.723504 0.309998 0.994998
O O17 0.500000 0.000000 0.000000
#
# Coordination Sequence:
#
# PCOD9245330 Si02
#       8
#     4   4   4   4   4   4   4   4
#     4  12  23  39  62  96 134 169 222 281 336 405
#     4  11  22  39  66 100 128 172 226 283 338 397
#     4  11  22  40  67  92 132 171 220 278 342 405
#     4  11  21  40  65  96 131 171 225 285 337 400
#     4  11  23  44  67  94 132 184 222 266 345 421
#     4  10  22  39  68  93 127 173 228 282 328 403
#     4  12  24  40  67  97 132 183 230 271 337 422
#     4  10  21  37  63  96 124 163 221 284 337 387
#
# _framework density 21.416226999999999
#
# number of rings (size 3 to 8) (size 9 to 14) (size 15 to 20)
#    0.000    1.000    6.250    1.500    0.000    0.000 
#    0.000    4.375    2.750    0.000    0.000    0.000 
#    0.000    0.000    0.000    0.000    0.000    0.000 
#
# Total GULP energy -178401.281982 kJ/mol
# GULP energy per Si atom -5575.040062 kJ/mol
# Density = 2.136748 g / cm^3
# Si number density = 21.416227 Si / 1000 Ang^3
#
#
#
# Elastic Constant Matrix: (Units=GPa)
#
#
# Indices 1 2 3 4 5 6 
#
# 1 38.0230 2.9655 10.5919 0.0000 -8.6961 0.0000
# 2 2.9655 134.0666 49.9794 0.0000 3.5554 0.0000
# 3 10.5919 49.9794 59.8103 0.0000 -4.8897 0.0000
# 4 0.0000 0.0000 0.0000 37.8703 0.0000 -3.0177
# 5 -8.6961 3.5554 -4.8897 0.0000 30.5558 0.0000
# 6 0.0000 0.0000 0.0000 -3.0177 0.0000 19.1497
#
#
#
# Elastic Compliance Matrix: (Units=1/GPa)
#
#
# Indices 1 2 3 4 5 6 
#
# 1 0.029459 0.001272 -0.005681 0.000000 0.007327 0.000000
# 2 0.001272 0.011121 -0.009722 0.000000 -0.002488 0.000000
# 3 -0.005681 -0.009722 0.026152 0.000000 0.003699 0.000000
# 4 0.000000 0.000000 0.000000 0.026742 0.000000 0.004214
# 5 0.007327 -0.002488 0.003699 0.000000 0.035694 0.000000
# 6 0.000000 0.000000 0.000000 0.004214 0.000000 0.052884
#
#
# Mechanical properties :
#
#
# Convention : Reuss Voigt Hill
#
# Bulk Modulus (GPa) = 25.99397 39.88594 32.93996
# Shear Modulus (GPa) = 22.40787 28.73938 25.57363
#
# Velocity S-wave (km/s) = 3.23817 3.66723 3.45936
# Velocity P-wave (km/s) = 5.11320 6.04947 5.60093
#
# Compressibility (1/GPa) = 0.03847045
#
# Stress axis : x y z
#
# Youngs Moduli (GPa) = 33.94567 89.91984 38.23839
#
# Poissons Ratio (x) = -0.11436 0.21722
# Poissons Ratio (y) = -0.04317 0.37174
# Poissons Ratio (z) = 0.19283 0.87417
#
# Static dielectric constant tensor:
#      x y z
#    x 1.803160 0.000000 0.010130 
#    y 0.000000 1.806970 0.000000 
#    z 0.010130 0.000000 1.905190 
# 
# From -- ./inp_files/70477.got.cif
#   From: 2010.05.17/outbox.cif.g08.bks.cpg/sg14_36_cif.got.tgz:70477.got - 2010.06.03 17:49:19.
