data_PCOD9245052
_publ_section_title
;
Structure prediction by ZEFSAII (Michael W. Deem and Ramdas Pophale) SiO2 
 PCOD9245052
Probable space group: P 21/C
;
_chemical_formula_sum "Si O2"
_cell_formula_units_Z 24
_cell_length_a 21.878261
_cell_length_b 7.963276
_cell_length_c 9.521000
_cell_angle_alpha 90.000000
_cell_angle_beta 30.250846
_cell_angle_gamma 90.000000
_cell_volume 835.668165
_symmetry_space_group_name_H-M "P 21/C"
_symmetry_group_IT_number 14
_symmetry_cell_setting 'monoclinic'
loop_
_space_group_symop_operation_xyz
x,y,z
-x,1/2+y,1/2-z
-x,-y,-z
x,1/2-y,1/2+z
loop_
_atom_site_type_symbol
_atom_site_label
_atom_site_fract_x
_atom_site_fract_y
_atom_site_fract_z
Si Si1 0.970601 0.517427 0.784775
Si Si2 0.654890 0.900890 0.073562
Si Si3 0.821430 0.297534 0.524345
Si Si4 0.480671 0.309086 0.884603
Si Si5 0.684627 0.102347 0.563907
Si Si6 0.850683 0.814517 0.280130
O O1 0.057994 0.589234 0.731539
O O2 0.064279 0.421922 0.491777
O O3 0.918063 0.673636 0.795417
O O4 0.869410 0.375118 0.000281
O O5 0.602781 0.898321 0.335175
O O6 0.595042 0.755115 0.096558
O O7 0.594788 0.067592 0.125270
O O8 0.796194 0.852537 0.818012
O O9 0.754717 0.243048 0.516427
O O10 0.733122 0.388264 0.808214
O O11 0.546151 0.152294 0.829229
O O12 0.730190 0.929459 0.539614
#
# Coordination Sequence:
#
# PCOD9245052 Si02
#       6
#     4   4   4   4   4   4
#     4   9  20  37  58  88 123 157 205 256 309 370
#     4  11  25  42  65  93 125 165 210 258 316 377
#     4  10  21  36  58  85 117 160 202 254 312 367
#     4  11  25  43  63  95 128 163 213 262 310 380
#     4  10  21  38  59  84 119 160 202 251 311 367
#     4   9  20  40  61  84 122 168 202 249 314 375
#
# _framework density 28.719532000000001
#
# number of rings (size 3 to 8) (size 9 to 14) (size 15 to 20)
#    0.000    2.000    0.000    3.000    0.000   14.000 
#    0.000    0.000    0.000    0.000    0.000    0.000 
#    0.000    0.000    0.000    0.000    0.000    0.000 
#
# Total GULP energy -134517.912514 kJ/mol
# GULP energy per Si atom -5604.913021 kJ/mol
# Density = 2.865417 g / cm^3
# Si number density = 28.719532 Si / 1000 Ang^3
#
#
#
# Elastic Constant Matrix: (Units=GPa)
#
#
# Indices 1 2 3 4 5 6 
#
# 1 177.2030 30.1346 30.4298 0.0000 -29.8228 0.0000
# 2 30.1346 95.1782 14.5222 0.0000 -10.0260 0.0000
# 3 30.4298 14.5222 68.6935 0.0000 -17.6091 0.0000
# 4 0.0000 0.0000 0.0000 48.6870 0.0000 -8.5335
# 5 -29.8228 -10.0260 -17.6091 0.0000 36.4418 0.0000
# 6 0.0000 0.0000 0.0000 -8.5335 0.0000 52.2447
#
#
#
# Elastic Compliance Matrix: (Units=1/GPa)
#
#
# Indices 1 2 3 4 5 6 
#
# 1 0.006925 -0.001475 -0.001606 0.000000 0.004485 0.000000
# 2 -0.001475 0.011320 -0.001428 0.000000 0.001217 0.000000
# 3 -0.001606 -0.001428 0.017273 0.000000 0.006639 0.000000
# 4 0.000000 0.000000 0.000000 0.021145 0.000000 0.003454
# 5 0.004485 0.001217 0.006639 0.000000 0.034655 0.000000
# 6 0.000000 0.000000 0.000000 0.003454 0.000000 0.019705
#
#
# Mechanical properties :
#
#
# Convention : Reuss Voigt Hill
#
# Bulk Modulus (GPa) = 37.73593 54.58308 46.15951
# Shear Modulus (GPa) = 38.79839 45.20724 42.00282
#
# Velocity S-wave (km/s) = 3.67950 3.97179 3.82844
# Velocity P-wave (km/s) = 5.58745 6.33090 5.97076
#
# Compressibility (1/GPa) = 0.02649994
#
# Stress axis : x y z
#
# Youngs Moduli (GPa) = 144.41091 88.34188 57.89531
#
# Poissons Ratio (x) = 0.13030 0.09298
# Poissons Ratio (y) = 0.21300 0.08265
# Poissons Ratio (z) = 0.23192 0.12612
#
# Static dielectric constant tensor:
#      x y z
#    x 2.059800 0.000000 -0.017250 
#    y 0.000000 2.346980 0.000000 
#    z -0.017250 0.000000 2.282420 
# 
# From -- ./inp_files/35677.got.cif
#   From: 2010.05.17/outbox.cif.g08.bks.cpg/sg14_18_cif.got.tgz:35677.got - 2010.06.03 17:49:19.
