data_PCOD9245186
_publ_section_title
;
Structure prediction by ZEFSAII (Michael W. Deem and Ramdas Pophale) SiO2 
 PCOD9245186
Probable space group: P 21/C
;
_chemical_formula_sum "Si O2"
_cell_formula_units_Z 32
_cell_length_a 6.556141
_cell_length_b 14.116715
_cell_length_c 17.146615
_cell_angle_alpha 90.000000
_cell_angle_beta 90.806650
_cell_angle_gamma 90.000000
_cell_volume 1586.782077
_symmetry_space_group_name_H-M "P 21/C"
_symmetry_group_IT_number 14
_symmetry_cell_setting 'monoclinic'
loop_
_space_group_symop_operation_xyz
x,y,z
-x,1/2+y,1/2-z
-x,-y,-z
x,1/2-y,1/2+z
loop_
_atom_site_type_symbol
_atom_site_label
_atom_site_fract_x
_atom_site_fract_y
_atom_site_fract_z
Si Si1 0.478055 0.777475 0.338257
Si Si2 0.092423 0.089791 0.821309
Si Si3 0.455156 0.226066 0.837185
Si Si4 0.375542 0.931018 0.891929
Si Si5 0.843442 0.907756 0.352160
Si Si6 0.234533 0.581726 0.947025
Si Si7 0.546675 0.071058 0.393872
Si Si8 0.288195 0.916548 0.066189
O O1 0.452825 0.800451 0.246700
O O2 0.435780 0.667782 0.353644
O O3 0.708154 0.812756 0.359126
O O4 0.330095 0.838508 0.391523
O O5 0.227911 0.183687 0.836713
O O6 0.038072 0.091063 0.729460
O O7 0.910436 0.084787 0.881404
O O8 0.238343 0.999811 0.838544
O O9 0.473979 0.337862 0.846981
O O10 0.575715 0.172355 0.905782
O O11 0.579168 0.990052 0.913833
O O12 0.258867 0.913587 0.973305
O O13 0.997416 0.921893 0.424402
O O14 0.678373 0.992578 0.349207
O O15 0.350197 0.483830 0.926698
O O16 0.305923 0.603362 0.034743
#
# Coordination Sequence:
#
# PCOD9245186 Si02
#       8
#     4   4   4   4   4   4   4   4
#     4  10  21  37  57  83 115 150 189 235 287 341
#     4  10  21  37  59  87 117 150 191 239 288 340
#     4  10  21  37  57  83 115 150 189 235 287 341
#     4  10  21  38  59  83 114 154 194 235 286 344
#     4  10  21  37  59  87 117 150 191 239 288 340
#     4  10  21  38  58  83 116 150 190 240 287 337
#     4  10  21  38  59  83 114 154 194 235 286 344
#     4  10  21  38  58  83 116 150 190 240 287 337
#
# _framework density 20.166602000000001
#
# number of rings (size 3 to 8) (size 9 to 14) (size 15 to 20)
#    0.000    2.000    0.000    3.000    0.000    5.000 
#    0.000   10.000    0.000    0.000    0.000    0.000 
#    0.000    0.000    0.000    0.000    0.000    0.000 
#
# Total GULP energy -178711.770041 kJ/mol
# GULP energy per Si atom -5584.742814 kJ/mol
# Density = 2.012070 g / cm^3
# Si number density = 20.166602 Si / 1000 Ang^3
#
#
#
# Elastic Constant Matrix: (Units=GPa)
#
#
# Indices 1 2 3 4 5 6 
#
# 1 61.4288 17.7328 15.0663 0.0000 -8.8912 0.0000
# 2 17.7328 77.1418 0.5652 0.0000 -0.8140 0.0000
# 3 15.0663 0.5652 55.8581 0.0000 -7.8806 0.0000
# 4 0.0000 0.0000 0.0000 28.3301 0.0000 -4.9168
# 5 -8.8912 -0.8140 -7.8806 0.0000 37.2457 0.0000
# 6 0.0000 0.0000 0.0000 -4.9168 0.0000 7.0598
#
#
#
# Elastic Compliance Matrix: (Units=1/GPa)
#
#
# Indices 1 2 3 4 5 6 
#
# 1 0.019174 -0.004337 -0.004634 0.000000 0.003502 0.000000
# 2 -0.004337 0.013947 0.000954 0.000000 -0.000529 0.000000
# 3 -0.004634 0.000954 0.019574 0.000000 0.003056 0.000000
# 4 0.000000 0.000000 0.000000 0.040151 0.000000 0.027964
# 5 0.003502 -0.000529 0.003056 0.000000 0.028320 0.000000
# 6 0.000000 0.000000 0.000000 0.027964 0.000000 0.161123
#
#
# Mechanical properties :
#
#
# Convention : Reuss Voigt Hill
#
# Bulk Modulus (GPa) = 27.27579 29.01749 28.14664
# Shear Modulus (GPa) = 16.10077 25.26472 20.68274
#
# Velocity S-wave (km/s) = 2.82864 3.54333 3.20596
# Velocity P-wave (km/s) = 4.92167 5.58215 5.26228
#
# Compressibility (1/GPa) = 0.03666255
#
# Stress axis : x y z
#
# Youngs Moduli (GPa) = 52.15308 71.69752 51.08848
#
# Poissons Ratio (x) = 0.31094 0.23674
# Poissons Ratio (y) = 0.22618 -0.04874
# Poissons Ratio (z) = 0.24167 -0.06840
#
# Static dielectric constant tensor:
#      x y z
#    x 1.706300 0.000000 0.002270 
#    y 0.000000 1.685030 0.000000 
#    z 0.002270 0.000000 1.711460 
# 
# From -- ./inp_files/53477.got.cif
#   From: 2010.05.17/outbox.cif.g08.bks.cpg/sg14_27_cif.got.tgz:53477.got - 2010.06.03 17:49:19.
