data_PCOD9245791
_publ_section_title
;
Structure prediction by ZEFSAII (Michael W. Deem and Ramdas Pophale) SiO2 
 PCOD9245791
Probable space group: P 21/C
;
_chemical_formula_sum "Si O2"
_cell_formula_units_Z 28
_cell_length_a 11.438800
_cell_length_b 12.360335
_cell_length_c 8.792481
_cell_angle_alpha 90.000000
_cell_angle_beta 67.821552
_cell_angle_gamma 90.000000
_cell_volume 1151.168942
_symmetry_space_group_name_H-M "P 21/C"
_symmetry_group_IT_number 14
_symmetry_cell_setting 'monoclinic'
loop_
_space_group_symop_operation_xyz
x,y,z
-x,1/2+y,1/2-z
-x,-y,-z
x,1/2-y,1/2+z
loop_
_atom_site_type_symbol
_atom_site_label
_atom_site_fract_x
_atom_site_fract_y
_atom_site_fract_z
Si Si1 0.683162 0.274660 0.632699
Si Si2 0.186297 0.878803 0.643571
Si Si3 0.236311 0.261807 0.281083
Si Si4 0.671458 0.550590 0.109318
Si Si5 0.306726 0.518853 0.555774
Si Si6 0.905274 0.879227 0.903344
Si Si7 0.539090 0.601973 0.763575
O O1 0.722909 0.333591 0.768042
O O2 0.797629 0.204805 0.504500
O O3 0.651240 0.365923 0.524880
O O4 0.566248 0.193643 0.703315
O O5 0.233017 0.992693 0.553090
O O6 0.047459 0.884515 0.779740
O O7 0.125052 0.326250 0.420377
O O8 0.173932 0.193895 0.177569
O O9 0.349514 0.345578 0.190320
O O10 0.299372 0.174484 0.366480
O O11 0.691413 0.495324 0.266415
O O12 0.530866 0.506644 0.143956
O O13 0.164908 0.494713 0.567647
O O14 0.394520 0.431412 0.427233
#
# Coordination Sequence:
#
# PCOD9245791 Si02
#       7
#     4   4   4   4   4   4   4
#     4  11  23  40  63  90 122 158 197 248 299 353
#     4  11  24  40  61  90 121 158 203 245 295 355
#     4  10  22  39  62  87 119 159 197 246 300 354
#     4  10  22  38  61  90 120 158 198 244 299 355
#     4  10  22  40  62  88 122 159 197 246 300 353
#     4  10  23  41  61  88 121 160 202 244 295 354
#     4  10  21  39  62  90 120 154 198 242 299 357
#
# _framework density 24.323103
#
# number of rings (size 3 to 8) (size 9 to 14) (size 15 to 20)
#    0.000    1.714    0.000    3.857    0.000   15.429 
#    0.000    4.286    0.000    0.000    0.000    0.000 
#    0.000    0.000    0.000    0.000    0.000    0.000 
#
# Total GULP energy -156777.215894 kJ/mol
# GULP energy per Si atom -5599.186282 kJ/mol
# Density = 2.426774 g / cm^3
# Si number density = 24.323103 Si / 1000 Ang^3
#
#
#
# Elastic Constant Matrix: (Units=GPa)
#
#
# Indices 1 2 3 4 5 6 
#
# 1 74.0629 28.6839 38.8146 0.0000 -29.4255 0.0000
# 2 28.6839 93.5944 22.9368 0.0000 -14.2891 0.0000
# 3 38.8146 22.9368 83.0916 0.0000 -26.5229 0.0000
# 4 0.0000 0.0000 0.0000 48.8678 0.0000 5.4087
# 5 -29.4255 -14.2891 -26.5229 0.0000 58.1039 0.0000
# 6 0.0000 0.0000 0.0000 5.4087 0.0000 25.1550
#
#
#
# Elastic Compliance Matrix: (Units=1/GPa)
#
#
# Indices 1 2 3 4 5 6 
#
# 1 0.021154 -0.003819 -0.006681 0.000000 0.006724 0.000000
# 2 -0.003819 0.012279 -0.001474 0.000000 0.000413 0.000000
# 3 -0.006681 -0.001474 0.016817 0.000000 0.003931 0.000000
# 4 0.000000 0.000000 0.000000 0.020962 0.000000 -0.004507
# 5 0.006724 0.000413 0.003931 0.000000 0.022512 0.000000
# 6 0.000000 0.000000 0.000000 -0.004507 0.000000 0.040723
#
#
# Mechanical properties :
#
#
# Convention : Reuss Voigt Hill
#
# Bulk Modulus (GPa) = 38.01927 47.95773 42.98850
# Shear Modulus (GPa) = 29.91099 37.11290 33.51195
#
# Velocity S-wave (km/s) = 3.51056 3.91042 3.71588
# Velocity P-wave (km/s) = 5.66542 6.33627 6.01021
#
# Compressibility (1/GPa) = 0.02630245
#
# Stress axis : x y z
#
# Youngs Moduli (GPa) = 47.27217 81.43949 59.46232
#
# Poissons Ratio (x) = 0.31103 0.39728
# Poissons Ratio (y) = 0.18054 0.08763
# Poissons Ratio (z) = 0.31583 0.12002
#
# Static dielectric constant tensor:
#      x y z
#    x 1.949350 0.000000 0.034550 
#    y 0.000000 1.946990 0.000000 
#    z 0.034550 0.000000 1.928500 
# 
# From -- ./inp_files/13237.got.cif
#   From: 2010.05.17/outbox.cif.g08.bks.cpg/sg14_7_cif.got.tgz:13237.got - 2010.06.03 17:49:19.
