data_PCOD9245390
_publ_section_title
;
Structure prediction by ZEFSAII (Michael W. Deem and Ramdas Pophale) SiO2 
 PCOD9245390
Probable space group: P 21/C
;
_chemical_formula_sum "Si O2"
_cell_formula_units_Z 24
_cell_length_a 11.599374
_cell_length_b 5.913574
_cell_length_c 13.142714
_cell_angle_alpha 90.000000
_cell_angle_beta 70.493805
_cell_angle_gamma 90.000000
_cell_volume 849.766420
_symmetry_space_group_name_H-M "P 21/C"
_symmetry_group_IT_number 14
_symmetry_cell_setting 'monoclinic'
loop_
_space_group_symop_operation_xyz
x,y,z
-x,1/2+y,1/2-z
-x,-y,-z
x,1/2-y,1/2+z
loop_
_atom_site_type_symbol
_atom_site_label
_atom_site_fract_x
_atom_site_fract_y
_atom_site_fract_z
Si Si1 0.712036 0.850338 0.405541
Si Si2 0.999017 0.373146 0.134651
Si Si3 0.460242 0.367665 0.389100
Si Si4 0.964070 0.382577 0.385680
Si Si5 0.320951 0.065282 0.272206
Si Si6 0.717209 0.241582 0.545621
O O1 0.851893 0.850654 0.404332
O O2 0.603330 0.698068 0.485717
O O3 0.725657 0.767951 0.285477
O O4 0.673131 0.091396 0.463038
O O5 0.982701 0.634016 0.100191
O O6 0.953438 0.380944 0.265538
O O7 0.967677 0.116357 0.107182
O O8 0.409646 0.178078 0.328338
O O9 0.600987 0.401175 0.322235
O O10 0.391874 0.602693 0.384482
O O11 0.827517 0.385936 0.469181
O O12 0.239051 0.910722 0.370649
#
# Coordination Sequence:
#
# PCOD9245390 Si02
#       6
#     4   4   4   4   4   4
#     4  10  22  37  59  85 113 150 200 239 294 351
#     4   9  17  33  58  88 115 153 200 242 293 356
#     4  11  21  39  57  80 117 151 193 236 301 350
#     4   9  17  33  59  85 117 156 196 241 297 356
#     4  11  23  38  56  85 116 151 194 247 290 354
#     4  10  21  38  57  83 115 153 191 242 296 353
#
# _framework density 28.243055999999999
#
# number of rings (size 3 to 8) (size 9 to 14) (size 15 to 20)
#    0.000    2.000    3.333    0.500    0.000    2.000 
#    0.000    0.833    0.000    1.000    0.000    0.000 
#    0.000    0.000    0.000    0.000    0.000    0.000 
#
# Total GULP energy -134174.223946 kJ/mol
# GULP energy per Si atom -5590.592664 kJ/mol
# Density = 2.817877 g / cm^3
# Si number density = 28.243056 Si / 1000 Ang^3
#
#
#
# Elastic Constant Matrix: (Units=GPa)
#
#
# Indices 1 2 3 4 5 6 
#
# 1 25.0412 25.9449 33.3158 0.0000 -8.3136 0.0000
# 2 25.9449 190.1045 71.2312 0.0000 7.2425 0.0000
# 3 33.3158 71.2312 165.5887 0.0000 -21.0112 0.0000
# 4 0.0000 0.0000 0.0000 62.0517 0.0000 3.9922
# 5 -8.3136 7.2425 -21.0112 0.0000 42.4517 0.0000
# 6 0.0000 0.0000 0.0000 3.9922 0.0000 52.4510
#
#
#
# Elastic Compliance Matrix: (Units=1/GPa)
#
#
# Indices 1 2 3 4 5 6 
#
# 1 0.059654 -0.005187 -0.008724 0.000000 0.008249 0.000000
# 2 -0.005187 0.006995 -0.002397 0.000000 -0.003395 0.000000
# 3 -0.008724 -0.002397 0.009241 0.000000 0.003274 0.000000
# 4 0.000000 0.000000 0.000000 0.016195 0.000000 -0.001233
# 5 0.008249 -0.003395 0.003274 0.000000 0.027371 0.000000
# 6 0.000000 0.000000 0.000000 -0.001233 0.000000 0.019159
#
#
# Mechanical properties :
#
#
# Convention : Reuss Voigt Hill
#
# Bulk Modulus (GPa) = 23.10802 71.30202 47.20502
# Shear Modulus (GPa) = 26.93164 48.07372 37.50268
#
# Velocity S-wave (km/s) = 3.09134 4.13018 3.64793
# Velocity P-wave (km/s) = 4.57618 6.93146 5.87310
#
# Compressibility (1/GPa) = 0.04327501
#
# Stress axis : x y z
#
# Youngs Moduli (GPa) = 16.76341 142.95013 108.21743
#
# Poissons Ratio (x) = 0.74144 0.94411
# Poissons Ratio (y) = 0.08695 0.25934
# Poissons Ratio (z) = 0.14625 0.34258
#
# Static dielectric constant tensor:
#      x y z
#    x 2.223030 0.000000 0.039360 
#    y 0.000000 2.207480 0.000000 
#    z 0.039360 0.000000 2.150540 
# 
# From -- ./inp_files/45686.got.cif
#   From: 2010.05.17/outbox.cif.g08.bks.cpg/sg14_23_cif.got.tgz:45686.got - 2010.06.03 17:49:19.
