data_PCOD9245067
_publ_section_title
;
Structure prediction by ZEFSAII (Michael W. Deem and Ramdas Pophale) SiO2 
 PCOD9245067
Probable space group: P 21/C
;
_chemical_formula_sum "Si O2"
_cell_formula_units_Z 32
_cell_length_a 13.805607
_cell_length_b 7.071262
_cell_length_c 13.899024
_cell_angle_alpha 90.000000
_cell_angle_beta 90.807073
_cell_angle_gamma 90.000000
_cell_volume 1356.730701
_symmetry_space_group_name_H-M "P 21/C"
_symmetry_group_IT_number 14
_symmetry_cell_setting 'monoclinic'
loop_
_space_group_symop_operation_xyz
x,y,z
-x,1/2+y,1/2-z
-x,-y,-z
x,1/2-y,1/2+z
loop_
_atom_site_type_symbol
_atom_site_label
_atom_site_fract_x
_atom_site_fract_y
_atom_site_fract_z
Si Si1 0.018133 0.006720 0.614815
Si Si2 0.579817 0.203472 0.643776
Si Si3 0.910299 0.100242 0.889665
Si Si4 0.457871 0.677997 0.556419
Si Si5 0.208601 0.044180 0.723685
Si Si6 0.284536 0.633680 0.694533
Si Si7 0.593384 0.861649 0.217963
Si Si8 0.096840 0.844534 0.891830
O O1 0.927490 0.133869 0.646499
O O2 0.033724 0.789548 0.646209
O O3 0.119079 0.096652 0.653756
O O4 0.000000 0.000000 0.500000
O O5 0.577373 0.186220 0.529269
O O6 0.668963 0.106121 0.700123
O O7 0.478544 0.149569 0.692576
O O8 0.594562 0.424324 0.675981
O O9 0.816896 0.038766 0.829394
O O10 0.870996 0.150502 0.996615
O O11 0.991990 0.943227 0.894379
O O12 0.500000 0.500000 0.500000
O O13 0.370688 0.601099 0.620737
O O14 0.540145 0.751819 0.631143
O O15 0.257618 0.856345 0.679355
O O16 0.163635 0.965650 0.822983
O O17 0.297612 0.182262 0.748130
#
# Coordination Sequence:
#
# PCOD9245067 Si02
#       8
#     4   4   4   4   4   4   4   4
#     4   9  20  40  58  82 122 159 197 253 304 356
#     4   9  18  36  59  83 117 153 190 249 308 351
#     4   9  20  38  60  89 120 156 211 254 299 379
#     4   9  18  34  60  85 113 153 197 249 299 366
#     4  10  21  36  59  86 121 160 198 252 305 370
#     4   9  19  34  56  85 114 151 202 242 302 371
#     4   9  19  37  57  86 118 151 198 246 302 369
#     4  10  21  37  62  86 121 166 198 258 316 349
#
# _framework density 23.586110000000001
#
# number of rings (size 3 to 8) (size 9 to 14) (size 15 to 20)
#    0.000    2.750    0.000    0.000    8.750    0.000 
#    6.750    6.875    2.750    1.500    0.000    0.000 
#    0.000    0.000    0.000    0.000    0.000    0.000 
#
# Total GULP energy -178638.897445 kJ/mol
# GULP energy per Si atom -5582.465545 kJ/mol
# Density = 2.353243 g / cm^3
# Si number density = 23.586110 Si / 1000 Ang^3
#
#
#
# Elastic Constant Matrix: (Units=GPa)
#
#
# Indices 1 2 3 4 5 6 
#
# 1 119.9945 7.6983 59.0854 0.0000 31.9232 0.0000
# 2 7.6983 49.1617 8.6248 0.0000 10.0345 0.0000
# 3 59.0854 8.6248 113.0240 0.0000 21.8493 0.0000
# 4 0.0000 0.0000 0.0000 21.5392 0.0000 1.7773
# 5 31.9232 10.0345 21.8493 0.0000 34.9228 0.0000
# 6 0.0000 0.0000 0.0000 1.7773 0.0000 37.5120
#
#
#
# Elastic Compliance Matrix: (Units=1/GPa)
#
#
# Indices 1 2 3 4 5 6 
#
# 1 0.013282 0.000689 -0.005245 0.000000 -0.009057 0.000000
# 2 0.000689 0.021670 -0.000783 0.000000 -0.006366 0.000000
# 3 -0.005245 -0.000783 0.012148 0.000000 -0.002581 0.000000
# 4 0.000000 0.000000 0.000000 0.046609 0.000000 -0.002208
# 5 -0.009057 -0.006366 -0.002581 0.000000 0.040358 0.000000
# 6 0.000000 0.000000 0.000000 -0.002208 0.000000 0.026763
#
#
# Mechanical properties :
#
#
# Convention : Reuss Voigt Hill
#
# Bulk Modulus (GPa) = 27.45584 48.11079 37.78331
# Shear Modulus (GPa) = 27.22588 32.57958 29.90273
#
# Velocity S-wave (km/s) = 3.40121 3.72062 3.56450
# Velocity P-wave (km/s) = 5.20483 6.23695 5.74412
#
# Compressibility (1/GPa) = 0.03642213
#
# Stress axis : x y z
#
# Youngs Moduli (GPa) = 75.29131 46.14673 82.31616
#
# Poissons Ratio (x) = -0.03180 0.43174
# Poissons Ratio (y) = -0.05188 0.06446
# Poissons Ratio (z) = 0.39490 0.03614
#
# Static dielectric constant tensor:
#      x y z
#    x 1.898210 0.000000 0.046680 
#    y 0.000000 2.013130 0.000000 
#    z 0.046680 0.000000 1.934310 
# 
# From -- ./inp_files/46286.got.cif
#   From: 2010.05.17/outbox.cif.g08.bks.cpg/sg14_24_cif.got.tgz:46286.got - 2010.06.03 17:49:19.
