data_PCOD9245408
_publ_section_title
;
Structure prediction by ZEFSAII (Michael W. Deem and Ramdas Pophale) SiO2 
 PCOD9245408
Probable space group: P 21/C
;
_chemical_formula_sum "Si O2"
_cell_formula_units_Z 28
_cell_length_a 16.502029
_cell_length_b 12.732122
_cell_length_c 18.710379
_cell_angle_alpha 90.000000
_cell_angle_beta 158.179269
_cell_angle_gamma 90.000000
_cell_volume 1461.226959
_symmetry_space_group_name_H-M "P 21/C"
_symmetry_group_IT_number 14
_symmetry_cell_setting 'monoclinic'
loop_
_space_group_symop_operation_xyz
x,y,z
-x,1/2+y,1/2-z
-x,-y,-z
x,1/2-y,1/2+z
loop_
_atom_site_type_symbol
_atom_site_label
_atom_site_fract_x
_atom_site_fract_y
_atom_site_fract_z
Si Si1 0.746810 0.899949 0.736553
Si Si2 0.111617 0.874133 0.915328
Si Si3 0.723880 0.366568 0.215289
Si Si4 0.512374 0.547057 0.264587
Si Si5 0.829541 0.704628 0.446078
Si Si6 0.209258 0.129967 0.472834
Si Si7 0.382625 0.766531 0.738436
O O1 0.911990 0.902297 0.805205
O O2 0.502145 0.875698 0.511500
O O3 0.815889 0.813484 0.850445
O O4 0.752116 0.017865 0.774072
O O5 0.005775 0.862604 0.750938
O O6 0.227024 0.774005 0.046760
O O7 0.299698 0.961870 0.066942
O O8 0.708909 0.275494 0.261879
O O9 0.935791 0.344313 0.341112
O O10 0.630633 0.635573 0.313774
O O11 0.315809 0.484838 0.065935
O O12 0.426883 0.610999 0.263212
O O13 0.817758 0.819158 0.470852
O O14 0.389809 0.203847 0.583186
#
# Coordination Sequence:
#
# PCOD9245408 Si02
#       7
#     4   4   4   4   4   4   4
#     4  11  21  34  63  90 118 148 194 255 307 335
#     4  11  20  38  63  87 117 157 197 246 297 351
#     4  11  21  35  60  94 117 147 199 249 299 351
#     4  10  23  38  59  85 124 158 194 239 296 357
#     4  11  22  37  60  89 120 152 191 252 296 347
#     4  10  23  39  57  88 121 157 202 235 295 362
#     4  10  21  38  58  87 123 154 195 244 298 353
#
# _framework density 19.161978000000001
#
# number of rings (size 3 to 8) (size 9 to 14) (size 15 to 20)
#    0.000    1.429    4.286    2.143    2.000    5.714 
#    0.000    0.714    0.000    1.714    0.000    0.000 
#    0.000    0.000    0.000    0.000    0.000    0.000 
#
# Total GULP energy -156187.447978 kJ/mol
# GULP energy per Si atom -5578.123142 kJ/mol
# Density = 1.911836 g / cm^3
# Si number density = 19.161978 Si / 1000 Ang^3
#
#
#
# Elastic Constant Matrix: (Units=GPa)
#
#
# Indices 1 2 3 4 5 6 
#
# 1 50.4270 25.2094 3.6191 0.0000 -0.0231 0.0000
# 2 25.2094 52.4901 16.5175 0.0000 0.1927 0.0000
# 3 3.6191 16.5175 98.3121 0.0000 0.5337 0.0000
# 4 0.0000 0.0000 0.0000 8.2038 0.0000 7.6458
# 5 -0.0231 0.1927 0.5337 0.0000 22.6498 0.0000
# 6 0.0000 0.0000 0.0000 7.6458 0.0000 30.7123
#
#
#
# Elastic Compliance Matrix: (Units=1/GPa)
#
#
# Indices 1 2 3 4 5 6 
#
# 1 0.026233 -0.012982 0.001215 0.000000 0.000109 0.000000
# 2 -0.012982 0.026539 -0.003980 0.000000 -0.000145 0.000000
# 3 0.001215 -0.003980 0.010797 0.000000 -0.000219 0.000000
# 4 0.000000 0.000000 0.000000 0.158721 0.000000 -0.039514
# 5 0.000109 -0.000145 -0.000219 0.000000 0.044157 0.000000
# 6 0.000000 0.000000 0.000000 -0.039514 0.000000 0.042397
#
#
# Mechanical properties :
#
#
# Convention : Reuss Voigt Hill
#
# Bulk Modulus (GPa) = 31.17703 32.43570 31.80636
# Shear Modulus (GPa) = 14.24380 22.70539 18.47459
#
# Velocity S-wave (km/s) = 2.72938 3.44600 3.10841
# Velocity P-wave (km/s) = 5.12233 5.72687 5.43302
#
# Compressibility (1/GPa) = 0.03207490
#
# Stress axis : x y z
#
# Youngs Moduli (GPa) = 38.11954 37.68056 92.61943
#
# Poissons Ratio (x) = 0.48916 -0.11251
# Poissons Ratio (y) = 0.49486 0.36864
# Poissons Ratio (z) = -0.04631 0.14997
#
# Static dielectric constant tensor:
#      x y z
#    x 1.709760 0.000000 0.019980 
#    y 0.000000 1.674670 0.000000 
#    z 0.019980 0.000000 1.687260 
# 
# From -- ./inp_files/69322.got.cif
#   From: 2010.05.17/outbox.cif.g08.bks.cpg/sg14_35_cif.got.tgz:69322.got - 2010.06.03 17:49:19.
