data_PCOD9245101
_publ_section_title
;
Structure prediction by ZEFSAII (Michael W. Deem and Ramdas Pophale) SiO2 
 PCOD9245101
Probable space group: P 21/C
;
_chemical_formula_sum "Si O2"
_cell_formula_units_Z 28
_cell_length_a 17.339374
_cell_length_b 5.397435
_cell_length_c 14.880533
_cell_angle_alpha 90.000000
_cell_angle_beta 58.288787
_cell_angle_gamma 90.000000
_cell_volume 1184.731594
_symmetry_space_group_name_H-M "P 21/C"
_symmetry_group_IT_number 14
_symmetry_cell_setting 'monoclinic'
loop_
_space_group_symop_operation_xyz
x,y,z
-x,1/2+y,1/2-z
-x,-y,-z
x,1/2-y,1/2+z
loop_
_atom_site_type_symbol
_atom_site_label
_atom_site_fract_x
_atom_site_fract_y
_atom_site_fract_z
Si Si1 0.108212 0.256575 0.706347
Si Si2 0.707705 0.313918 0.178115
Si Si3 0.176579 0.331223 0.987940
Si Si4 0.220126 0.756386 0.669001
Si Si5 0.519171 0.539340 0.287682
Si Si6 0.662175 0.997201 0.045821
Si Si7 0.041460 0.254426 0.434213
O O1 0.094908 0.221862 0.607620
O O2 0.151344 0.526248 0.697374
O O3 0.034727 0.238648 0.830416
O O4 0.172504 0.018394 0.683775
O O5 0.744047 0.249104 0.252294
O O6 0.626092 0.511009 0.241751
O O7 0.663737 0.100423 0.146333
O O8 0.790061 0.399396 0.062412
O O9 0.263482 0.217702 0.986697
O O10 0.144618 0.232261 0.910289
O O11 0.299565 0.690336 0.549977
O O12 0.498500 0.826470 0.277648
O O13 0.443876 0.449815 0.406752
O O14 0.000000 0.500000 0.500000
O O15 0.000000 0.000000 0.500000
#
# Coordination Sequence:
#
# PCOD9245101 Si02
#       7
#     4   4   4   4   4   4   4
#     4  11  24  44  67  98 129 166 217 263 321 398
#     4  11  21  39  66  92 133 177 221 263 333 373
#     4  11  23  43  70  91 131 178 212 261 337 385
#     4  11  23  37  68  98 128 173 223 263 311 392
#     4  10  21  36  60  93 134 173 222 271 317 376
#     4  10  22  40  64  96 134 174 224 266 321 385
#     4  12  28  45  69  99 129 161 212 270 322 396
#
# _framework density 23.634046000000001
#
# number of rings (size 3 to 8) (size 9 to 14) (size 15 to 20)
#    0.000    1.143    4.286    1.714    2.000    1.714 
#    0.000    0.000    0.000    6.857    0.000    0.000 
#    0.000    0.000    0.000    0.000    0.000    0.000 
#
# Total GULP energy -156037.095250 kJ/mol
# GULP energy per Si atom -5572.753402 kJ/mol
# Density = 2.358025 g / cm^3
# Si number density = 23.634046 Si / 1000 Ang^3
#
#
#
# Elastic Constant Matrix: (Units=GPa)
#
#
# Indices 1 2 3 4 5 6 
#
# 1 31.7681 24.7919 25.8698 0.0000 9.5614 0.0000
# 2 24.7919 98.5417 34.8078 0.0000 -2.8325 0.0000
# 3 25.8698 34.8078 106.2193 0.0000 8.4997 0.0000
# 4 0.0000 0.0000 0.0000 38.6904 0.0000 -6.5115
# 5 9.5614 -2.8325 8.4997 0.0000 39.1283 0.0000
# 6 0.0000 0.0000 0.0000 -6.5115 0.0000 32.4286
#
#
#
# Elastic Compliance Matrix: (Units=1/GPa)
#
#
# Indices 1 2 3 4 5 6 
#
# 1 0.048788 -0.009840 -0.007782 0.000000 -0.010944 0.000000
# 2 -0.009840 0.013570 -0.002362 0.000000 0.003900 0.000000
# 3 -0.007782 -0.002362 0.012157 0.000000 -0.000910 0.000000
# 4 0.000000 0.000000 0.000000 0.026750 0.000000 0.005371
# 5 -0.010944 0.003900 -0.000910 0.000000 0.028711 0.000000
# 6 0.000000 0.000000 0.000000 0.005371 0.000000 0.031915
#
#
# Mechanical properties :
#
#
# Convention : Reuss Voigt Hill
#
# Bulk Modulus (GPa) = 28.94695 45.27422 37.11058
# Shear Modulus (GPa) = 23.43268 32.12013 27.77640
#
# Velocity S-wave (km/s) = 3.15219 3.69055 3.43194
# Velocity P-wave (km/s) = 5.05203 6.11213 5.60719
#
# Compressibility (1/GPa) = 0.03454596
#
# Stress axis : x y z
#
# Youngs Moduli (GPa) = 20.49664 73.69059 82.25845
#
# Poissons Ratio (x) = 0.72514 0.64014
# Poissons Ratio (y) = 0.20169 0.19433
# Poissons Ratio (z) = 0.15951 0.17409
#
# Static dielectric constant tensor:
#      x y z
#    x 2.016700 0.000000 -0.131850 
#    y 0.000000 1.966760 0.000000 
#    z -0.131850 0.000000 2.032060 
# 
# From -- ./inp_files/47911.got.cif
#   From: 2010.05.17/outbox.cif.g08.bks.cpg/sg14_24_cif.got.tgz:47911.got - 2010.06.03 17:49:19.
