data_PCOD9245936
_publ_section_title
;
Structure prediction by ZEFSAII (Michael W. Deem and Ramdas Pophale) SiO2 
 PCOD9245936
Probable space group: P 21/C
;
_chemical_formula_sum "Si O2"
_cell_formula_units_Z 26
_cell_length_a 4.852676
_cell_length_b 13.190597
_cell_length_c 14.262023
_cell_angle_alpha 90.000000
_cell_angle_beta 102.273207
_cell_angle_gamma 90.000000
_cell_volume 892.043293
_symmetry_space_group_name_H-M "P 21/C"
_symmetry_group_IT_number 14
_symmetry_cell_setting 'monoclinic'
loop_
_space_group_symop_operation_xyz
x,y,z
-x,1/2+y,1/2-z
-x,-y,-z
x,1/2-y,1/2+z
loop_
_atom_site_type_symbol
_atom_site_label
_atom_site_fract_x
_atom_site_fract_y
_atom_site_fract_z
Si Si1 0.944603 0.664005 0.549659
Si Si2 0.000000 0.000000 0.500000
Si Si3 0.615038 0.826374 0.780953
Si Si4 0.091211 0.558908 0.383469
Si Si5 0.048690 0.508125 0.177100
Si Si6 0.149230 0.691618 0.763653
Si Si7 0.435407 0.143789 0.440509
O O1 0.831210 0.552191 0.573100
O O2 0.146281 0.694957 0.650260
O O3 0.128370 0.639783 0.470200
O O4 0.704792 0.751052 0.533123
O O5 0.792924 0.955358 0.396696
O O6 0.854680 0.929248 0.584523
O O7 0.754544 0.918897 0.846731
O O8 0.403915 0.755523 0.819926
O O9 0.521421 0.855853 0.669650
O O10 0.871382 0.749012 0.776358
O O11 0.176726 0.562409 0.277760
O O12 0.723764 0.401980 0.999852
O O13 0.862638 0.424202 0.212286
#
# Coordination Sequence:
#
# PCOD9245936 Si02
#       7
#     4   2   4   4   4   4   4
#     4   9  18  36  63  95 138 184 228 293 355 430
#     4   8  16  32  64  94 136 178 222 296 342 422
#     4  10  21  39  65  96 133 177 229 288 336 428
#     4   9  18  35  63  97 136 182 236 287 356 423
#     4   8  17  34  61  99 132 178 229 289 346 420
#     4  10  21  40  66  95 134 176 229 284 353 411
#     4   8  17  34  60  92 135 175 229 280 352 410
#
# _framework density 29.146567999999998
#
# number of rings (size 3 to 8) (size 9 to 14) (size 15 to 20)
#    0.923    2.154    0.000    0.000    2.154    0.000 
#    0.000   26.154    0.000   30.462    0.000    0.000 
#    0.000    0.000    0.000    0.000    0.000    0.000 
#
# Total GULP energy -144830.123060 kJ/mol
# GULP energy per Si atom -5570.389348 kJ/mol
# Density = 2.908023 g / cm^3
# Si number density = 29.146568 Si / 1000 Ang^3
#
#
#
# Elastic Constant Matrix: (Units=GPa)
#
#
# Indices 1 2 3 4 5 6 
#
# 1 67.1338 25.0281 37.4206 0.0000 0.5857 0.0000
# 2 25.0281 168.1051 60.7863 0.0000 1.1028 0.0000
# 3 37.4206 60.7863 238.1357 0.0000 -22.6162 0.0000
# 4 0.0000 0.0000 0.0000 36.4110 0.0000 -3.4083
# 5 0.5857 1.1028 -22.6162 0.0000 44.1176 0.0000
# 6 0.0000 0.0000 0.0000 -3.4083 0.0000 38.8373
#
#
#
# Elastic Compliance Matrix: (Units=1/GPa)
#
#
# Indices 1 2 3 4 5 6 
#
# 1 0.016835 -0.001645 -0.002358 0.000000 -0.001391 0.000000
# 2 -0.001645 0.006763 -0.001558 0.000000 -0.000946 0.000000
# 3 -0.002358 -0.001558 0.005229 0.000000 0.002751 0.000000
# 4 0.000000 0.000000 0.000000 0.027692 0.000000 0.002430
# 5 -0.001391 -0.000946 0.002751 0.000000 0.024119 0.000000
# 6 0.000000 0.000000 0.000000 0.002430 0.000000 0.025962
#
#
# Mechanical properties :
#
#
# Convention : Reuss Voigt Hill
#
# Bulk Modulus (GPa) = 56.47688 79.98273 68.22981
# Shear Modulus (GPa) = 40.44601 47.21582 43.83091
#
# Velocity S-wave (km/s) = 3.72919 4.02922 3.88211
# Velocity P-wave (km/s) = 6.16129 7.01051 6.59957
#
# Compressibility (1/GPa) = 0.01770636
#
# Stress axis : x y z
#
# Youngs Moduli (GPa) = 59.39950 147.86342 191.25513
#
# Poissons Ratio (x) = 0.24321 0.45093
# Poissons Ratio (y) = 0.09770 0.29791
# Poissons Ratio (z) = 0.14005 0.23032
#
# Static dielectric constant tensor:
#      x y z
#    x 2.353290 0.000000 -0.028560 
#    y 0.000000 2.356770 0.000000 
#    z -0.028560 0.000000 2.333790 
# 
# From -- ./inp_files/37358.got.cif
#   From: 2010.05.17/outbox.cif.g08.bks.cpg/sg14_19_cif.got.tgz:37358.got - 2010.06.03 17:49:19.
