data_PCOD9245841
_publ_section_title
;
Structure prediction by ZEFSAII (Michael W. Deem and Ramdas Pophale) SiO2 
 PCOD9245841
Probable space group: P 21/C
;
_chemical_formula_sum "Si O2"
_cell_formula_units_Z 28
_cell_length_a 11.894021
_cell_length_b 14.138059
_cell_length_c 8.184683
_cell_angle_alpha 90.000000
_cell_angle_beta 117.289963
_cell_angle_gamma 90.000000
_cell_volume 1223.134861
_symmetry_space_group_name_H-M "P 21/C"
_symmetry_group_IT_number 14
_symmetry_cell_setting 'monoclinic'
loop_
_space_group_symop_operation_xyz
x,y,z
-x,1/2+y,1/2-z
-x,-y,-z
x,1/2-y,1/2+z
loop_
_atom_site_type_symbol
_atom_site_label
_atom_site_fract_x
_atom_site_fract_y
_atom_site_fract_z
Si Si1 0.991782 0.809936 0.405741
Si Si2 0.827698 0.824858 0.589640
Si Si3 0.445404 0.546689 0.209560
Si Si4 0.410285 0.743013 0.356664
Si Si5 0.296708 0.482605 0.783802
Si Si6 0.154919 0.838307 0.216735
Si Si7 0.425225 0.156476 0.768463
O O1 0.929924 0.859743 0.522249
O O2 0.882838 0.766413 0.217096
O O3 0.083617 0.861716 0.338979
O O4 0.067952 0.722004 0.536718
O O5 0.701706 0.808200 0.399847
O O6 0.789027 0.898749 0.702952
O O7 0.399291 0.645386 0.250502
O O8 0.594627 0.551209 0.267235
O O9 0.417133 0.454519 0.301717
O O10 0.371132 0.522856 0.993081
O O11 0.275728 0.771782 0.338275
O O12 0.524889 0.721455 0.554952
O O13 0.460519 0.830527 0.284297
O O14 0.206734 0.567218 0.666962
#
# Coordination Sequence:
#
# PCOD9245841 Si02
#       7
#     4   4   4   4   4   4   4
#     4  10  23  42  63  87 122 169 220 249 304 371
#     4  10  23  41  61  89 124 164 210 263 307 368
#     4  10  22  38  59  99 133 161 200 257 330 388
#     4  12  23  38  67  96 128 163 204 261 327 375
#     4  10  21  39  63  92 131 160 206 263 314 376
#     4  11  22  41  65  91 124 168 210 257 309 375
#     4  11  23  39  64  96 128 161 206 261 325 378
#
# _framework density 22.891995999999999
#
# number of rings (size 3 to 8) (size 9 to 14) (size 15 to 20)
#    0.000    1.429    1.429    3.857    6.000    1.143 
#    0.000    1.429    0.000    0.000    0.000    0.000 
#    0.000    0.000    0.000    0.000    0.000    0.000 
#
# Total GULP energy -156519.782001 kJ/mol
# GULP energy per Si atom -5589.992214 kJ/mol
# Density = 2.283989 g / cm^3
# Si number density = 22.891996 Si / 1000 Ang^3
#
#
#
# Elastic Constant Matrix: (Units=GPa)
#
#
# Indices 1 2 3 4 5 6 
#
# 1 115.2205 23.1428 -9.5995 0.0000 -1.4304 0.0000
# 2 23.1428 69.6578 2.4305 0.0000 6.3373 0.0000
# 3 -9.5995 2.4305 43.9277 0.0000 14.3222 0.0000
# 4 0.0000 0.0000 0.0000 20.4448 0.0000 -4.1739
# 5 -1.4304 6.3373 14.3222 0.0000 29.9380 0.0000
# 6 0.0000 0.0000 0.0000 -4.1739 0.0000 27.0382
#
#
#
# Elastic Compliance Matrix: (Units=1/GPa)
#
#
# Indices 1 2 3 4 5 6 
#
# 1 0.009518 -0.003247 0.002236 0.000000 0.000072 0.000000
# 2 -0.003247 0.015748 -0.000525 0.000000 -0.003237 0.000000
# 3 0.002236 -0.000525 0.027501 0.000000 -0.012938 0.000000
# 4 0.000000 0.000000 0.000000 0.050504 0.000000 0.007796
# 5 0.000072 -0.003237 -0.012938 0.000000 0.040281 0.000000
# 6 0.000000 0.000000 0.000000 0.007796 0.000000 0.038188
#
#
# Mechanical properties :
#
#
# Convention : Reuss Voigt Hill
#
# Bulk Modulus (GPa) = 20.12304 28.97261 24.54782
# Shear Modulus (GPa) = 24.82908 29.67299 27.25104
#
# Velocity S-wave (km/s) = 3.29693 3.60421 3.45399
# Velocity P-wave (km/s) = 4.82726 5.47760 5.16268
#
# Compressibility (1/GPa) = 0.04969428
#
# Stress axis : x y z
#
# Youngs Moduli (GPa) = 105.05986 63.50213 36.36257
#
# Poissons Ratio (x) = 0.20619 -0.08131
# Poissons Ratio (y) = 0.34112 0.01910
# Poissons Ratio (z) = -0.23493 0.03336
#
# Static dielectric constant tensor:
#      x y z
#    x 1.887330 0.000000 -0.033620 
#    y 0.000000 1.872500 0.000000 
#    z -0.033620 0.000000 1.886160 
# 
# From -- ./inp_files/13124.got.cif
#   From: 2010.05.17/outbox.cif.g08.bks.cpg/sg14_7_cif.got.tgz:13124.got - 2010.06.03 17:49:19.
