data_PCOD9245307
_publ_section_title
;
Structure prediction by ZEFSAII (Michael W. Deem and Ramdas Pophale) SiO2 
 PCOD9245307
Probable space group: P 21/C
;
_chemical_formula_sum "Si O2"
_cell_formula_units_Z 28
_cell_length_a 5.308148
_cell_length_b 24.413371
_cell_length_c 8.934069
_cell_angle_alpha 90.000000
_cell_angle_beta 85.255711
_cell_angle_gamma 90.000000
_cell_volume 1153.797306
_symmetry_space_group_name_H-M "P 21/C"
_symmetry_group_IT_number 14
_symmetry_cell_setting 'monoclinic'
loop_
_space_group_symop_operation_xyz
x,y,z
-x,1/2+y,1/2-z
-x,-y,-z
x,1/2-y,1/2+z
loop_
_atom_site_type_symbol
_atom_site_label
_atom_site_fract_x
_atom_site_fract_y
_atom_site_fract_z
Si Si1 0.122095 0.220168 0.593037
Si Si2 0.364806 0.656746 0.984360
Si Si3 0.427171 0.889274 0.144108
Si Si4 0.448137 0.430212 0.837508
Si Si5 0.177164 0.029300 0.608604
Si Si6 0.059907 0.326678 0.426389
Si Si7 0.185526 0.504733 0.628717
O O1 0.399761 0.198841 0.532128
O O2 0.088028 0.283751 0.558186
O O3 0.082198 0.206952 0.769475
O O4 0.900985 0.187906 0.516382
O O5 0.375336 0.621707 0.139574
O O6 0.383529 0.622516 0.824408
O O7 0.699730 0.866369 0.088721
O O8 0.415781 0.953187 0.099348
O O9 0.205845 0.858123 0.065997
O O10 0.614564 0.485309 0.851384
O O11 0.270192 0.448799 0.709153
O O12 0.285587 0.423731 0.998865
O O13 0.992914 0.041112 0.751370
O O14 0.000000 0.000000 0.500000
O O15 0.000000 0.500000 0.500000
#
# Coordination Sequence:
#
# PCOD9245307 Si02
#       7
#     4   4   4   4   4   4   4
#     4  10  22  40  66  96 128 162 209 277 335 395
#     4  10  21  37  68  98 124 166 222 271 328 386
#     4  10  22  40  67  93 126 181 215 258 331 403
#     4  10  21  37  62  93 124 168 224 273 318 383
#     4   9  19  35  61  84 124 164 219 269 311 376
#     4  10  22  43  67  93 127 163 218 271 332 394
#     4  11  25  41  60  92 140 179 221 270 333 399
#
# _framework density 24.267696999999998
#
# number of rings (size 3 to 8) (size 9 to 14) (size 15 to 20)
#    0.000    2.000    0.000    3.429   12.000    0.571 
#    2.571    0.000    0.000    0.000    0.000    0.000 
#    0.000    0.000    0.000    0.000    0.000    0.000 
#
# Total GULP energy -156467.050730 kJ/mol
# GULP energy per Si atom -5588.108955 kJ/mol
# Density = 2.421246 g / cm^3
# Si number density = 24.267697 Si / 1000 Ang^3
#
#
#
# Elastic Constant Matrix: (Units=GPa)
#
#
# Indices 1 2 3 4 5 6 
#
# 1 115.6989 14.2278 36.3123 0.0000 33.2506 0.0000
# 2 14.2278 65.0486 25.4625 0.0000 14.5523 0.0000
# 3 36.3123 25.4625 72.6486 0.0000 20.8256 0.0000
# 4 0.0000 0.0000 0.0000 39.7533 0.0000 21.4545
# 5 33.2506 14.5523 20.8256 0.0000 32.3959 0.0000
# 6 0.0000 0.0000 0.0000 21.4545 0.0000 39.3087
#
#
#
# Elastic Compliance Matrix: (Units=1/GPa)
#
#
# Indices 1 2 3 4 5 6 
#
# 1 0.012922 0.001138 -0.003567 0.000000 -0.011482 0.000000
# 2 0.001138 0.018573 -0.005335 0.000000 -0.006082 0.000000
# 3 -0.003567 -0.005335 0.019224 0.000000 -0.006301 0.000000
# 4 0.000000 0.000000 0.000000 0.035659 0.000000 -0.019463
# 5 -0.011482 -0.006082 -0.006301 0.000000 0.049435 0.000000
# 6 0.000000 0.000000 0.000000 -0.019463 0.000000 0.036062
#
#
# Mechanical properties :
#
#
# Convention : Reuss Voigt Hill
#
# Bulk Modulus (GPa) = 28.41557 45.04460 36.73009
# Shear Modulus (GPa) = 25.10884 34.11780 29.61332
#
# Velocity S-wave (km/s) = 3.22010 3.75359 3.49704
# Velocity P-wave (km/s) = 5.05570 6.11456 5.61016
#
# Compressibility (1/GPa) = 0.03519198
#
# Stress axis : x y z
#
# Youngs Moduli (GPa) = 77.38590 53.84125 52.01925
#
# Poissons Ratio (x) = -0.06129 0.18553
# Poissons Ratio (y) = -0.08809 0.27754
# Poissons Ratio (z) = 0.27600 0.28726
#
# Static dielectric constant tensor:
#      x y z
#    x 2.105160 0.000000 -0.160210 
#    y 0.000000 1.961520 0.000000 
#    z -0.160210 0.000000 2.069090 
# 
# From -- ./inp_files/6569.got.cif
#   From: 2010.05.17/outbox.cif.g08.bks.cpg/sg14_4_cif.got.tgz:6569.got - 2010.06.03 17:49:19.
