data_PCOD9245731
_publ_section_title
;
Structure prediction by ZEFSAII (Michael W. Deem and Ramdas Pophale) SiO2 
 PCOD9245731
Probable space group: P 21/C
;
_chemical_formula_sum "Si O2"
_cell_formula_units_Z 28
_cell_length_a 13.882723
_cell_length_b 9.618599
_cell_length_c 15.042912
_cell_angle_alpha 90.000000
_cell_angle_beta 42.450395
_cell_angle_gamma 90.000000
_cell_volume 1355.785705
_symmetry_space_group_name_H-M "P 21/C"
_symmetry_group_IT_number 14
_symmetry_cell_setting 'monoclinic'
loop_
_space_group_symop_operation_xyz
x,y,z
-x,1/2+y,1/2-z
-x,-y,-z
x,1/2-y,1/2+z
loop_
_atom_site_type_symbol
_atom_site_label
_atom_site_fract_x
_atom_site_fract_y
_atom_site_fract_z
Si Si1 0.185217 0.138935 0.933071
Si Si2 0.609320 0.075244 0.136606
Si Si3 0.609922 0.378728 0.450266
Si Si4 0.620944 0.432172 0.978009
Si Si5 0.108255 0.953721 0.830977
Si Si6 0.292152 0.057294 0.393233
Si Si7 0.751923 0.208807 0.667565
O O1 0.207928 0.299153 0.941030
O O2 0.332772 0.059155 0.851428
O O3 0.144324 0.094521 0.860088
O O4 0.057377 0.068063 0.077325
O O5 0.440103 0.067964 0.237619
O O6 0.645518 0.207649 0.173888
O O7 0.686880 0.070064 0.987882
O O8 0.500000 0.500000 0.500000
O O9 0.566503 0.226917 0.518732
O O10 0.687307 0.341587 0.305425
O O11 0.775173 0.435043 0.824555
O O12 0.500000 0.500000 0.000000
O O13 0.649284 0.514744 0.049460
O O14 0.136492 0.826426 0.880765
O O15 0.202372 0.927917 0.416382
#
# Coordination Sequence:
#
# PCOD9245731 Si02
#       7
#     4   4   4   4   4   4   4
#     4  10  23  42  65  88 124 171 204 255 316 379
#     4  11  22  39  63  92 128 162 204 259 316 376
#     4  11  22  36  61  92 129 163 203 252 325 369
#     4  11  24  40  63  94 127 162 209 267 313 369
#     4   9  22  46  62  84 127 171 208 249 319 380
#     4  12  22  37  64  97 125 155 213 266 313 363
#     4  10  21  39  60  89 125 161 204 263 307 372
#
# _framework density 20.652231
#
# number of rings (size 3 to 8) (size 9 to 14) (size 15 to 20)
#    0.000    1.429    2.857    3.429    4.000    0.571 
#    5.143    0.000    0.000    0.000    0.000    0.000 
#    0.000    0.000    0.000    0.000    0.000    0.000 
#
# Total GULP energy -155938.756896 kJ/mol
# GULP energy per Si atom -5569.241318 kJ/mol
# Density = 2.060523 g / cm^3
# Si number density = 20.652231 Si / 1000 Ang^3
#
#
#
# Elastic Constant Matrix: (Units=GPa)
#
#
# Indices 1 2 3 4 5 6 
#
# 1 77.2759 38.0150 32.0374 0.0000 15.2165 0.0000
# 2 38.0150 133.2309 22.7378 0.0000 13.6895 0.0000
# 3 32.0374 22.7378 76.8333 0.0000 13.3297 0.0000
# 4 0.0000 0.0000 0.0000 27.7413 0.0000 4.6031
# 5 15.2165 13.6895 13.3297 0.0000 36.2474 0.0000
# 6 0.0000 0.0000 0.0000 4.6031 0.0000 30.9220
#
#
#
# Elastic Compliance Matrix: (Units=1/GPa)
#
#
# Indices 1 2 3 4 5 6 
#
# 1 0.017920 -0.003732 -0.005669 0.000000 -0.004029 0.000000
# 2 -0.003732 0.008861 -0.000809 0.000000 -0.001482 0.000000
# 3 -0.005669 -0.000809 0.016185 0.000000 -0.003267 0.000000
# 4 0.000000 0.000000 0.000000 0.036960 0.000000 -0.005502
# 5 -0.004029 -0.001482 -0.003267 0.000000 0.031041 0.000000
# 6 0.000000 0.000000 0.000000 -0.005502 0.000000 0.033158
#
#
# Mechanical properties :
#
#
# Convention : Reuss Voigt Hill
#
# Bulk Modulus (GPa) = 44.35233 52.54671 48.44952
# Shear Modulus (GPa) = 29.05964 31.95215 30.50589
#
# Velocity S-wave (km/s) = 3.75520 3.93765 3.84751
# Velocity P-wave (km/s) = 6.35015 6.79502 6.57635
#
# Compressibility (1/GPa) = 0.02254673
#
# Stress axis : x y z
#
# Youngs Moduli (GPa) = 55.80385 112.85491 61.78526
#
# Poissons Ratio (x) = 0.42114 0.35025
# Poissons Ratio (y) = 0.20824 0.04999
# Poissons Ratio (z) = 0.31634 0.09131
#
# Static dielectric constant tensor:
#      x y z
#    x 1.698480 0.000000 0.177700 
#    y 0.000000 1.841510 0.000000 
#    z 0.177700 0.000000 1.560610 
# 
# From -- ./inp_files/46455.got.cif
#   From: 2010.05.17/outbox.cif.g08.bks.cpg/sg14_24_cif.got.tgz:46455.got - 2010.06.03 17:49:19.
