data_PCOD9245780
_publ_section_title
;
Structure prediction by ZEFSAII (Michael W. Deem and Ramdas Pophale) SiO2 
 PCOD9245780
Probable space group: P 21/C
;
_chemical_formula_sum "Si O2"
_cell_formula_units_Z 20
_cell_length_a 11.809348
_cell_length_b 6.960024
_cell_length_c 13.640337
_cell_angle_alpha 90.000000
_cell_angle_beta 148.457680
_cell_angle_gamma 90.000000
_cell_volume 586.502532
_symmetry_space_group_name_H-M "P 21/C"
_symmetry_group_IT_number 14
_symmetry_cell_setting 'monoclinic'
loop_
_space_group_symop_operation_xyz
x,y,z
-x,1/2+y,1/2-z
-x,-y,-z
x,1/2-y,1/2+z
loop_
_atom_site_type_symbol
_atom_site_label
_atom_site_fract_x
_atom_site_fract_y
_atom_site_fract_z
Si Si1 0.750000 1.000000 0.500000
Si Si2 0.958482 0.313544 0.342658
Si Si3 0.541518 0.686457 0.657342
Si Si4 0.167381 0.399804 0.303314
Si Si5 0.667381 0.100196 0.803314
O O1 0.986650 0.913199 0.622330
O O2 0.560079 0.890928 0.283520
O O3 0.743167 0.794390 0.570697
O O4 0.513349 0.086800 0.377670
O O5 0.939921 0.390928 0.216479
O O6 0.155110 0.438997 0.529284
O O7 0.751416 0.339916 0.256205
O O8 0.344889 0.561004 0.470716
O O9 0.748584 0.660085 0.743795
O O10 0.243168 0.794391 0.570698
#
# Coordination Sequence:
#
# PCOD9245780 Si02
#       5
#     4   4   4   4   4
#     4   8  24  38  66  80 136 146 198 250 316 312
#     4  10  21  39  62  87 120 157 199 244 296 356
#     4  10  21  39  62  87 120 157 199 244 296 356
#     4  10  21  39  62  87 120 157 199 244 296 356
#     4  10  21  39  62  87 120 157 199 244 296 356
#
# _framework density 34.100450000000002
#
# number of rings (size 3 to 8) (size 9 to 14) (size 15 to 20)
#    2.400    0.000    0.000    2.400    0.000    6.400 
#    0.000   12.000    0.000    0.000    0.000    0.000 
#    0.000    0.000    0.000    0.000    0.000    0.000 
#
# Total GULP energy -112283.954507 kJ/mol
# GULP energy per Si atom -5614.197725 kJ/mol
# Density = 3.402284 g / cm^3
# Si number density = 34.100450 Si / 1000 Ang^3
#
#
#
# Elastic Constant Matrix: (Units=GPa)
#
#
# Indices 1 2 3 4 5 6 
#
# 1 413.2973 190.2471 167.8835 0.0000 29.2680 0.0000
# 2 190.2471 443.8647 146.3176 0.0000 27.3721 0.0000
# 3 167.8835 146.3176 340.9232 0.0000 29.7231 0.0000
# 4 0.0000 0.0000 0.0000 134.3048 0.0000 14.4076
# 5 29.2680 27.3721 29.7231 0.0000 102.9291 0.0000
# 6 0.0000 0.0000 0.0000 14.4076 0.0000 116.5893
#
#
#
# Elastic Compliance Matrix: (Units=1/GPa)
#
#
# Indices 1 2 3 4 5 6 
#
# 1 0.003414 -0.001046 -0.001202 0.000000 -0.000345 0.000000
# 2 -0.001046 0.002959 -0.000731 0.000000 -0.000279 0.000000
# 3 -0.001202 -0.000731 0.003890 0.000000 -0.000587 0.000000
# 4 0.000000 0.000000 0.000000 0.007546 0.000000 -0.000932
# 5 -0.000345 -0.000279 -0.000587 0.000000 0.010057 0.000000
# 6 0.000000 0.000000 0.000000 -0.000932 0.000000 0.008692
#
#
# Mechanical properties :
#
#
# Convention : Reuss Voigt Hill
#
# Bulk Modulus (GPa) = 232.24813 245.22020 238.73416
# Shear Modulus (GPa) = 113.76384 117.00709 115.38547
#
# Velocity S-wave (km/s) = 5.78220 5.86404 5.82326
# Velocity P-wave (km/s) = 10.62230 10.85894 10.74127
#
# Compressibility (1/GPa) = 0.00430574
#
# Stress axis : x y z
#
# Youngs Moduli (GPa) = 292.94301 337.93116 257.06522
#
# Poissons Ratio (x) = 0.35332 0.30903
# Poissons Ratio (y) = 0.30629 0.18788
# Poissons Ratio (z) = 0.35216 0.24698
#
# Static dielectric constant tensor:
#      x y z
#    x 2.505060 0.000000 0.067850 
#    y 0.000000 2.637570 0.000000 
#    z 0.067850 0.000000 2.647270 
# 
# From -- ./inp_files/57167.got.cif
#   From: 2010.05.17/outbox.cif.g08.bks.cpg/sg14_29_cif.got.tgz:57167.got - 2010.06.03 17:49:19.
