data_PCOD9245670
_publ_section_title
;
Structure prediction by ZEFSAII (Michael W. Deem and Ramdas Pophale) SiO2 
 PCOD9245670
Probable space group: P 21/C
;
_chemical_formula_sum "Si O2"
_cell_formula_units_Z 32
_cell_length_a 13.923535
_cell_length_b 16.936939
_cell_length_c 18.830618
_cell_angle_alpha 90.000000
_cell_angle_beta 19.668800
_cell_angle_gamma 90.000000
_cell_volume 1494.653722
_symmetry_space_group_name_H-M "P 21/C"
_symmetry_group_IT_number 14
_symmetry_cell_setting 'monoclinic'
loop_
_space_group_symop_operation_xyz
x,y,z
-x,1/2+y,1/2-z
-x,-y,-z
x,1/2-y,1/2+z
loop_
_atom_site_type_symbol
_atom_site_label
_atom_site_fract_x
_atom_site_fract_y
_atom_site_fract_z
Si Si1 0.465762 0.217345 0.853004
Si Si2 0.378256 0.503895 0.855457
Si Si3 0.322259 0.400029 0.573446
Si Si4 0.664240 0.659570 0.709513
Si Si5 0.016258 0.384680 0.939299
Si Si6 0.860982 0.430930 0.290021
Si Si7 0.598277 0.184280 0.077331
Si Si8 0.749570 0.363122 0.620120
O O1 0.304662 0.197359 0.891271
O O2 0.520241 0.310236 0.823621
O O3 0.786691 0.181185 0.620952
O O4 0.320253 0.169717 0.018223
O O5 0.472776 0.582553 0.831142
O O6 0.655081 0.449256 0.658420
O O7 0.189478 0.537827 0.921424
O O8 0.166103 0.449041 0.046977
O O9 0.143017 0.381386 0.770117
O O10 0.643496 0.416712 0.376397
O O11 0.224225 0.485762 0.613406
O O12 0.508894 0.727588 0.863241
O O13 0.959934 0.636299 0.539106
O O14 0.304925 0.368937 0.783321
O O15 0.806280 0.356661 0.377233
O O16 0.758333 0.185028 0.040475
#
# Coordination Sequence:
#
# PCOD9245670 Si02
#       8
#     4   4   4   4   4   4   4   4
#     4  10  21  38  68  89 122 173 213 261 324 373
#     4  10  22  39  61  90 129 164 204 270 313 380
#     4   9  19  37  64  97 130 150 202 281 318 377
#     4  10  22  42  61  89 128 174 214 251 324 391
#     4   9  19  39  65  95 123 157 216 265 330 356
#     4   9  20  39  59 100 125 151 214 265 325 371
#     4  10  21  39  67  91 121 168 214 269 316 382
#     4  11  23  39  62  91 128 168 220 256 309 399
#
# _framework density 21.409641000000001
#
# number of rings (size 3 to 8) (size 9 to 14) (size 15 to 20)
#    0.000    2.250    1.250    1.125    5.250    0.500 
#    9.000    0.625    5.500    0.000    0.000    0.000 
#    0.000    0.000    0.000    0.000    0.000    0.000 
#
# Total GULP energy -178408.768580 kJ/mol
# GULP energy per Si atom -5575.274018 kJ/mol
# Density = 2.136091 g / cm^3
# Si number density = 21.409641 Si / 1000 Ang^3
#
#
#
# Elastic Constant Matrix: (Units=GPa)
#
#
# Indices 1 2 3 4 5 6 
#
# 1 64.0276 -5.6481 16.6766 0.0000 -26.6600 0.0000
# 2 -5.6481 85.0932 3.3158 0.0000 -2.0634 0.0000
# 3 16.6766 3.3158 37.6974 0.0000 -22.6050 0.0000
# 4 0.0000 0.0000 0.0000 274.4191 0.0000 -191.9263
# 5 -26.6600 -2.0634 -22.6050 0.0000 36.3044 0.0000
# 6 0.0000 0.0000 0.0000 -191.9263 0.0000 197.6811
#
#
#
# Elastic Compliance Matrix: (Units=1/GPa)
#
#
# Indices 1 2 3 4 5 6 
#
# 1 0.022808 0.001928 -0.000240 0.000000 0.016709 0.000000
# 2 0.001928 0.011955 -0.001034 0.000000 0.001452 0.000000
# 3 -0.000240 -0.001034 0.042423 0.000000 0.026180 0.000000
# 4 0.000000 0.000000 0.000000 0.011353 0.000000 0.011023
# 5 0.016709 0.001452 0.026180 0.000000 0.056199 0.000000
# 6 0.000000 0.000000 0.000000 0.011023 0.000000 0.015761
#
#
# Mechanical properties :
#
#
# Convention : Reuss Voigt Hill
#
# Bulk Modulus (GPa) = 12.73965 23.94520 18.34243
# Shear Modulus (GPa) = 26.97526 113.17918 70.07722
#
# Velocity S-wave (km/s) = 3.55344 7.27863 5.72736
# Velocity P-wave (km/s) = 4.77486 9.04690 7.23345
#
# Compressibility (1/GPa) = 0.07849507
#
# Stress axis : x y z
#
# Youngs Moduli (GPa) = 43.84355 83.64473 23.57235
#
# Poissons Ratio (x) = -0.16130 0.00565
# Poissons Ratio (y) = -0.08455 0.02438
# Poissons Ratio (z) = 0.01052 0.08650
#
# Static dielectric constant tensor:
#      x y z
#    x 1.777760 0.000000 0.019850 
#    y 0.000000 1.873000 0.000000 
#    z 0.019850 0.000000 1.801690 
# 
# From -- ./inp_files/68701.got.cif
#   From: 2010.05.17/outbox.cif.g08.bks.cpg/sg14_35_cif.got.tgz:68701.got - 2010.06.03 17:49:19.
