data_PCOD9245761
_publ_section_title
;
Structure prediction by ZEFSAII (Michael W. Deem and Ramdas Pophale) SiO2 
 PCOD9245761
Probable space group: P 21/C
;
_chemical_formula_sum "Si O2"
_cell_formula_units_Z 28
_cell_length_a 7.220874
_cell_length_b 25.817232
_cell_length_c 8.166050
_cell_angle_alpha 90.000000
_cell_angle_beta 124.136752
_cell_angle_gamma 90.000000
_cell_volume 1260.041128
_symmetry_space_group_name_H-M "P 21/C"
_symmetry_group_IT_number 14
_symmetry_cell_setting 'monoclinic'
loop_
_space_group_symop_operation_xyz
x,y,z
-x,1/2+y,1/2-z
-x,-y,-z
x,1/2-y,1/2+z
loop_
_atom_site_type_symbol
_atom_site_label
_atom_site_fract_x
_atom_site_fract_y
_atom_site_fract_z
Si Si1 0.478133 0.908153 0.756333
Si Si2 0.708958 0.498530 0.227287
Si Si3 0.976677 0.068895 0.645054
Si Si4 0.744129 0.225888 0.001459
Si Si5 0.473259 0.053025 0.883148
Si Si6 0.477496 0.200941 0.175350
Si Si7 0.012930 0.816931 0.191385
O O1 0.236342 0.929316 0.581584
O O2 0.508467 0.850488 0.706889
O O3 0.679156 0.945868 0.798326
O O4 0.488350 0.905152 0.957803
O O5 0.926972 0.479716 0.241123
O O6 0.647942 0.453353 0.325461
O O7 0.500000 0.500000 0.000000
O O8 0.221606 0.059950 0.691984
O O9 0.976062 0.124067 0.738567
O O10 0.674973 0.200489 0.138307
O O11 0.887126 0.276555 0.126369
O O12 0.521704 0.248827 0.805816
O O13 0.861454 0.191504 0.920761
O O14 0.500000 0.000000 0.000000
O O15 0.240764 0.199131 0.970634
#
# Coordination Sequence:
#
# PCOD9245761 Si02
#       7
#     4   4   4   4   4   4   4
#     4  10  21  39  61  89 124 160 199 255 305 361
#     4   9  22  40  61  90 122 162 208 247 305 363
#     4  11  22  40  63  88 127 161 204 256 304 372
#     4  10  24  40  64  88 121 162 202 254 313 367
#     4  10  22  40  62  87 120 160 201 248 304 356
#     4  11  21  42  62  90 126 153 205 259 302 374
#     4  11  22  40  64  91 118 164 203 249 316 363
#
# _framework density 22.221496999999999
#
# number of rings (size 3 to 8) (size 9 to 14) (size 15 to 20)
#    0.000    1.714    2.857    0.857    2.000    7.429 
#    0.000    4.286    0.000    0.000    0.000    0.000 
#    0.000    0.000    0.000    0.000    0.000    0.000 
#
# Total GULP energy -156262.976440 kJ/mol
# GULP energy per Si atom -5580.820587 kJ/mol
# Density = 2.217092 g / cm^3
# Si number density = 22.221497 Si / 1000 Ang^3
#
#
#
# Elastic Constant Matrix: (Units=GPa)
#
#
# Indices 1 2 3 4 5 6 
#
# 1 46.6765 7.7709 3.1099 0.0000 2.0534 0.0000
# 2 7.7709 81.9403 -5.7027 0.0000 5.1668 0.0000
# 3 3.1099 -5.7027 73.6813 0.0000 18.8488 0.0000
# 4 0.0000 0.0000 0.0000 21.2897 0.0000 2.7430
# 5 2.0534 5.1668 18.8488 0.0000 36.9776 0.0000
# 6 0.0000 0.0000 0.0000 2.7430 0.0000 20.5252
#
#
#
# Elastic Compliance Matrix: (Units=1/GPa)
#
#
# Indices 1 2 3 4 5 6 
#
# 1 0.021860 -0.002115 -0.000979 0.000000 -0.000419 0.000000
# 2 -0.002115 0.012684 0.001718 0.000000 -0.002531 0.000000
# 3 -0.000979 0.001718 0.015862 0.000000 -0.008271 0.000000
# 4 0.000000 0.000000 0.000000 0.047794 0.000000 -0.006387
# 5 -0.000419 -0.002531 -0.008271 0.000000 0.031636 0.000000
# 6 0.000000 0.000000 0.000000 -0.006387 0.000000 0.049574
#
#
# Mechanical properties :
#
#
# Convention : Reuss Voigt Hill
#
# Bulk Modulus (GPa) = 20.98426 23.62825 22.30626
# Shear Modulus (GPa) = 25.24661 28.89983 27.07322
#
# Velocity S-wave (km/s) = 3.37432 3.61021 3.49425
# Velocity P-wave (km/s) = 4.96438 5.29474 5.13222
#
# Compressibility (1/GPa) = 0.04765477
#
# Stress axis : x y z
#
# Youngs Moduli (GPa) = 45.74601 78.84116 63.04299
#
# Poissons Ratio (x) = 0.16673 0.06172
# Poissons Ratio (y) = 0.09674 -0.10833
# Poissons Ratio (z) = 0.04479 -0.13548
#
# Static dielectric constant tensor:
#      x y z
#    x 1.808110 0.000000 -0.033200 
#    y 0.000000 1.904670 0.000000 
#    z -0.033200 0.000000 1.862930 
# 
# From -- ./inp_files/7010.got.cif
#   From: 2010.05.17/outbox.cif.g08.bks.cpg/sg14_4_cif.got.tgz:7010.got - 2010.06.03 17:49:19.
