data_PCOD9245954
_publ_section_title
;
Structure prediction by ZEFSAII (Michael W. Deem and Ramdas Pophale) SiO2 
 PCOD9245954
Probable space group: P 21/C
;
_chemical_formula_sum "Si O2"
_cell_formula_units_Z 24
_cell_length_a 11.975482
_cell_length_b 10.974212
_cell_length_c 11.492930
_cell_angle_alpha 90.000000
_cell_angle_beta 131.488674
_cell_angle_gamma 90.000000
_cell_volume 1131.433908
_symmetry_space_group_name_H-M "P 21/C"
_symmetry_group_IT_number 14
_symmetry_cell_setting 'monoclinic'
loop_
_space_group_symop_operation_xyz
x,y,z
-x,1/2+y,1/2-z
-x,-y,-z
x,1/2-y,1/2+z
loop_
_atom_site_type_symbol
_atom_site_label
_atom_site_fract_x
_atom_site_fract_y
_atom_site_fract_z
Si Si1 0.560707 0.070205 0.660646
Si Si2 0.148634 0.045548 0.163299
Si Si3 0.059046 0.316237 0.078266
Si Si4 0.745750 0.191370 0.220244
Si Si5 0.321883 0.485049 0.179542
Si Si6 0.842007 0.367137 0.112036
O O1 0.628907 0.201990 0.674063
O O2 0.449520 0.080899 0.693622
O O3 0.500000 0.000000 0.500000
O O4 0.701157 0.990088 0.799245
O O5 0.134099 0.189141 0.162099
O O6 0.159730 0.969096 0.289749
O O7 0.000000 0.000000 0.000000
O O8 0.177565 0.399405 0.094108
O O9 0.000025 0.372929 0.157441
O O10 0.905038 0.299421 0.899419
O O11 0.800964 0.233822 0.131238
O O12 0.670840 0.060540 0.194149
O O13 0.282673 0.595189 0.065277
#
# Coordination Sequence:
#
# PCOD9245954 Si02
#       6
#     4   4   4   4   4   4
#     4  11  22  43  65  93 135 180 212 273 351 397
#     4  11  22  41  64  98 131 176 225 272 332 402
#     4  11  24  39  68  95 131 171 229 280 325 406
#     4  10  21  41  65  93 129 176 221 272 332 402
#     4  11  24  41  64  99 133 178 226 274 342 402
#     4  10  21  39  66  89 131 172 220 275 336 391
#
# _framework density 21.212022000000001
#
# number of rings (size 3 to 8) (size 9 to 14) (size 15 to 20)
#    0.000    1.333    6.667    2.000    7.000    0.000 
#    0.000    0.000    0.000    6.000    0.000    0.000 
#    0.000    0.000    0.000    0.000    0.000    0.000 
#
# Total GULP energy -133673.902519 kJ/mol
# GULP energy per Si atom -5569.745938 kJ/mol
# Density = 2.116374 g / cm^3
# Si number density = 21.212022 Si / 1000 Ang^3
#
#
#
# Elastic Constant Matrix: (Units=GPa)
#
#
# Indices 1 2 3 4 5 6 
#
# 1 166.2334 23.2495 16.9068 0.0000 17.9635 0.0000
# 2 23.2495 63.1779 11.3310 0.0000 7.0871 0.0000
# 3 16.9068 11.3310 29.0669 0.0000 9.4630 0.0000
# 4 0.0000 0.0000 0.0000 31.3845 0.0000 3.6405
# 5 17.9635 7.0871 9.4630 0.0000 27.5095 0.0000
# 6 0.0000 0.0000 0.0000 3.6405 0.0000 47.1175
#
#
#
# Elastic Compliance Matrix: (Units=1/GPa)
#
#
# Indices 1 2 3 4 5 6 
#
# 1 0.006839 -0.001751 -0.002239 0.000000 -0.003244 0.000000
# 2 -0.001751 0.017605 -0.005338 0.000000 -0.001556 0.000000
# 3 -0.002239 -0.005338 0.041512 0.000000 -0.011442 0.000000
# 4 0.000000 0.000000 0.000000 0.032151 0.000000 -0.002484
# 5 -0.003244 -0.001556 -0.011442 0.000000 0.042806 0.000000
# 6 0.000000 0.000000 0.000000 -0.002484 0.000000 0.021415
#
#
# Mechanical properties :
#
#
# Convention : Reuss Voigt Hill
#
# Bulk Modulus (GPa) = 21.14186 40.16142 30.65164
# Shear Modulus (GPa) = 25.41296 35.00171 30.20733
#
# Velocity S-wave (km/s) = 3.46503 4.06653 3.77777
# Velocity P-wave (km/s) = 5.09874 6.40495 5.78881
#
# Compressibility (1/GPa) = 0.04729952
#
# Stress axis : x y z
#
# Youngs Moduli (GPa) = 146.22306 56.80340 24.08965
#
# Poissons Ratio (x) = 0.09947 0.05393
# Poissons Ratio (y) = 0.25607 0.12858
# Poissons Ratio (z) = 0.32738 0.30320
#
# Static dielectric constant tensor:
#      x y z
#    x 1.880060 0.000000 -0.065770 
#    y 0.000000 1.846670 0.000000 
#    z -0.065770 0.000000 1.859220 
# 
# From -- ./inp_files/29205.got.cif
#   From: 2010.05.17/outbox.cif.g08.bks.cpg/sg14_15_cif.got.tgz:29205.got - 2010.06.03 17:49:19.
