data_PCOD9245773
_publ_section_title
;
Structure prediction by ZEFSAII (Michael W. Deem and Ramdas Pophale) SiO2 
 PCOD9245773
Probable space group: P 21/C
;
_chemical_formula_sum "Si O2"
_cell_formula_units_Z 30
_cell_length_a 21.826508
_cell_length_b 6.588478
_cell_length_c 13.457416
_cell_angle_alpha 90.000000
_cell_angle_beta 144.496538
_cell_angle_gamma 90.000000
_cell_volume 1123.884962
_symmetry_space_group_name_H-M "P 21/C"
_symmetry_group_IT_number 14
_symmetry_cell_setting 'monoclinic'
loop_
_space_group_symop_operation_xyz
x,y,z
-x,1/2+y,1/2-z
-x,-y,-z
x,1/2-y,1/2+z
loop_
_atom_site_type_symbol
_atom_site_label
_atom_site_fract_x
_atom_site_fract_y
_atom_site_fract_z
Si Si1 0.828612 0.368203 0.856214
Si Si2 0.619717 0.169393 0.989927
Si Si3 0.795201 0.803162 0.718343
Si Si4 0.433464 0.459673 0.772176
Si Si5 0.414683 0.221676 0.937066
Si Si6 0.157289 0.100715 0.432361
Si Si7 0.000000 0.000000 0.500000
Si Si8 0.961675 0.629685 0.584325
O O1 0.731481 0.255996 0.678760
O O2 0.846133 0.572648 0.804331
O O3 0.950895 0.325479 0.016139
O O4 0.795569 0.452131 0.920226
O O5 0.534262 0.341804 0.859330
O O6 0.634345 0.043583 0.907920
O O7 0.577114 0.012253 0.018032
O O8 0.685246 0.793286 0.629572
O O9 0.779019 0.858265 0.583559
O O10 0.883980 0.934835 0.890961
O O11 0.388464 0.299633 0.791828
O O12 0.481663 0.652379 0.894439
O O13 0.125118 0.302714 0.448447
O O14 0.050707 0.999289 0.252439
O O15 0.017609 0.832295 0.616676
#
# Coordination Sequence:
#
# PCOD9245773 Si02
#       8
#     4   4   4   4   4   4   2   4
#     4   9  22  38  63  94 130 172 208 264 327 386
#     4  11  22  43  68  96 131 175 214 280 333 386
#     4   9  20  39  62  90 124 169 212 260 321 391
#     4  11  23  43  66  97 129 167 223 268 339 392
#     4  10  23  43  64  94 130 168 216 277 327 402
#     4  10  21  39  61  94 125 171 217 259 328 380
#     4   8  18  40  56  86 132 162 206 258 308 378
#     4  10  22  37  63  91 128 172 214 269 316 383
#
# _framework density 26.693121999999999
#
# number of rings (size 3 to 8) (size 9 to 14) (size 15 to 20)
#    0.000    2.400    1.333    0.800    7.467    7.467 
#    4.800    1.333    0.000    0.000    0.000    0.000 
#    0.000    0.000    0.000    0.000    0.000    0.000 
#
# Total GULP energy -167425.031969 kJ/mol
# GULP energy per Si atom -5580.834399 kJ/mol
# Density = 2.663237 g / cm^3
# Si number density = 26.693122 Si / 1000 Ang^3
#
#
#
# Elastic Constant Matrix: (Units=GPa)
#
#
# Indices 1 2 3 4 5 6 
#
# 1 109.6341 -7.4291 33.0852 0.0000 -27.3140 0.0000
# 2 -7.4291 67.0467 25.9150 0.0000 2.6273 0.0000
# 3 33.0852 25.9150 148.6228 0.0000 -26.4071 0.0000
# 4 0.0000 0.0000 0.0000 28.4807 0.0000 15.1611
# 5 -27.3140 2.6273 -26.4071 0.0000 44.2723 0.0000
# 6 0.0000 0.0000 0.0000 15.1611 0.0000 21.3078
#
#
#
# Elastic Compliance Matrix: (Units=1/GPa)
#
#
# Indices 1 2 3 4 5 6 
#
# 1 0.011204 0.001699 -0.001767 0.000000 0.005757 0.000000
# 2 0.001699 0.016596 -0.003647 0.000000 -0.002112 0.000000
# 3 -0.001767 -0.003647 0.008504 0.000000 0.004198 0.000000
# 4 0.000000 0.000000 0.000000 0.056519 0.000000 -0.040215
# 5 0.005757 -0.002112 0.004198 0.000000 0.028769 0.000000
# 6 0.000000 0.000000 0.000000 -0.040215 0.000000 0.075545
#
#
# Mechanical properties :
#
#
# Convention : Reuss Voigt Hill
#
# Bulk Modulus (GPa) = 34.63527 47.60510 41.12018
# Shear Modulus (GPa) = 23.34348 37.06099 30.20223
#
# Velocity S-wave (km/s) = 2.96042 3.73018 3.36737
# Velocity P-wave (km/s) = 4.96880 6.03533 5.52785
#
# Compressibility (1/GPa) = 0.02887230
#
# Stress axis : x y z
#
# Youngs Moduli (GPa) = 89.25266 60.25637 117.59437
#
# Poissons Ratio (x) = -0.10238 0.20785
# Poissons Ratio (y) = -0.15164 0.42890
# Poissons Ratio (z) = 0.15775 0.21977
#
# Static dielectric constant tensor:
#      x y z
#    x 2.601700 0.000000 0.361120 
#    y 0.000000 2.377850 0.000000 
#    z 0.361120 0.000000 2.381710 
# 
# From -- ./inp_files/35751.got.cif
#   From: 2010.05.17/outbox.cif.g08.bks.cpg/sg14_18_cif.got.tgz:35751.got - 2010.06.03 17:49:19.
