data_PCOD9245293
_publ_section_title
;
Structure prediction by ZEFSAII (Michael W. Deem and Ramdas Pophale) SiO2 
 PCOD9245293
Probable space group: P 21/C
;
_chemical_formula_sum "Si O2"
_cell_formula_units_Z 32
_cell_length_a 12.117609
_cell_length_b 14.079869
_cell_length_c 18.367130
_cell_angle_alpha 90.000000
_cell_angle_beta 27.716137
_cell_angle_gamma 90.000000
_cell_volume 1457.454990
_symmetry_space_group_name_H-M "P 21/C"
_symmetry_group_IT_number 14
_symmetry_cell_setting 'monoclinic'
loop_
_space_group_symop_operation_xyz
x,y,z
-x,1/2+y,1/2-z
-x,-y,-z
x,1/2-y,1/2+z
loop_
_atom_site_type_symbol
_atom_site_label
_atom_site_fract_x
_atom_site_fract_y
_atom_site_fract_z
Si Si1 0.214448 0.278699 0.839799
Si Si2 0.637332 0.859304 0.048186
Si Si3 0.147556 0.594001 0.889898
Si Si4 0.645294 0.884056 0.873904
Si Si5 0.948549 0.393360 0.509639
Si Si6 0.158300 0.952118 0.086172
Si Si7 0.042100 0.452951 0.145937
Si Si8 0.440423 0.150353 0.350476
O O1 0.306836 0.294411 0.705310
O O2 0.364739 0.339303 0.809937
O O3 0.951710 0.324402 0.000418
O O4 0.178492 0.171918 0.885546
O O5 0.429063 0.905350 0.219861
O O6 0.651571 0.748959 0.060849
O O7 0.586952 0.860432 0.990747
O O8 0.851103 0.935505 0.928469
O O9 0.074708 0.613290 0.848338
O O10 0.000000 0.500000 0.000000
O O11 0.420429 0.935788 0.968027
O O12 0.879879 0.951757 0.733872
O O13 0.885774 0.392542 0.460223
O O14 0.722062 0.357987 0.687226
O O15 0.000000 0.500000 0.500000
O O16 0.986608 0.926153 0.253292
O O17 0.313599 0.440672 0.961718
#
# Coordination Sequence:
#
# PCOD9245293 Si02
#       8
#     4   4   4   4   4   4   4   4
#     4  11  23  41  65  96 124 171 224 265 315 395
#     4  11  21  38  64  94 133 167 213 270 335 382
#     4  11  18  33  63  94 125 153 208 278 315 365
#     4  11  20  39  69 100 126 163 222 283 317 379
#     4  12  27  46  65  92 141 174 216 269 331 393
#     4  11  21  41  65  96 131 172 209 274 333 383
#     4  10  21  37  62 100 127 161 215 269 327 378
#     4  11  25  42  66  95 130 176 217 263 333 398
#
# _framework density 21.956081000000001
#
# number of rings (size 3 to 8) (size 9 to 14) (size 15 to 20)
#    0.000    1.000    6.250    1.500    3.500    0.000 
#    2.250    0.625    0.000    0.000    0.000    0.000 
#    0.000    0.000    0.000    0.000    0.000    0.000 
#
# Total GULP energy -178448.844309 kJ/mol
# GULP energy per Si atom -5576.526385 kJ/mol
# Density = 2.190611 g / cm^3
# Si number density = 21.956081 Si / 1000 Ang^3
#
#
#
# Elastic Constant Matrix: (Units=GPa)
#
#
# Indices 1 2 3 4 5 6 
#
# 1 62.0831 2.3712 23.8789 0.0000 17.6262 0.0000
# 2 2.3712 76.6518 28.6252 0.0000 2.4547 0.0000
# 3 23.8789 28.6252 97.4719 0.0000 18.9801 0.0000
# 4 0.0000 0.0000 0.0000 29.0344 0.0000 3.9604
# 5 17.6262 2.4547 18.9801 0.0000 28.3308 0.0000
# 6 0.0000 0.0000 0.0000 3.9604 0.0000 26.0414
#
#
#
# Elastic Compliance Matrix: (Units=1/GPa)
#
#
# Indices 1 2 3 4 5 6 
#
# 1 0.020298 0.000897 -0.003176 0.000000 -0.010578 0.000000
# 2 0.000897 0.014778 -0.004832 0.000000 0.001399 0.000000
# 3 -0.003176 -0.004832 0.013789 0.000000 -0.006843 0.000000
# 4 0.000000 0.000000 0.000000 0.035172 0.000000 -0.005349
# 5 -0.010578 0.001399 -0.006843 0.000000 0.046342 0.000000
# 6 0.000000 0.000000 0.000000 -0.005349 0.000000 0.039214
#
#
# Mechanical properties :
#
#
# Convention : Reuss Voigt Hill
#
# Bulk Modulus (GPa) = 28.86617 38.43972 33.65294
# Shear Modulus (GPa) = 25.59341 28.77009 27.18175
#
# Velocity S-wave (km/s) = 3.41789 3.62380 3.52235
# Velocity P-wave (km/s) = 5.36206 5.92071 5.64830
#
# Compressibility (1/GPa) = 0.03464263
#
# Stress axis : x y z
#
# Youngs Moduli (GPa) = 49.26543 67.66834 72.52112
#
# Poissons Ratio (x) = -0.06070 0.23035
# Poissons Ratio (y) = -0.04419 0.35043
# Poissons Ratio (z) = 0.15648 0.32698
#
# Static dielectric constant tensor:
#      x y z
#    x 1.841250 0.000000 -0.025420 
#    y 0.000000 1.862340 0.000000 
#    z -0.025420 0.000000 1.834330 
# 
# From -- ./inp_files/58000.got.cif
#   From: 2010.05.17/outbox.cif.g08.bks.cpg/sg14_29_cif.got.tgz:58000.got - 2010.06.03 17:49:19.
