data_PCOD9245997
_publ_section_title
;
Structure prediction by ZEFSAII (Michael W. Deem and Ramdas Pophale) SiO2 
 PCOD9245997
Probable space group: P 21/C
;
_chemical_formula_sum "Si O2"
_cell_formula_units_Z 28
_cell_length_a 12.604300
_cell_length_b 10.701638
_cell_length_c 17.336775
_cell_angle_alpha 90.000000
_cell_angle_beta 147.156530
_cell_angle_gamma 90.000000
_cell_volume 1268.275409
_symmetry_space_group_name_H-M "P 21/C"
_symmetry_group_IT_number 14
_symmetry_cell_setting 'monoclinic'
loop_
_space_group_symop_operation_xyz
x,y,z
-x,1/2+y,1/2-z
-x,-y,-z
x,1/2-y,1/2+z
loop_
_atom_site_type_symbol
_atom_site_label
_atom_site_fract_x
_atom_site_fract_y
_atom_site_fract_z
Si Si1 0.559881 0.647506 0.591975
Si Si2 0.760168 0.464779 0.077634
Si Si3 0.345205 0.269614 0.188974
Si Si4 0.667048 0.067079 0.349536
Si Si5 0.169855 0.948448 0.814100
Si Si6 0.442393 0.667978 0.902759
Si Si7 0.093721 0.783633 0.625269
O O1 0.624772 0.737676 0.699997
O O2 0.722100 0.543109 0.678092
O O3 0.342237 0.595691 0.475938
O O4 0.531815 0.703599 0.488980
O O5 0.653882 0.385544 0.077937
O O6 0.980590 0.493047 0.237193
O O7 0.761044 0.412932 0.991685
O O8 0.622329 0.585700 0.986596
O O9 0.485394 0.165078 0.236427
O O10 0.380712 0.418909 0.192002
O O11 0.121153 0.243756 0.029922
O O12 0.824896 0.111835 0.383358
O O13 0.090361 0.838921 0.710016
O O14 0.267548 0.681961 0.735628
#
# Coordination Sequence:
#
# PCOD9245997 Si02
#       7
#     4   4   4   4   4   4   4
#     4  10  21  40  62 100 130 170 232 280 321 411
#     4  11  22  43  66  93 139 182 219 280 351 391
#     4  12  24  43  68  99 138 178 224 284 344 400
#     4  12  24  43  69 102 135 181 225 284 341 409
#     4  10  21  39  68  92 129 176 233 272 332 403
#     4  10  24  43  64  98 136 174 226 282 333 407
#     4  11  23  42  69  99 131 179 232 278 335 411
#
# _framework density 22.077224999999999
#
# number of rings (size 3 to 8) (size 9 to 14) (size 15 to 20)
#    0.000    1.143    4.286    2.143    0.000    3.429 
#    2.571    2.857    0.000    0.000    0.000    0.000 
#    0.000    0.000    0.000    0.000    0.000    0.000 
#
# Total GULP energy -156303.931207 kJ/mol
# GULP energy per Si atom -5582.283257 kJ/mol
# Density = 2.202698 g / cm^3
# Si number density = 22.077225 Si / 1000 Ang^3
#
#
#
# Elastic Constant Matrix: (Units=GPa)
#
#
# Indices 1 2 3 4 5 6 
#
# 1 41.8192 -5.7935 18.4774 0.0000 -3.7684 0.0000
# 2 -5.7935 57.7299 34.4406 0.0000 10.5662 0.0000
# 3 18.4774 34.4406 169.3692 0.0000 7.8886 0.0000
# 4 0.0000 0.0000 0.0000 28.4914 0.0000 5.9669
# 5 -3.7684 10.5662 7.8886 0.0000 24.0621 0.0000
# 6 0.0000 0.0000 0.0000 5.9669 0.0000 1.1135
#
#
#
# Elastic Compliance Matrix: (Units=1/GPa)
#
#
# Indices 1 2 3 4 5 6 
#
# 1 0.026586 0.004381 -0.003956 0.000000 0.003537 0.000000
# 2 0.004381 0.021847 -0.004575 0.000000 -0.007407 0.000000
# 3 -0.003956 -0.004575 0.007313 0.000000 -0.001008 0.000000
# 4 0.000000 0.000000 0.000000 -0.287069 0.000000 1.538312
# 5 0.003537 -0.007407 -0.001008 0.000000 0.045696 0.000000
# 6 0.000000 0.000000 0.000000 1.538312 0.000000 -7.345271
#
#
# Mechanical properties :
#
#
# Convention : Reuss Voigt Hill
#
# Bulk Modulus (GPa) = 21.07705 40.35190 30.71447
# Shear Modulus (GPa) = -0.66606 25.51966 12.42680
#
# Velocity S-wave (km/s) = -0.54987 3.40358 2.37508
# Velocity P-wave (km/s) = 3.02730 5.81060 4.63291
#
# Compressibility (1/GPa) = 0.04744498
#
# Stress axis : x y z
#
# Youngs Moduli (GPa) = 37.61382 45.77273 136.73942
#
# Poissons Ratio (x) = -0.20052 0.54093
# Poissons Ratio (y) = -0.16478 0.62564
# Poissons Ratio (z) = 0.14880 0.20943
#
# Static dielectric constant tensor:
#      x y z
#    x 1.810340 0.000000 -0.015950 
#    y 0.000000 1.926100 0.000000 
#    z -0.015950 0.000000 1.801120 
# 
# From -- ./inp_files/67354.got.cif
#   From: 2010.05.17/outbox.cif.g08.bks.cpg/sg14_34_cif.got.tgz:67354.got - 2010.06.03 17:49:19.
