data_PCOD9245967
_publ_section_title
;
Structure prediction by ZEFSAII (Michael W. Deem and Ramdas Pophale) SiO2 
 PCOD9245967
Probable space group: P 21/C
;
_chemical_formula_sum "Si O2"
_cell_formula_units_Z 32
_cell_length_a 15.084254
_cell_length_b 5.318399
_cell_length_c 22.160712
_cell_angle_alpha 90.000000
_cell_angle_beta 61.836218
_cell_angle_gamma 90.000000
_cell_volume 1567.332079
_symmetry_space_group_name_H-M "P 21/C"
_symmetry_group_IT_number 14
_symmetry_cell_setting 'monoclinic'
loop_
_space_group_symop_operation_xyz
x,y,z
-x,1/2+y,1/2-z
-x,-y,-z
x,1/2-y,1/2+z
loop_
_atom_site_type_symbol
_atom_site_label
_atom_site_fract_x
_atom_site_fract_y
_atom_site_fract_z
Si Si1 0.209586 0.578547 0.749981
Si Si2 0.038897 0.204365 0.811492
Si Si3 0.615943 0.798502 0.748825
Si Si4 0.149998 0.912866 0.675648
Si Si5 0.611588 0.298560 0.670205
Si Si6 0.801914 0.308224 0.524585
Si Si7 0.915181 0.339106 0.610342
Si Si8 0.143299 0.195289 0.563268
O O1 0.105457 0.437617 0.769722
O O2 0.294048 0.371283 0.735314
O O3 0.233294 0.761845 0.686351
O O4 0.177838 0.723247 0.821576
O O5 0.921314 0.242672 0.843395
O O6 0.075825 0.992275 0.753742
O O7 0.070741 0.120332 0.868098
O O8 0.626861 0.528915 0.712860
O O9 0.504809 0.815493 0.812992
O O10 0.620028 0.025653 0.698896
O O11 0.173196 0.141259 0.623379
O O12 0.694429 0.321215 0.592131
O O13 0.886198 0.328783 0.550268
O O14 0.814436 0.547487 0.477388
O O15 0.816056 0.042203 0.487412
O O16 0.021435 0.209582 0.593644
#
# Coordination Sequence:
#
# PCOD9245967 Si02
#       8
#     4   4   4   4   4   4   4   4
#     4  11  22  35  65  87 122 154 199 270 302 353
#     4  11  20  36  61  83 122 160 198 269 295 344
#     4  10  21  39  66  96 115 152 187 268 319 360
#     4  11  22  37  54  86 120 165 210 239 299 350
#     4  10  21  41  64  90 126 145 201 248 321 369
#     4  12  25  40  61  86 125 168 200 245 297 367
#     4  11  23  37  57  90 123 156 211 246 307 357
#     4  12  26  39  58  84 127 177 204 234 284 375
#
# _framework density 20.416861999999998
#
# number of rings (size 3 to 8) (size 9 to 14) (size 15 to 20)
#    0.000    1.000    3.750    3.750    5.250    0.000 
#    0.000    0.000    0.000    1.500    0.000    0.000 
#    0.000    0.000    0.000    0.000    0.000    0.000 
#
# Total GULP energy -178717.873634 kJ/mol
# GULP energy per Si atom -5584.933551 kJ/mol
# Density = 2.037039 g / cm^3
# Si number density = 20.416862 Si / 1000 Ang^3
#
#
#
# Elastic Constant Matrix: (Units=GPa)
#
#
# Indices 1 2 3 4 5 6 
#
# 1 47.6980 13.1503 32.8271 0.0000 -15.7384 0.0000
# 2 13.1503 104.4337 35.3680 0.0000 -1.2652 0.0000
# 3 32.8271 35.3680 97.0360 0.0000 -12.1659 0.0000
# 4 0.0000 0.0000 0.0000 32.8809 0.0000 1.0408
# 5 -15.7384 -1.2652 -12.1659 0.0000 33.7896 0.0000
# 6 0.0000 0.0000 0.0000 1.0408 0.0000 30.8166
#
#
#
# Elastic Compliance Matrix: (Units=1/GPa)
#
#
# Indices 1 2 3 4 5 6 
#
# 1 0.030915 -0.000789 -0.008765 0.000000 0.011214 0.000000
# 2 -0.000789 0.010981 -0.003907 0.000000 -0.001363 0.000000
# 3 -0.008765 -0.003907 0.014834 0.000000 0.001112 0.000000
# 4 0.000000 0.000000 0.000000 0.030445 0.000000 -0.001028
# 5 0.011214 -0.001363 0.001112 0.000000 0.035168 0.000000
# 6 0.000000 0.000000 0.000000 -0.001028 0.000000 0.032485
#
#
# Mechanical properties :
#
#
# Convention : Reuss Voigt Hill
#
# Bulk Modulus (GPa) = 33.54583 45.76206 39.65395
# Shear Modulus (GPa) = 26.08439 30.68558 28.38498
#
# Velocity S-wave (km/s) = 3.57822 3.88100 3.73268
# Velocity P-wave (km/s) = 5.79117 6.52268 6.16778
#
# Compressibility (1/GPa) = 0.02980997
#
# Stress axis : x y z
#
# Youngs Moduli (GPa) = 32.34642 91.06432 67.41264
#
# Poissons Ratio (x) = 0.07181 0.59089
# Poissons Ratio (y) = 0.02551 0.26335
# Poissons Ratio (z) = 0.28352 0.35575
#
# Static dielectric constant tensor:
#      x y z
#    x 1.753790 0.000000 0.026050 
#    y 0.000000 1.798860 0.000000 
#    z 0.026050 0.000000 1.731440 
# 
# From -- ./inp_files/67837.got.cif
#   From: 2010.05.17/outbox.cif.g08.bks.cpg/sg14_34_cif.got.tgz:67837.got - 2010.06.03 17:49:19.
