data_PCOD9245846
_publ_section_title
;
Structure prediction by ZEFSAII (Michael W. Deem and Ramdas Pophale) SiO2 
 PCOD9245846
Probable space group: P 21/C
;
_chemical_formula_sum "Si O2"
_cell_formula_units_Z 28
_cell_length_a 7.729165
_cell_length_b 14.502800
_cell_length_c 13.775845
_cell_angle_alpha 90.000000
_cell_angle_beta 123.095243
_cell_angle_gamma 90.000000
_cell_volume 1293.672679
_symmetry_space_group_name_H-M "P 21/C"
_symmetry_group_IT_number 14
_symmetry_cell_setting 'monoclinic'
loop_
_space_group_symop_operation_xyz
x,y,z
-x,1/2+y,1/2-z
-x,-y,-z
x,1/2-y,1/2+z
loop_
_atom_site_type_symbol
_atom_site_label
_atom_site_fract_x
_atom_site_fract_y
_atom_site_fract_z
Si Si1 0.652261 0.715058 0.742971
Si Si2 0.208779 0.642755 0.670254
Si Si3 0.814356 0.762734 0.985250
Si Si4 0.186222 0.549166 0.873146
Si Si5 0.288131 0.476460 0.555396
Si Si6 0.433255 0.359169 0.936391
Si Si7 0.251596 0.032069 0.818662
O O1 0.434335 0.683476 0.720352
O O2 0.814361 0.714809 0.880072
O O3 0.624208 0.811625 0.681920
O O4 0.711458 0.641771 0.678344
O O5 0.189028 0.601001 0.770690
O O6 0.184460 0.555045 0.589976
O O7 0.038620 0.721586 0.600542
O O8 0.749574 0.868317 0.943394
O O9 0.654897 0.707432 0.005169
O O10 0.313053 0.454824 0.908212
O O11 0.947702 0.518352 0.809890
O O12 0.322684 0.617256 0.981879
O O13 0.533612 0.488535 0.648658
O O14 0.231317 0.496461 0.424951
#
# Coordination Sequence:
#
# PCOD9245846 Si02
#       7
#     4   4   4   4   4   4   4
#     4  11  24  42  63  98 130 164 217 272 311 384
#     4  11  23  40  69  97 129 167 217 267 329 379
#     4  12  23  42  68 100 126 167 222 271 314 382
#     4  11  23  45  64  89 135 176 209 261 333 396
#     4  10  21  39  63  94 126 160 211 267 318 377
#     4  11  25  43  64  94 133 175 211 265 327 389
#     4  10  22  41  62  90 130 165 208 263 320 380
#
# _framework density 21.643806000000001
#
# number of rings (size 3 to 8) (size 9 to 14) (size 15 to 20)
#    0.000    1.143    4.286    1.286    4.000    1.143 
#    2.571    0.714    0.000    0.000    0.000    0.000 
#    0.000    0.000    0.000    0.000    0.000    0.000 
#
# Total GULP energy -156278.091614 kJ/mol
# GULP energy per Si atom -5581.360415 kJ/mol
# Density = 2.159454 g / cm^3
# Si number density = 21.643806 Si / 1000 Ang^3
#
#
#
# Elastic Constant Matrix: (Units=GPa)
#
#
# Indices 1 2 3 4 5 6 
#
# 1 45.9591 3.9743 13.1326 0.0000 22.5393 0.0000
# 2 3.9743 51.1647 16.8313 0.0000 11.8077 0.0000
# 3 13.1326 16.8313 79.3386 0.0000 16.8394 0.0000
# 4 0.0000 0.0000 0.0000 13.5633 0.0000 -4.4108
# 5 22.5393 11.8077 16.8394 0.0000 42.7994 0.0000
# 6 0.0000 0.0000 0.0000 -4.4108 0.0000 11.3888
#
#
#
# Elastic Compliance Matrix: (Units=1/GPa)
#
#
# Indices 1 2 3 4 5 6 
#
# 1 0.029719 0.001917 -0.002064 0.000000 -0.015368 0.000000
# 2 0.001917 0.021927 -0.003787 0.000000 -0.005569 0.000000
# 3 -0.002064 -0.003787 0.014508 0.000000 -0.003576 0.000000
# 4 0.000000 0.000000 0.000000 0.084352 0.000000 0.032669
# 5 -0.015368 -0.005569 -0.003576 0.000000 0.034401 0.000000
# 6 0.000000 0.000000 0.000000 0.032669 0.000000 0.100458
#
#
# Mechanical properties :
#
#
# Convention : Reuss Voigt Hill
#
# Bulk Modulus (GPa) = 17.15676 27.14876 22.15276
# Shear Modulus (GPa) = 15.99166 23.05192 19.52179
#
# Velocity S-wave (km/s) = 2.72114 3.26706 3.00652
# Velocity P-wave (km/s) = 4.22100 5.17709 4.72330
#
# Compressibility (1/GPa) = 0.05828606
#
# Stress axis : x y z
#
# Youngs Moduli (GPa) = 33.64829 45.60629 68.92568
#
# Poissons Ratio (x) = -0.08743 0.14228
# Poissons Ratio (y) = -0.06451 0.26102
# Poissons Ratio (z) = 0.06946 0.17271
#
# Static dielectric constant tensor:
#      x y z
#    x 1.827040 0.000000 0.033850 
#    y 0.000000 1.763040 0.000000 
#    z 0.033850 0.000000 1.815030 
# 
# From -- ./inp_files/41158.got.cif
#   From: 2010.05.17/outbox.cif.g08.bks.cpg/sg14_21_cif.got.tgz:41158.got - 2010.06.03 17:49:19.
