data_PCOD9245474
_publ_section_title
;
Structure prediction by ZEFSAII (Michael W. Deem and Ramdas Pophale) SiO2 
 PCOD9245474
Probable space group: P 21/C
;
_chemical_formula_sum "Si O2"
_cell_formula_units_Z 28
_cell_length_a 19.973082
_cell_length_b 9.744694
_cell_length_c 13.669079
_cell_angle_alpha 90.000000
_cell_angle_beta 154.117748
_cell_angle_gamma 90.000000
_cell_volume 1161.341096
_symmetry_space_group_name_H-M "P 21/C"
_symmetry_group_IT_number 14
_symmetry_cell_setting 'monoclinic'
loop_
_space_group_symop_operation_xyz
x,y,z
-x,1/2+y,1/2-z
-x,-y,-z
x,1/2-y,1/2+z
loop_
_atom_site_type_symbol
_atom_site_label
_atom_site_fract_x
_atom_site_fract_y
_atom_site_fract_z
Si Si1 0.082031 0.701072 0.260043
Si Si2 0.598431 0.136487 0.311342
Si Si3 0.164940 0.106195 0.171725
Si Si4 0.799025 0.424379 0.770609
Si Si5 0.043770 0.667156 0.432046
Si Si6 0.546811 0.838622 0.240987
Si Si7 0.359569 0.180099 0.848704
O O1 0.243309 0.782776 0.482245
O O2 0.112757 0.584948 0.217744
O O3 0.035851 0.645896 0.305793
O O4 0.962022 0.812835 0.061645
O O5 0.471855 0.213825 0.210193
O O6 0.606951 0.982610 0.361621
O O7 0.524547 0.131686 0.106093
O O8 0.112373 0.145999 0.212068
O O9 0.322105 0.172361 0.344273
O O10 0.150544 0.947252 0.125345
O O11 0.886473 0.316603 0.954504
O O12 0.629022 0.367315 0.523390
O O13 0.764510 0.571142 0.773359
O O14 0.641562 0.808929 0.268433
#
# Coordination Sequence:
#
# PCOD9245474 Si02
#       7
#     4   4   4   4   4   4   4
#     4  10  21  38  61  84 116 159 197 240 295 349
#     4  10  22  39  62  88 116 155 199 239 292 357
#     4  10  25  38  57  90 117 152 202 243 291 353
#     4   9  20  38  60  87 116 154 198 235 294 361
#     4  10  21  41  59  82 122 158 192 243 299 344
#     4  10  21  38  61  89 119 154 195 243 296 345
#     4  11  22  39  61  89 121 154 195 247 292 346
#
# _framework density 24.110057999999999
#
# number of rings (size 3 to 8) (size 9 to 14) (size 15 to 20)
#    0.000    2.000    0.000    3.429    0.000   14.857 
#    0.000    2.143    0.000    0.000    0.000    0.000 
#    0.000    0.000    0.000    0.000    0.000    0.000 
#
# Total GULP energy -156730.902397 kJ/mol
# GULP energy per Si atom -5597.532228 kJ/mol
# Density = 2.405518 g / cm^3
# Si number density = 24.110058 Si / 1000 Ang^3
#
#
#
# Elastic Constant Matrix: (Units=GPa)
#
#
# Indices 1 2 3 4 5 6 
#
# 1 170.8323 31.8440 8.6867 0.0000 -26.5379 0.0000
# 2 31.8440 89.4405 6.0013 0.0000 -3.9033 0.0000
# 3 8.6867 6.0013 64.9520 0.0000 2.4984 0.0000
# 4 0.0000 0.0000 0.0000 27.3898 0.0000 -0.4982
# 5 -26.5379 -3.9033 2.4984 0.0000 28.5881 0.0000
# 6 0.0000 0.0000 0.0000 -0.4982 0.0000 29.0392
#
#
#
# Elastic Compliance Matrix: (Units=1/GPa)
#
#
# Indices 1 2 3 4 5 6 
#
# 1 0.007354 -0.002261 -0.001029 0.000000 0.006608 0.000000
# 2 -0.002261 0.012022 -0.000793 0.000000 -0.000388 0.000000
# 3 -0.001029 -0.000793 0.015701 0.000000 -0.002435 0.000000
# 4 0.000000 0.000000 0.000000 0.036521 0.000000 0.000627
# 5 0.006608 -0.000388 -0.002435 0.000000 0.041273 0.000000
# 6 0.000000 0.000000 0.000000 0.000627 0.000000 0.034447
#
#
# Mechanical properties :
#
#
# Convention : Reuss Voigt Hill
#
# Bulk Modulus (GPa) = 37.16077 46.47655 41.81866
# Shear Modulus (GPa) = 30.40357 35.58292 32.99325
#
# Velocity S-wave (km/s) = 3.55495 3.84585 3.70326
# Velocity P-wave (km/s) = 5.68302 6.24816 5.97228
#
# Compressibility (1/GPa) = 0.02691010
#
# Stress axis : x y z
#
# Youngs Moduli (GPa) = 135.98194 83.18172 63.69190
#
# Poissons Ratio (x) = 0.18806 0.06553
# Poissons Ratio (y) = 0.30744 0.05054
# Poissons Ratio (z) = 0.13990 0.06600
#
# Static dielectric constant tensor:
#      x y z
#    x 1.908680 0.000000 -0.014300 
#    y 0.000000 1.879300 0.000000 
#    z -0.014300 0.000000 1.962770 
# 
# From -- ./inp_files/50136.got.cif
#   From: 2010.05.17/outbox.cif.g08.bks.cpg/sg14_26_cif.got.tgz:50136.got - 2010.06.03 17:49:19.
