data_PCOD9245146
_publ_section_title
;
Structure prediction by ZEFSAII (Michael W. Deem and Ramdas Pophale) SiO2 
 PCOD9245146
Probable space group: P 21/C
;
_chemical_formula_sum "Si O2"
_cell_formula_units_Z 28
_cell_length_a 8.920169
_cell_length_b 14.178124
_cell_length_c 19.814042
_cell_angle_alpha 90.000000
_cell_angle_beta 26.891078
_cell_angle_gamma 90.000000
_cell_volume 1133.411253
_symmetry_space_group_name_H-M "P 21/C"
_symmetry_group_IT_number 14
_symmetry_cell_setting 'monoclinic'
loop_
_space_group_symop_operation_xyz
x,y,z
-x,1/2+y,1/2-z
-x,-y,-z
x,1/2-y,1/2+z
loop_
_atom_site_type_symbol
_atom_site_label
_atom_site_fract_x
_atom_site_fract_y
_atom_site_fract_z
Si Si1 0.379735 0.962134 0.846323
Si Si2 0.964865 0.217427 0.807874
Si Si3 0.797590 0.246761 0.112407
Si Si4 0.715928 0.146708 0.507700
Si Si5 0.273052 0.532772 0.531864
Si Si6 0.479982 0.964059 0.660575
Si Si7 0.499448 0.740431 0.633811
O O1 0.371961 0.848915 0.844183
O O2 0.566070 0.991015 0.703723
O O3 0.477329 0.988783 0.882093
O O4 0.000000 0.000000 0.000000
O O5 0.813271 0.142841 0.922467
O O6 0.748931 0.214370 0.826214
O O7 0.343798 0.187585 0.645361
O O8 0.928784 0.317712 0.859308
O O9 0.845877 0.310072 0.026778
O O10 0.594068 0.295909 0.253793
O O11 0.119925 0.211382 0.024534
O O12 0.670207 0.035201 0.535360
O O13 0.500000 0.500000 0.500000
O O14 0.914267 0.484165 0.682483
O O15 0.525900 0.854549 0.627082
#
# Coordination Sequence:
#
# PCOD9245146 Si02
#       7
#     4   4   4   4   4   4   4
#     4   9  19  37  60  89 121 158 211 263 300 373
#     4  11  24  40  66  94 133 167 213 268 323 381
#     4  11  23  40  67  91 127 171 217 262 322 383
#     4  11  23  44  66  93 127 175 216 260 326 389
#     4  10  21  36  65  94 121 167 218 261 315 377
#     4   9  23  40  61  91 129 166 210 266 320 379
#     4  11  25  41  64  96 131 168 216 272 317 380
#
# _framework density 24.704184000000001
#
# number of rings (size 3 to 8) (size 9 to 14) (size 15 to 20)
#    0.000    1.714    1.429    1.714   12.000    1.143 
#    0.000    0.000    0.000    0.000    0.000    0.000 
#    0.000    0.000    0.000    0.000    0.000    0.000 
#
# Total GULP energy -156642.992554 kJ/mol
# GULP energy per Si atom -5594.392591 kJ/mol
# Density = 2.464796 g / cm^3
# Si number density = 24.704184 Si / 1000 Ang^3
#
#
#
# Elastic Constant Matrix: (Units=GPa)
#
#
# Indices 1 2 3 4 5 6 
#
# 1 124.8144 20.2045 7.8814 0.0000 -12.8493 0.0000
# 2 20.2045 52.7546 1.4585 0.0000 -5.8003 0.0000
# 3 7.8814 1.4585 32.6128 0.0000 -13.3405 0.0000
# 4 0.0000 0.0000 0.0000 31.7420 0.0000 4.5702
# 5 -12.8493 -5.8003 -13.3405 0.0000 30.9294 0.0000
# 6 0.0000 0.0000 0.0000 4.5702 0.0000 30.6394
#
#
#
# Elastic Compliance Matrix: (Units=1/GPa)
#
#
# Indices 1 2 3 4 5 6 
#
# 1 0.008844 -0.003064 -0.000889 0.000000 0.002716 0.000000
# 2 -0.003064 0.020431 0.001060 0.000000 0.003016 0.000000
# 3 -0.000889 0.001060 0.037350 0.000000 0.015939 0.000000
# 4 0.000000 0.000000 0.000000 0.032195 0.000000 -0.004802
# 5 0.002716 0.003016 0.015939 0.000000 0.040901 0.000000
# 6 0.000000 0.000000 0.000000 -0.004802 0.000000 0.033354
#
#
# Mechanical properties :
#
#
# Convention : Reuss Voigt Hill
#
# Bulk Modulus (GPa) = 16.43649 29.91896 23.17773
# Shear Modulus (GPa) = 25.10787 30.70466 27.90627
#
# Velocity S-wave (km/s) = 3.19147 3.52929 3.36462
# Velocity P-wave (km/s) = 4.49982 5.36144 4.94942
#
# Compressibility (1/GPa) = 0.06084023
#
# Stress axis : x y z
#
# Youngs Moduli (GPa) = 113.07622 48.94423 26.77347
#
# Poissons Ratio (x) = 0.14996 0.02381
# Poissons Ratio (y) = 0.34644 -0.02839
# Poissons Ratio (z) = 0.10055 -0.05190
#
# Static dielectric constant tensor:
#      x y z
#    x 1.957250 0.000000 -0.022000 
#    y 0.000000 1.607340 0.000000 
#    z -0.022000 0.000000 1.956730 
# 
# From -- ./inp_files/65900.got.cif
#   From: 2010.05.17/outbox.cif.g08.bks.cpg/sg14_33_cif.got.tgz:65900.got - 2010.06.03 17:49:19.
