data_PCOD9245184
_publ_section_title
;
Structure prediction by ZEFSAII (Michael W. Deem and Ramdas Pophale) SiO2 
 PCOD9245184
Probable space group: P 21/C
;
_chemical_formula_sum "Si O2"
_cell_formula_units_Z 28
_cell_length_a 8.504029
_cell_length_b 21.729371
_cell_length_c 14.834262
_cell_angle_alpha 90.000000
_cell_angle_beta 27.386918
_cell_angle_gamma 90.000000
_cell_volume 1260.935558
_symmetry_space_group_name_H-M "P 21/C"
_symmetry_group_IT_number 14
_symmetry_cell_setting 'monoclinic'
loop_
_space_group_symop_operation_xyz
x,y,z
-x,1/2+y,1/2-z
-x,-y,-z
x,1/2-y,1/2+z
loop_
_atom_site_type_symbol
_atom_site_label
_atom_site_fract_x
_atom_site_fract_y
_atom_site_fract_z
Si Si1 0.920250 0.796403 0.373997
Si Si2 0.965948 0.573452 0.504513
Si Si3 0.130648 0.665104 0.270066
Si Si4 0.825267 0.099128 0.626964
Si Si5 0.065712 0.368926 0.298443
Si Si6 0.858444 0.111368 0.412208
Si Si7 0.117552 0.516540 0.732753
O O1 0.527785 0.816905 0.568279
O O2 0.053292 0.812341 0.204327
O O3 0.943328 0.726849 0.396175
O O4 0.116347 0.840237 0.343689
O O5 0.565532 0.586645 0.698441
O O6 0.101212 0.612676 0.521289
O O7 0.000000 0.500000 0.500000
O O8 0.112623 0.604252 0.339993
O O9 0.974419 0.652451 0.250553
O O10 0.005149 0.106939 0.438313
O O11 0.906655 0.043591 0.653519
O O12 0.016864 0.429581 0.262397
O O13 0.470271 0.364226 0.112376
O O14 0.886625 0.043720 0.354857
O O15 0.500000 0.500000 0.500000
#
# Coordination Sequence:
#
# PCOD9245184 Si02
#       7
#     4   4   4   4   4   4   4
#     4  10  23  42  61  86 115 158 204 254 310 363
#     4  11  22  39  62  93 126 163 202 251 309 370
#     4  11  23  41  63  85 118 157 204 255 309 371
#     4  10  22  38  59  88 124 157 200 249 300 364
#     4   9  21  38  57  80 116 154 194 239 293 358
#     4  10  21  37  57  82 113 156 193 238 297 355
#     4  11  20  33  56  88 120 153 193 242 294 353
#
# _framework density 22.205735000000001
#
# number of rings (size 3 to 8) (size 9 to 14) (size 15 to 20)
#    0.000    1.714    0.000    4.286    0.000   10.286 
#    0.000    2.857    0.000    0.000    0.000    0.000 
#    0.000    0.000    0.000    0.000    0.000    0.000 
#
# Total GULP energy -156134.230691 kJ/mol
# GULP energy per Si atom -5576.222525 kJ/mol
# Density = 2.215519 g / cm^3
# Si number density = 22.205735 Si / 1000 Ang^3
#
#
#
# Elastic Constant Matrix: (Units=GPa)
#
#
# Indices 1 2 3 4 5 6 
#
# 1 91.6137 32.0509 20.3783 0.0000 41.2485 0.0000
# 2 32.0509 101.8095 18.5360 0.0000 12.6638 0.0000
# 3 20.3783 18.5360 41.4964 0.0000 18.4478 0.0000
# 4 0.0000 0.0000 0.0000 19.8766 0.0000 0.7520
# 5 41.2485 12.6638 18.4478 0.0000 30.8389 0.0000
# 6 0.0000 0.0000 0.0000 0.7520 0.0000 23.9065
#
#
#
# Elastic Compliance Matrix: (Units=1/GPa)
#
#
# Indices 1 2 3 4 5 6 
#
# 1 0.030450 -0.005474 0.006265 0.000000 -0.042227 0.000000
# 2 -0.005474 0.011776 -0.005009 0.000000 0.005483 0.000000
# 3 0.006265 -0.005009 0.035515 0.000000 -0.027567 0.000000
# 4 0.000000 0.000000 0.000000 0.050370 0.000000 -0.001585
# 5 -0.042227 0.005483 -0.027567 0.000000 0.103147 0.000000
# 6 0.000000 0.000000 0.000000 -0.001585 0.000000 0.041879
#
#
# Mechanical properties :
#
#
# Convention : Reuss Voigt Hill
#
# Bulk Modulus (GPa) = 14.42941 41.87222 28.15082
# Shear Modulus (GPa) = 16.41093 25.85469 21.13281
#
# Velocity S-wave (km/s) = 2.72148 3.41592 3.08828
# Velocity P-wave (km/s) = 4.04814 5.86988 5.04197
#
# Compressibility (1/GPa) = 0.06930291
#
# Stress axis : x y z
#
# Youngs Moduli (GPa) = 32.84120 84.92165 28.15714
#
# Poissons Ratio (x) = 0.46485 -0.17639
# Poissons Ratio (y) = 0.17977 0.14105
# Poissons Ratio (z) = -0.20573 0.42539
#
# Static dielectric constant tensor:
#      x y z
#    x 1.860140 0.000000 0.059040 
#    y 0.000000 1.803790 0.000000 
#    z 0.059040 0.000000 1.991910 
# 
# From -- ./inp_files/42165.got.cif
#   From: 2010.05.17/outbox.cif.g08.bks.cpg/sg14_22_cif.got.tgz:42165.got - 2010.06.03 17:49:19.
