data_PCOD9245956
_publ_section_title
;
Structure prediction by ZEFSAII (Michael W. Deem and Ramdas Pophale) SiO2 
 PCOD9245956
Probable space group: P 21/C
;
_chemical_formula_sum "Si O2"
_cell_formula_units_Z 24
_cell_length_a 7.479702
_cell_length_b 5.146573
_cell_length_c 27.185241
_cell_angle_alpha 90.000000
_cell_angle_beta 65.943827
_cell_angle_gamma 90.000000
_cell_volume 955.599604
_symmetry_space_group_name_H-M "P 21/C"
_symmetry_group_IT_number 14
_symmetry_cell_setting 'monoclinic'
loop_
_space_group_symop_operation_xyz
x,y,z
-x,1/2+y,1/2-z
-x,-y,-z
x,1/2-y,1/2+z
loop_
_atom_site_type_symbol
_atom_site_label
_atom_site_fract_x
_atom_site_fract_y
_atom_site_fract_z
Si Si1 0.813058 0.249485 0.662948
Si Si2 0.906868 0.081784 0.933226
Si Si3 0.867285 0.274329 0.264418
Si Si4 0.230310 0.266790 0.968559
Si Si5 0.207292 0.552336 0.126258
Si Si6 0.565671 0.237567 0.096007
O O1 0.940110 0.483705 0.625261
O O2 0.751677 0.274637 0.726603
O O3 0.640979 0.210852 0.643188
O O4 0.979951 0.027299 0.646508
O O5 0.029752 0.242875 0.959783
O O6 0.751401 0.265500 0.924627
O O7 0.818988 0.834441 0.971508
O O8 0.758627 0.205163 0.326754
O O9 0.954427 0.564219 0.257791
O O10 0.326578 0.543264 0.948968
O O11 0.364357 0.042033 0.929315
O O12 0.338902 0.298080 0.115296
#
# Coordination Sequence:
#
# PCOD9245956 Si02
#       6
#     4   4   4   4   4   4
#     4  10  22  43  63  91 128 168 203 275 310 384
#     4  10  21  40  68  86 131 170 212 255 325 368
#     4  10  21  39  66  92 118 163 213 252 319 383
#     4  10  24  41  62  96 125 172 212 258 311 389
#     4  11  23  40  66  95 123 170 211 268 312 389
#     4  11  25  41  63  94 131 160 215 259 319 371
#
# _framework density 25.115119
#
# number of rings (size 3 to 8) (size 9 to 14) (size 15 to 20)
#    0.000    1.667    3.333    0.000    4.667    3.333 
#    0.000   10.000    0.000    0.000    0.000    0.000 
#    0.000    0.000    0.000    0.000    0.000    0.000 
#
# Total GULP energy -134429.020359 kJ/mol
# GULP energy per Si atom -5601.209182 kJ/mol
# Density = 2.505796 g / cm^3
# Si number density = 25.115119 Si / 1000 Ang^3
#
#
#
# Elastic Constant Matrix: (Units=GPa)
#
#
# Indices 1 2 3 4 5 6 
#
# 1 96.5052 22.0239 44.6362 0.0000 38.7072 0.0000
# 2 22.0239 72.1382 22.3705 0.0000 3.5158 0.0000
# 3 44.6362 22.3705 114.0070 0.0000 37.3632 0.0000
# 4 0.0000 0.0000 0.0000 35.7560 0.0000 1.8376
# 5 38.7072 3.5158 37.3632 0.0000 27.3356 0.0000
# 6 0.0000 0.0000 0.0000 1.8376 0.0000 35.5850
#
#
#
# Elastic Compliance Matrix: (Units=1/GPa)
#
#
# Indices 1 2 3 4 5 6 
#
# 1 0.028571 -0.008280 0.006065 0.000000 -0.047682 0.000000
# 2 -0.008280 0.017373 -0.005937 0.000000 0.017604 0.000000
# 3 0.006065 -0.005937 0.018342 0.000000 -0.032896 0.000000
# 4 0.000000 0.000000 0.000000 0.028042 0.000000 -0.001448
# 5 -0.047682 0.017604 -0.032896 0.000000 0.146799 0.000000
# 6 0.000000 0.000000 0.000000 -0.001448 0.000000 0.028177
#
#
# Mechanical properties :
#
#
# Convention : Reuss Voigt Hill
#
# Bulk Modulus (GPa) = 20.84021 51.19018 36.01520
# Shear Modulus (GPa) = 16.68888 32.64329 24.66608
#
# Velocity S-wave (km/s) = 2.58058 3.60911 3.13728
# Velocity P-wave (km/s) = 4.14669 6.14769 5.24352
#
# Compressibility (1/GPa) = 0.04798417
#
# Stress axis : x y z
#
# Youngs Moduli (GPa) = 35.00042 57.56022 54.51829
#
# Poissons Ratio (x) = 0.47658 -0.33066
# Poissons Ratio (y) = 0.28979 0.32365
# Poissons Ratio (z) = -0.21228 0.34171
#
# Static dielectric constant tensor:
#      x y z
#    x 1.965450 0.000000 -0.005820 
#    y 0.000000 1.977310 0.000000 
#    z -0.005820 0.000000 2.012340 
# 
# From -- ./inp_files/78067.got.cif
#   From: 2010.05.17/outbox.cif.g08.bks.cpg/sg14_40_cif.got.tgz:78067.got - 2010.06.03 17:49:19.
