data_PCOD9245999
_publ_section_title
;
Structure prediction by ZEFSAII (Michael W. Deem and Ramdas Pophale) SiO2 
 PCOD9245999
Probable space group: P 21/C
;
_chemical_formula_sum "Si O2"
_cell_formula_units_Z 32
_cell_length_a 12.103616
_cell_length_b 9.298382
_cell_length_c 14.168958
_cell_angle_alpha 90.000000
_cell_angle_beta 88.023053
_cell_angle_gamma 90.000000
_cell_volume 1593.682705
_symmetry_space_group_name_H-M "P 21/C"
_symmetry_group_IT_number 14
_symmetry_cell_setting 'monoclinic'
loop_
_space_group_symop_operation_xyz
x,y,z
-x,1/2+y,1/2-z
-x,-y,-z
x,1/2-y,1/2+z
loop_
_atom_site_type_symbol
_atom_site_label
_atom_site_fract_x
_atom_site_fract_y
_atom_site_fract_z
Si Si1 0.535483 0.760973 0.658473
Si Si2 0.014449 0.837442 0.389952
Si Si3 0.395734 0.997527 0.205843
Si Si4 0.389274 0.511802 0.066651
Si Si5 0.333110 0.194244 0.037253
Si Si6 0.903388 0.565210 0.437809
Si Si7 0.150949 0.596417 0.068048
Si Si8 0.826491 0.339791 0.288392
O O1 0.602183 0.868376 0.723612
O O2 0.499453 0.610148 0.705394
O O3 0.428963 0.862053 0.636374
O O4 0.601724 0.719357 0.561976
O O5 0.081420 0.828929 0.486642
O O6 0.095180 0.870060 0.301944
O O7 0.960482 0.684661 0.371717
O O8 0.918107 0.953314 0.407261
O O9 0.381439 0.067781 0.102288
O O10 0.294908 0.893081 0.233878
O O11 0.353205 0.347037 0.091479
O O12 0.274689 0.568764 0.025863
O O13 0.500000 0.500000 0.000000
O O14 0.205903 0.147753 0.018662
O O15 0.859639 0.438906 0.374939
O O16 0.000000 0.500000 0.500000
O O17 0.163263 0.682817 0.165653
#
# Coordination Sequence:
#
# PCOD9245999 Si02
#       8
#     4   4   4   4   4   4   4   4
#     4  11  23  43  67  96 130 173 217 267 333 389
#     4  11  24  40  69  92 130 175 216 265 326 383
#     4  11  24  43  64  96 133 165 220 272 320 396
#     4  10  21  39  68  94 128 170 214 268 327 390
#     4  10  23  43  67  92 130 175 216 269 328 386
#     4  11  22  44  63  94 133 167 214 270 323 386
#     4  11  22  43  66  96 132 169 220 268 322 392
#     4  11  24  42  64  98 129 167 215 269 326 387
#
# _framework density 20.079277999999999
#
# number of rings (size 3 to 8) (size 9 to 14) (size 15 to 20)
#    0.000    1.250    3.750    1.875    3.500    0.000 
#    6.750    0.000    0.000    0.000    0.000    0.000 
#    0.000    0.000    0.000    0.000    0.000    0.000 
#
# Total GULP energy -178259.023285 kJ/mol
# GULP energy per Si atom -5570.594478 kJ/mol
# Density = 2.003358 g / cm^3
# Si number density = 20.079278 Si / 1000 Ang^3
#
#
#
# Elastic Constant Matrix: (Units=GPa)
#
#
# Indices 1 2 3 4 5 6 
#
# 1 112.0408 29.9774 36.0061 0.0000 -6.8339 0.0000
# 2 29.9774 83.7747 10.5704 0.0000 -3.1985 0.0000
# 3 36.0061 10.5704 47.3624 0.0000 -6.2962 0.0000
# 4 0.0000 0.0000 0.0000 24.0819 0.0000 -6.1621
# 5 -6.8339 -3.1985 -6.2962 0.0000 21.1662 0.0000
# 6 0.0000 0.0000 0.0000 -6.1621 0.0000 21.5536
#
#
#
# Elastic Compliance Matrix: (Units=1/GPa)
#
#
# Indices 1 2 3 4 5 6 
#
# 1 0.012717 -0.003406 -0.008777 0.000000 0.000980 0.000000
# 2 -0.003406 0.013219 -0.000252 0.000000 0.000823 0.000000
# 3 -0.008777 -0.000252 0.028592 0.000000 0.005633 0.000000
# 4 0.000000 0.000000 0.000000 0.044803 0.000000 0.012809
# 5 0.000980 0.000823 0.005633 0.000000 0.049362 0.000000
# 6 0.000000 0.000000 0.000000 0.012809 0.000000 0.050058
#
#
# Mechanical properties :
#
#
# Convention : Reuss Voigt Hill
#
# Bulk Modulus (GPa) = 33.71798 44.03174 38.87486
# Shear Modulus (GPa) = 21.41281 24.46860 22.94071
#
# Velocity S-wave (km/s) = 3.26914 3.49463 3.38377
# Velocity P-wave (km/s) = 5.57482 6.18545 5.88806
#
# Compressibility (1/GPa) = 0.02965776
#
# Stress axis : x y z
#
# Youngs Moduli (GPa) = 78.63429 75.65087 34.97530
#
# Poissons Ratio (x) = 0.25764 0.30699
# Poissons Ratio (y) = 0.26780 0.00880
# Poissons Ratio (z) = 0.69021 0.01904
#
# Static dielectric constant tensor:
#      x y z
#    x 1.729860 0.000000 0.022060 
#    y 0.000000 1.724580 0.000000 
#    z 0.022060 0.000000 1.702820 
# 
# From -- ./inp_files/43738.got.cif
#   From: 2010.05.17/outbox.cif.g08.bks.cpg/sg14_22_cif.got.tgz:43738.got - 2010.06.03 17:49:19.
