data_PCOD9245137
_publ_section_title
;
Structure prediction by ZEFSAII (Michael W. Deem and Ramdas Pophale) SiO2 
 PCOD9245137
Probable space group: P 21/C
;
_chemical_formula_sum "Si O2"
_cell_formula_units_Z 32
_cell_length_a 9.254440
_cell_length_b 9.786469
_cell_length_c 20.586448
_cell_angle_alpha 90.000000
_cell_angle_beta 137.326893
_cell_angle_gamma 90.000000
_cell_volume 1263.771444
_symmetry_space_group_name_H-M "P 21/C"
_symmetry_group_IT_number 14
_symmetry_cell_setting 'monoclinic'
loop_
_space_group_symop_operation_xyz
x,y,z
-x,1/2+y,1/2-z
-x,-y,-z
x,1/2-y,1/2+z
loop_
_atom_site_type_symbol
_atom_site_label
_atom_site_fract_x
_atom_site_fract_y
_atom_site_fract_z
Si Si1 0.926080 0.943735 0.843029
Si Si2 0.473292 0.263004 0.305900
Si Si3 0.366729 0.817063 0.277859
Si Si4 0.627071 0.729118 0.592457
Si Si5 0.203208 0.594287 0.932387
Si Si6 0.288673 0.196578 0.509029
Si Si7 0.048842 0.761002 0.993930
Si Si8 0.102442 0.796824 0.787743
O O1 0.708396 0.854023 0.758759
O O2 0.160945 0.594553 0.692449
O O3 0.094333 0.909269 0.841930
O O4 0.022738 0.900929 0.944187
O O5 0.487921 0.317778 0.237738
O O6 0.424689 0.347194 0.356348
O O7 0.722884 0.227758 0.398939
O O8 0.518816 0.866854 0.385497
O O9 0.262362 0.686374 0.280206
O O10 0.435542 0.841415 0.526291
O O11 0.637105 0.690534 0.519371
O O12 0.863492 0.781025 0.684515
O O13 0.203357 0.434389 0.942264
O O14 0.036764 0.654269 0.929936
O O15 0.148326 0.657120 0.844170
O O16 0.125770 0.250572 0.508420
#
# Coordination Sequence:
#
# PCOD9245137 Si02
#       8
#     4   4   4   4   4   4   4   4
#     4  10  23  43  63  95 135 167 210 276 321 375
#     4  10  22  42  62  95 128 174 212 266 319 389
#     4  12  23  40  68  95 127 174 220 260 329 388
#     4  10  21  39  60  87 134 163 203 278 321 365
#     4  10  21  36  63  98 123 164 215 270 325 373
#     4  12  21  36  67  99 123 166 224 268 324 381
#     4  10  21  40  62  89 137 167 206 272 320 380
#     4  10  22  38  61  95 128 167 209 266 321 383
#
# _framework density 25.321034000000001
#
# number of rings (size 3 to 8) (size 9 to 14) (size 15 to 20)
#    0.000    1.500    2.500    3.750    3.500    0.500 
#    0.000    0.000    0.000   12.750    0.000    0.000 
#    0.000    0.000    0.000    0.000    0.000    0.000 
#
# Total GULP energy -178416.225273 kJ/mol
# GULP energy per Si atom -5575.507040 kJ/mol
# Density = 2.526340 g / cm^3
# Si number density = 25.321034 Si / 1000 Ang^3
#
#
#
# Elastic Constant Matrix: (Units=GPa)
#
#
# Indices 1 2 3 4 5 6 
#
# 1 178.2321 24.8347 39.6875 0.0000 -43.3534 0.0000
# 2 24.8347 41.6083 23.6249 0.0000 -14.0574 0.0000
# 3 39.6875 23.6249 117.2800 0.0000 -24.7009 0.0000
# 4 0.0000 0.0000 0.0000 24.9636 0.0000 2.4477
# 5 -43.3534 -14.0574 -24.7009 0.0000 44.8427 0.0000
# 6 0.0000 0.0000 0.0000 2.4477 0.0000 11.8552
#
#
#
# Elastic Compliance Matrix: (Units=1/GPa)
#
#
# Indices 1 2 3 4 5 6 
#
# 1 0.007595 -0.001927 -0.000863 0.000000 0.006263 0.000000
# 2 -0.001927 0.029251 -0.004187 0.000000 0.005000 0.000000
# 3 -0.000863 -0.004187 0.010419 0.000000 0.003592 0.000000
# 4 0.000000 0.000000 0.000000 0.040886 0.000000 -0.008442
# 5 0.006263 0.005000 0.003592 0.000000 0.031902 0.000000
# 6 0.000000 0.000000 0.000000 -0.008442 0.000000 0.086094
#
#
# Mechanical properties :
#
#
# Convention : Reuss Voigt Hill
#
# Bulk Modulus (GPa) = 30.02099 57.04608 43.53353
# Shear Modulus (GPa) = 21.62603 32.93050 27.27827
#
# Velocity S-wave (km/s) = 2.92562 3.61018 3.28578
# Velocity P-wave (km/s) = 4.82641 6.32107 5.62362
#
# Compressibility (1/GPa) = 0.03331003
#
# Stress axis : x y z
#
# Youngs Moduli (GPa) = 131.66972 34.18734 95.98247
#
# Poissons Ratio (x) = 0.06589 0.08281
# Poissons Ratio (y) = 0.25375 0.40188
# Poissons Ratio (z) = 0.11360 0.14314
#
# Static dielectric constant tensor:
#      x y z
#    x 2.073860 0.000000 -0.015770 
#    y 0.000000 2.039050 0.000000 
#    z -0.015770 0.000000 2.008750 
# 
# From -- ./inp_files/56043.got.cif
#   From: 2010.05.17/outbox.cif.g08.bks.cpg/sg14_29_cif.got.tgz:56043.got - 2010.06.03 17:49:19.
