data_PCOD9245697
_publ_section_title
;
Structure prediction by ZEFSAII (Michael W. Deem and Ramdas Pophale) SiO2 
 PCOD9245697
Probable space group: P 21/C
;
_chemical_formula_sum "Si O2"
_cell_formula_units_Z 24
_cell_length_a 16.622152
_cell_length_b 5.125356
_cell_length_c 11.568395
_cell_angle_alpha 90.000000
_cell_angle_beta 70.626092
_cell_angle_gamma 90.000000
_cell_volume 929.754344
_symmetry_space_group_name_H-M "P 21/C"
_symmetry_group_IT_number 14
_symmetry_cell_setting 'monoclinic'
loop_
_space_group_symop_operation_xyz
x,y,z
-x,1/2+y,1/2-z
-x,-y,-z
x,1/2-y,1/2+z
loop_
_atom_site_type_symbol
_atom_site_label
_atom_site_fract_x
_atom_site_fract_y
_atom_site_fract_z
Si Si1 0.604797 0.061959 0.239935
Si Si2 0.866652 0.916170 0.143591
Si Si3 0.205075 0.780116 0.627177
Si Si4 0.966808 0.209149 0.423671
Si Si5 0.257775 0.264518 0.478528
Si Si6 0.448847 0.069732 0.139334
O O1 0.517471 0.095961 0.209425
O O2 0.617705 0.344982 0.291225
O O3 0.665851 0.917895 0.119715
O O4 0.593695 0.851831 0.347464
O O5 0.809519 0.725269 0.094136
O O6 0.804007 0.114095 0.238847
O O7 0.919959 0.074207 0.023419
O O8 0.943343 0.784608 0.179007
O O9 0.109621 0.848272 0.626561
O O10 0.224650 0.479128 0.588691
O O11 0.267644 0.980899 0.530274
O O12 0.000000 0.000000 0.500000
O O13 0.500000 0.000000 0.000000
#
# Coordination Sequence:
#
# PCOD9245697 Si02
#       6
#     4   4   4   4   4   4
#     4  10  22  39  62  88 127 152 193 246 285 346
#     4  10  24  38  59  85 116 154 199 250 301 347
#     4  11  25  38  62  85 117 158 202 240 301 356
#     4  10  21  39  57  81 113 150 199 251 291 346
#     4  11  24  42  57  91 122 155 195 244 297 355
#     4  10  21  39  64  93 116 159 198 233 288 351
#
# _framework density 25.813269999999999
#
# number of rings (size 3 to 8) (size 9 to 14) (size 15 to 20)
#    0.000    1.667    1.667    1.500    4.667    2.667 
#    0.000    0.000    0.000    0.000    0.000    0.000 
#    0.000    0.000    0.000    0.000    0.000    0.000 
#
# Total GULP energy -134068.609066 kJ/mol
# GULP energy per Si atom -5586.192044 kJ/mol
# Density = 2.575452 g / cm^3
# Si number density = 25.813270 Si / 1000 Ang^3
#
#
#
# Elastic Constant Matrix: (Units=GPa)
#
#
# Indices 1 2 3 4 5 6 
#
# 1 52.7864 5.2638 -19.6818 0.0000 -8.6889 0.0000
# 2 5.2638 64.9970 -11.9496 0.0000 13.2106 0.0000
# 3 -19.6818 -11.9496 59.2581 0.0000 -7.4490 0.0000
# 4 0.0000 0.0000 0.0000 40.9484 0.0000 -5.3177
# 5 -8.6889 13.2106 -7.4490 0.0000 25.1008 0.0000
# 6 0.0000 0.0000 0.0000 -5.3177 0.0000 26.4194
#
#
#
# Elastic Compliance Matrix: (Units=1/GPa)
#
#
# Indices 1 2 3 4 5 6 
#
# 1 0.024812 -0.002923 0.009271 0.000000 0.012878 0.000000
# 2 -0.002923 0.017915 0.001381 0.000000 -0.010030 0.000000
# 3 0.009271 0.001381 0.021341 0.000000 0.008816 0.000000
# 4 0.000000 0.000000 0.000000 0.025076 0.000000 0.005047
# 5 0.012878 -0.010030 0.008816 0.000000 0.052193 0.000000
# 6 0.000000 0.000000 0.000000 0.005047 0.000000 0.038867
#
#
# Mechanical properties :
#
#
# Convention : Reuss Voigt Hill
#
# Bulk Modulus (GPa) = 12.57454 13.81180 13.19317
# Shear Modulus (GPa) = 26.14320 32.05432 29.09876
#
# Velocity S-wave (km/s) = 3.18588 3.52771 3.36114
# Velocity P-wave (km/s) = 4.29127 4.68564 4.49278
#
# Compressibility (1/GPa) = 0.07952576
#
# Stress axis : x y z
#
# Youngs Moduli (GPa) = 40.30281 55.82050 46.85806
#
# Poissons Ratio (x) = 0.16314 -0.43440
# Poissons Ratio (y) = 0.11779 -0.06471
# Poissons Ratio (z) = -0.37363 -0.07709
#
# Static dielectric constant tensor:
#      x y z
#    x 1.921460 0.000000 0.153920 
#    y 0.000000 2.128410 0.000000 
#    z 0.153920 0.000000 1.976400 
# 
# From -- ./inp_files/34554.got.cif
#   From: 2010.05.17/outbox.cif.g08.bks.cpg/sg14_18_cif.got.tgz:34554.got - 2010.06.03 17:49:19.
