data_PCOD9245091
_publ_section_title
;
Structure prediction by ZEFSAII (Michael W. Deem and Ramdas Pophale) SiO2 
 PCOD9245091
Probable space group: P 21/C
;
_chemical_formula_sum "Si O2"
_cell_formula_units_Z 20
_cell_length_a 8.302420
_cell_length_b 24.931407
_cell_length_c 7.045962
_cell_angle_alpha 90.000000
_cell_angle_beta 140.831760
_cell_angle_gamma 90.000000
_cell_volume 921.157005
_symmetry_space_group_name_H-M "P 21/C"
_symmetry_group_IT_number 14
_symmetry_cell_setting 'monoclinic'
loop_
_space_group_symop_operation_xyz
x,y,z
-x,1/2+y,1/2-z
-x,-y,-z
x,1/2-y,1/2+z
loop_
_atom_site_type_symbol
_atom_site_label
_atom_site_fract_x
_atom_site_fract_y
_atom_site_fract_z
Si Si1 0.278978 0.699672 0.542754
Si Si2 0.709281 0.882692 0.879910
Si Si3 0.782873 0.859933 0.497243
Si Si4 0.796159 0.176266 0.586547
Si Si5 0.243911 0.034339 0.783517
O O1 0.246256 0.679750 0.726562
O O2 0.244803 0.763351 0.519141
O O3 0.055586 0.669470 0.224491
O O4 0.560099 0.681846 0.739409
O O5 0.746512 0.875726 0.687627
O O6 0.425533 0.864243 0.680389
O O7 0.767049 0.941526 0.013583
O O8 0.917523 0.844533 0.171055
O O9 0.751492 0.913712 0.348493
O O10 0.000000 0.000000 0.500000
O O11 0.500000 0.000000 0.000000
#
# Coordination Sequence:
#
# PCOD9245091 Si02
#       5
#     4   4   4   4   4
#     4  10  21  36  60  90 122 163 194 236 304 361
#     4  10  23  41  59  88 125 154 200 252 297 360
#     4  10  23  41  59  88 125 154 200 252 297 360
#     4  10  21  36  60  90 122 163 194 236 304 361
#     4  12  26  42  66  90 114 164 212 254 308 342
#
# _framework density 21.711828000000001
#
# number of rings (size 3 to 8) (size 9 to 14) (size 15 to 20)
#    0.000    1.600    0.000    3.600    5.600    1.600 
#    0.000    0.000    0.000    0.000    0.000    0.000 
#    0.000    0.000    0.000    0.000    0.000    0.000 
#
# Total GULP energy -111845.975184 kJ/mol
# GULP energy per Si atom -5592.298759 kJ/mol
# Density = 2.166241 g / cm^3
# Si number density = 21.711828 Si / 1000 Ang^3
#
#
#
# Elastic Constant Matrix: (Units=GPa)
#
#
# Indices 1 2 3 4 5 6 
#
# 1 39.8912 7.0814 26.9028 0.0000 -3.7150 0.0000
# 2 7.0814 100.9246 45.9858 0.0000 9.4641 0.0000
# 3 26.9028 45.9858 145.5432 0.0000 22.7932 0.0000
# 4 0.0000 0.0000 0.0000 57.6779 0.0000 0.1215
# 5 -3.7150 9.4641 22.7932 0.0000 32.9881 0.0000
# 6 0.0000 0.0000 0.0000 0.1215 0.0000 36.8328
#
#
#
# Elastic Compliance Matrix: (Units=1/GPa)
#
#
# Indices 1 2 3 4 5 6 
#
# 1 0.030512 0.000286 -0.007015 0.000000 0.008201 0.000000
# 2 0.000286 0.011601 -0.003591 0.000000 -0.000815 0.000000
# 3 -0.007015 -0.003591 0.010388 0.000000 -0.006938 0.000000
# 4 0.000000 0.000000 0.000000 0.017338 0.000000 -0.000057
# 5 0.008201 -0.000815 -0.006938 0.000000 0.036265 0.000000
# 6 0.000000 0.000000 0.000000 -0.000057 0.000000 0.027150
#
#
# Mechanical properties :
#
#
# Convention : Reuss Voigt Hill
#
# Bulk Modulus (GPa) = 31.38442 49.58879 40.48661
# Shear Modulus (GPa) = 30.39276 39.25902 34.82589
#
# Velocity S-wave (km/s) = 3.74548 4.25689 4.00935
# Velocity P-wave (km/s) = 5.76118 6.85934 6.33411
#
# Compressibility (1/GPa) = 0.03186294
#
# Stress axis : x y z
#
# Youngs Moduli (GPa) = 32.77416 86.20104 96.26068
#
# Poissons Ratio (x) = -0.02468 0.67524
# Poissons Ratio (y) = -0.00938 0.34564
# Poissons Ratio (z) = 0.22990 0.30952
#
# Static dielectric constant tensor:
#      x y z
#    x 1.848360 0.000000 -0.039490 
#    y 0.000000 1.770600 0.000000 
#    z -0.039490 0.000000 1.811490 
# 
# From -- ./inp_files/1346.got.cif
#   From: 2010.05.17/outbox.cif.g08.bks.cpg/sg14_1_cif.got.tgz:1346.got - 2010.06.03 17:49:19.
