data_PCOD9245465
_publ_section_title
;
Structure prediction by ZEFSAII (Michael W. Deem and Ramdas Pophale) SiO2 
 PCOD9245465
Probable space group: P 21/C
;
_chemical_formula_sum "Si O2"
_cell_formula_units_Z 20
_cell_length_a 7.095426
_cell_length_b 27.401211
_cell_length_c 4.929433
_cell_angle_alpha 90.000000
_cell_angle_beta 107.046932
_cell_angle_gamma 90.000000
_cell_volume 916.289260
_symmetry_space_group_name_H-M "P 21/C"
_symmetry_group_IT_number 14
_symmetry_cell_setting 'monoclinic'
loop_
_space_group_symop_operation_xyz
x,y,z
-x,1/2+y,1/2-z
-x,-y,-z
x,1/2-y,1/2+z
loop_
_atom_site_type_symbol
_atom_site_label
_atom_site_fract_x
_atom_site_fract_y
_atom_site_fract_z
Si Si1 0.816586 0.781706 0.409821
Si Si2 0.597473 0.458532 0.355342
Si Si3 0.188402 0.653003 0.957499
Si Si4 0.854844 0.454598 0.953295
Si Si5 0.534028 0.352190 0.414960
O O1 0.797995 0.766130 0.713596
O O2 0.646453 0.817642 0.233280
O O3 0.028141 0.806665 0.457260
O O4 0.500000 0.500000 0.500000
O O5 0.789495 0.446677 0.616685
O O6 0.476483 0.408259 0.318721
O O7 0.676981 0.468521 0.087323
O O8 0.284851 0.660860 0.706679
O O9 0.086187 0.599401 0.923658
O O10 0.373150 0.651391 0.245668
O O11 0.000000 0.500000 0.000000
#
# Coordination Sequence:
#
# PCOD9245465 Si02
#       5
#     4   4   4   4   4
#     4  12  26  42  66  96 118 166 218 256 318 368
#     4  10  21  38  60  92 124 165 204 248 314 370
#     4  10  23  43  63  91 131 163 205 261 313 372
#     4  10  21  38  60  92 124 165 204 248 314 370
#     4  10  23  43  63  91 131 163 205 261 313 372
#
# _framework density 21.827169000000001
#
# number of rings (size 3 to 8) (size 9 to 14) (size 15 to 20)
#    0.000    1.600    0.000    3.600    2.800    4.800 
#    3.600    0.000    0.000    0.000    0.000    0.000 
#    0.000    0.000    0.000    0.000    0.000    0.000 
#
# Total GULP energy -111654.725239 kJ/mol
# GULP energy per Si atom -5582.736262 kJ/mol
# Density = 2.177749 g / cm^3
# Si number density = 21.827169 Si / 1000 Ang^3
#
#
#
# Elastic Constant Matrix: (Units=GPa)
#
#
# Indices 1 2 3 4 5 6 
#
# 1 39.5468 37.2299 3.9299 0.0000 -0.2639 0.0000
# 2 37.2299 68.1173 -5.2073 0.0000 -0.1877 0.0000
# 3 3.9299 -5.2073 87.7038 0.0000 -20.0972 0.0000
# 4 0.0000 0.0000 0.0000 24.3884 0.0000 -1.7952
# 5 -0.2639 -0.1877 -20.0972 0.0000 23.0390 0.0000
# 6 0.0000 0.0000 0.0000 -1.7952 0.0000 57.8241
#
#
#
# Elastic Compliance Matrix: (Units=1/GPa)
#
#
# Indices 1 2 3 4 5 6 
#
# 1 0.053861 -0.029841 -0.005124 0.000000 -0.004096 0.000000
# 2 -0.029841 0.031303 0.003969 0.000000 0.003376 0.000000
# 3 -0.005124 0.003969 0.014825 0.000000 0.012905 0.000000
# 4 0.000000 0.000000 0.000000 0.041097 0.000000 0.001276
# 5 -0.004096 0.003376 0.012905 0.000000 0.054643 0.000000
# 6 0.000000 0.000000 0.000000 0.001276 0.000000 0.017333
#
#
# Mechanical properties :
#
#
# Convention : Reuss Voigt Hill
#
# Bulk Modulus (GPa) = 26.31749 29.69699 28.00724
# Shear Modulus (GPa) = 17.37805 31.67797 24.52801
#
# Velocity S-wave (km/s) = 2.82470 3.81374 3.35586
# Velocity P-wave (km/s) = 4.76676 5.74699 5.27967
#
# Compressibility (1/GPa) = 0.03799754
#
# Stress axis : x y z
#
# Youngs Moduli (GPa) = 18.56624 31.94568 67.45585
#
# Poissons Ratio (x) = 0.95330 0.34563
# Poissons Ratio (y) = 0.55404 -0.26775
# Poissons Ratio (z) = 0.09513 -0.12680
#
# Static dielectric constant tensor:
#      x y z
#    x 1.843680 0.000000 0.112110 
#    y 0.000000 1.883920 0.000000 
#    z 0.112110 0.000000 1.869470 
# 
# From -- ./inp_files/607.got.cif
#   From: 2010.05.17/outbox.cif.g08.bks.cpg/sg14_1_cif.got.tgz:607.got - 2010.06.03 17:49:19.
