data_PCOD9245024
_publ_section_title
;
Structure prediction by ZEFSAII (Michael W. Deem and Ramdas Pophale) SiO2 
 PCOD9245024
Probable space group: P 21/C
;
_chemical_formula_sum "Si O2"
_cell_formula_units_Z 28
_cell_length_a 17.333046
_cell_length_b 7.621597
_cell_length_c 19.253280
_cell_angle_alpha 90.000000
_cell_angle_beta 145.997048
_cell_angle_gamma 90.000000
_cell_volume 1422.395667
_symmetry_space_group_name_H-M "P 21/C"
_symmetry_group_IT_number 14
_symmetry_cell_setting 'monoclinic'
loop_
_space_group_symop_operation_xyz
x,y,z
-x,1/2+y,1/2-z
-x,-y,-z
x,1/2-y,1/2+z
loop_
_atom_site_type_symbol
_atom_site_label
_atom_site_fract_x
_atom_site_fract_y
_atom_site_fract_z
Si Si1 0.970978 0.962486 0.398714
Si Si2 0.772425 0.944243 0.502129
Si Si3 0.586938 0.883020 0.891915
Si Si4 0.958005 0.063997 0.044776
Si Si5 0.344340 0.797537 0.151785
Si Si6 0.065470 0.893748 0.263818
Si Si7 0.192169 0.984380 0.843403
O O1 0.979102 0.754987 0.395649
O O2 0.093822 0.056023 0.447705
O O3 0.829280 0.014365 0.255376
O O4 0.000000 0.000000 0.500000
O O5 0.695479 0.124261 0.422522
O O6 0.829084 0.969599 0.622399
O O7 0.686213 0.766805 0.432968
O O8 0.440882 0.782640 0.784228
O O9 0.579613 0.055453 0.837815
O O10 0.663536 0.950758 0.018349
O O11 0.015277 0.942084 0.149333
O O12 0.794563 0.103871 0.927945
O O13 0.000000 0.000000 0.000000
O O14 0.145580 0.710820 0.330213
O O15 0.928812 0.901195 0.209882
#
# Coordination Sequence:
#
# PCOD9245024 Si02
#       7
#     4   4   4   4   4   4   4
#     4  10  21  36  56  90 121 159 203 257 329 373
#     4  10  21  36  60  90 123 152 204 268 308 369
#     4  12  21  38  61  87 126 162 210 257 309 371
#     4  11  23  38  58  87 126 161 205 261 322 381
#     4  11  23  38  60  92 121 168 208 253 315 373
#     4  11  19  35  58  92 121 156 206 262 326 358
#     4  11  20  33  60  89 122 159 203 271 310 366
#
# _framework density 19.685099999999998
#
# number of rings (size 3 to 8) (size 9 to 14) (size 15 to 20)
#    0.000    1.143    4.286    5.143    2.000    0.000 
#    0.000    0.000    0.000   12.857    0.000    0.000 
#    0.000    0.000    0.000    0.000    0.000    0.000 
#
# Total GULP energy -156152.703101 kJ/mol
# GULP energy per Si atom -5576.882254 kJ/mol
# Density = 1.964030 g / cm^3
# Si number density = 19.685100 Si / 1000 Ang^3
#
#
#
# Elastic Constant Matrix: (Units=GPa)
#
#
# Indices 1 2 3 4 5 6 
#
# 1 56.0108 16.9893 37.9136 0.0000 -31.1129 0.0000
# 2 16.9893 117.7147 43.7089 0.0000 -6.0317 0.0000
# 3 37.9136 43.7089 152.0856 0.0000 -26.5500 0.0000
# 4 0.0000 0.0000 0.0000 44.9144 0.0000 -2.0500
# 5 -31.1129 -6.0317 -26.5500 0.0000 27.7258 0.0000
# 6 0.0000 0.0000 0.0000 -2.0500 0.0000 12.9390
#
#
#
# Elastic Compliance Matrix: (Units=1/GPa)
#
#
# Indices 1 2 3 4 5 6 
#
# 1 0.050003 -0.003708 -0.002095 0.000000 0.053298 0.000000
# 2 -0.003708 0.009795 -0.002696 0.000000 -0.004611 0.000000
# 3 -0.002095 -0.002696 0.008837 0.000000 0.005524 0.000000
# 4 0.000000 0.000000 0.000000 0.022427 0.000000 0.003553
# 5 0.053298 -0.004611 0.005524 0.000000 0.100164 0.000000
# 6 0.000000 0.000000 0.000000 0.003553 0.000000 0.077848
#
#
# Mechanical properties :
#
#
# Convention : Reuss Voigt Hill
#
# Bulk Modulus (GPa) = 19.36595 58.11497 38.74046
# Shear Modulus (GPa) = 16.48625 32.26245 24.37435
#
# Velocity S-wave (km/s) = 2.89710 4.05276 3.52264
# Velocity P-wave (km/s) = 4.58804 7.17539 6.02231
#
# Compressibility (1/GPa) = 0.05163702
#
# Stress axis : x y z
#
# Youngs Moduli (GPa) = 19.99890 102.09383 113.16436
#
# Poissons Ratio (x) = 0.37853 0.23711
# Poissons Ratio (y) = 0.07415 0.30506
# Poissons Ratio (z) = 0.04190 0.27522
#
# Static dielectric constant tensor:
#      x y z
#    x 1.691930 0.000000 -0.027990 
#    y 0.000000 1.729340 0.000000 
#    z -0.027990 0.000000 1.791290 
# 
# From -- ./inp_files/69101.got.cif
#   From: 2010.05.17/outbox.cif.g08.bks.cpg/sg14_35_cif.got.tgz:69101.got - 2010.06.03 17:49:19.
