data_PCOD9245793
_publ_section_title
;
Structure prediction by ZEFSAII (Michael W. Deem and Ramdas Pophale) SiO2 
 PCOD9245793
Probable space group: P 21/C
;
_chemical_formula_sum "Si O2"
_cell_formula_units_Z 20
_cell_length_a 9.736787
_cell_length_b 8.003340
_cell_length_c 11.447558
_cell_angle_alpha 90.000000
_cell_angle_beta 80.878297
_cell_angle_gamma 90.000000
_cell_volume 880.790462
_symmetry_space_group_name_H-M "P 21/C"
_symmetry_group_IT_number 14
_symmetry_cell_setting 'monoclinic'
loop_
_space_group_symop_operation_xyz
x,y,z
-x,1/2+y,1/2-z
-x,-y,-z
x,1/2-y,1/2+z
loop_
_atom_site_type_symbol
_atom_site_label
_atom_site_fract_x
_atom_site_fract_y
_atom_site_fract_z
Si Si1 0.860354 0.821941 0.131983
Si Si2 0.312013 0.614557 0.794457
Si Si3 0.599909 0.731758 0.301694
Si Si4 0.228465 0.415009 0.036315
Si Si5 0.076710 0.635536 0.252657
O O1 0.697958 0.819110 0.190011
O O2 0.934415 0.705904 0.219890
O O3 0.923450 0.004751 0.140544
O O4 0.869155 0.727118 0.008369
O O5 0.360290 0.462763 0.705131
O O6 0.440203 0.740363 0.792660
O O7 0.177059 0.710670 0.768316
O O8 0.279895 0.528930 0.923081
O O9 0.645605 0.824078 0.413873
O O10 0.146650 0.528464 0.138888
#
# Coordination Sequence:
#
# PCOD9245793 Si02
#       5
#     4   4   4   4   4
#     4  10  21  39  62  90 123 160 202 251 302 361
#     4  11  23  42  64  91 125 163 205 254 305 364
#     4  10  21  39  62  90 123 160 202 251 302 361
#     4  10  22  40  64  94 124 160 204 252 306 366
#     4  11  23  42  64  91 125 163 205 254 305 364
#
# _framework density 22.706876000000001
#
# number of rings (size 3 to 8) (size 9 to 14) (size 15 to 20)
#    0.000    1.600    0.000    6.000    0.000    4.800 
#    0.000   12.000    0.000    0.000    0.000    0.000 
#    0.000    0.000    0.000    0.000    0.000    0.000 
#
# Total GULP energy -111912.495763 kJ/mol
# GULP energy per Si atom -5595.624788 kJ/mol
# Density = 2.265519 g / cm^3
# Si number density = 22.706876 Si / 1000 Ang^3
#
#
#
# Elastic Constant Matrix: (Units=GPa)
#
#
# Indices 1 2 3 4 5 6 
#
# 1 65.3151 8.8898 10.5949 0.0000 11.0038 0.0000
# 2 8.8898 91.6995 17.0040 0.0000 -5.5205 0.0000
# 3 10.5949 17.0040 80.6723 0.0000 -0.2602 0.0000
# 4 0.0000 0.0000 0.0000 12.6908 0.0000 -2.3831
# 5 11.0038 -5.5205 -0.2602 0.0000 18.2514 0.0000
# 6 0.0000 0.0000 0.0000 -2.3831 0.0000 44.1985
#
#
#
# Elastic Compliance Matrix: (Units=1/GPa)
#
#
# Indices 1 2 3 4 5 6 
#
# 1 0.017825 -0.002053 -0.001945 0.000000 -0.011396 0.000000
# 2 -0.002053 0.011800 -0.002202 0.000000 0.004776 0.000000
# 3 -0.001945 -0.002202 0.013118 0.000000 0.000694 0.000000
# 4 0.000000 0.000000 0.000000 0.079603 0.000000 0.004292
# 5 -0.011396 0.004776 0.000694 0.000000 0.063115 0.000000
# 6 0.000000 0.000000 0.000000 0.004292 0.000000 0.022857
#
#
# Mechanical properties :
#
#
# Convention : Reuss Voigt Hill
#
# Bulk Modulus (GPa) = 32.95766 34.51823 33.73795
# Shear Modulus (GPa) = 21.66067 28.44136 25.05102
#
# Velocity S-wave (km/s) = 3.09192 3.54297 3.32510
# Velocity P-wave (km/s) = 5.22423 5.65434 5.44353
#
# Compressibility (1/GPa) = 0.03034196
#
# Stress axis : x y z
#
# Youngs Moduli (GPa) = 56.10018 84.74491 76.23313
#
# Poissons Ratio (x) = 0.17402 0.14827
# Poissons Ratio (y) = 0.11520 0.16787
# Poissons Ratio (z) = 0.10911 0.18662
#
# Static dielectric constant tensor:
#      x y z
#    x 1.799590 0.000000 -0.029170 
#    y 0.000000 1.861980 0.000000 
#    z -0.029170 0.000000 1.865010 
# 
# From -- ./inp_files/23009.got.cif
#   From: 2010.05.17/outbox.cif.g08.bks.cpg/sg14_12_cif.got.tgz:23009.got - 2010.06.03 17:49:19.
