data_PCOD9245752
_publ_section_title
;
Structure prediction by ZEFSAII (Michael W. Deem and Ramdas Pophale) SiO2 
 PCOD9245752
Probable space group: P 21/C
;
_chemical_formula_sum "Si O2"
_cell_formula_units_Z 32
_cell_length_a 16.465895
_cell_length_b 11.415985
_cell_length_c 20.701336
_cell_angle_alpha 90.000000
_cell_angle_beta 156.143062
_cell_angle_gamma 90.000000
_cell_volume 1573.861852
_symmetry_space_group_name_H-M "P 21/C"
_symmetry_group_IT_number 14
_symmetry_cell_setting 'monoclinic'
loop_
_space_group_symop_operation_xyz
x,y,z
-x,1/2+y,1/2-z
-x,-y,-z
x,1/2-y,1/2+z
loop_
_atom_site_type_symbol
_atom_site_label
_atom_site_fract_x
_atom_site_fract_y
_atom_site_fract_z
Si Si1 0.097862 0.284723 0.237032
Si Si2 0.572097 0.043030 0.232546
Si Si3 0.291904 0.502710 0.308255
Si Si4 0.189178 0.715862 0.579632
Si Si5 0.863002 0.265518 0.321312
Si Si6 0.587752 0.910867 0.373025
Si Si7 0.836148 0.670510 0.568419
Si Si8 0.555028 0.597717 0.989180
O O1 0.158946 0.400516 0.241875
O O2 0.070243 0.318886 0.291880
O O3 0.275274 0.188778 0.365794
O O4 0.917722 0.227948 0.066334
O O5 0.647565 0.981009 0.222327
O O6 0.679999 0.168164 0.312442
O O7 0.639922 0.981270 0.347361
O O8 0.333111 0.069133 0.055449
O O9 0.500000 0.500000 0.500000
O O10 0.178434 0.628952 0.226842
O O11 0.051085 0.714621 0.543523
O O12 0.349455 0.612271 0.694243
O O13 0.996735 0.330485 0.365338
O O14 0.643377 0.323942 0.165178
O O15 0.711384 0.790035 0.464308
O O16 0.619311 0.960547 0.467767
O O17 0.500000 0.500000 0.000000
#
# Coordination Sequence:
#
# PCOD9245752 Si02
#       8
#     4   4   4   4   4   4   4   4
#     4  11  22  40  62  90 119 153 199 249 293 350
#     4  10  21  39  61  87 120 156 196 245 297 348
#     4  11  20  39  66  88 118 155 198 250 298 346
#     4   9  22  39  58  88 121 153 198 242 295 357
#     4  10  22  40  60  87 119 156 195 242 298 352
#     4   9  21  41  58  82 123 157 192 245 293 349
#     4  10  22  39  58  87 121 151 193 245 295 347
#     4  10  22  42  60  82 121 162 196 237 297 360
#
# _framework density 20.332153999999999
#
# number of rings (size 3 to 8) (size 9 to 14) (size 15 to 20)
#    0.000    2.000    2.500    1.500    3.500    5.000 
#    4.500    2.500    0.000    0.000    0.000    0.000 
#    0.000    0.000    0.000    0.000    0.000    0.000 
#
# Total GULP energy -178545.628618 kJ/mol
# GULP energy per Si atom -5579.550894 kJ/mol
# Density = 2.028588 g / cm^3
# Si number density = 20.332154 Si / 1000 Ang^3
#
#
#
# Elastic Constant Matrix: (Units=GPa)
#
#
# Indices 1 2 3 4 5 6 
#
# 1 124.9542 25.6844 17.2964 0.0000 -23.0182 0.0000
# 2 25.6844 42.0913 -9.8674 0.0000 -17.6220 0.0000
# 3 17.2964 -9.8674 63.0132 0.0000 -11.6812 0.0000
# 4 0.0000 0.0000 0.0000 10.8750 0.0000 -8.9910
# 5 -23.0182 -17.6220 -11.6812 0.0000 30.9782 0.0000
# 6 0.0000 0.0000 0.0000 -8.9910 0.0000 30.2287
#
#
#
# Elastic Compliance Matrix: (Units=1/GPa)
#
#
# Indices 1 2 3 4 5 6 
#
# 1 0.010167 -0.005570 -0.003064 0.000000 0.003231 0.000000
# 2 -0.005570 0.039528 0.011955 0.000000 0.022855 0.000000
# 3 -0.003064 0.011955 0.020881 0.000000 0.012398 0.000000
# 4 0.000000 0.000000 0.000000 0.121940 0.000000 0.036269
# 5 0.003231 0.022855 0.012398 0.000000 0.052357 0.000000
# 6 0.000000 0.000000 0.000000 0.036269 0.000000 0.043869
#
#
# Mechanical properties :
#
#
# Convention : Reuss Voigt Hill
#
# Bulk Modulus (GPa) = 12.95012 32.92059 22.93535
# Shear Modulus (GPa) = 16.24231 27.54608 21.89420
#
# Velocity S-wave (km/s) = 2.82946 3.68476 3.28506
# Velocity P-wave (km/s) = 4.13008 5.85916 5.06889
#
# Compressibility (1/GPa) = 0.07721934
#
# Stress axis : x y z
#
# Youngs Moduli (GPa) = 98.35676 25.29874 47.89013
#
# Poissons Ratio (x) = 0.14090 0.14673
# Poissons Ratio (y) = 0.54781 -0.57254
# Poissons Ratio (z) = 0.30136 -0.30246
#
# Static dielectric constant tensor:
#      x y z
#    x 1.763220 0.000000 -0.003790 
#    y 0.000000 1.718110 0.000000 
#    z -0.003790 0.000000 1.746490 
# 
# From -- ./inp_files/55388.got.cif
#   From: 2010.05.17/outbox.cif.g08.bks.cpg/sg14_28_cif.got.tgz:55388.got - 2010.06.03 17:49:19.
