data_PCOD9245196
_publ_section_title
;
Structure prediction by ZEFSAII (Michael W. Deem and Ramdas Pophale) SiO2 
 PCOD9245196
Probable space group: P 21/C
;
_chemical_formula_sum "Si O2"
_cell_formula_units_Z 20
_cell_length_a 17.620618
_cell_length_b 5.199694
_cell_length_c 14.024889
_cell_angle_alpha 90.000000
_cell_angle_beta 146.684474
_cell_angle_gamma 90.000000
_cell_volume 705.777575
_symmetry_space_group_name_H-M "P 21/C"
_symmetry_group_IT_number 14
_symmetry_cell_setting 'monoclinic'
loop_
_space_group_symop_operation_xyz
x,y,z
-x,1/2+y,1/2-z
-x,-y,-z
x,1/2-y,1/2+z
loop_
_atom_site_type_symbol
_atom_site_label
_atom_site_fract_x
_atom_site_fract_y
_atom_site_fract_z
Si Si1 0.491600 0.517232 0.375534
Si Si2 0.866191 0.002587 0.023721
Si Si3 0.645467 0.020963 0.454878
Si Si4 0.058881 0.995584 0.702463
Si Si5 0.848443 0.615786 0.319853
O O1 0.500000 0.500000 0.500000
O O2 0.567639 0.268623 0.413260
O O3 0.355008 0.518945 0.161518
O O4 0.567943 0.774580 0.419553
O O5 0.959167 0.744792 0.109241
O O6 0.827822 0.999368 0.093910
O O7 0.955326 0.262304 0.108631
O O8 0.765329 0.967782 0.827386
O O9 0.789317 0.009388 0.662478
O O10 0.135794 0.080863 0.685964
O O11 0.000000 0.500000 0.500000
#
# Coordination Sequence:
#
# PCOD9245196 Si02
#       5
#     4   4   4   4   4
#     4  10  22  45  69  89 120 160 210 272 314 347
#     4   9  18  32  49  72 108 156 199 226 267 341
#     4  10  23  40  65  98 121 157 215 254 306 382
#     4   9  18  32  49  72 108 155 197 228 270 339
#     4  10  21  37  57  87 128 160 187 238 301 363
#
# _framework density 28.337541000000002
#
# number of rings (size 3 to 8) (size 9 to 14) (size 15 to 20)
#    0.000    2.400    0.000    1.200    0.000    8.000 
#    0.000   12.000    0.000    0.000    0.000    0.000 
#    0.000    0.000    0.000    0.000    0.000    0.000 
#
# Total GULP energy -111735.833008 kJ/mol
# GULP energy per Si atom -5586.791650 kJ/mol
# Density = 2.827304 g / cm^3
# Si number density = 28.337541 Si / 1000 Ang^3
#
#
#
# Elastic Constant Matrix: (Units=GPa)
#
#
# Indices 1 2 3 4 5 6 
#
# 1 95.8987 35.9831 65.9940 0.0000 -50.9561 0.0000
# 2 35.9831 176.3857 28.4789 0.0000 -9.0224 0.0000
# 3 65.9940 28.4789 233.4994 0.0000 -49.4502 0.0000
# 4 0.0000 0.0000 0.0000 37.6209 0.0000 -9.8907
# 5 -50.9561 -9.0224 -49.4502 0.0000 74.2447 0.0000
# 6 0.0000 0.0000 0.0000 -9.8907 0.0000 27.9846
#
#
#
# Elastic Compliance Matrix: (Units=1/GPa)
#
#
# Indices 1 2 3 4 5 6 
#
# 1 0.019294 -0.002926 -0.002756 0.000000 0.011051 0.000000
# 2 -0.002926 0.006232 -0.000231 0.000000 -0.001404 0.000000
# 3 -0.002756 -0.000231 0.005452 0.000000 0.001712 0.000000
# 4 0.000000 0.000000 0.000000 0.029304 0.000000 0.010357
# 5 0.011051 -0.001404 0.001712 0.000000 0.022023 0.000000
# 6 0.000000 0.000000 0.000000 0.010357 0.000000 0.039394
#
#
# Mechanical properties :
#
#
# Convention : Reuss Voigt Hill
#
# Bulk Modulus (GPa) = 52.21009 85.18843 68.69926
# Shear Modulus (GPa) = 35.73781 52.99188 44.36484
#
# Velocity S-wave (km/s) = 3.55512 4.32907 3.96104
# Velocity P-wave (km/s) = 5.94274 7.42395 6.72426
#
# Compressibility (1/GPa) = 0.01915339
#
# Stress axis : x y z
#
# Youngs Moduli (GPa) = 51.83009 160.47115 183.41097
#
# Poissons Ratio (x) = 0.46950 0.50545
# Poissons Ratio (y) = 0.15164 0.04228
# Poissons Ratio (z) = 0.14284 0.03699
#
# Static dielectric constant tensor:
#      x y z
#    x 2.432130 0.000000 -0.114270 
#    y 0.000000 2.268660 0.000000 
#    z -0.114270 0.000000 2.497550 
# 
# From -- ./inp_files/50926.got.cif
#   From: 2010.05.17/outbox.cif.g08.bks.cpg/sg14_26_cif.got.tgz:50926.got - 2010.06.03 17:49:19.
