data_PCOD9245666
_publ_section_title
;
Structure prediction by ZEFSAII (Michael W. Deem and Ramdas Pophale) SiO2 
 PCOD9245666
Probable space group: P 21/C
;
_chemical_formula_sum "Si O2"
_cell_formula_units_Z 22
_cell_length_a 18.334386
_cell_length_b 6.694164
_cell_length_c 9.458249
_cell_angle_alpha 90.000000
_cell_angle_beta 137.080330
_cell_angle_gamma 90.000000
_cell_volume 790.501899
_symmetry_space_group_name_H-M "P 21/C"
_symmetry_group_IT_number 14
_symmetry_cell_setting 'monoclinic'
loop_
_space_group_symop_operation_xyz
x,y,z
-x,1/2+y,1/2-z
-x,-y,-z
x,1/2-y,1/2+z
loop_
_atom_site_type_symbol
_atom_site_label
_atom_site_fract_x
_atom_site_fract_y
_atom_site_fract_z
Si Si1 0.500000 0.500000 0.500000
Si Si2 0.080527 0.666277 0.470055
Si Si3 0.935841 0.703420 0.994474
Si Si4 0.706226 0.766318 0.235261
Si Si5 0.305148 0.859011 0.161554
Si Si6 0.599653 0.410969 0.929355
O O1 0.504770 0.454483 0.686877
O O2 0.621525 0.581855 0.676621
O O3 0.089214 0.444859 0.546835
O O4 0.196592 0.721588 0.576250
O O5 0.025813 0.816322 0.501664
O O6 0.996089 0.655931 0.224124
O O7 0.814109 0.633020 0.834010
O O8 0.718640 0.595339 0.375993
O O9 0.658782 0.616340 0.049856
O O10 0.409759 0.826755 0.418822
O O11 0.329326 0.750982 0.051369
#
# Coordination Sequence:
#
# PCOD9245666 Si02
#       6
#     2   4   4   4   4   4
#     4  12  26  46  76 102 150 196 252 330 406 454
#     4  10  21  38  68 100 149 200 229 309 364 455
#     4  10  22  39  66 104 150 194 254 291 376 462
#     4   9  25  45  69 109 146 201 260 322 388 465
#     4   9  21  44  69 110 151 190 259 309 388 459
#     4  10  24  45  73 107 143 197 257 328 388 460
#
# _framework density 27.830421000000001
#
# number of rings (size 3 to 8) (size 9 to 14) (size 15 to 20)
#    1.091    1.091    0.000    1.091    7.636    1.455 
#    3.273    0.000    0.000    0.000    0.000    0.000 
#    0.000    0.000    0.000    0.000    0.000    0.000 
#
# Total GULP energy -122714.004186 kJ/mol
# GULP energy per Si atom -5577.909281 kJ/mol
# Density = 2.776708 g / cm^3
# Si number density = 27.830421 Si / 1000 Ang^3
#
#
#
# Elastic Constant Matrix: (Units=GPa)
#
#
# Indices 1 2 3 4 5 6 
#
# 1 173.6673 43.7113 25.7322 0.0000 28.0109 0.0000
# 2 43.7113 94.0588 -0.6761 0.0000 15.7903 0.0000
# 3 25.7322 -0.6761 104.1471 0.0000 -4.7876 0.0000
# 4 0.0000 0.0000 0.0000 46.0796 0.0000 1.4901
# 5 28.0109 15.7903 -4.7876 0.0000 44.4165 0.0000
# 6 0.0000 0.0000 0.0000 1.4901 0.0000 5.6417
#
#
#
# Elastic Compliance Matrix: (Units=1/GPa)
#
#
# Indices 1 2 3 4 5 6 
#
# 1 0.007388 -0.002796 -0.002022 0.000000 -0.003883 0.000000
# 2 -0.002796 0.012366 0.000653 0.000000 -0.002562 0.000000
# 3 -0.002022 0.000653 0.010204 0.000000 0.002143 0.000000
# 4 0.000000 0.000000 0.000000 0.021888 0.000000 -0.005781
# 5 -0.003883 -0.002562 0.002143 0.000000 0.026105 0.000000
# 6 0.000000 0.000000 0.000000 -0.005781 0.000000 0.178777
#
#
# Mechanical properties :
#
#
# Convention : Reuss Voigt Hill
#
# Bulk Modulus (GPa) = 46.23535 56.60090 51.41813
# Shear Modulus (GPa) = 18.36431 39.43462 28.89947
#
# Velocity S-wave (km/s) = 2.57157 3.76834 3.22594
# Velocity P-wave (km/s) = 5.04644 6.27023 5.69133
#
# Compressibility (1/GPa) = 0.02162847
#
# Stress axis : x y z
#
# Youngs Moduli (GPa) = 135.35920 80.86787 97.99947
#
# Poissons Ratio (x) = 0.22610 0.19815
# Poissons Ratio (y) = 0.37845 -0.06402
# Poissons Ratio (z) = 0.27369 -0.05283
#
# Static dielectric constant tensor:
#      x y z
#    x 2.150780 0.000000 -0.114060 
#    y 0.000000 1.909280 0.000000 
#    z -0.114060 0.000000 2.091420 
# 
# From -- ./inp_files/18675.got.cif
#   From: 2010.05.17/outbox.cif.g08.bks.cpg/sg14_10_cif.got.tgz:18675.got - 2010.06.03 17:49:19.
