data_PCOD9245383
_publ_section_title
;
Structure prediction by ZEFSAII (Michael W. Deem and Ramdas Pophale) SiO2 
 PCOD9245383
Probable space group: P 21/C
;
_chemical_formula_sum "Si O2"
_cell_formula_units_Z 24
_cell_length_a 6.754734
_cell_length_b 24.441774
_cell_length_c 5.373131
_cell_angle_alpha 90.000000
_cell_angle_beta 79.392268
_cell_angle_gamma 90.000000
_cell_volume 871.931537
_symmetry_space_group_name_H-M "P 21/C"
_symmetry_group_IT_number 14
_symmetry_cell_setting 'monoclinic'
loop_
_space_group_symop_operation_xyz
x,y,z
-x,1/2+y,1/2-z
-x,-y,-z
x,1/2-y,1/2+z
loop_
_atom_site_type_symbol
_atom_site_label
_atom_site_fract_x
_atom_site_fract_y
_atom_site_fract_z
Si Si1 0.611748 0.778329 0.049530
Si Si2 0.020031 0.892790 0.351250
Si Si3 0.507500 0.056205 0.340197
Si Si4 0.019672 0.558126 0.355994
Si Si5 0.056802 0.766971 0.449204
Si Si6 0.499628 0.101333 0.840002
O O1 0.548600 0.758789 0.335060
O O2 0.545256 0.840187 0.031515
O O3 0.855073 0.770222 0.994245
O O4 0.943808 0.933204 0.589596
O O5 0.259350 0.904267 0.256594
O O6 0.003138 0.830829 0.451305
O O7 0.940170 0.900848 0.088101
O O8 0.742768 0.068380 0.239669
O O9 0.424051 0.097510 0.570844
O O10 0.500000 0.000000 0.500000
O O11 0.428268 0.058839 0.072885
O O12 0.000000 0.500000 0.500000
O O13 0.166562 0.749908 0.673212
#
# Coordination Sequence:
#
# PCOD9245383 Si02
#       6
#     4   4   4   4   4   4
#     4  10  21  38  56  84 123 151 201 246 292 357
#     4  10  21  38  62  84 120 163 199 242 305 356
#     4  10  21  40  60  90 120 154 204 252 298 361
#     4  10  21  40  60  90 120 154 204 252 298 361
#     4  10  21  38  56  84 123 151 201 246 292 357
#     4  10  21  38  62  84 120 163 199 242 305 356
#
# _framework density 27.525093999999999
#
# number of rings (size 3 to 8) (size 9 to 14) (size 15 to 20)
#    0.000    2.000    0.000    3.000    0.000    1.333 
#   18.000    0.000    0.000    0.000    0.000    0.000 
#    0.000    0.000    0.000    0.000    0.000    0.000 
#
# Total GULP energy -134339.769027 kJ/mol
# GULP energy per Si atom -5597.490376 kJ/mol
# Density = 2.746245 g / cm^3
# Si number density = 27.525094 Si / 1000 Ang^3
#
#
#
# Elastic Constant Matrix: (Units=GPa)
#
#
# Indices 1 2 3 4 5 6 
#
# 1 71.4972 -31.3769 40.3255 0.0000 -5.7890 0.0000
# 2 -31.3769 130.1037 58.0253 0.0000 -5.3805 0.0000
# 3 40.3255 58.0253 243.1658 0.0000 0.2257 0.0000
# 4 0.0000 0.0000 0.0000 62.1931 0.0000 -5.0732
# 5 -5.7890 -5.3805 0.2257 0.0000 64.9426 0.0000
# 6 0.0000 0.0000 0.0000 -5.0732 0.0000 18.9047
#
#
#
# Elastic Compliance Matrix: (Units=1/GPa)
#
#
# Indices 1 2 3 4 5 6 
#
# 1 0.020233 0.007249 -0.005087 0.000000 0.002422 0.000000
# 2 0.007249 0.011232 -0.003884 0.000000 0.001590 0.000000
# 3 -0.005087 -0.003884 0.005884 0.000000 -0.000796 0.000000
# 4 0.000000 0.000000 0.000000 0.016439 0.000000 0.004411
# 5 0.002422 0.001590 -0.000796 0.000000 0.015749 0.000000
# 6 0.000000 0.000000 0.000000 0.004411 0.000000 0.054081
#
#
# Mechanical properties :
#
#
# Convention : Reuss Voigt Hill
#
# Bulk Modulus (GPa) = 29.49516 64.30162 46.89839
# Shear Modulus (GPa) = 36.13670 54.39425 45.26547
#
# Velocity S-wave (km/s) = 3.62728 4.45024 4.05966
# Velocity P-wave (km/s) = 5.31807 7.05818 6.24899
#
# Compressibility (1/GPa) = 0.03390387
#
# Stress axis : x y z
#
# Youngs Moduli (GPa) = 49.42404 89.02938 169.96403
#
# Poissons Ratio (x) = -0.64534 0.86466
# Poissons Ratio (y) = -0.35826 0.66011
# Poissons Ratio (z) = 0.25144 0.34578
#
# Static dielectric constant tensor:
#      x y z
#    x 2.285150 0.000000 0.094790 
#    y 0.000000 2.016200 0.000000 
#    z 0.094790 0.000000 2.186000 
# 
# From -- ./inp_files/1605.got.cif
#   From: 2010.05.17/outbox.cif.g08.bks.cpg/sg14_1_cif.got.tgz:1605.got - 2010.06.03 17:49:19.
