data_PCOD9245533
_publ_section_title
;
Structure prediction by ZEFSAII (Michael W. Deem and Ramdas Pophale) SiO2 
 PCOD9245533
Probable space group: P 21/C
;
_chemical_formula_sum "Si O2"
_cell_formula_units_Z 32
_cell_length_a 5.028502
_cell_length_b 24.348116
_cell_length_c 12.116148
_cell_angle_alpha 90.000000
_cell_angle_beta 72.928000
_cell_angle_gamma 90.000000
_cell_volume 1418.069927
_symmetry_space_group_name_H-M "P 21/C"
_symmetry_group_IT_number 14
_symmetry_cell_setting 'monoclinic'
loop_
_space_group_symop_operation_xyz
x,y,z
-x,1/2+y,1/2-z
-x,-y,-z
x,1/2-y,1/2+z
loop_
_atom_site_type_symbol
_atom_site_label
_atom_site_fract_x
_atom_site_fract_y
_atom_site_fract_z
Si Si1 0.755422 0.543492 0.050870
Si Si2 0.712747 0.274352 0.769773
Si Si3 0.709114 0.788741 0.486984
Si Si4 0.582395 0.560853 0.838977
Si Si5 0.356652 0.430339 0.704520
Si Si6 0.705143 0.330398 0.143841
Si Si7 0.701774 0.686433 0.357751
Si Si8 0.912605 0.495911 0.637026
O O1 0.515545 0.500779 0.117114
O O2 0.771262 0.580728 0.157812
O O3 0.701746 0.576375 0.945382
O O4 0.000000 0.500000 0.000000
O O5 0.716946 0.208386 0.750565
O O6 0.579325 0.297878 0.673122
O O7 0.025758 0.295404 0.745064
O O8 0.506361 0.295480 0.888371
O O9 0.561417 0.810960 0.394151
O O10 0.732645 0.723133 0.462775
O O11 0.014553 0.814649 0.456150
O O12 0.347305 0.604801 0.836123
O O13 0.782883 0.549929 0.711392
O O14 0.305535 0.378570 0.632889
O O15 0.677613 0.448016 0.670590
O O16 0.178606 0.480159 0.677474
O O17 0.000000 0.500000 0.500000
#
# Coordination Sequence:
#
# PCOD9245533 Si02
#       8
#     4   4   4   4   4   4   4   4
#     4  10  21  38  62  91 131 164 208 272 312 380
#     4  10  21  40  59  89 123 159 201 260 311 372
#     4  10  22  40  59  90 126 159 208 263 315 378
#     4  10  23  40  60  95 128 165 214 262 320 387
#     4  11  23  41  64  95 123 170 217 257 330 378
#     4  10  23  38  62  90 119 164 209 251 320 382
#     4  10  22  39  62  90 122 158 212 259 305 384
#     4  11  24  43  64  92 132 169 215 265 314 386
#
# _framework density 22.565882999999999
#
# number of rings (size 3 to 8) (size 9 to 14) (size 15 to 20)
#    0.000    1.750    1.250    1.875    3.500    2.000 
#    0.000    3.750    0.000    0.000    0.000    0.000 
#    0.000    0.000    0.000    0.000    0.000    0.000 
#
# Total GULP energy -178570.163520 kJ/mol
# GULP energy per Si atom -5580.317610 kJ/mol
# Density = 2.251452 g / cm^3
# Si number density = 22.565883 Si / 1000 Ang^3
#
#
#
# Elastic Constant Matrix: (Units=GPa)
#
#
# Indices 1 2 3 4 5 6 
#
# 1 63.8101 -4.7718 -4.4242 0.0000 -3.9165 0.0000
# 2 -4.7718 67.5549 -7.4361 0.0000 -0.4320 0.0000
# 3 -4.4242 -7.4361 87.6272 0.0000 -8.2492 0.0000
# 4 0.0000 0.0000 0.0000 11.1875 0.0000 -2.5407
# 5 -3.9165 -0.4320 -8.2492 0.0000 22.4214 0.0000
# 6 0.0000 0.0000 0.0000 -2.5407 0.0000 34.5216
#
#
#
# Elastic Compliance Matrix: (Units=1/GPa)
#
#
# Indices 1 2 3 4 5 6 
#
# 1 0.016055 0.001290 0.001229 0.000000 0.003281 0.000000
# 2 0.001290 0.015059 0.001442 0.000000 0.001046 0.000000
# 3 0.001229 0.001442 0.012036 0.000000 0.004671 0.000000
# 4 0.000000 0.000000 0.000000 0.090905 0.000000 0.006690
# 5 0.003281 0.001046 0.004671 0.000000 0.046912 0.000000
# 6 0.000000 0.000000 0.000000 0.006690 0.000000 0.029460
#
#
# Mechanical properties :
#
#
# Convention : Reuss Voigt Hill
#
# Bulk Modulus (GPa) = 19.58036 20.63645 20.10840
# Shear Modulus (GPa) = 22.77607 29.33439 26.05523
#
# Velocity S-wave (km/s) = 3.18042 3.60939 3.40167
# Velocity P-wave (km/s) = 4.70984 5.15122 4.93546
#
# Compressibility (1/GPa) = 0.05107158
#
# Stress axis : x y z
#
# Youngs Moduli (GPa) = 62.28743 66.40419 83.08373
#
# Poissons Ratio (x) = -0.08568 -0.10211
# Poissons Ratio (y) = -0.08037 -0.11977
# Poissons Ratio (z) = -0.07655 -0.09572
#
# Static dielectric constant tensor:
#      x y z
#    x 1.860280 0.000000 0.003090 
#    y 0.000000 1.951900 0.000000 
#    z 0.003090 0.000000 1.891000 
# 
# From -- ./inp_files/22168.got.cif
#   From: 2010.05.17/outbox.cif.g08.bks.cpg/sg14_12_cif.got.tgz:22168.got - 2010.06.03 17:49:19.
