data_PCOD9245291
_publ_section_title
;
Structure prediction by ZEFSAII (Michael W. Deem and Ramdas Pophale) SiO2 
 PCOD9245291
Probable space group: P 21/C
;
_chemical_formula_sum "Si O2"
_cell_formula_units_Z 28
_cell_length_a 12.959014
_cell_length_b 8.573550
_cell_length_c 14.092558
_cell_angle_alpha 90.000000
_cell_angle_beta 62.662168
_cell_angle_gamma 90.000000
_cell_volume 1390.878127
_symmetry_space_group_name_H-M "P 21/C"
_symmetry_group_IT_number 14
_symmetry_cell_setting 'monoclinic'
loop_
_space_group_symop_operation_xyz
x,y,z
-x,1/2+y,1/2-z
-x,-y,-z
x,1/2-y,1/2+z
loop_
_atom_site_type_symbol
_atom_site_label
_atom_site_fract_x
_atom_site_fract_y
_atom_site_fract_z
Si Si1 0.792429 0.966225 0.812333
Si Si2 0.371416 0.333532 0.777737
Si Si3 0.985173 0.238559 0.045838
Si Si4 0.230733 0.127391 0.966441
Si Si5 0.044196 0.564592 0.121577
Si Si6 0.799270 0.170969 0.283543
Si Si7 0.607923 0.484260 0.747161
O O1 0.795604 0.152276 0.822149
O O2 0.700928 0.928757 0.768451
O O3 0.919528 0.909355 0.724934
O O4 0.761447 0.888284 0.924825
O O5 0.286673 0.285373 0.900135
O O6 0.485512 0.415657 0.768240
O O7 0.404474 0.165532 0.719113
O O8 0.033485 0.397372 0.075548
O O9 0.886971 0.174366 0.156870
O O10 0.096171 0.126101 0.992957
O O11 0.940409 0.300142 0.963490
O O12 0.307065 0.996717 0.880680
O O13 0.143650 0.568036 0.158267
O O14 0.676070 0.110984 0.298190
#
# Coordination Sequence:
#
# PCOD9245291 Si02
#       7
#     4   4   4   4   4   4   4
#     4  11  22  41  65  98 128 174 208 268 316 385
#     4  10  23  45  66  87 133 164 222 264 324 371
#     4  10  21  39  62  97 132 169 208 260 330 381
#     4  10  23  40  69  92 126 170 215 262 323 379
#     4  10  21  37  61  97 134 167 206 263 318 389
#     4  11  24  38  67  96 136 165 216 261 324 388
#     4  10  24  44  64  93 124 174 206 274 317 379
#
# _framework density 20.131166
#
# number of rings (size 3 to 8) (size 9 to 14) (size 15 to 20)
#    0.857    0.857    2.857    0.857    4.000    3.429 
#    0.000    0.714    0.000    0.000    0.000    0.000 
#    0.000    0.000    0.000    0.000    0.000    0.000 
#
# Total GULP energy -156351.055892 kJ/mol
# GULP energy per Si atom -5583.966282 kJ/mol
# Density = 2.008535 g / cm^3
# Si number density = 20.131166 Si / 1000 Ang^3
#
#
#
# Elastic Constant Matrix: (Units=GPa)
#
#
# Indices 1 2 3 4 5 6 
#
# 1 118.6363 3.0963 29.8402 0.0000 11.3576 0.0000
# 2 3.0963 25.3080 4.7802 0.0000 0.8600 0.0000
# 3 29.8402 4.7802 60.7415 0.0000 19.4521 0.0000
# 4 0.0000 0.0000 0.0000 13.0562 0.0000 0.3050
# 5 11.3576 0.8600 19.4521 0.0000 26.6032 0.0000
# 6 0.0000 0.0000 0.0000 0.3050 0.0000 36.4321
#
#
#
# Elastic Compliance Matrix: (Units=1/GPa)
#
#
# Indices 1 2 3 4 5 6 
#
# 1 0.009635 -0.000312 -0.004433 0.000000 -0.000862 0.000000
# 2 -0.000312 0.040155 -0.003439 0.000000 0.001350 0.000000
# 3 -0.004433 -0.003439 0.023856 0.000000 -0.015440 0.000000
# 4 0.000000 0.000000 0.000000 0.076607 0.000000 -0.000641
# 5 -0.000862 0.001350 -0.015440 0.000000 0.049203 0.000000
# 6 0.000000 0.000000 0.000000 -0.000641 0.000000 0.027454
#
#
# Mechanical properties :
#
#
# Convention : Reuss Voigt Hill
#
# Bulk Modulus (GPa) = 17.45863 31.12435 24.29149
# Shear Modulus (GPa) = 19.05705 26.34958 22.70331
#
# Velocity S-wave (km/s) = 3.08010 3.62179 3.36187
# Velocity P-wave (km/s) = 4.61959 5.74318 5.21175
#
# Compressibility (1/GPa) = 0.05727826
#
# Stress axis : x y z
#
# Youngs Moduli (GPa) = 103.79141 24.90341 41.91839
#
# Poissons Ratio (x) = 0.00778 0.18580
# Poissons Ratio (y) = 0.03241 0.14416
# Poissons Ratio (z) = 0.46006 0.08564
#
# Static dielectric constant tensor:
#      x y z
#    x 1.672180 0.000000 -0.009150 
#    y 0.000000 1.736720 0.000000 
#    z -0.009150 0.000000 1.699050 
# 
# From -- ./inp_files/43360.got.cif
#   From: 2010.05.17/outbox.cif.g08.bks.cpg/sg14_22_cif.got.tgz:43360.got - 2010.06.03 17:49:19.
