data_PCOD9246229
_publ_section_title
;
Structure prediction by ZEFSAII (Michael W. Deem and Ramdas Pophale) SiO2 
 PCOD9246229
Probable space group: P 21/C
;
_chemical_formula_sum "Si O2"
_cell_formula_units_Z 28
_cell_length_a 28.965987
_cell_length_b 8.243116
_cell_length_c 10.085354
_cell_angle_alpha 90.000000
_cell_angle_beta 27.247435
_cell_angle_gamma 90.000000
_cell_volume 1102.501123
_symmetry_space_group_name_H-M "P 21/C"
_symmetry_group_IT_number 14
_symmetry_cell_setting 'monoclinic'
loop_
_space_group_symop_operation_xyz
x,y,z
-x,1/2+y,1/2-z
-x,-y,-z
x,1/2-y,1/2+z
loop_
_atom_site_type_symbol
_atom_site_label
_atom_site_fract_x
_atom_site_fract_y
_atom_site_fract_z
Si Si1 0.079895 0.298363 0.488007
Si Si2 0.279500 0.107517 0.034071
Si Si3 0.963622 0.322400 0.046356
Si Si4 0.416691 0.881114 0.835462
Si Si5 0.736701 0.113013 0.169880
Si Si6 0.268600 0.458551 0.049295
Si Si7 0.543599 0.357498 0.481416
O O1 0.159228 0.156317 0.334751
O O2 0.154480 0.452090 0.292240
O O3 0.031642 0.285182 0.468287
O O4 0.993769 0.305247 0.817224
O O5 0.319608 0.284976 0.890791
O O6 0.340872 0.032593 0.001302
O O7 0.291789 0.970495 0.893454
O O8 0.846064 0.307781 0.375989
O O9 0.000000 0.500000 0.000000
O O10 0.344423 0.732638 0.062049
O O11 0.487945 0.887125 0.784700
O O12 0.467879 0.813132 0.568150
O O13 0.742822 0.970407 0.263440
O O14 0.336737 0.599991 0.820141
O O15 0.500000 0.500000 0.500000
#
# Coordination Sequence:
#
# PCOD9246229 Si02
#       7
#     4   4   4   4   4   4   4
#     4  10  23  36  63  91 127 181 222 277 321 373
#     4  10  21  40  65  94 127 182 225 258 335 383
#     4  12  21  38  58  91 135 169 232 270 312 371
#     4  11  25  46  69  97 136 175 211 269 342 394
#     4  11  22  42  64  91 136 182 222 273 323 389
#     4   9  22  40  70  89 130 174 219 271 337 389
#     4  11  26  48  72 103 130 164 220 267 337 404
#
# _framework density 25.396799000000001
#
# number of rings (size 3 to 8) (size 9 to 14) (size 15 to 20)
#    0.857    0.571    4.286    0.000    6.000    1.143 
#    2.571    2.857    0.000    0.000    0.000    0.000 
#    0.000    0.000    0.000    0.000    0.000    0.000 
#
# Total GULP energy -156392.518798 kJ/mol
# GULP energy per Si atom -5585.447100 kJ/mol
# Density = 2.533900 g / cm^3
# Si number density = 25.396799 Si / 1000 Ang^3
#
#
#
# Elastic Constant Matrix: (Units=GPa)
#
#
# Indices 1 2 3 4 5 6 
#
# 1 100.1847 8.6253 12.5871 0.0000 7.5168 0.0000
# 2 8.6253 56.6066 -11.5320 0.0000 -1.1377 0.0000
# 3 12.5871 -11.5320 72.9117 0.0000 -12.6624 0.0000
# 4 0.0000 0.0000 0.0000 33.1798 0.0000 0.2902
# 5 7.5168 -1.1377 -12.6624 0.0000 35.9356 0.0000
# 6 0.0000 0.0000 0.0000 0.2902 0.0000 48.4841
#
#
#
# Elastic Compliance Matrix: (Units=1/GPa)
#
#
# Indices 1 2 3 4 5 6 
#
# 1 0.010777 -0.002278 -0.002796 0.000000 -0.003312 0.000000
# 2 -0.002278 0.018834 0.003790 0.000000 0.002408 0.000000
# 3 -0.002796 0.003790 0.015892 0.000000 0.006305 0.000000
# 4 0.000000 0.000000 0.000000 0.030140 0.000000 -0.000180
# 5 -0.003312 0.002408 0.006305 0.000000 0.030818 0.000000
# 6 0.000000 0.000000 0.000000 -0.000180 0.000000 0.020626
#
#
# Mechanical properties :
#
#
# Convention : Reuss Voigt Hill
#
# Bulk Modulus (GPa) = 23.29085 27.67372 25.48229
# Shear Modulus (GPa) = 34.72990 38.18807 36.45898
#
# Velocity S-wave (km/s) = 3.70197 3.88191 3.79301
# Velocity P-wave (km/s) = 5.24056 5.56888 5.40722
#
# Compressibility (1/GPa) = 0.04293531
#
# Stress axis : x y z
#
# Youngs Moduli (GPa) = 92.78603 53.09673 62.92334
#
# Poissons Ratio (x) = 0.12097 0.17594
# Poissons Ratio (y) = 0.21140 -0.23850
# Poissons Ratio (z) = 0.25944 -0.20126
#
# Static dielectric constant tensor:
#      x y z
#    x 2.409490 0.000000 0.000950 
#    y 0.000000 2.094800 0.000000 
#    z 0.000950 0.000000 2.005630 
# 
# From -- ./inp_files/19703.got.cif
#   From: 2010.05.17/outbox.cif.g08.bks.cpg/sg14_10_cif.got.tgz:19703.got - 2010.06.03 17:49:19.
