data_PCOD9246043
_publ_section_title
;
Structure prediction by ZEFSAII (Michael W. Deem and Ramdas Pophale) SiO2 
 PCOD9246043
Probable space group: P 21/C
;
_chemical_formula_sum "Si O2"
_cell_formula_units_Z 24
_cell_length_a 6.700742
_cell_length_b 14.307499
_cell_length_c 19.123195
_cell_angle_alpha 90.000000
_cell_angle_beta 135.458850
_cell_angle_gamma 90.000000
_cell_volume 1285.955826
_symmetry_space_group_name_H-M "P 21/C"
_symmetry_group_IT_number 14
_symmetry_cell_setting 'monoclinic'
loop_
_space_group_symop_operation_xyz
x,y,z
-x,1/2+y,1/2-z
-x,-y,-z
x,1/2-y,1/2+z
loop_
_atom_site_type_symbol
_atom_site_label
_atom_site_fract_x
_atom_site_fract_y
_atom_site_fract_z
Si Si1 0.079639 0.506005 0.335667
Si Si2 0.624551 0.715248 0.990467
Si Si3 0.371889 0.613972 0.519358
Si Si4 0.774049 0.187148 0.740214
Si Si5 0.762408 0.848085 0.666235
Si Si6 0.718408 0.251812 0.875699
O O1 0.107184 0.565849 0.413830
O O2 0.396646 0.465194 0.404868
O O3 0.883743 0.415045 0.288159
O O4 0.964422 0.571808 0.245770
O O5 0.506087 0.811144 0.997126
O O6 0.639364 0.641271 0.057626
O O7 0.948061 0.725369 0.045628
O O8 0.426801 0.687833 0.876907
O O9 0.306485 0.669483 0.573539
O O10 0.631268 0.226548 0.774908
O O11 0.043312 0.254006 0.789212
O O12 0.494822 0.830940 0.649786
#
# Coordination Sequence:
#
# PCOD9246043 Si02
#       6
#     4   4   4   4   4   4
#     4  11  21  40  64  92 118 161 204 248 301 357
#     4  10  21  41  61  87 125 161 197 250 302 361
#     4  10  21  40  64  90 119 154 208 255 298 349
#     4  11  22  40  61  91 125 155 203 250 302 360
#     4  10  22  41  61  87 124 163 198 245 308 358
#     4  10  21  40  60  91 120 160 198 250 307 349
#
# _framework density 18.663160999999999
#
# number of rings (size 3 to 8) (size 9 to 14) (size 15 to 20)
#    0.000    1.667    6.667    0.000    2.333    1.333 
#    6.000    0.833    0.000    0.000    0.000    0.000 
#    0.000    0.000    0.000    0.000    0.000    0.000 
#
# Total GULP energy -133813.360634 kJ/mol
# GULP energy per Si atom -5575.556693 kJ/mol
# Density = 1.862068 g / cm^3
# Si number density = 18.663161 Si / 1000 Ang^3
#
#
#
# Elastic Constant Matrix: (Units=GPa)
#
#
# Indices 1 2 3 4 5 6 
#
# 1 88.7119 15.3490 39.3736 0.0000 -11.3727 0.0000
# 2 15.3490 28.0548 3.0528 0.0000 0.1806 0.0000
# 3 39.3736 3.0528 150.7300 0.0000 -4.2787 0.0000
# 4 0.0000 0.0000 0.0000 39.7955 0.0000 5.8896
# 5 -11.3727 0.1806 -4.2787 0.0000 17.1740 0.0000
# 6 0.0000 0.0000 0.0000 5.8896 0.0000 4.8211
#
#
#
# Elastic Compliance Matrix: (Units=1/GPa)
#
#
# Indices 1 2 3 4 5 6 
#
# 1 0.015498 -0.008146 -0.003615 0.000000 0.009448 0.000000
# 2 -0.008146 0.040011 0.001161 0.000000 -0.005526 0.000000
# 3 -0.003615 0.001161 0.007540 0.000000 -0.000528 0.000000
# 4 0.000000 0.000000 0.000000 0.030674 0.000000 -0.037473
# 5 0.009448 -0.005526 -0.000528 0.000000 0.064410 0.000000
# 6 0.000000 0.000000 0.000000 -0.037473 0.000000 0.253202
#
#
# Mechanical properties :
#
#
# Convention : Reuss Voigt Hill
#
# Bulk Modulus (GPa) = 23.89641 42.56081 33.22861
# Shear Modulus (GPa) = 11.19857 26.33954 18.76906
#
# Velocity S-wave (km/s) = 2.45222 3.76082 3.17468
# Velocity P-wave (km/s) = 4.56615 6.45853 5.59295
#
# Compressibility (1/GPa) = 0.04184728
#
# Stress axis : x y z
#
# Youngs Moduli (GPa) = 64.52616 24.99331 132.62198
#
# Poissons Ratio (x) = 0.20360 0.47944
# Poissons Ratio (y) = 0.52565 -0.15394
# Poissons Ratio (z) = 0.23327 -0.02901
#
# Static dielectric constant tensor:
#      x y z
#    x 1.637550 0.000000 -0.000080 
#    y 0.000000 1.665850 0.000000 
#    z -0.000080 0.000000 1.659400 
# 
# From -- ./inp_files/37419.got.cif
#   From: 2010.05.17/outbox.cif.g08.bks.cpg/sg14_19_cif.got.tgz:37419.got - 2010.06.03 17:49:19.
