data_PCOD9246234
_publ_section_title
;
Structure prediction by ZEFSAII (Michael W. Deem and Ramdas Pophale) SiO2 
 PCOD9246234
Probable space group: P 21/C
;
_chemical_formula_sum "Si O2"
_cell_formula_units_Z 20
_cell_length_a 7.692894
_cell_length_b 19.528740
_cell_length_c 5.092829
_cell_angle_alpha 90.000000
_cell_angle_beta 64.583390
_cell_angle_gamma 90.000000
_cell_volume 691.054405
_symmetry_space_group_name_H-M "P 21/C"
_symmetry_group_IT_number 14
_symmetry_cell_setting 'monoclinic'
loop_
_space_group_symop_operation_xyz
x,y,z
-x,1/2+y,1/2-z
-x,-y,-z
x,1/2-y,1/2+z
loop_
_atom_site_type_symbol
_atom_site_label
_atom_site_fract_x
_atom_site_fract_y
_atom_site_fract_z
Si Si1 0.726805 0.524243 0.622834
Si Si2 0.397732 0.752811 0.725682
Si Si3 0.836252 0.726149 0.297006
Si Si4 0.925786 0.582136 0.010348
Si Si5 0.659004 0.398570 0.028643
O O1 0.843060 0.528987 0.279040
O O2 0.685385 0.447994 0.756426
O O3 0.848651 0.562228 0.774130
O O4 0.528982 0.566805 0.721756
O O5 0.331586 0.704719 0.524493
O O6 0.632300 0.747366 0.556155
O O7 0.372953 0.816892 0.500501
O O8 0.943880 0.773242 0.011424
O O9 0.829611 0.652822 0.168768
O O10 0.145601 0.595459 0.938990
#
# Coordination Sequence:
#
# PCOD9246234 Si02
#       5
#     4   4   4   4   4
#     4  11  27  46  69 104 141 179 225 284 345 396
#     4  10  23  40  67  96 134 176 223 279 338 398
#     4  10  21  40  65  94 136 178 220 283 340 393
#     4  12  25  45  71 101 138 181 231 279 343 406
#     4  11  26  46  73 102 138 182 229 281 339 412
#
# _framework density 28.941282000000001
#
# number of rings (size 3 to 8) (size 9 to 14) (size 15 to 20)
#    0.000    1.200    2.000    2.400    5.600    9.600 
#    0.000    0.000    0.000    0.000    0.000    0.000 
#    0.000    0.000    0.000    0.000    0.000    0.000 
#
# Total GULP energy -111881.710721 kJ/mol
# GULP energy per Si atom -5594.085536 kJ/mol
# Density = 2.887541 g / cm^3
# Si number density = 28.941282 Si / 1000 Ang^3
#
#
#
# Elastic Constant Matrix: (Units=GPa)
#
#
# Indices 1 2 3 4 5 6 
#
# 1 111.7398 25.8287 0.3779 0.0000 -34.1593 0.0000
# 2 25.8287 195.1833 -7.1137 0.0000 -19.5635 0.0000
# 3 0.3779 -7.1137 178.5469 0.0000 37.8323 0.0000
# 4 0.0000 0.0000 0.0000 38.9749 0.0000 8.9778
# 5 -34.1593 -19.5635 37.8323 0.0000 44.7882 0.0000
# 6 0.0000 0.0000 0.0000 8.9778 0.0000 29.1489
#
#
#
# Elastic Compliance Matrix: (Units=1/GPa)
#
#
# Indices 1 2 3 4 5 6 
#
# 1 0.012591 -0.000611 -0.002472 0.000000 0.011424 0.000000
# 2 -0.000611 0.005405 -0.000225 0.000000 0.002085 0.000000
# 3 -0.002472 -0.000225 0.007329 0.000000 -0.008174 0.000000
# 4 0.000000 0.000000 0.000000 0.027617 0.000000 -0.008506
# 5 0.011424 0.002085 -0.008174 0.000000 0.038856 0.000000
# 6 0.000000 0.000000 0.000000 -0.008506 0.000000 0.036926
#
#
# Mechanical properties :
#
#
# Convention : Reuss Voigt Hill
#
# Bulk Modulus (GPa) = 53.44893 58.18398 55.81646
# Shear Modulus (GPa) = 35.31647 53.67421 44.49534
#
# Velocity S-wave (km/s) = 3.49704 4.31117 3.92527
# Velocity P-wave (km/s) = 5.90033 6.70294 6.31440
#
# Compressibility (1/GPa) = 0.01870945
#
# Stress axis : x y z
#
# Youngs Moduli (GPa) = 79.41932 185.01232 136.44296
#
# Poissons Ratio (x) = 0.11309 0.33724
# Poissons Ratio (y) = 0.04855 0.03072
# Poissons Ratio (z) = 0.19630 0.04165
#
# Static dielectric constant tensor:
#      x y z
#    x 3.090920 0.000000 0.622320 
#    y 0.000000 2.367500 0.000000 
#    z 0.622320 0.000000 2.940480 
# 
# From -- ./inp_files/1386.got.cif
#   From: 2010.05.17/outbox.cif.g08.bks.cpg/sg14_1_cif.got.tgz:1386.got - 2010.06.03 17:49:19.
