data_PCOD9246122
_publ_section_title
;
Structure prediction by ZEFSAII (Michael W. Deem and Ramdas Pophale) SiO2 
 PCOD9246122
Probable space group: P 21/C
;
_chemical_formula_sum "Si O2"
_cell_formula_units_Z 32
_cell_length_a 8.759919
_cell_length_b 11.017028
_cell_length_c 20.229795
_cell_angle_alpha 90.000000
_cell_angle_beta 52.101573
_cell_angle_gamma 90.000000
_cell_volume 1540.595380
_symmetry_space_group_name_H-M "P 21/C"
_symmetry_group_IT_number 14
_symmetry_cell_setting 'monoclinic'
loop_
_space_group_symop_operation_xyz
x,y,z
-x,1/2+y,1/2-z
-x,-y,-z
x,1/2-y,1/2+z
loop_
_atom_site_type_symbol
_atom_site_label
_atom_site_fract_x
_atom_site_fract_y
_atom_site_fract_z
Si Si1 0.753806 0.652714 0.282537
Si Si2 0.631882 0.839454 0.215663
Si Si3 0.559545 0.777896 0.604674
Si Si4 0.424577 0.998319 0.945689
Si Si5 0.052878 0.656072 0.569626
Si Si6 0.853293 0.251034 0.306688
Si Si7 0.971006 0.636144 0.983106
Si Si8 0.221796 0.925117 0.296198
O O1 0.670231 0.777253 0.275452
O O2 0.582250 0.581319 0.364041
O O3 0.827622 0.564923 0.203702
O O4 0.952011 0.682804 0.267671
O O5 0.579919 0.730691 0.178343
O O6 0.444443 0.921955 0.260595
O O7 0.835050 0.895176 0.137420
O O8 0.579157 0.636932 0.577364
O O9 0.347587 0.823141 0.641232
O O10 0.744508 0.846195 0.528192
O O11 0.213671 0.937173 0.001413
O O12 0.500000 0.000000 0.000000
O O13 0.114078 0.701557 0.627055
O O14 0.032428 0.765595 0.522230
O O15 0.813295 0.357801 0.264441
O O16 0.098093 0.644389 0.883527
O O17 0.000000 0.500000 0.000000
#
# Coordination Sequence:
#
# PCOD9246122 Si02
#       8
#     4   4   4   4   4   4   4   4
#     4  11  22  40  65  88 127 167 204 265 310 373
#     4   9  20  39  60  90 123 160 204 253 308 373
#     4  10  21  42  63  93 129 162 208 267 314 373
#     4  12  22  39  66  97 130 161 206 271 326 370
#     4  10  21  40  64  96 127 166 205 262 322 373
#     4  10  21  40  63  91 127 161 210 256 314 379
#     4  11  24  42  65  90 128 171 214 257 309 380
#     4  11  21  42  60  92 123 164 213 249 312 377
#
# _framework density 20.771190000000001
#
# number of rings (size 3 to 8) (size 9 to 14) (size 15 to 20)
#    0.000    1.500    3.750    3.000    1.750    2.000 
#    2.250   11.250    0.000    0.000    0.000    0.000 
#    0.000    0.000    0.000    0.000    0.000    0.000 
#
# Total GULP energy -178583.881835 kJ/mol
# GULP energy per Si atom -5580.746307 kJ/mol
# Density = 2.072391 g / cm^3
# Si number density = 20.771190 Si / 1000 Ang^3
#
#
#
# Elastic Constant Matrix: (Units=GPa)
#
#
# Indices 1 2 3 4 5 6 
#
# 1 125.5689 19.6657 28.5942 0.0000 -30.0393 0.0000
# 2 19.6657 61.4575 6.2449 0.0000 -12.4699 0.0000
# 3 28.5942 6.2449 71.8261 0.0000 -10.5620 0.0000
# 4 0.0000 0.0000 0.0000 23.2155 0.0000 -5.3332
# 5 -30.0393 -12.4699 -10.5620 0.0000 49.6502 0.0000
# 6 0.0000 0.0000 0.0000 -5.3332 0.0000 30.2750
#
#
#
# Elastic Compliance Matrix: (Units=1/GPa)
#
#
# Indices 1 2 3 4 5 6 
#
# 1 0.010179 -0.001922 -0.003149 0.000000 0.005006 0.000000
# 2 -0.001922 0.017563 -0.000294 0.000000 0.003186 0.000000
# 3 -0.003149 -0.000294 0.015392 0.000000 0.001295 0.000000
# 4 0.000000 0.000000 0.000000 0.044891 0.000000 0.007908
# 5 0.005006 0.003186 0.001295 0.000000 0.024245 0.000000
# 6 0.000000 0.000000 0.000000 0.007908 0.000000 0.034424
#
#
# Mechanical properties :
#
#
# Convention : Reuss Voigt Hill
#
# Bulk Modulus (GPa) = 30.85883 40.87357 35.86620
# Shear Modulus (GPa) = 29.72209 34.25134 31.98672
#
# Velocity S-wave (km/s) = 3.78687 4.06517 3.92848
# Velocity P-wave (km/s) = 5.83175 6.46180 6.15484
#
# Compressibility (1/GPa) = 0.03240564
#
# Stress axis : x y z
#
# Youngs Moduli (GPa) = 98.23719 56.93940 64.96780
#
# Poissons Ratio (x) = 0.10941 0.20460
# Poissons Ratio (y) = 0.18877 0.01907
# Poissons Ratio (z) = 0.30937 0.01671
#
# Static dielectric constant tensor:
#      x y z
#    x 1.768640 0.000000 0.002060 
#    y 0.000000 1.724210 0.000000 
#    z 0.002060 0.000000 1.810690 
# 
# From -- ./inp_files/65598.got.cif
#   From: 2010.05.17/outbox.cif.g08.bks.cpg/sg14_33_cif.got.tgz:65598.got - 2010.06.03 17:49:19.
