data_PCOD9246798
_publ_section_title
;
Structure prediction by ZEFSAII (Michael W. Deem and Ramdas Pophale) SiO2 
 PCOD9246798
Probable space group: P 21/C
;
_chemical_formula_sum "Si O2"
_cell_formula_units_Z 28
_cell_length_a 7.750528
_cell_length_b 15.821333
_cell_length_c 13.151053
_cell_angle_alpha 90.000000
_cell_angle_beta 122.476228
_cell_angle_gamma 90.000000
_cell_volume 1360.438210
_symmetry_space_group_name_H-M "P 21/C"
_symmetry_group_IT_number 14
_symmetry_cell_setting 'monoclinic'
loop_
_space_group_symop_operation_xyz
x,y,z
-x,1/2+y,1/2-z
-x,-y,-z
x,1/2-y,1/2+z
loop_
_atom_site_type_symbol
_atom_site_label
_atom_site_fract_x
_atom_site_fract_y
_atom_site_fract_z
Si Si1 0.802286 0.668887 0.776602
Si Si2 0.586945 0.490371 0.191200
Si Si3 0.406562 0.494978 0.358877
Si Si4 0.466490 0.328720 0.871207
Si Si5 0.255210 0.823268 0.349655
Si Si6 0.204465 0.842901 0.703341
Si Si7 0.159328 0.427707 0.010587
O O1 0.735935 0.587587 0.690036
O O2 0.668663 0.749287 0.704736
O O3 0.042278 0.682599 0.841500
O O4 0.769338 0.638106 0.880702
O O5 0.548115 0.486377 0.301309
O O6 0.656835 0.583918 0.182925
O O7 0.726420 0.413407 0.200007
O O8 0.370011 0.478108 0.061874
O O9 0.500000 0.500000 0.500000
O O10 0.289625 0.581839 0.299840
O O11 0.661290 0.340364 0.857371
O O12 0.557337 0.316238 0.012252
O O13 0.242999 0.746524 0.267322
O O14 0.971786 0.870580 0.607126
O O15 0.000000 0.500000 0.000000
#
# Coordination Sequence:
#
# PCOD9246798 Si02
#       7
#     4   4   4   4   4   4   4
#     4  11  23  40  64  93 130 166 216 264 323 380
#     4  10  23  41  69  91 128 169 219 264 317 383
#     4  10  21  42  65  91 129 170 207 265 327 381
#     4  11  23  43  64  94 129 172 215 267 320 384
#     4  12  25  40  62  98 128 167 218 270 314 387
#     4  11  22  38  66  92 127 166 216 256 328 377
#     4  11  18  42  69  92 121 171 213 264 316 392
#
# _framework density 20.581603999999999
#
# number of rings (size 3 to 8) (size 9 to 14) (size 15 to 20)
#    0.000    1.143    5.714    3.000    2.000    1.143 
#    5.143    0.714    0.000    0.000    0.000    0.000 
#    0.000    0.000    0.000    0.000    0.000    0.000 
#
# Total GULP energy -156389.242976 kJ/mol
# GULP energy per Si atom -5585.330106 kJ/mol
# Density = 2.053476 g / cm^3
# Si number density = 20.581604 Si / 1000 Ang^3
#
#
#
# Elastic Constant Matrix: (Units=GPa)
#
#
# Indices 1 2 3 4 5 6 
#
# 1 45.5452 18.3774 5.1134 0.0000 4.3579 0.0000
# 2 18.3774 148.0500 36.8531 0.0000 3.1538 0.0000
# 3 5.1134 36.8531 130.1324 0.0000 2.6408 0.0000
# 4 0.0000 0.0000 0.0000 39.2403 0.0000 9.0381
# 5 4.3579 3.1538 2.6408 0.0000 18.4701 0.0000
# 6 0.0000 0.0000 0.0000 9.0381 0.0000 8.4930
#
#
#
# Elastic Compliance Matrix: (Units=1/GPa)
#
#
# Indices 1 2 3 4 5 6 
#
# 1 0.023580 -0.002812 -0.000027 0.000000 -0.005080 0.000000
# 2 -0.002812 0.007619 -0.002040 0.000000 -0.000346 0.000000
# 3 -0.000027 -0.002040 0.008280 0.000000 -0.000829 0.000000
# 4 0.000000 0.000000 0.000000 0.033759 0.000000 -0.035926
# 5 -0.005080 -0.000346 -0.000829 0.000000 0.055518 0.000000
# 6 0.000000 0.000000 0.000000 -0.035926 0.000000 0.155976
#
#
# Mechanical properties :
#
#
# Convention : Reuss Voigt Hill
#
# Bulk Modulus (GPa) = 33.64703 49.37951 41.51327
# Shear Modulus (GPa) = 16.42595 30.79957 23.61276
#
# Velocity S-wave (km/s) = 2.82811 3.87261 3.39082
# Velocity P-wave (km/s) = 5.20076 6.63628 5.96189
#
# Compressibility (1/GPa) = 0.02972030
#
# Stress axis : x y z
#
# Youngs Moduli (GPa) = 42.40900 131.25562 120.77123
#
# Poissons Ratio (x) = 0.36909 0.00328
# Poissons Ratio (y) = 0.11925 0.24638
# Poissons Ratio (z) = 0.00115 0.26777
#
# Static dielectric constant tensor:
#      x y z
#    x 1.833750 0.000000 -0.045170 
#    y 0.000000 1.735420 0.000000 
#    z -0.045170 0.000000 1.731850 
# 
# From -- ./inp_files/25597.got.cif
#   From: 2010.05.17/outbox.cif.g08.bks.cpg/sg14_13_cif.got.tgz:25597.got - 2010.06.03 17:49:19.
