data_PCOD9246721
_publ_section_title
;
Structure prediction by ZEFSAII (Michael W. Deem and Ramdas Pophale) SiO2 
 PCOD9246721
Probable space group: P 21/C
;
_chemical_formula_sum "Si O2"
_cell_formula_units_Z 28
_cell_length_a 7.607188
_cell_length_b 16.701043
_cell_length_c 17.166712
_cell_angle_alpha 90.000000
_cell_angle_beta 43.460491
_cell_angle_gamma 90.000000
_cell_volume 1500.207290
_symmetry_space_group_name_H-M "P 21/C"
_symmetry_group_IT_number 14
_symmetry_cell_setting 'monoclinic'
loop_
_space_group_symop_operation_xyz
x,y,z
-x,1/2+y,1/2-z
-x,-y,-z
x,1/2-y,1/2+z
loop_
_atom_site_type_symbol
_atom_site_label
_atom_site_fract_x
_atom_site_fract_y
_atom_site_fract_z
Si Si1 0.988285 0.707507 0.986978
Si Si2 0.323428 0.095122 0.524247
Si Si3 0.559396 0.650591 0.839026
Si Si4 0.192324 0.617020 0.428532
Si Si5 0.874889 0.451871 0.822854
Si Si6 0.072118 0.028365 0.852065
Si Si7 0.760873 0.681419 0.229227
O O1 0.271118 0.670925 0.908038
O O2 0.031020 0.802498 0.962870
O O3 0.840215 0.662263 0.965979
O O4 0.832598 0.692220 0.116096
O O5 0.419777 0.123750 0.578134
O O6 0.582150 0.071576 0.395398
O O7 0.157905 0.015644 0.596214
O O8 0.679716 0.582406 0.745843
O O9 0.729323 0.730359 0.774972
O O10 0.129125 0.547657 0.387612
O O11 0.487999 0.639377 0.327171
O O12 0.121533 0.583817 0.537014
O O13 0.006697 0.495810 0.707479
O O14 0.026716 0.373685 0.799180
#
# Coordination Sequence:
#
# PCOD9246721 Si02
#       7
#     4   4   4   4   4   4   4
#     4  11  22  40  65  94 121 165 209 257 310 366
#     4  10  22  40  63  94 124 159 214 254 312 367
#     4  10  22  41  62  90 127 162 203 264 304 366
#     4  10  23  39  62  91 123 169 205 255 309 374
#     4  10  22  39  63  94 123 167 202 264 310 374
#     4  10  21  42  61  87 130 157 210 254 311 373
#     4  11  22  39  63  90 127 161 205 255 314 366
#
# _framework density 18.664088
#
# number of rings (size 3 to 8) (size 9 to 14) (size 15 to 20)
#    0.000    1.714    2.857    0.857    4.000    1.143 
#    0.000    0.000    3.143    0.000    0.000    0.000 
#    0.000    0.000    0.000    0.000    0.000    0.000 
#
# Total GULP energy -156304.293729 kJ/mol
# GULP energy per Si atom -5582.296205 kJ/mol
# Density = 1.862161 g / cm^3
# Si number density = 18.664088 Si / 1000 Ang^3
#
#
#
# Elastic Constant Matrix: (Units=GPa)
#
#
# Indices 1 2 3 4 5 6 
#
# 1 48.1978 53.5976 29.5781 0.0000 -6.3852 0.0000
# 2 53.5976 134.5855 59.6124 0.0000 -6.6054 0.0000
# 3 29.5781 59.6124 110.4434 0.0000 -8.6856 0.0000
# 4 0.0000 0.0000 0.0000 38.1568 0.0000 3.9518
# 5 -6.3852 -6.6054 -8.6856 0.0000 13.5905 0.0000
# 6 0.0000 0.0000 0.0000 3.9518 0.0000 7.0965
#
#
#
# Elastic Compliance Matrix: (Units=1/GPa)
#
#
# Indices 1 2 3 4 5 6 
#
# 1 0.039104 -0.014179 -0.002018 0.000000 0.010191 0.000000
# 2 -0.014179 0.014933 -0.004439 0.000000 -0.002241 0.000000
# 3 -0.002018 -0.004439 0.012368 0.000000 0.004799 0.000000
# 4 0.000000 0.000000 0.000000 0.027812 0.000000 -0.015487
# 5 0.010191 -0.002241 0.004799 0.000000 0.080347 0.000000
# 6 0.000000 0.000000 0.000000 -0.015487 0.000000 0.149539
#
#
# Mechanical properties :
#
#
# Convention : Reuss Voigt Hill
#
# Bulk Modulus (GPa) = 39.78786 64.31144 52.04965
# Shear Modulus (GPa) = 13.37786 21.79799 17.58793
#
# Velocity S-wave (km/s) = 2.68016 3.42118 3.07309
# Velocity P-wave (km/s) = 5.56254 7.08082 6.36710
#
# Compressibility (1/GPa) = 0.02513329
#
# Stress axis : x y z
#
# Youngs Moduli (GPa) = 25.57315 66.96543 80.85173
#
# Poissons Ratio (x) = 0.94948 0.16315
# Poissons Ratio (y) = 0.36259 0.35892
# Poissons Ratio (z) = 0.05160 0.29727
#
# Static dielectric constant tensor:
#      x y z
#    x 1.606160 0.000000 0.003500 
#    y 0.000000 1.654430 0.000000 
#    z 0.003500 0.000000 1.658790 
# 
# From -- ./inp_files/37809.got.cif
#   From: 2010.05.17/outbox.cif.g08.bks.cpg/sg14_19_cif.got.tgz:37809.got - 2010.06.03 17:49:19.
