data_PCOD9246217
_publ_section_title
;
Structure prediction by ZEFSAII (Michael W. Deem and Ramdas Pophale) SiO2 
 PCOD9246217
Probable space group: P 21/C
;
_chemical_formula_sum "Si O2"
_cell_formula_units_Z 20
_cell_length_a 6.752402
_cell_length_b 9.867699
_cell_length_c 13.838931
_cell_angle_alpha 90.000000
_cell_angle_beta 104.009569
_cell_angle_gamma 90.000000
_cell_volume 894.669753
_symmetry_space_group_name_H-M "P 21/C"
_symmetry_group_IT_number 14
_symmetry_cell_setting 'monoclinic'
loop_
_space_group_symop_operation_xyz
x,y,z
-x,1/2+y,1/2-z
-x,-y,-z
x,1/2-y,1/2+z
loop_
_atom_site_type_symbol
_atom_site_label
_atom_site_fract_x
_atom_site_fract_y
_atom_site_fract_z
Si Si1 0.345138 0.406935 0.920879
Si Si2 0.527483 0.482935 0.741138
Si Si3 0.176988 0.678387 0.346543
Si Si4 0.431056 0.865672 0.047151
Si Si5 0.024062 0.463721 0.194599
O O1 0.397877 0.436053 0.815267
O O2 0.110587 0.452513 0.898460
O O3 0.500000 0.500000 0.000000
O O4 0.401011 0.251571 0.945182
O O5 0.614321 0.355724 0.688131
O O6 0.418966 0.587953 0.656374
O O7 0.738521 0.548640 0.805724
O O8 0.230580 0.681597 0.466016
O O9 0.076531 0.818293 0.304719
O O10 0.041176 0.551972 0.295243
O O11 0.500000 0.000000 0.000000
#
# Coordination Sequence:
#
# PCOD9246217 Si02
#       5
#     4   4   4   4   4
#     4  12  24  40  69  94 128 174 217 263 324 384
#     4   9  24  38  68  90 131 167 214 265 327 373
#     4   9  20  42  64  92 133 165 215 267 319 386
#     4  10  21  42  66  93 132 171 207 271 324 377
#     4  10  21  40  65  92 131 165 218 260 320 380
#
# _framework density 22.354617999999999
#
# number of rings (size 3 to 8) (size 9 to 14) (size 15 to 20)
#    1.200    0.800    2.000    1.200    2.800    0.800 
#    0.000    1.000    0.000    0.000    0.000    0.000 
#    0.000    0.000    0.000    0.000    0.000    0.000 
#
# Total GULP energy -111547.291401 kJ/mol
# GULP energy per Si atom -5577.364570 kJ/mol
# Density = 2.230374 g / cm^3
# Si number density = 22.354618 Si / 1000 Ang^3
#
#
#
# Elastic Constant Matrix: (Units=GPa)
#
#
# Indices 1 2 3 4 5 6 
#
# 1 42.9333 16.8593 39.3271 0.0000 11.8365 0.0000
# 2 16.8593 140.2731 39.6997 0.0000 6.3470 0.0000
# 3 39.3271 39.6997 117.7234 0.0000 29.3646 0.0000
# 4 0.0000 0.0000 0.0000 37.4396 0.0000 4.0529
# 5 11.8365 6.3470 29.3646 0.0000 27.8485 0.0000
# 6 0.0000 0.0000 0.0000 4.0529 0.0000 18.4097
#
#
#
# Elastic Compliance Matrix: (Units=1/GPa)
#
#
# Indices 1 2 3 4 5 6 
#
# 1 0.033931 -0.001061 -0.010096 0.000000 -0.003535 0.000000
# 2 -0.001061 0.007953 -0.002697 0.000000 0.001483 0.000000
# 3 -0.010096 -0.002697 0.015676 0.000000 -0.011624 0.000000
# 4 0.000000 0.000000 0.000000 0.027362 0.000000 -0.006024
# 5 -0.003535 0.001483 -0.011624 0.000000 0.049330 0.000000
# 6 0.000000 0.000000 0.000000 -0.006024 0.000000 0.055645
#
#
# Mechanical properties :
#
#
# Convention : Reuss Voigt Hill
#
# Bulk Modulus (GPa) = 33.49868 54.74465 44.12167
# Shear Modulus (GPa) = 21.97278 30.40915 26.19096
#
# Velocity S-wave (km/s) = 3.13856 3.69224 3.42660
# Velocity P-wave (km/s) = 5.30582 6.53599 5.95277
#
# Compressibility (1/GPa) = 0.02985192
#
# Stress axis : x y z
#
# Youngs Moduli (GPa) = 29.47194 125.74251 63.79158
#
# Poissons Ratio (x) = 0.13341 0.64401
# Poissons Ratio (y) = 0.03127 0.17206
# Poissons Ratio (z) = 0.29753 0.33916
#
# Static dielectric constant tensor:
#      x y z
#    x 1.911190 0.000000 0.019300 
#    y 0.000000 1.812710 0.000000 
#    z 0.019300 0.000000 1.885540 
# 
# From -- ./inp_files/54679.got.cif
#   From: 2010.05.17/outbox.cif.g08.bks.cpg/sg14_28_cif.got.tgz:54679.got - 2010.06.03 17:49:19.
