data_PCOD9246035
_publ_section_title
;
Structure prediction by ZEFSAII (Michael W. Deem and Ramdas Pophale) SiO2 
 PCOD9246035
Probable space group: P 21/C
;
_chemical_formula_sum "Si O2"
_cell_formula_units_Z 24
_cell_length_a 17.645453
_cell_length_b 8.189203
_cell_length_c 15.319031
_cell_angle_alpha 90.000000
_cell_angle_beta 149.077099
_cell_angle_gamma 90.000000
_cell_volume 1137.551298
_symmetry_space_group_name_H-M "P 21/C"
_symmetry_group_IT_number 14
_symmetry_cell_setting 'monoclinic'
loop_
_space_group_symop_operation_xyz
x,y,z
-x,1/2+y,1/2-z
-x,-y,-z
x,1/2-y,1/2+z
loop_
_atom_site_type_symbol
_atom_site_label
_atom_site_fract_x
_atom_site_fract_y
_atom_site_fract_z
Si Si1 0.430043 0.178406 0.914753
Si Si2 0.064385 0.702159 0.706429
Si Si3 0.083330 0.330229 0.100571
Si Si4 0.868637 0.836866 0.668175
Si Si5 0.451139 0.227925 0.124429
Si Si6 0.379492 0.657455 0.554101
O O1 0.254159 0.162633 0.739870
O O2 0.504362 0.236462 0.899205
O O3 0.471130 0.275697 0.043047
O O4 0.500000 0.000000 0.000000
O O5 0.093988 0.520236 0.768182
O O6 0.998847 0.704762 0.544624
O O7 0.951610 0.784532 0.662814
O O8 0.216385 0.803583 0.860378
O O9 0.085230 0.277220 0.203693
O O10 0.000000 0.500000 0.000000
O O11 0.693062 0.820321 0.483114
O O12 0.589865 0.268037 0.320928
O O13 0.410838 0.035923 0.088966
#
# Coordination Sequence:
#
# PCOD9246035 Si02
#       6
#     4   4   4   4   4   4
#     4   9  20  38  60  86 119 157 197 241 299 365
#     4  12  24  40  62  90 121 163 207 258 312 366
#     4  11  22  40  65  92 125 161 202 256 311 369
#     4  11  24  42  61  88 123 161 210 258 308 369
#     4  10  21  40  60  87 120 159 202 251 302 362
#     4  11  22  38  62  89 121 161 204 252 307 365
#
# _framework density 21.097947999999999
#
# number of rings (size 3 to 8) (size 9 to 14) (size 15 to 20)
#    0.000    1.333    0.000    7.500    0.000    5.333 
#    0.000    9.167    0.000    0.000    0.000    0.000 
#    0.000    0.000    0.000    0.000    0.000    0.000 
#
# Total GULP energy -134202.949502 kJ/mol
# GULP energy per Si atom -5591.789563 kJ/mol
# Density = 2.104993 g / cm^3
# Si number density = 21.097948 Si / 1000 Ang^3
#
#
#
# Elastic Constant Matrix: (Units=GPa)
#
#
# Indices 1 2 3 4 5 6 
#
# 1 64.6778 -20.5735 5.1259 0.0000 -2.6396 0.0000
# 2 -20.5735 49.0349 -16.6043 0.0000 -4.3552 0.0000
# 3 5.1259 -16.6043 103.8672 0.0000 -13.0239 0.0000
# 4 0.0000 0.0000 0.0000 37.7447 0.0000 -2.5802
# 5 -2.6396 -4.3552 -13.0239 0.0000 20.7683 0.0000
# 6 0.0000 0.0000 0.0000 -2.5802 0.0000 18.5476
#
#
#
# Elastic Compliance Matrix: (Units=1/GPa)
#
#
# Indices 1 2 3 4 5 6 
#
# 1 0.018255 0.008433 0.001042 0.000000 0.004742 0.000000
# 2 0.008433 0.026513 0.005051 0.000000 0.009799 0.000000
# 3 0.001042 0.005051 0.011432 0.000000 0.008361 0.000000
# 4 0.000000 0.000000 0.000000 0.026748 0.000000 0.003721
# 5 0.004742 0.009799 0.008361 0.000000 0.056051 0.000000
# 6 0.000000 0.000000 0.000000 0.003721 0.000000 0.054433
#
#
# Mechanical properties :
#
#
# Convention : Reuss Voigt Hill
#
# Bulk Modulus (GPa) = 11.73010 17.05290 14.39150
# Shear Modulus (GPa) = 25.93406 32.05425 28.99415
#
# Velocity S-wave (km/s) = 3.50983 3.90206 3.71113
# Velocity P-wave (km/s) = 4.69011 5.32932 5.01990
#
# Compressibility (1/GPa) = 0.08525075
#
# Stress axis : x y z
#
# Youngs Moduli (GPa) = 54.78036 37.71796 87.47352
#
# Poissons Ratio (x) = -0.31808 -0.09113
# Poissons Ratio (y) = -0.46197 -0.44181
# Poissons Ratio (z) = -0.05707 -0.19051
#
# Static dielectric constant tensor:
#      x y z
#    x 1.770100 0.000000 -0.026290 
#    y 0.000000 1.775570 0.000000 
#    z -0.026290 0.000000 1.731790 
# 
# From -- ./inp_files/38980.got.cif
#   From: 2010.05.17/outbox.cif.g08.bks.cpg/sg14_20_cif.got.tgz:38980.got - 2010.06.03 17:49:19.
