data_PCOD9246454
_publ_section_title
;
Structure prediction by ZEFSAII (Michael W. Deem and Ramdas Pophale) SiO2 
 PCOD9246454
Probable space group: P 21/C
;
_chemical_formula_sum "Si O2"
_cell_formula_units_Z 32
_cell_length_a 20.862912
_cell_length_b 6.359861
_cell_length_c 13.578186
_cell_angle_alpha 90.000000
_cell_angle_beta 119.371904
_cell_angle_gamma 90.000000
_cell_volume 1570.033740
_symmetry_space_group_name_H-M "P 21/C"
_symmetry_group_IT_number 14
_symmetry_cell_setting 'monoclinic'
loop_
_space_group_symop_operation_xyz
x,y,z
-x,1/2+y,1/2-z
-x,-y,-z
x,1/2-y,1/2+z
loop_
_atom_site_type_symbol
_atom_site_label
_atom_site_fract_x
_atom_site_fract_y
_atom_site_fract_z
Si Si1 0.178527 0.048112 0.705623
Si Si2 0.662015 0.538432 0.018619
Si Si3 0.314423 0.771679 0.795066
Si Si4 0.896312 0.595902 0.490548
Si Si5 0.426447 0.063891 0.999824
Si Si6 0.765115 0.620391 0.539204
Si Si7 0.630478 0.155115 0.870756
Si Si8 0.041652 0.697592 0.082162
O O1 0.144015 0.238758 0.615438
O O2 0.216893 0.127142 0.832498
O O3 0.240765 0.895141 0.704672
O O4 0.110101 0.904488 0.688247
O O5 0.701119 0.412792 0.137458
O O6 0.603032 0.698806 0.020731
O O7 0.719570 0.664289 0.993420
O O8 0.621300 0.377666 0.916389
O O9 0.361142 0.680583 0.739116
O O10 0.364570 0.932870 0.894159
O O11 0.838311 0.584796 0.533598
O O12 0.920440 0.374692 0.459396
O O13 0.974359 0.689596 0.585523
O O14 0.500000 0.000000 0.000000
O O15 0.426868 0.994370 0.115473
O O16 0.709021 0.438708 0.465390
O O17 0.000000 0.500000 0.000000
#
# Coordination Sequence:
#
# PCOD9246454 Si02
#       8
#     4   4   4   4   4   4   4   4
#     4  11  21  38  61  90 123 158 215 264 315 380
#     4  10  21  41  63  87 132 159 205 268 308 370
#     4  11  22  40  65  95 123 169 215 263 318 381
#     4  10  22  40  63  85 126 166 206 268 320 382
#     4  10  23  44  60  93 133 162 213 261 315 385
#     4  11  22  37  60  98 117 162 210 255 321 380
#     4  10  22  39  62  94 122 161 213 248 316 382
#     4   9  21  42  57  85 121 164 209 262 322 378
#
# _framework density 20.381727999999999
#
# number of rings (size 3 to 8) (size 9 to 14) (size 15 to 20)
#    0.000    1.750    3.750    1.500    3.500    5.000 
#   11.250    0.000    0.000    0.000    0.000    0.000 
#    0.000    0.000    0.000    0.000    0.000    0.000 
#
# Total GULP energy -178223.068715 kJ/mol
# GULP energy per Si atom -5569.470897 kJ/mol
# Density = 2.033534 g / cm^3
# Si number density = 20.381728 Si / 1000 Ang^3
#
#
#
# Elastic Constant Matrix: (Units=GPa)
#
#
# Indices 1 2 3 4 5 6 
#
# 1 135.2657 32.4065 2.3469 0.0000 -10.9281 0.0000
# 2 32.4065 98.1200 9.9865 0.0000 1.9984 0.0000
# 3 2.3469 9.9865 31.4738 0.0000 -12.7433 0.0000
# 4 0.0000 0.0000 0.0000 15.4686 0.0000 -2.4445
# 5 -10.9281 1.9984 -12.7433 0.0000 31.8198 0.0000
# 6 0.0000 0.0000 0.0000 -2.4445 0.0000 11.0814
#
#
#
# Elastic Compliance Matrix: (Units=1/GPa)
#
#
# Indices 1 2 3 4 5 6 
#
# 1 0.008399 -0.003045 0.001892 0.000000 0.003833 0.000000
# 2 -0.003045 0.011789 -0.005057 0.000000 -0.003811 0.000000
# 3 0.001892 -0.005057 0.040136 0.000000 0.017041 0.000000
# 4 0.000000 0.000000 0.000000 0.066982 0.000000 0.014776
# 5 0.003833 -0.003811 0.017041 0.000000 0.039808 0.000000
# 6 0.000000 0.000000 0.000000 0.014776 0.000000 0.093501
#
#
# Mechanical properties :
#
#
# Convention : Reuss Voigt Hill
#
# Bulk Modulus (GPa) = 20.87465 39.37101 30.12283
# Shear Modulus (GPa) = 17.30090 26.34860 21.82475
#
# Velocity S-wave (km/s) = 2.91665 3.59939 3.27586
# Velocity P-wave (km/s) = 4.64829 6.05251 5.39627
#
# Compressibility (1/GPa) = 0.04790499
#
# Stress axis : x y z
#
# Youngs Moduli (GPa) = 119.05951 84.82144 24.91555
#
# Poissons Ratio (x) = 0.25825 -0.04714
# Poissons Ratio (y) = 0.36249 0.12599
# Poissons Ratio (z) = -0.22524 0.42893
#
# Static dielectric constant tensor:
#      x y z
#    x 1.751470 0.000000 0.001930 
#    y 0.000000 1.794370 0.000000 
#    z 0.001930 0.000000 1.710770 
# 
# From -- ./inp_files/49696.got.cif
#   From: 2010.05.17/outbox.cif.g08.bks.cpg/sg14_25_cif.got.tgz:49696.got - 2010.06.03 17:49:19.
