data_PCOD9246519
_publ_section_title
;
Structure prediction by ZEFSAII (Michael W. Deem and Ramdas Pophale) SiO2 
 PCOD9246519
Probable space group: P 21/C
;
_chemical_formula_sum "Si O2"
_cell_formula_units_Z 24
_cell_length_a 20.788416
_cell_length_b 11.718557
_cell_length_c 14.819778
_cell_angle_alpha 90.000000
_cell_angle_beta 16.283748
_cell_angle_gamma 90.000000
_cell_volume 1012.293956
_symmetry_space_group_name_H-M "P 21/C"
_symmetry_group_IT_number 14
_symmetry_cell_setting 'monoclinic'
loop_
_space_group_symop_operation_xyz
x,y,z
-x,1/2+y,1/2-z
-x,-y,-z
x,1/2-y,1/2+z
loop_
_atom_site_type_symbol
_atom_site_label
_atom_site_fract_x
_atom_site_fract_y
_atom_site_fract_z
Si Si1 0.903669 0.008754 0.531237
Si Si2 0.864932 0.636086 0.949779
Si Si3 0.347745 0.214189 0.608906
Si Si4 0.964227 0.233955 0.965615
Si Si5 0.412941 0.574076 0.753543
Si Si6 0.727600 0.470636 0.853901
O O1 0.895948 0.141766 0.524600
O O2 0.042351 0.919902 0.281807
O O3 0.000000 0.000000 0.500000
O O4 0.651312 0.960282 0.887564
O O5 0.741374 0.736513 0.174473
O O6 0.755451 0.510854 0.072096
O O7 0.924120 0.679900 0.772810
O O8 0.150006 0.238822 0.797751
O O9 0.573190 0.288935 0.278912
O O10 0.371750 0.077033 0.569065
O O11 0.747907 0.154638 0.282871
O O12 0.387800 0.543806 0.892846
O O13 0.000000 0.500000 0.500000
#
# Coordination Sequence:
#
# PCOD9246519 Si02
#       6
#     4   4   4   4   4   4
#     4  11  23  43  66  99 136 179 224 275 346 401
#     4  11  23  41  71  98 133 179 230 274 338 411
#     4  10  21  41  64  96 132 171 223 276 331 403
#     4  11  23  41  68  98 137 177 223 278 339 404
#     4  11  22  42  69  96 132 178 225 276 337 411
#     4  10  22  40  63  98 129 177 221 275 339 388
#
# _framework density 23.708528000000001
#
# number of rings (size 3 to 8) (size 9 to 14) (size 15 to 20)
#    0.000    1.333    6.667    2.000    4.667    0.000 
#    0.000    1.667    0.000    6.000    0.000    0.000 
#    0.000    0.000    0.000    0.000    0.000    0.000 
#
# Total GULP energy -133656.294676 kJ/mol
# GULP energy per Si atom -5569.012278 kJ/mol
# Density = 2.365457 g / cm^3
# Si number density = 23.708528 Si / 1000 Ang^3
#
#
#
# Elastic Constant Matrix: (Units=GPa)
#
#
# Indices 1 2 3 4 5 6 
#
# 1 103.4724 32.2470 24.0972 0.0000 37.3584 0.0000
# 2 32.2470 155.9429 34.0760 0.0000 22.0083 0.0000
# 3 24.0972 34.0760 32.7570 0.0000 25.0086 0.0000
# 4 0.0000 0.0000 0.0000 35.7214 0.0000 3.5571
# 5 37.3584 22.0083 25.0086 0.0000 34.8113 0.0000
# 6 0.0000 0.0000 0.0000 3.5571 0.0000 43.4972
#
#
#
# Elastic Compliance Matrix: (Units=1/GPa)
#
#
# Indices 1 2 3 4 5 6 
#
# 1 0.016217 -0.001631 0.005019 0.000000 -0.019978 0.000000
# 2 -0.001631 0.008534 -0.010841 0.000000 0.004143 0.000000
# 3 0.005019 -0.010841 0.081927 0.000000 -0.057389 0.000000
# 4 0.000000 0.000000 0.000000 0.028224 0.000000 -0.002308
# 5 -0.019978 0.004143 -0.057389 0.000000 0.088776 0.000000
# 6 0.000000 0.000000 0.000000 -0.002308 0.000000 0.023179
#
#
# Mechanical properties :
#
#
# Convention : Reuss Voigt Hill
#
# Bulk Modulus (GPa) = 10.89642 52.55697 31.72669
# Shear Modulus (GPa) = 17.10263 36.25613 26.67938
#
# Velocity S-wave (km/s) = 2.68875 3.91480 3.35820
# Velocity P-wave (km/s) = 3.77427 6.53072 5.33364
#
# Compressibility (1/GPa) = 0.09177326
#
# Stress axis : x y z
#
# Youngs Moduli (GPa) = 61.66453 117.17788 12.20596
#
# Poissons Ratio (x) = 0.19108 -0.06126
# Poissons Ratio (y) = 0.10055 0.13232
# Poissons Ratio (z) = -0.30950 1.27031
#
# Static dielectric constant tensor:
#      x y z
#    x 3.349840 0.000000 -0.054770 
#    y 0.000000 1.752590 0.000000 
#    z -0.054770 0.000000 1.905470 
# 
# From -- ./inp_files/50406.got.cif
#   From: 2010.05.17/outbox.cif.g08.bks.cpg/sg14_26_cif.got.tgz:50406.got - 2010.06.03 17:49:19.
