data_PCOD9246574
_publ_section_title
;
Structure prediction by ZEFSAII (Michael W. Deem and Ramdas Pophale) SiO2 
 PCOD9246574
Probable space group: P 21/C
;
_chemical_formula_sum "Si O2"
_cell_formula_units_Z 20
_cell_length_a 16.793666
_cell_length_b 5.031454
_cell_length_c 30.046757
_cell_angle_alpha 90.000000
_cell_angle_beta 20.430591
_cell_angle_gamma 90.000000
_cell_volume 886.241670
_symmetry_space_group_name_H-M "P 21/C"
_symmetry_group_IT_number 14
_symmetry_cell_setting 'monoclinic'
loop_
_space_group_symop_operation_xyz
x,y,z
-x,1/2+y,1/2-z
-x,-y,-z
x,1/2-y,1/2+z
loop_
_atom_site_type_symbol
_atom_site_label
_atom_site_fract_x
_atom_site_fract_y
_atom_site_fract_z
Si Si1 0.607275 0.682004 0.646343
Si Si2 0.884068 0.179044 0.467421
Si Si3 0.729550 0.351204 0.865827
Si Si4 0.058324 0.155874 0.279302
Si Si5 0.780776 0.543826 0.646352
O O1 0.703446 0.419547 0.571312
O O2 0.612655 0.664557 0.697336
O O3 0.784449 0.916108 0.541875
O O4 0.355803 0.786624 0.765000
O O5 0.929569 0.108765 0.392530
O O6 0.119048 0.278795 0.366931
O O7 0.843785 0.548181 0.770516
O O8 0.883216 0.351040 0.829803
O O9 0.745029 0.058074 0.836473
O O10 0.500000 0.500000 0.000000
O O11 0.000000 0.500000 0.500000
#
# Coordination Sequence:
#
# PCOD9246574 Si02
#       5
#     4   4   4   4   4
#     4  11  23  40  62  89 123 166 209 254 315 374
#     4  11  24  41  63  93 124 161 210 264 307 363
#     4  10  21  41  66  92 125 166 200 249 313 372
#     4  10  22  41  64  93 127 159 207 254 304 373
#     4  10  22  41  62  87 124 166 209 259 312 366
#
# _framework density 22.567207
#
# number of rings (size 3 to 8) (size 9 to 14) (size 15 to 20)
#    0.000    1.600    0.000    4.800    0.000    6.400 
#    0.000    6.000    0.000    0.000    0.000    0.000 
#    0.000    0.000    0.000    0.000    0.000    0.000 
#
# Total GULP energy -111692.282090 kJ/mol
# GULP energy per Si atom -5584.614104 kJ/mol
# Density = 2.251584 g / cm^3
# Si number density = 22.567207 Si / 1000 Ang^3
#
#
#
# Elastic Constant Matrix: (Units=GPa)
#
#
# Indices 1 2 3 4 5 6 
#
# 1 34.5232 31.0865 25.9225 0.0000 25.6500 0.0000
# 2 31.0865 120.1043 22.6220 0.0000 7.0273 0.0000
# 3 25.9225 22.6220 78.8930 0.0000 9.1808 0.0000
# 4 0.0000 0.0000 0.0000 53.0887 0.0000 -0.0474
# 5 25.6500 7.0273 9.1808 0.0000 39.0527 0.0000
# 6 0.0000 0.0000 0.0000 -0.0474 0.0000 20.3176
#
#
#
# Elastic Compliance Matrix: (Units=1/GPa)
#
#
# Indices 1 2 3 4 5 6 
#
# 1 0.116177 -0.021605 -0.024213 0.000000 -0.066726 0.000000
# 2 -0.021605 0.012859 0.002087 0.000000 0.011386 0.000000
# 3 -0.024213 0.002087 0.018739 0.000000 0.011123 0.000000
# 4 0.000000 0.000000 0.000000 0.018836 0.000000 0.000044
# 5 -0.066726 0.011386 0.011123 0.000000 0.064769 0.000000
# 6 0.000000 0.000000 0.000000 0.000044 0.000000 0.049218
#
#
# Mechanical properties :
#
#
# Convention : Reuss Voigt Hill
#
# Bulk Modulus (GPa) = 16.58063 43.64250 30.11156
# Shear Modulus (GPa) = 12.88112 32.75111 22.81612
#
# Velocity S-wave (km/s) = 2.39171 3.81369 3.18312
# Velocity P-wave (km/s) = 3.87172 6.22681 5.18476
#
# Compressibility (1/GPa) = 0.06031133
#
# Stress axis : x y z
#
# Youngs Moduli (GPa) = 8.60755 77.76694 53.36590
#
# Poissons Ratio (x) = 1.68018 1.29215
# Poissons Ratio (y) = 0.18597 -0.11137
# Poissons Ratio (z) = 0.20842 -0.16229
#
# Static dielectric constant tensor:
#      x y z
#    x 1.820780 0.000000 -0.069680 
#    y 0.000000 1.944080 0.000000 
#    z -0.069680 0.000000 1.868860 
# 
# From -- ./inp_files/80253.got.cif
#   From: 2010.05.17/outbox.cif.g08.bks.cpg/sg14_41_cif.got.tgz:80253.got - 2010.06.03 17:49:19.
