data_PCOD9246433
_publ_section_title
;
Structure prediction by ZEFSAII (Michael W. Deem and Ramdas Pophale) SiO2 
 PCOD9246433
Probable space group: P 21/C
;
_chemical_formula_sum "Si O2"
_cell_formula_units_Z 32
_cell_length_a 8.919384
_cell_length_b 24.954607
_cell_length_c 14.466765
_cell_angle_alpha 90.000000
_cell_angle_beta 147.132284
_cell_angle_gamma 90.000000
_cell_volume 1747.502722
_symmetry_space_group_name_H-M "P 21/C"
_symmetry_group_IT_number 14
_symmetry_cell_setting 'monoclinic'
loop_
_space_group_symop_operation_xyz
x,y,z
-x,1/2+y,1/2-z
-x,-y,-z
x,1/2-y,1/2+z
loop_
_atom_site_type_symbol
_atom_site_label
_atom_site_fract_x
_atom_site_fract_y
_atom_site_fract_z
Si Si1 0.833067 0.122740 0.039308
Si Si2 0.219616 0.867312 0.686464
Si Si3 0.470287 0.684157 0.955872
Si Si4 0.542518 0.615549 0.177565
Si Si5 0.655258 0.001040 0.482107
Si Si6 0.254842 0.538560 0.341038
Si Si7 0.574857 0.609465 0.838732
Si Si8 0.900384 0.214937 0.215916
O O1 0.588784 0.114864 0.840753
O O2 0.824846 0.078066 0.115737
O O3 0.822153 0.180291 0.084616
O O4 0.127577 0.116251 0.141992
O O5 0.396985 0.856083 0.688079
O O6 0.326425 0.920855 0.794381
O O7 0.215024 0.819300 0.757509
O O8 0.899422 0.877808 0.495551
O O9 0.454659 0.649951 0.853821
O O10 0.230312 0.726816 0.846982
O O11 0.481157 0.644015 0.048234
O O12 0.767466 0.713895 0.107434
O O13 0.422430 0.555765 0.108628
O O14 0.500000 0.000000 0.500000
O O15 0.560671 0.950067 0.373428
O O16 0.981925 0.994116 0.670130
O O17 0.500000 0.500000 0.500000
#
# Coordination Sequence:
#
# PCOD9246433 Si02
#       8
#     4   4   4   4   4   4   4   4
#     4  10  22  39  57  86 117 150 193 239 283 342
#     4   9  22  40  56  83 118 150 188 237 286 341
#     4  10  21  41  62  83 113 155 190 240 294 339
#     4  11  22  38  61  87 118 153 194 234 289 346
#     4  11  20  39  59  83 122 158 188 234 286 344
#     4  10  22  38  56  82 119 155 191 232 282 338
#     4  10  22  38  60  85 118 154 191 234 289 343
#     4   9  21  42  60  80 117 148 191 244 289 338
#
# _framework density 18.311845000000002
#
# number of rings (size 3 to 8) (size 9 to 14) (size 15 to 20)
#    0.000    2.000    2.500    1.500    3.500    5.500 
#    2.250    5.000    0.000    0.000    0.000    0.000 
#    0.000    0.000    0.000    0.000    0.000    0.000 
#
# Total GULP energy -178695.847213 kJ/mol
# GULP energy per Si atom -5584.245225 kJ/mol
# Density = 1.827017 g / cm^3
# Si number density = 18.311845 Si / 1000 Ang^3
#
#
#
# Elastic Constant Matrix: (Units=GPa)
#
#
# Indices 1 2 3 4 5 6 
#
# 1 71.0839 -1.5411 10.4830 0.0000 1.0378 0.0000
# 2 -1.5411 75.7371 35.3758 0.0000 12.4051 0.0000
# 3 10.4830 35.3758 71.9784 0.0000 -17.2929 0.0000
# 4 0.0000 0.0000 0.0000 20.8190 0.0000 9.9231
# 5 1.0378 12.4051 -17.2929 0.0000 18.1282 0.0000
# 6 0.0000 0.0000 0.0000 9.9231 0.0000 16.5586
#
#
#
# Elastic Compliance Matrix: (Units=1/GPa)
#
#
# Indices 1 2 3 4 5 6 
#
# 1 0.015792 0.007006 -0.009227 0.000000 -0.014500 0.000000
# 2 0.007006 0.040038 -0.035516 0.000000 -0.061679 0.000000
# 3 -0.009227 -0.035516 0.050152 0.000000 0.072673 0.000000
# 4 0.000000 0.000000 0.000000 0.067239 0.000000 -0.040295
# 5 -0.014500 -0.061679 0.072673 0.000000 0.167524 0.000000
# 6 0.000000 0.000000 0.000000 -0.040295 0.000000 0.084539
#
#
# Mechanical properties :
#
#
# Convention : Reuss Voigt Hill
#
# Bulk Modulus (GPa) = 32.77866 34.15940 33.46903
# Shear Modulus (GPa) = 9.78612 22.73327 16.25969
#
# Velocity S-wave (km/s) = 2.31425 3.52725 2.98305
# Velocity P-wave (km/s) = 5.00800 5.93998 5.49379
#
# Compressibility (1/GPa) = 0.03050765
#
# Stress axis : x y z
#
# Youngs Moduli (GPa) = 63.32222 24.97645 19.93930
#
# Poissons Ratio (x) = -0.17499 0.18398
# Poissons Ratio (y) = -0.44365 0.70817
# Poissons Ratio (z) = 0.58428 0.88707
#
# Static dielectric constant tensor:
#      x y z
#    x 1.620690 0.000000 0.001270 
#    y 0.000000 1.620680 0.000000 
#    z 0.001270 0.000000 1.604450 
# 
# From -- ./inp_files/10814.got.cif
#   From: 2010.05.17/outbox.cif.g08.bks.cpg/sg14_6_cif.got.tgz:10814.got - 2010.06.03 17:49:19.
