data_PCOD9246049
_publ_section_title
;
Structure prediction by ZEFSAII (Michael W. Deem and Ramdas Pophale) SiO2 
 PCOD9246049
Probable space group: P 21/C
;
_chemical_formula_sum "Si O2"
_cell_formula_units_Z 20
_cell_length_a 7.848372
_cell_length_b 9.674446
_cell_length_c 22.376522
_cell_angle_alpha 90.000000
_cell_angle_beta 36.668680
_cell_angle_gamma 90.000000
_cell_volume 1014.631760
_symmetry_space_group_name_H-M "P 21/C"
_symmetry_group_IT_number 14
_symmetry_cell_setting 'monoclinic'
loop_
_space_group_symop_operation_xyz
x,y,z
-x,1/2+y,1/2-z
-x,-y,-z
x,1/2-y,1/2+z
loop_
_atom_site_type_symbol
_atom_site_label
_atom_site_fract_x
_atom_site_fract_y
_atom_site_fract_z
Si Si1 0.017508 0.029071 0.566777
Si Si2 0.851378 0.639557 0.230438
Si Si3 0.549631 0.149545 0.372757
Si Si4 0.686913 0.556304 0.605074
Si Si5 0.568604 0.590786 0.772687
O O1 0.336226 0.084136 0.482136
O O2 0.758855 0.136833 0.647767
O O3 0.000000 0.000000 0.500000
O O4 0.943260 0.914223 0.637769
O O5 0.586779 0.544934 0.326890
O O6 0.730108 0.793394 0.263155
O O7 0.132152 0.644090 0.191618
O O8 0.412006 0.297810 0.395639
O O9 0.554534 0.052361 0.312563
O O10 0.710266 0.574500 0.669410
O O11 0.000000 0.500000 0.500000
#
# Coordination Sequence:
#
# PCOD9246049 Si02
#       5
#     4   4   4   4   4
#     4   9  19  36  59  83 114 156 195 236 295 364
#     4  11  22  38  61  91 121 153 201 257 300 346
#     4  11  22  39  61  90 120 154 199 255 305 349
#     4  11  23  41  62  87 121 164 204 243 297 368
#     4  10  21  40  61  85 117 159 201 243 298 367
#
# _framework density 19.711583999999998
#
# number of rings (size 3 to 8) (size 9 to 14) (size 15 to 20)
#    0.000    1.600    0.000    6.600    0.000    3.200 
#    0.000   12.000    0.000    0.000    0.000    0.000 
#    0.000    0.000    0.000    0.000    0.000    0.000 
#
# Total GULP energy -111394.027717 kJ/mol
# GULP energy per Si atom -5569.701386 kJ/mol
# Density = 1.966672 g / cm^3
# Si number density = 19.711584 Si / 1000 Ang^3
#
#
#
# Elastic Constant Matrix: (Units=GPa)
#
#
# Indices 1 2 3 4 5 6 
#
# 1 80.9910 43.7830 23.5966 0.0000 -24.0636 0.0000
# 2 43.7830 108.3090 58.6463 0.0000 -17.0989 0.0000
# 3 23.5966 58.6463 126.6218 0.0000 -15.0508 0.0000
# 4 0.0000 0.0000 0.0000 9.8443 0.0000 -0.1139
# 5 -24.0636 -17.0989 -15.0508 0.0000 40.2224 0.0000
# 6 0.0000 0.0000 0.0000 -0.1139 0.0000 6.0946
#
#
#
# Elastic Compliance Matrix: (Units=1/GPa)
#
#
# Indices 1 2 3 4 5 6 
#
# 1 0.018060 -0.006271 0.000530 0.000000 0.008337 0.000000
# 2 -0.006271 0.014920 -0.005687 0.000000 0.000463 0.000000
# 3 0.000530 -0.005687 0.010657 0.000000 0.001887 0.000000
# 4 0.000000 0.000000 0.000000 0.101603 0.000000 0.001898
# 5 0.008337 0.000463 0.001887 0.000000 0.030752 0.000000
# 6 0.000000 0.000000 0.000000 0.001898 0.000000 0.164116
#
#
# Mechanical properties :
#
#
# Convention : Reuss Voigt Hill
#
# Bulk Modulus (GPa) = 48.12100 63.10819 55.61460
# Shear Modulus (GPa) = 13.51744 23.89197 18.70471
#
# Velocity S-wave (km/s) = 2.62155 3.48527 3.08380
# Velocity P-wave (km/s) = 5.79904 6.94848 6.39962
#
# Compressibility (1/GPa) = 0.02078095
#
# Stress axis : x y z
#
# Youngs Moduli (GPa) = 55.37130 67.02259 93.83513
#
# Poissons Ratio (x) = 0.42033 -0.04974
# Poissons Ratio (y) = 0.34726 0.53362
# Poissons Ratio (z) = -0.02935 0.38114
#
# Static dielectric constant tensor:
#      x y z
#    x 1.716990 0.000000 -0.006490 
#    y 0.000000 1.730080 0.000000 
#    z -0.006490 0.000000 1.791570 
# 
# From -- ./inp_files/23082.got.cif
#   From: 2010.05.17/outbox.cif.g08.bks.cpg/sg14_12_cif.got.tgz:23082.got - 2010.06.03 17:49:19.
