data_PCOD9246785
_publ_section_title
;
Structure prediction by ZEFSAII (Michael W. Deem and Ramdas Pophale) SiO2 
 PCOD9246785
Probable space group: P 21/C
;
_chemical_formula_sum "Si O2"
_cell_formula_units_Z 28
_cell_length_a 5.536144
_cell_length_b 18.168540
_cell_length_c 11.137799
_cell_angle_alpha 90.000000
_cell_angle_beta 75.947156
_cell_angle_gamma 90.000000
_cell_volume 1086.752974
_symmetry_space_group_name_H-M "P 21/C"
_symmetry_group_IT_number 14
_symmetry_cell_setting 'monoclinic'
loop_
_space_group_symop_operation_xyz
x,y,z
-x,1/2+y,1/2-z
-x,-y,-z
x,1/2-y,1/2+z
loop_
_atom_site_type_symbol
_atom_site_label
_atom_site_fract_x
_atom_site_fract_y
_atom_site_fract_z
Si Si1 0.229400 0.083931 0.128226
Si Si2 0.194985 0.646720 0.854098
Si Si3 0.464089 0.707221 0.024665
Si Si4 0.873314 0.745431 0.280055
Si Si5 0.393644 0.344701 0.370390
Si Si6 0.560479 0.931929 0.665012
Si Si7 0.943551 0.505128 0.828653
O O1 0.120403 0.157775 0.206206
O O2 0.467888 0.069931 0.186129
O O3 0.044889 0.017738 0.183731
O O4 0.284714 0.101794 0.984438
O O5 0.123853 0.725234 0.808955
O O6 0.242604 0.663594 0.986468
O O7 0.439908 0.618377 0.753502
O O8 0.976438 0.590812 0.848817
O O9 0.658134 0.725952 0.895963
O O10 0.424782 0.788230 0.080811
O O11 0.559131 0.649950 0.111764
O O12 0.808270 0.789301 0.165695
O O13 0.834377 0.968459 0.617683
O O14 0.335329 0.976085 0.631456
#
# Coordination Sequence:
#
# PCOD9246785 Si02
#       7
#     4   4   4   4   4   4   4
#     4   9  22  41  67  94 133 178 225 271 337 397
#     4  11  26  39  68  98 135 171 226 278 338 396
#     4  10  23  41  66  97 133 175 226 276 340 392
#     4  10  22  40  64  99 131 172 226 285 329 396
#     4  10  21  42  64  96 130 174 223 282 329 395
#     4  10  23  44  69  95 139 175 230 261 341 396
#     4  10  25  43  68 101 136 181 218 275 333 406
#
# _framework density 25.764825999999999
#
# number of rings (size 3 to 8) (size 9 to 14) (size 15 to 20)
#    0.857    1.143    1.429    0.000    8.000    5.143 
#    0.000    1.429    0.000    0.000    0.000    0.000 
#    0.000    0.000    0.000    0.000    0.000    0.000 
#
# Total GULP energy -156388.785534 kJ/mol
# GULP energy per Si atom -5585.313769 kJ/mol
# Density = 2.570618 g / cm^3
# Si number density = 25.764826 Si / 1000 Ang^3
#
#
#
# Elastic Constant Matrix: (Units=GPa)
#
#
# Indices 1 2 3 4 5 6 
#
# 1 77.4887 3.4020 14.2880 0.0000 7.4339 0.0000
# 2 3.4020 64.0469 -14.8611 0.0000 3.4355 0.0000
# 3 14.2880 -14.8611 71.2548 0.0000 6.2408 0.0000
# 4 0.0000 0.0000 0.0000 35.6735 0.0000 4.2265
# 5 7.4339 3.4355 6.2408 0.0000 24.4699 0.0000
# 6 0.0000 0.0000 0.0000 4.2265 0.0000 39.2444
#
#
#
# Elastic Compliance Matrix: (Units=1/GPa)
#
#
# Indices 1 2 3 4 5 6 
#
# 1 0.013777 -0.001184 -0.002718 0.000000 -0.003326 0.000000
# 2 -0.001184 0.016766 0.003998 0.000000 -0.003014 0.000000
# 3 -0.002718 0.003998 0.015742 0.000000 -0.003750 0.000000
# 4 0.000000 0.000000 0.000000 0.028394 0.000000 -0.003058
# 5 -0.003326 -0.003014 -0.003750 0.000000 0.043256 0.000000
# 6 0.000000 0.000000 0.000000 -0.003058 0.000000 0.025811
#
#
# Mechanical properties :
#
#
# Convention : Reuss Voigt Hill
#
# Bulk Modulus (GPa) = 21.51646 24.27204 22.89425
# Shear Modulus (GPa) = 31.43726 33.87500 32.65613
#
# Velocity S-wave (km/s) = 3.49687 3.62992 3.56402
# Velocity P-wave (km/s) = 4.96723 5.19706 5.08345
#
# Compressibility (1/GPa) = 0.04647604
#
# Stress axis : x y z
#
# Youngs Moduli (GPa) = 72.58262 59.64522 63.52625
#
# Poissons Ratio (x) = 0.07063 0.17268
# Poissons Ratio (y) = 0.08595 -0.25399
# Poissons Ratio (z) = 0.19730 -0.23847
#
# Static dielectric constant tensor:
#      x y z
#    x 2.084480 0.000000 -0.012900 
#    y 0.000000 1.991080 0.000000 
#    z -0.012900 0.000000 2.103510 
# 
# From -- ./inp_files/21561.got.cif
#   From: 2010.05.17/outbox.cif.g08.bks.cpg/sg14_11_cif.got.tgz:21561.got - 2010.06.03 17:49:19.
