data_PCOD9246548
_publ_section_title
;
Structure prediction by ZEFSAII (Michael W. Deem and Ramdas Pophale) SiO2 
 PCOD9246548
Probable space group: P 21/C
;
_chemical_formula_sum "Si O2"
_cell_formula_units_Z 24
_cell_length_a 13.910276
_cell_length_b 8.000666
_cell_length_c 16.502276
_cell_angle_alpha 90.000000
_cell_angle_beta 36.393351
_cell_angle_gamma 90.000000
_cell_volume 1089.679376
_symmetry_space_group_name_H-M "P 21/C"
_symmetry_group_IT_number 14
_symmetry_cell_setting 'monoclinic'
loop_
_space_group_symop_operation_xyz
x,y,z
-x,1/2+y,1/2-z
-x,-y,-z
x,1/2-y,1/2+z
loop_
_atom_site_type_symbol
_atom_site_label
_atom_site_fract_x
_atom_site_fract_y
_atom_site_fract_z
Si Si1 0.833778 0.532735 0.659994
Si Si2 0.984546 0.720555 0.178586
Si Si3 0.656883 0.144032 0.050441
Si Si4 0.852326 0.607011 0.917648
Si Si5 0.385754 0.171555 0.828652
Si Si6 0.344444 0.891443 0.580918
O O1 0.693895 0.568966 0.690751
O O2 0.774751 0.388244 0.761150
O O3 0.000000 0.500000 0.500000
O O4 0.864049 0.692470 0.697502
O O5 0.016607 0.526363 0.140517
O O6 0.925621 0.749010 0.310772
O O7 0.153855 0.823600 0.059514
O O8 0.552525 0.253114 0.184629
O O9 0.606449 0.954135 0.101039
O O10 0.620573 0.215437 0.985614
O O11 0.744587 0.495321 0.929692
O O12 0.739738 0.683556 0.062399
O O13 0.500000 0.000000 0.500000
#
# Coordination Sequence:
#
# PCOD9246548 Si02
#       6
#     4   4   4   4   4   4
#     4  11  23  40  67  98 132 172 219 273 332 383
#     4  10  21  41  65  94 128 177 214 269 328 396
#     4  11  22  39  66  91 131 174 220 262 336 388
#     4  10  23  39  67  92 128 170 220 269 328 399
#     4  12  24  41  67  98 129 172 224 277 326 394
#     4  10  21  42  64  89 131 177 210 261 333 391
#
# _framework density 22.024827999999999
#
# number of rings (size 3 to 8) (size 9 to 14) (size 15 to 20)
#    0.000    1.333    3.333    3.000    4.667    0.667 
#    0.000    0.833    7.333    0.000    0.000    0.000 
#    0.000    0.000    0.000    0.000    0.000    0.000 
#
# Total GULP energy -134179.563011 kJ/mol
# GULP energy per Si atom -5590.815125 kJ/mol
# Density = 2.197470 g / cm^3
# Si number density = 22.024828 Si / 1000 Ang^3
#
#
#
# Elastic Constant Matrix: (Units=GPa)
#
#
# Indices 1 2 3 4 5 6 
#
# 1 48.5462 -2.9358 -5.2038 0.0000 3.6569 0.0000
# 2 -2.9358 52.0291 15.7839 0.0000 10.6007 0.0000
# 3 -5.2038 15.7839 127.6523 0.0000 6.0620 0.0000
# 4 0.0000 0.0000 0.0000 42.6678 0.0000 2.3976
# 5 3.6569 10.6007 6.0620 0.0000 29.9466 0.0000
# 6 0.0000 0.0000 0.0000 2.3976 0.0000 26.3909
#
#
#
# Elastic Compliance Matrix: (Units=1/GPa)
#
#
# Indices 1 2 3 4 5 6 
#
# 1 0.021033 0.001613 0.000815 0.000000 -0.003304 0.000000
# 2 0.001613 0.021489 -0.002242 0.000000 -0.007350 0.000000
# 3 0.000815 -0.002242 0.008190 0.000000 -0.000964 0.000000
# 4 0.000000 0.000000 0.000000 0.023557 0.000000 -0.002140
# 5 -0.003304 -0.007350 -0.000964 0.000000 0.036593 0.000000
# 6 0.000000 0.000000 0.000000 -0.002140 0.000000 0.038086
#
#
# Mechanical properties :
#
#
# Convention : Reuss Voigt Hill
#
# Bulk Modulus (GPa) = 19.57623 27.05737 23.31680
# Shear Modulus (GPa) = 30.19242 34.50662 32.34952
#
# Velocity S-wave (km/s) = 3.70650 3.96247 3.83662
# Velocity P-wave (km/s) = 5.21776 5.76598 5.49871
#
# Compressibility (1/GPa) = 0.05108235
#
# Stress axis : x y z
#
# Youngs Moduli (GPa) = 47.54496 46.53602 122.09992
#
# Poissons Ratio (x) = -0.07505 -0.09950
# Poissons Ratio (y) = -0.07668 0.27378
# Poissons Ratio (z) = -0.03874 0.10435
#
# Static dielectric constant tensor:
#      x y z
#    x 1.788860 0.000000 0.006780 
#    y 0.000000 1.845600 0.000000 
#    z 0.006780 0.000000 1.848790 
# 
# From -- ./inp_files/46358.got.cif
#   From: 2010.05.17/outbox.cif.g08.bks.cpg/sg14_24_cif.got.tgz:46358.got - 2010.06.03 17:49:19.
