data_PCOD9246282
_publ_section_title
;
Structure prediction by ZEFSAII (Michael W. Deem and Ramdas Pophale) SiO2 
 PCOD9246282
Probable space group: P 21/C
;
_chemical_formula_sum "Si O2"
_cell_formula_units_Z 20
_cell_length_a 7.245167
_cell_length_b 17.392233
_cell_length_c 7.506026
_cell_angle_alpha 90.000000
_cell_angle_beta 121.314904
_cell_angle_gamma 90.000000
_cell_volume 808.046298
_symmetry_space_group_name_H-M "P 21/C"
_symmetry_group_IT_number 14
_symmetry_cell_setting 'monoclinic'
loop_
_space_group_symop_operation_xyz
x,y,z
-x,1/2+y,1/2-z
-x,-y,-z
x,1/2-y,1/2+z
loop_
_atom_site_type_symbol
_atom_site_label
_atom_site_fract_x
_atom_site_fract_y
_atom_site_fract_z
Si Si1 0.001090 0.117708 0.965503
Si Si2 0.108859 0.638681 0.221753
Si Si3 0.767454 0.211322 0.586531
Si Si4 0.470467 0.922032 0.372755
Si Si5 0.274461 0.029511 0.814263
O O1 0.159824 0.073579 0.915744
O O2 0.944695 0.194604 0.828672
O O3 0.768538 0.073446 0.840587
O O4 0.063275 0.132076 0.201122
O O5 0.127092 0.675519 0.036187
O O6 0.274449 0.697704 0.414316
O O7 0.155957 0.549470 0.205761
O O8 0.565769 0.156138 0.532622
O O9 0.662739 0.919777 0.325993
O O10 0.500000 0.000000 0.500000
O O11 0.500000 0.000000 0.000000
#
# Coordination Sequence:
#
# PCOD9246282 Si02
#       5
#     4   4   4   4   4
#     4  10  24  42  67  97 131 170 229 268 330 400
#     4  12  21  41  71  91 137 179 213 279 342 380
#     4  10  22  41  69  94 135 178 213 280 334 393
#     4  10  21  40  67 100 132 170 225 270 332 392
#     4  12  23  42  70  98 129 178 226 273 327 402
#
# _framework density 24.751056999999999
#
# number of rings (size 3 to 8) (size 9 to 14) (size 15 to 20)
#    1.200    0.000    6.000    0.600    0.000    3.200 
#    0.000    2.000    4.400    0.000    0.000    0.000 
#    0.000    0.000    0.000    0.000    0.000    0.000 
#
# Total GULP energy -111386.075424 kJ/mol
# GULP energy per Si atom -5569.303771 kJ/mol
# Density = 2.469472 g / cm^3
# Si number density = 24.751057 Si / 1000 Ang^3
#
#
#
# Elastic Constant Matrix: (Units=GPa)
#
#
# Indices 1 2 3 4 5 6 
#
# 1 154.5263 66.0845 51.4698 0.0000 -47.8075 0.0000
# 2 66.0845 125.9898 22.6175 0.0000 -32.2131 0.0000
# 3 51.4698 22.6175 103.1519 0.0000 -45.8848 0.0000
# 4 0.0000 0.0000 0.0000 38.3650 0.0000 -13.6538
# 5 -47.8075 -32.2131 -45.8848 0.0000 57.9189 0.0000
# 6 0.0000 0.0000 0.0000 -13.6538 0.0000 16.2501
#
#
#
# Elastic Compliance Matrix: (Units=1/GPa)
#
#
# Indices 1 2 3 4 5 6 
#
# 1 0.010266 -0.003812 -0.002255 0.000000 0.004567 0.000000
# 2 -0.003812 0.010679 0.001240 0.000000 0.003775 0.000000
# 3 -0.002255 0.001240 0.015483 0.000000 0.011094 0.000000
# 4 0.000000 0.000000 0.000000 0.037185 0.000000 0.031244
# 5 0.004567 0.003775 0.011094 0.000000 0.031924 0.000000
# 6 0.000000 0.000000 0.000000 0.031244 0.000000 0.087790
#
#
# Mechanical properties :
#
#
# Convention : Reuss Voigt Hill
#
# Bulk Modulus (GPa) = 37.35057 73.77907 55.56482
# Shear Modulus (GPa) = 23.59549 38.73987 31.16768
#
# Velocity S-wave (km/s) = 3.09093 3.96053 3.55244
# Velocity P-wave (km/s) = 5.27842 7.12654 6.27093
#
# Compressibility (1/GPa) = 0.02677335
#
# Stress axis : x y z
#
# Youngs Moduli (GPa) = 97.41229 93.63851 64.58826
#
# Poissons Ratio (x) = 0.35696 0.14564
# Poissons Ratio (y) = 0.37135 -0.08008
# Poissons Ratio (z) = 0.21966 -0.11610
#
# Static dielectric constant tensor:
#      x y z
#    x 2.029410 0.000000 0.075920 
#    y 0.000000 2.509230 0.000000 
#    z 0.075920 0.000000 2.246810 
# 
# From -- ./inp_files/5546.got.cif
#   From: 2010.05.17/outbox.cif.g08.bks.cpg/sg14_3_cif.got.tgz:5546.got - 2010.06.03 17:49:19.
