data_PCOD9246749
_publ_section_title
;
Structure prediction by ZEFSAII (Michael W. Deem and Ramdas Pophale) SiO2 
 PCOD9246749
Probable space group: P 21/C
;
_chemical_formula_sum "Si O2"
_cell_formula_units_Z 22
_cell_length_a 5.076379
_cell_length_b 5.004846
_cell_length_c 30.494374
_cell_angle_alpha 90.000000
_cell_angle_beta 87.366822
_cell_angle_gamma 90.000000
_cell_volume 773.937127
_symmetry_space_group_name_H-M "P 21/C"
_symmetry_group_IT_number 14
_symmetry_cell_setting 'monoclinic'
loop_
_space_group_symop_operation_xyz
x,y,z
-x,1/2+y,1/2-z
-x,-y,-z
x,1/2-y,1/2+z
loop_
_atom_site_type_symbol
_atom_site_label
_atom_site_fract_x
_atom_site_fract_y
_atom_site_fract_z
Si Si1 0.309215 0.730417 0.568799
Si Si2 0.500000 0.500000 0.000000
Si Si3 0.628431 0.223164 0.246351
Si Si4 0.932681 0.265664 0.059304
Si Si5 0.872363 0.403123 0.153231
Si Si6 0.815911 0.094762 0.839376
O O1 0.370387 0.695418 0.619845
O O2 0.093014 0.508099 0.560462
O O3 0.557046 0.753883 0.535615
O O4 0.179489 0.020679 0.557556
O O5 0.268453 0.680996 0.977528
O O6 0.361774 0.403705 0.251125
O O7 0.727279 0.317142 0.198391
O O8 0.752524 0.336406 0.289947
O O9 0.776739 0.314792 0.106281
O O10 0.932328 0.715952 0.153125
O O11 0.136266 0.218714 0.155360
#
# Coordination Sequence:
#
# PCOD9246749 Si02
#       6
#     4   2   4   4   4   4
#     4  10  24  43  65  96 132 171 225 272 333 407
#     4  12  24  42  72  96 132 178 216 294 336 386
#     4  12  24  36  62  98 128 156 214 268 314 396
#     4  10  24  43  65  96 132 171 225 272 333 407
#     4  10  21  42  63  86 126 175 208 258 325 397
#     4  10  21  42  63  86 126 175 208 258 325 397
#
# _framework density 28.426082999999998
#
# number of rings (size 3 to 8) (size 9 to 14) (size 15 to 20)
#    0.000    1.455    0.000    4.364    2.545    2.909 
#    0.000    0.000    0.000    0.000    0.000    0.000 
#    0.000    0.000    0.000    0.000    0.000    0.000 
#
# Total GULP energy -122703.962056 kJ/mol
# GULP energy per Si atom -5577.452821 kJ/mol
# Density = 2.836138 g / cm^3
# Si number density = 28.426083 Si / 1000 Ang^3
#
#
#
# Elastic Constant Matrix: (Units=GPa)
#
#
# Indices 1 2 3 4 5 6 
#
# 1 41.1160 32.0166 12.2532 0.0000 22.3168 0.0000
# 2 32.0166 136.5832 17.6167 0.0000 -8.8792 0.0000
# 3 12.2532 17.6167 214.5423 0.0000 8.2217 0.0000
# 4 0.0000 0.0000 0.0000 39.1760 0.0000 -7.9582
# 5 22.3168 -8.8792 8.2217 0.0000 8.7568 0.0000
# 6 0.0000 0.0000 0.0000 -7.9582 0.0000 39.8603
#
#
#
# Elastic Compliance Matrix: (Units=1/GPa)
#
#
# Indices 1 2 3 4 5 6 
#
# 1 -0.024323 0.010905 -0.002392 0.000000 0.075291 0.000000
# 2 0.010905 0.003155 0.000063 0.000000 -0.024651 0.000000
# 3 -0.002392 0.000063 0.004727 0.000000 0.001721 0.000000
# 4 0.000000 0.000000 0.000000 0.026605 0.000000 0.005312
# 5 0.075291 -0.024651 0.001721 0.000000 -0.104294 0.000000
# 6 0.000000 0.000000 0.000000 0.005312 0.000000 0.026148
#
#
# Mechanical properties :
#
#
# Convention : Reuss Voigt Hill
#
# Bulk Modulus (GPa) = 1408.51828 57.33495 732.92662
# Shear Modulus (GPa) = -58.89354 39.58229 -9.65563
#
# Velocity S-wave (km/s) = -4.55666 3.73562 -1.84503
# Velocity P-wave (km/s) = 21.65395 6.23058 15.93289
#
# Compressibility (1/GPa) = 0.00070997
#
# Stress axis : x y z
#
# Youngs Moduli (GPa) = -41.11269 316.98888 211.57000
#
# Poissons Ratio (x) = -3.45669 0.50598
# Poissons Ratio (y) = 0.44832 -0.01329
# Poissons Ratio (z) = -0.09832 -0.01992
#
# Static dielectric constant tensor:
#      x y z
#    x 1.416810 0.000000 0.732980 
#    y 0.000000 2.180040 0.000000 
#    z 0.732980 0.000000 1.447160 
# 
# From -- ./inp_files/78535.got.cif
#   From: 2010.05.17/outbox.cif.g08.bks.cpg/sg14_40_cif.got.tgz:78535.got - 2010.06.03 17:49:19.
