data_PCOD9246312
_publ_section_title
;
Structure prediction by ZEFSAII (Michael W. Deem and Ramdas Pophale) SiO2 
 PCOD9246312
Probable space group: P 21/C
;
_chemical_formula_sum "Si O2"
_cell_formula_units_Z 16
_cell_length_a 11.449971
_cell_length_b 7.527233
_cell_length_c 12.180343
_cell_angle_alpha 90.000000
_cell_angle_beta 142.281450
_cell_angle_gamma 90.000000
_cell_volume 642.239174
_symmetry_space_group_name_H-M "P 21/C"
_symmetry_group_IT_number 14
_symmetry_cell_setting 'monoclinic'
loop_
_space_group_symop_operation_xyz
x,y,z
-x,1/2+y,1/2-z
-x,-y,-z
x,1/2-y,1/2+z
loop_
_atom_site_type_symbol
_atom_site_label
_atom_site_fract_x
_atom_site_fract_y
_atom_site_fract_z
Si Si1 0.939291 0.296063 0.971408
Si Si2 0.489470 0.912714 0.874082
Si Si3 0.464678 0.459589 0.124564
Si Si4 0.834728 0.994662 0.748185
O O1 0.713164 0.321849 0.802830
O O2 0.964650 0.157831 0.888697
O O3 0.000000 0.500000 0.000000
O O4 0.040240 0.183918 0.143214
O O5 0.613710 0.736601 0.963440
O O6 0.517938 0.036851 0.791424
O O7 0.500000 0.000000 0.000000
O O8 0.648514 0.525035 0.192076
O O9 0.273195 0.560817 0.942356
#
# Coordination Sequence:
#
# PCOD9246312 Si02
#       4
#     4   4   4   4
#     4  10  21  40  67  96 138 168 226 288 335 409
#     4  11  25  42  70 101 133 185 235 276 350 422
#     4  10  23  42  72  93 137 184 230 287 341 417
#     4   9  21  44  65  97 132 180 226 280 348 399
#
# _framework density 24.912838000000001
#
# number of rings (size 3 to 8) (size 9 to 14) (size 15 to 20)
#    0.000    2.000    0.000    1.500   14.000    0.000 
#    4.500    2.500    0.000    0.000    0.000    0.000 
#    0.000    0.000    0.000    0.000    0.000    0.000 
#
# Total GULP energy -89118.354545 kJ/mol
# GULP energy per Si atom -5569.897159 kJ/mol
# Density = 2.485614 g / cm^3
# Si number density = 24.912838 Si / 1000 Ang^3
#
#
#
# Elastic Constant Matrix: (Units=GPa)
#
#
# Indices 1 2 3 4 5 6 
#
# 1 55.0216 28.2093 46.2944 0.0000 -32.3620 0.0000
# 2 28.2093 136.6176 32.2308 0.0000 -7.5909 0.0000
# 3 46.2944 32.2308 157.4650 0.0000 -19.1130 0.0000
# 4 0.0000 0.0000 0.0000 34.6325 0.0000 3.3780
# 5 -32.3620 -7.5909 -19.1130 0.0000 53.4396 0.0000
# 6 0.0000 0.0000 0.0000 3.3780 0.0000 28.2535
#
#
#
# Elastic Compliance Matrix: (Units=1/GPa)
#
#
# Indices 1 2 3 4 5 6 
#
# 1 0.039614 -0.005132 -0.008125 0.000000 0.020355 0.000000
# 2 -0.005132 0.008372 -0.000458 0.000000 -0.002082 0.000000
# 3 -0.008125 -0.000458 0.008601 0.000000 -0.001909 0.000000
# 4 0.000000 0.000000 0.000000 0.029215 0.000000 -0.003493
# 5 0.020355 -0.002082 -0.001909 0.000000 0.030060 0.000000
# 6 0.000000 0.000000 0.000000 -0.003493 0.000000 0.035811
#
#
# Mechanical properties :
#
#
# Convention : Reuss Voigt Hill
#
# Bulk Modulus (GPa) = 34.29630 62.50812 48.40221
# Shear Modulus (GPa) = 26.47978 39.42310 32.95144
#
# Velocity S-wave (km/s) = 3.26375 3.98231 3.64080
# Velocity P-wave (km/s) = 5.29142 6.80369 6.09464
#
# Compressibility (1/GPa) = 0.02915766
#
# Stress axis : x y z
#
# Youngs Moduli (GPa) = 25.24339 119.45178 116.26012
#
# Poissons Ratio (x) = 0.61300 0.94467
# Poissons Ratio (y) = 0.12954 0.05319
# Poissons Ratio (z) = 0.20512 0.05465
#
# Static dielectric constant tensor:
#      x y z
#    x 2.107580 0.000000 0.078190 
#    y 0.000000 2.630430 0.000000 
#    z 0.078190 0.000000 2.507610 
# 
# From -- ./inp_files/27927.got.cif
#   From: 2010.05.17/outbox.cif.g08.bks.cpg/sg14_14_cif.got.tgz:27927.got - 2010.06.03 17:49:19.
