data_PCOD9246796
_publ_section_title
;
Structure prediction by ZEFSAII (Michael W. Deem and Ramdas Pophale) SiO2 
 PCOD9246796
Probable space group: P 21/C
;
_chemical_formula_sum "Si O2"
_cell_formula_units_Z 24
_cell_length_a 9.865679
_cell_length_b 6.123728
_cell_length_c 17.823196
_cell_angle_alpha 90.000000
_cell_angle_beta 99.910063
_cell_angle_gamma 90.000000
_cell_volume 1060.717093
_symmetry_space_group_name_H-M "P 21/C"
_symmetry_group_IT_number 14
_symmetry_cell_setting 'monoclinic'
loop_
_space_group_symop_operation_xyz
x,y,z
-x,1/2+y,1/2-z
-x,-y,-z
x,1/2-y,1/2+z
loop_
_atom_site_type_symbol
_atom_site_label
_atom_site_fract_x
_atom_site_fract_y
_atom_site_fract_z
Si Si1 0.033550 0.216387 0.178384
Si Si2 0.612875 0.161719 0.101886
Si Si3 0.668099 0.677755 0.483189
Si Si4 0.142861 0.933277 0.453118
Si Si5 0.217183 0.563169 0.242051
Si Si6 0.837835 0.158078 0.903290
O O1 0.175099 0.310033 0.225701
O O2 0.975067 0.410562 0.120262
O O3 0.918479 0.160564 0.228588
O O4 0.058179 0.004027 0.129688
O O5 0.466068 0.271212 0.071330
O O6 0.730999 0.307887 0.075594
O O7 0.656483 0.109952 0.190732
O O8 0.619057 0.935806 0.055526
O O9 0.727031 0.495476 0.433114
O O10 0.789808 0.842585 0.514255
O O11 0.099495 0.797395 0.522539
O O12 0.231082 0.685781 0.164725
#
# Coordination Sequence:
#
# PCOD9246796 Si02
#       6
#     4   4   4   4   4   4
#     4  11  23  39  63  89 125 164 207 256 315 374
#     4   9  22  41  65  93 121 163 211 255 308 372
#     4  10  21  42  65  91 123 163 211 258 304 371
#     4  10  22  39  67  92 122 163 207 258 310 371
#     4  11  23  39  61  89 124 166 204 256 315 370
#     4  11  23  40  57  95 126 160 211 255 311 370
#
# _framework density 22.626201999999999
#
# number of rings (size 3 to 8) (size 9 to 14) (size 15 to 20)
#    0.000    1.667    1.667    2.000    2.333    4.000 
#    6.000    0.000    0.000    0.000    0.000    0.000 
#    0.000    0.000    0.000    0.000    0.000    0.000 
#
# Total GULP energy -134209.992340 kJ/mol
# GULP energy per Si atom -5592.083014 kJ/mol
# Density = 2.257470 g / cm^3
# Si number density = 22.626202 Si / 1000 Ang^3
#
#
#
# Elastic Constant Matrix: (Units=GPa)
#
#
# Indices 1 2 3 4 5 6 
#
# 1 38.9803 -0.5582 14.2378 0.0000 14.3838 0.0000
# 2 -0.5582 49.7499 21.4097 0.0000 -0.7417 0.0000
# 3 14.2378 21.4097 130.8211 0.0000 5.7398 0.0000
# 4 0.0000 0.0000 0.0000 35.2634 0.0000 -5.0995
# 5 14.3838 -0.7417 5.7398 0.0000 27.0519 0.0000
# 6 0.0000 0.0000 0.0000 -5.0995 0.0000 20.1369
#
#
#
# Elastic Compliance Matrix: (Units=1/GPa)
#
#
# Indices 1 2 3 4 5 6 
#
# 1 0.033027 0.001450 -0.003092 0.000000 -0.016865 0.000000
# 2 0.001450 0.021737 -0.003742 0.000000 0.000619 0.000000
# 3 -0.003092 -0.003742 0.008605 0.000000 -0.000285 0.000000
# 4 0.000000 0.000000 0.000000 0.029436 0.000000 0.007454
# 5 -0.016865 0.000619 -0.000285 0.000000 0.046011 0.000000
# 6 0.000000 0.000000 0.000000 0.007454 0.000000 0.051548
#
#
# Mechanical properties :
#
#
# Convention : Reuss Voigt Hill
#
# Bulk Modulus (GPa) = 19.01126 32.19220 25.60173
# Shear Modulus (GPa) = 22.86593 28.78791 25.82692
#
# Velocity S-wave (km/s) = 3.18243 3.57084 3.38222
# Velocity P-wave (km/s) = 4.68235 5.59106 5.15676
#
# Compressibility (1/GPa) = 0.05260042
#
# Stress axis : x y z
#
# Youngs Moduli (GPa) = 30.27805 46.00554 116.20555
#
# Poissons Ratio (x) = -0.06669 0.35928
# Poissons Ratio (y) = -0.04389 0.43487
# Poissons Ratio (z) = 0.09361 0.17216
#
# Static dielectric constant tensor:
#      x y z
#    x 1.854000 0.000000 0.005390 
#    y 0.000000 1.875840 0.000000 
#    z 0.005390 0.000000 1.821900 
# 
# From -- ./inp_files/56615.got.cif
#   From: 2010.05.17/outbox.cif.g08.bks.cpg/sg14_29_cif.got.tgz:56615.got - 2010.06.03 17:49:19.
