data_PCOD9246566
_publ_section_title
;
Structure prediction by ZEFSAII (Michael W. Deem and Ramdas Pophale) SiO2 
 PCOD9246566
Probable space group: P 21/C
;
_chemical_formula_sum "Si O2"
_cell_formula_units_Z 26
_cell_length_a 14.601871
_cell_length_b 8.193733
_cell_length_c 13.753171
_cell_angle_alpha 90.000000
_cell_angle_beta 46.705132
_cell_angle_gamma 90.000000
_cell_volume 1197.638110
_symmetry_space_group_name_H-M "P 21/C"
_symmetry_group_IT_number 14
_symmetry_cell_setting 'monoclinic'
loop_
_space_group_symop_operation_xyz
x,y,z
-x,1/2+y,1/2-z
-x,-y,-z
x,1/2-y,1/2+z
loop_
_atom_site_type_symbol
_atom_site_label
_atom_site_fract_x
_atom_site_fract_y
_atom_site_fract_z
Si Si1 0.871471 0.561370 0.893458
Si Si2 0.549293 0.272377 0.342196
Si Si3 0.351998 0.213733 0.139635
Si Si4 0.750084 0.074446 0.301198
Si Si5 0.000000 0.000000 0.000000
Si Si6 0.386094 0.417153 0.817669
Si Si7 0.069175 0.186491 0.318685
O O1 0.813238 0.427102 0.861214
O O2 0.921492 0.710040 0.790015
O O3 0.980300 0.469373 0.872006
O O4 0.754345 0.621167 0.042469
O O5 0.437683 0.346479 0.489052
O O6 0.656516 0.214776 0.337609
O O7 0.603242 0.398153 0.225336
O O8 0.486027 0.126399 0.327489
O O9 0.328855 0.406070 0.142466
O O10 0.410321 0.184207 0.202123
O O11 0.212587 0.137136 0.237933
O O12 0.863319 0.057615 0.142793
O O13 0.021381 0.181618 0.931381
#
# Coordination Sequence:
#
# PCOD9246566 Si02
#       7
#     4   4   4   4   2   4   4
#     4  10  23  41  65  98 125 174 220 265 328 393
#     4  12  24  43  65  98 132 176 215 274 319 397
#     4  10  23  43  63  93 134 172 213 277 318 385
#     4  10  21  41  66  88 137 169 214 272 323 377
#     4   8  18  38  56  94 120 170 208 256 320 374
#     4  12  25  41  66  98 127 175 226 258 334 389
#     4  10  21  42  66  92 136 166 215 277 324 382
#
# _framework density 21.709396000000002
#
# number of rings (size 3 to 8) (size 9 to 14) (size 15 to 20)
#    0.000    1.846    3.077    2.769    2.154    6.769 
#    8.308    0.000    0.000    0.000    0.000    0.000 
#    0.000    0.000    0.000    0.000    0.000    0.000 
#
# Total GULP energy -144751.724364 kJ/mol
# GULP energy per Si atom -5567.374014 kJ/mol
# Density = 2.165998 g / cm^3
# Si number density = 21.709396 Si / 1000 Ang^3
#
#
#
# Elastic Constant Matrix: (Units=GPa)
#
#
# Indices 1 2 3 4 5 6 
#
# 1 63.3743 -5.0680 -3.5804 0.0000 0.0898 0.0000
# 2 -5.0680 16.8793 -0.6617 0.0000 -1.3446 0.0000
# 3 -3.5804 -0.6617 53.4810 0.0000 5.0280 0.0000
# 4 0.0000 0.0000 0.0000 2.7511 0.0000 2.5392
# 5 0.0898 -1.3446 5.0280 0.0000 10.1254 0.0000
# 6 0.0000 0.0000 0.0000 2.5392 0.0000 41.3540
#
#
#
# Elastic Compliance Matrix: (Units=1/GPa)
#
#
# Indices 1 2 3 4 5 6 
#
# 1 0.016238 0.004915 0.001154 0.000000 -0.000064 0.000000
# 2 0.004915 0.061366 0.000342 0.000000 0.007936 0.000000
# 3 0.001154 0.000342 0.019696 0.000000 -0.009745 0.000000
# 4 0.000000 0.000000 0.000000 0.385322 0.000000 -0.023659
# 5 -0.000064 0.007936 -0.009745 0.000000 0.104655 0.000000
# 6 0.000000 0.000000 0.000000 -0.023659 0.000000 0.025634
#
#
# Mechanical properties :
#
#
# Convention : Reuss Voigt Hill
#
# Bulk Modulus (GPa) = 9.08078 12.79047 10.93562
# Shear Modulus (GPa) = 7.85183 20.38242 14.11713
#
# Velocity S-wave (km/s) = 1.90385 3.06743 2.55282
# Velocity P-wave (km/s) = 3.00413 4.29534 3.70640
#
# Compressibility (1/GPa) = 0.11012273
#
# Stress axis : x y z
#
# Youngs Moduli (GPa) = 61.58531 16.29575 50.77201
#
# Poissons Ratio (x) = -0.08010 -0.05859
# Poissons Ratio (y) = -0.30272 -0.01738
# Poissons Ratio (z) = -0.07107 -0.00558
#
# Static dielectric constant tensor:
#      x y z
#    x 1.802500 0.000000 0.011040 
#    y 0.000000 1.804440 0.000000 
#    z 0.011040 0.000000 1.773430 
# 
# From -- ./inp_files/46419.got.cif
#   From: 2010.05.17/outbox.cif.g08.bks.cpg/sg14_24_cif.got.tgz:46419.got - 2010.06.03 17:49:19.
