data_PCOD9246496
_publ_section_title
;
Structure prediction by ZEFSAII (Michael W. Deem and Ramdas Pophale) SiO2 
 PCOD9246496
Probable space group: P 21/C
;
_chemical_formula_sum "Si O2"
_cell_formula_units_Z 16
_cell_length_a 6.695616
_cell_length_b 20.325208
_cell_length_c 5.680163
_cell_angle_alpha 90.000000
_cell_angle_beta 106.328208
_cell_angle_gamma 90.000000
_cell_volume 741.834275
_symmetry_space_group_name_H-M "P 21/C"
_symmetry_group_IT_number 14
_symmetry_cell_setting 'monoclinic'
loop_
_space_group_symop_operation_xyz
x,y,z
-x,1/2+y,1/2-z
-x,-y,-z
x,1/2-y,1/2+z
loop_
_atom_site_type_symbol
_atom_site_label
_atom_site_fract_x
_atom_site_fract_y
_atom_site_fract_z
Si Si1 0.128861 0.238374 0.817750
Si Si2 0.830521 0.535704 0.101034
Si Si3 0.088564 0.856877 0.955970
Si Si4 0.547790 0.443932 0.323079
O O1 0.241944 0.244485 0.603092
O O2 0.953186 0.295145 0.728937
O O3 0.008205 0.170543 0.831673
O O4 0.703616 0.479403 0.193598
O O5 0.944592 0.583935 0.317931
O O6 0.663160 0.572796 0.882535
O O7 0.000000 0.500000 0.000000
O O8 0.323335 0.882347 0.037968
O O9 0.500000 0.500000 0.500000
#
# Coordination Sequence:
#
# PCOD9246496 Si02
#       4
#     4   4   4   4
#     4   8  20  36  66  90 122 183 213 273 325 384
#     4  11  24  38  66  98 131 171 214 278 333 399
#     4  10  21  41  64  91 135 169 225 270 333 396
#     4  11  24  39  63 102 127 174 215 269 344 398
#
# _framework density 21.568161
#
# number of rings (size 3 to 8) (size 9 to 14) (size 15 to 20)
#    1.500    0.500    2.500    0.750    3.500    0.000 
#    0.000    2.500    0.000    0.000    0.000    0.000 
#    0.000    0.000    0.000    0.000    0.000    0.000 
#
# Total GULP energy -89182.996379 kJ/mol
# GULP energy per Si atom -5573.937274 kJ/mol
# Density = 2.151907 g / cm^3
# Si number density = 21.568161 Si / 1000 Ang^3
#
#
#
# Elastic Constant Matrix: (Units=GPa)
#
#
# Indices 1 2 3 4 5 6 
#
# 1 84.7869 18.2352 29.2523 0.0000 1.5035 0.0000
# 2 18.2352 68.8220 4.2264 0.0000 10.3138 0.0000
# 3 29.2523 4.2264 105.9498 0.0000 -0.7862 0.0000
# 4 0.0000 0.0000 0.0000 50.9714 0.0000 0.6888
# 5 1.5035 10.3138 -0.7862 0.0000 40.5063 0.0000
# 6 0.0000 0.0000 0.0000 0.6888 0.0000 3.9989
#
#
#
# Elastic Compliance Matrix: (Units=1/GPa)
#
#
# Indices 1 2 3 4 5 6 
#
# 1 0.013803 -0.003477 -0.003670 0.000000 0.000302 0.000000
# 2 -0.003477 0.016025 0.000291 0.000000 -0.003946 0.000000
# 3 -0.003670 0.000291 0.010442 0.000000 0.000265 0.000000
# 4 0.000000 0.000000 0.000000 0.019665 0.000000 -0.003387
# 5 0.000302 -0.003946 0.000265 0.000000 0.025686 0.000000
# 6 0.000000 0.000000 0.000000 -0.003387 0.000000 0.250655
#
#
# Mechanical properties :
#
#
# Convention : Reuss Voigt Hill
#
# Bulk Modulus (GPa) = 37.65245 40.33184 38.99215
# Shear Modulus (GPa) = 13.93379 32.95164 23.44271
#
# Velocity S-wave (km/s) = 2.54448 3.91294 3.30041
# Velocity P-wave (km/s) = 5.11154 6.25740 5.71327
#
# Compressibility (1/GPa) = 0.02655869
#
# Stress axis : x y z
#
# Youngs Moduli (GPa) = 72.44838 62.40282 95.76679
#
# Poissons Ratio (x) = 0.21698 0.35146
# Poissons Ratio (y) = 0.25191 -0.02791
# Poissons Ratio (z) = 0.26588 -0.01819
#
# Static dielectric constant tensor:
#      x y z
#    x 1.687810 0.000000 0.012730 
#    y 0.000000 1.815210 0.000000 
#    z 0.012730 0.000000 1.852770 
# 
# From -- ./inp_files/293.got.cif
#   From: 2010.05.17/outbox.cif.g08.bks.cpg/sg14_1_cif.got.tgz:293.got - 2010.06.03 17:49:19.
