data_PCOD9246203
_publ_section_title
;
Structure prediction by ZEFSAII (Michael W. Deem and Ramdas Pophale) SiO2 
 PCOD9246203
Probable space group: P 21/C
;
_chemical_formula_sum "Si O2"
_cell_formula_units_Z 24
_cell_length_a 10.379921
_cell_length_b 9.766245
_cell_length_c 9.807381
_cell_angle_alpha 90.000000
_cell_angle_beta 82.726238
_cell_angle_gamma 90.000000
_cell_volume 986.201363
_symmetry_space_group_name_H-M "P 21/C"
_symmetry_group_IT_number 14
_symmetry_cell_setting 'monoclinic'
loop_
_space_group_symop_operation_xyz
x,y,z
-x,1/2+y,1/2-z
-x,-y,-z
x,1/2-y,1/2+z
loop_
_atom_site_type_symbol
_atom_site_label
_atom_site_fract_x
_atom_site_fract_y
_atom_site_fract_z
Si Si1 0.358178 0.624802 0.259324
Si Si2 0.283059 0.259411 0.558336
Si Si3 0.859523 0.181301 0.020497
Si Si4 0.069901 0.463603 0.689454
Si Si5 0.146668 0.523430 0.067365
Si Si6 0.547393 0.850841 0.218905
O O1 0.281088 0.634637 0.410322
O O2 0.255210 0.568617 0.164800
O O3 0.417824 0.767767 0.208041
O O4 0.470423 0.512193 0.259542
O O5 0.195136 0.368105 0.652734
O O6 0.349903 0.322941 0.415834
O O7 0.392104 0.205543 0.648117
O O8 0.193953 0.129300 0.524924
O O9 0.855359 0.344153 0.028074
O O10 0.896310 0.115180 0.870504
O O11 0.965126 0.111291 0.104789
O O12 0.993387 0.474257 0.840646
#
# Coordination Sequence:
#
# PCOD9246203 Si02
#       6
#     4   4   4   4   4   4
#     4  10  24  43  62  93 128 171 213 267 324 373
#     4  11  25  44  65  96 132 169 212 266 326 376
#     4  10  21  40  65  89 128 166 215 262 321 379
#     4  10  21  41  64  91 130 169 209 264 324 378
#     4  10  23  39  66  94 127 166 215 269 317 384
#     4  11  26  44  67  92 132 172 212 269 316 387
#
# _framework density 24.335802000000001
#
# number of rings (size 3 to 8) (size 9 to 14) (size 15 to 20)
#    0.000    1.667    1.667    1.000    9.333    4.000 
#    3.000    0.000    0.000    0.000    0.000    0.000 
#    0.000    0.000    0.000    0.000    0.000    0.000 
#
# Total GULP energy -134295.236467 kJ/mol
# GULP energy per Si atom -5595.634853 kJ/mol
# Density = 2.428041 g / cm^3
# Si number density = 24.335802 Si / 1000 Ang^3
#
#
#
# Elastic Constant Matrix: (Units=GPa)
#
#
# Indices 1 2 3 4 5 6 
#
# 1 37.7574 21.5764 -5.1841 0.0000 -11.4054 0.0000
# 2 21.5764 88.7956 9.1177 0.0000 6.1224 0.0000
# 3 -5.1841 9.1177 37.5657 0.0000 2.3863 0.0000
# 4 0.0000 0.0000 0.0000 25.7291 0.0000 -1.8001
# 5 -11.4054 6.1224 2.3863 0.0000 22.2007 0.0000
# 6 0.0000 0.0000 0.0000 -1.8001 0.0000 42.6545
#
#
#
# Elastic Compliance Matrix: (Units=1/GPa)
#
#
# Indices 1 2 3 4 5 6 
#
# 1 0.042064 -0.012650 0.007331 0.000000 0.024310 0.000000
# 2 -0.012650 0.015543 -0.004866 0.000000 -0.010262 0.000000
# 3 0.007331 -0.004866 0.028684 0.000000 0.002025 0.000000
# 4 0.000000 0.000000 0.000000 0.038982 0.000000 0.001645
# 5 0.024310 -0.010262 0.002025 0.000000 0.060145 0.000000
# 6 0.000000 0.000000 0.000000 0.001645 0.000000 0.023514
#
#
# Mechanical properties :
#
#
# Convention : Reuss Voigt Hill
#
# Bulk Modulus (GPa) = 15.16994 23.90431 19.53712
# Shear Modulus (GPa) = 19.89852 27.35744 23.62798
#
# Velocity S-wave (km/s) = 2.86259 3.35649 3.11933
# Velocity P-wave (km/s) = 4.14403 4.98652 4.58467
#
# Compressibility (1/GPa) = 0.06591985
#
# Stress axis : x y z
#
# Youngs Moduli (GPa) = 23.77353 64.33822 34.86247
#
# Poissons Ratio (x) = 0.81387 -0.25557
# Poissons Ratio (y) = 0.30073 0.16965
# Poissons Ratio (z) = -0.17428 0.31309
#
# Static dielectric constant tensor:
#      x y z
#    x 1.942040 0.000000 0.046040 
#    y 0.000000 1.904230 0.000000 
#    z 0.046040 0.000000 1.927790 
# 
# From -- ./inp_files/28009.got.cif
#   From: 2010.05.17/outbox.cif.g08.bks.cpg/sg14_15_cif.got.tgz:28009.got - 2010.06.03 17:49:19.
