data_PCOD9246675
_publ_section_title
;
Structure prediction by ZEFSAII (Michael W. Deem and Ramdas Pophale) SiO2 
 PCOD9246675
Probable space group: P 21/C
;
_chemical_formula_sum "Si O2"
_cell_formula_units_Z 28
_cell_length_a 14.282995
_cell_length_b 6.623944
_cell_length_c 14.527385
_cell_angle_alpha 90.000000
_cell_angle_beta 53.869573
_cell_angle_gamma 90.000000
_cell_volume 1110.097263
_symmetry_space_group_name_H-M "P 21/C"
_symmetry_group_IT_number 14
_symmetry_cell_setting 'monoclinic'
loop_
_space_group_symop_operation_xyz
x,y,z
-x,1/2+y,1/2-z
-x,-y,-z
x,1/2-y,1/2+z
loop_
_atom_site_type_symbol
_atom_site_label
_atom_site_fract_x
_atom_site_fract_y
_atom_site_fract_z
Si Si1 0.861453 0.360957 0.114271
Si Si2 0.548188 0.644004 0.120384
Si Si3 0.932677 0.888433 0.395710
Si Si4 0.746137 0.150893 0.441837
Si Si5 0.368427 0.198475 0.738036
Si Si6 0.634326 0.096410 0.843900
Si Si7 0.831323 0.001832 0.026698
O O1 0.724701 0.349434 0.209650
O O2 0.906706 0.148990 0.047962
O O3 0.929429 0.405996 0.169566
O O4 0.888178 0.523125 0.020343
O O5 0.561741 0.689503 0.220541
O O6 0.446385 0.485316 0.161171
O O7 0.498130 0.844777 0.101489
O O8 0.663993 0.533886 0.020827
O O9 0.891101 0.657605 0.423751
O O10 0.870076 0.034629 0.358881
O O11 0.683439 0.268293 0.396764
O O12 0.765109 0.329269 0.504636
O O13 0.350296 0.355184 0.666000
O O14 0.254724 0.115846 0.854674
#
# Coordination Sequence:
#
# PCOD9246675 Si02
#       7
#     4   4   4   4   4   4   4
#     4  10  21  41  69  98 120 168 234 265 322 389
#     4  12  23  41  65  93 131 175 218 273 325 395
#     4  10  21  42  70  92 129 170 216 284 321 389
#     4  11  26  41  61  99 140 171 213 268 350 394
#     4  12  22  39  69  93 125 173 230 270 315 391
#     4  12  25  42  63  98 132 171 218 273 333 400
#     4  11  20  42  67  95 127 171 222 272 322 390
#
# _framework density 25.223015
#
# number of rings (size 3 to 8) (size 9 to 14) (size 15 to 20)
#    0.000    0.857    5.714    2.571    0.000    1.714 
#    2.571    0.000    0.000    0.000    0.000    0.000 
#    0.000    0.000    0.000    0.000    0.000    0.000 
#
# Total GULP energy -156523.338364 kJ/mol
# GULP energy per Si atom -5590.119227 kJ/mol
# Density = 2.516561 g / cm^3
# Si number density = 25.223015 Si / 1000 Ang^3
#
#
#
# Elastic Constant Matrix: (Units=GPa)
#
#
# Indices 1 2 3 4 5 6 
#
# 1 95.2525 27.6921 4.1132 0.0000 4.3379 0.0000
# 2 27.6921 114.8468 6.4493 0.0000 -4.8130 0.0000
# 3 4.1132 6.4493 34.2513 0.0000 -1.6261 0.0000
# 4 0.0000 0.0000 0.0000 24.7059 0.0000 -2.6571
# 5 4.3379 -4.8130 -1.6261 0.0000 26.6193 0.0000
# 6 0.0000 0.0000 0.0000 -2.6571 0.0000 42.9032
#
#
#
# Elastic Compliance Matrix: (Units=1/GPa)
#
#
# Indices 1 2 3 4 5 6 
#
# 1 0.011469 -0.002813 -0.000963 0.000000 -0.002437 0.000000
# 2 -0.002813 0.009550 -0.001361 0.000000 0.002102 0.000000
# 3 -0.000963 -0.001361 0.029650 0.000000 0.001722 0.000000
# 4 0.000000 0.000000 0.000000 0.040748 0.000000 0.002524
# 5 -0.002437 0.002102 0.001722 0.000000 0.038449 0.000000
# 6 0.000000 0.000000 0.000000 0.002524 0.000000 0.023465
#
#
# Mechanical properties :
#
#
# Convention : Reuss Voigt Hill
#
# Bulk Modulus (GPa) = 24.75602 35.65108 30.20355
# Shear Modulus (GPa) = 28.23759 32.58542 30.41150
#
# Velocity S-wave (km/s) = 3.34955 3.59819 3.47609
# Velocity P-wave (km/s) = 4.97950 5.60604 5.30203
#
# Compressibility (1/GPa) = 0.04039422
#
# Stress axis : x y z
#
# Youngs Moduli (GPa) = 87.19235 104.71070 33.72727
#
# Poissons Ratio (x) = 0.29459 0.03249
# Poissons Ratio (y) = 0.24531 0.04589
# Poissons Ratio (z) = 0.08399 0.14246
#
# Static dielectric constant tensor:
#      x y z
#    x 2.050590 0.000000 0.016800 
#    y 0.000000 2.051020 0.000000 
#    z 0.016800 0.000000 1.985260 
# 
# From -- ./inp_files/58534.got.cif
#   From: 2010.05.17/outbox.cif.g08.bks.cpg/sg14_30_cif.got.tgz:58534.got - 2010.06.03 17:49:19.
