data_PCOD9246447
_publ_section_title
;
Structure prediction by ZEFSAII (Michael W. Deem and Ramdas Pophale) SiO2 
 PCOD9246447
Probable space group: P 21/C
;
_chemical_formula_sum "Si O2"
_cell_formula_units_Z 18
_cell_length_a 9.176556
_cell_length_b 6.894609
_cell_length_c 22.379199
_cell_angle_alpha 90.000000
_cell_angle_beta 151.830043
_cell_angle_gamma 90.000000
_cell_volume 668.432261
_symmetry_space_group_name_H-M "P 21/C"
_symmetry_group_IT_number 14
_symmetry_cell_setting 'monoclinic'
loop_
_space_group_symop_operation_xyz
x,y,z
-x,1/2+y,1/2-z
-x,-y,-z
x,1/2-y,1/2+z
loop_
_atom_site_type_symbol
_atom_site_label
_atom_site_fract_x
_atom_site_fract_y
_atom_site_fract_z
Si Si1 0.500000 0.500000 0.000000
Si Si2 0.239717 0.564586 0.778243
Si Si3 0.838294 0.066285 0.328538
Si Si4 0.315421 0.762542 0.113750
Si Si5 0.242576 0.703153 0.455267
O O1 0.328407 0.595908 0.878153
O O2 0.577700 0.731455 0.056624
O O3 0.244241 0.769693 0.747430
O O4 0.494480 0.422762 0.840147
O O5 0.938790 0.440532 0.651542
O O6 0.902667 0.175849 0.414007
O O7 0.554572 0.914968 0.229131
O O8 0.124642 0.935413 0.408992
O O9 0.187740 0.848166 0.005191
#
# Coordination Sequence:
#
# PCOD9246447 Si02
#       5
#     2   4   4   4   4
#     4  10  24  46  64  90 134 168 220 268 304 382
#     4  10  23  42  64  96 127 169 215 259 326 387
#     4  11  21  40  67  94 129 171 208 267 333 383
#     4  10  21  41  62  96 132 159 211 267 326 390
#     4  10  24  41  64  96 127 170 221 266 319 386
#
# _framework density 26.928684000000001
#
# number of rings (size 3 to 8) (size 9 to 14) (size 15 to 20)
#    0.000    1.778    2.222    0.667    3.111    4.444 
#    0.000    4.444    0.000    0.000    0.000    0.000 
#    0.000    0.000    0.000    0.000    0.000    0.000 
#
# Total GULP energy -100456.818240 kJ/mol
# GULP energy per Si atom -5580.934347 kJ/mol
# Density = 2.686739 g / cm^3
# Si number density = 26.928684 Si / 1000 Ang^3
#
#
#
# Elastic Constant Matrix: (Units=GPa)
#
#
# Indices 1 2 3 4 5 6 
#
# 1 119.1850 47.6479 39.6507 0.0000 -36.2803 0.0000
# 2 47.6479 139.4130 57.4924 0.0000 -1.6203 0.0000
# 3 39.6507 57.4924 85.9411 0.0000 -46.2737 0.0000
# 4 0.0000 0.0000 0.0000 -26.0525 0.0000 13.4413
# 5 -36.2803 -1.6203 -46.2737 0.0000 57.1329 0.0000
# 6 0.0000 0.0000 0.0000 13.4413 0.0000 43.4471
#
#
#
# Elastic Compliance Matrix: (Units=1/GPa)
#
#
# Indices 1 2 3 4 5 6 
#
# 1 0.012864 -0.006016 0.004249 0.000000 0.011439 0.000000
# 2 -0.006016 0.016283 -0.017602 0.000000 -0.017614 0.000000
# 3 0.004249 -0.017602 0.040139 0.000000 0.034708 0.000000
# 4 0.000000 0.000000 0.000000 -0.033101 0.000000 0.010240
# 5 0.011439 -0.017614 0.034708 0.000000 0.052379 0.000000
# 6 0.000000 0.000000 0.000000 0.010240 0.000000 0.019848
#
#
# Mechanical properties :
#
#
# Convention : Reuss Voigt Hill
#
# Bulk Modulus (GPa) = 32.73478 70.45790 51.59634
# Shear Modulus (GPa) = 31.77977 28.22203 30.00090
#
# Velocity S-wave (km/s) = 3.43905 3.24084 3.34142
# Velocity P-wave (km/s) = 5.28696 6.34236 5.83855
#
# Compressibility (1/GPa) = 0.03054855
#
# Stress axis : x y z
#
# Youngs Moduli (GPa) = 77.73617 61.41398 24.91350
#
# Poissons Ratio (x) = 0.36945 -0.10585
# Poissons Ratio (y) = 0.46764 0.43852
# Poissons Ratio (z) = -0.33027 1.08098
#
# Static dielectric constant tensor:
#      x y z
#    x 2.555860 0.000000 0.121000 
#    y 0.000000 2.121660 0.000000 
#    z 0.121000 0.000000 2.144150 
# 
# From -- ./inp_files/27301.got.cif
#   From: 2010.05.17/outbox.cif.g08.bks.cpg/sg14_14_cif.got.tgz:27301.got - 2010.06.03 17:49:19.
