data_PCOD9246418
_publ_section_title
;
Structure prediction by ZEFSAII (Michael W. Deem and Ramdas Pophale) SiO2 
 PCOD9246418
Probable space group: P 21/C
;
_chemical_formula_sum "Si O2"
_cell_formula_units_Z 32
_cell_length_a 9.524158
_cell_length_b 25.295003
_cell_length_c 8.887220
_cell_angle_alpha 90.000000
_cell_angle_beta 44.441789
_cell_angle_gamma 90.000000
_cell_volume 1499.131055
_symmetry_space_group_name_H-M "P 21/C"
_symmetry_group_IT_number 14
_symmetry_cell_setting 'monoclinic'
loop_
_space_group_symop_operation_xyz
x,y,z
-x,1/2+y,1/2-z
-x,-y,-z
x,1/2-y,1/2+z
loop_
_atom_site_type_symbol
_atom_site_label
_atom_site_fract_x
_atom_site_fract_y
_atom_site_fract_z
Si Si1 0.292127 0.232282 0.619233
Si Si2 0.334800 0.737286 0.498529
Si Si3 0.056740 0.906762 0.304927
Si Si4 0.691520 0.129621 0.158808
Si Si5 0.645867 0.947537 0.706096
Si Si6 0.471832 0.563331 0.652881
Si Si7 0.947490 0.709799 0.974811
Si Si8 0.456955 0.848962 0.412497
O O1 0.479519 0.267779 0.526201
O O2 0.244286 0.223565 0.483215
O O3 0.346938 0.176083 0.654461
O O4 0.100526 0.261326 0.834786
O O5 0.329518 0.689607 0.385153
O O6 0.358519 0.796376 0.416628
O O7 0.139685 0.734105 0.749465
O O8 0.868789 0.945324 0.468852
O O9 0.982917 0.852588 0.440876
O O10 0.258261 0.925781 0.233879
O O11 0.125260 0.893930 0.080809
O O12 0.495494 0.096242 0.261679
O O13 0.688162 0.130969 0.341976
O O14 0.545792 0.004995 0.764188
O O15 0.635329 0.936606 0.894071
O O16 0.503422 0.607275 0.754827
#
# Coordination Sequence:
#
# PCOD9246418 Si02
#       8
#     4   4   4   4   4   4   4   4
#     4  10  23  36  55  86 122 158 208 248 296 378
#     4   9  23  37  59  82 133 158 200 253 308 379
#     4  10  22  38  64  87 121 161 211 254 317 375
#     4  10  21  41  61  91 122 167 199 263 324 368
#     4  10  21  42  67  87 124 161 220 260 317 382
#     4  10  23  42  63  93 120 169 208 268 320 374
#     4  11  23  36  59  87 119 170 200 245 316 365
#     4  10  23  40  61  90 133 157 209 264 313 374
#
# _framework density 21.345700000000001
#
# number of rings (size 3 to 8) (size 9 to 14) (size 15 to 20)
#    0.750    1.250    0.000    2.625    5.250    6.500 
#    0.000    0.625    0.000    0.000    0.000    0.000 
#    0.000    0.000    0.000    0.000    0.000    0.000 
#
# Total GULP energy -178704.545260 kJ/mol
# GULP energy per Si atom -5584.517039 kJ/mol
# Density = 2.129712 g / cm^3
# Si number density = 21.345700 Si / 1000 Ang^3
#
#
#
# Elastic Constant Matrix: (Units=GPa)
#
#
# Indices 1 2 3 4 5 6 
#
# 1 40.0322 2.4702 10.6056 0.0000 -0.5994 0.0000
# 2 2.4702 57.8837 8.0973 0.0000 19.3811 0.0000
# 3 10.6056 8.0973 80.4818 0.0000 -3.7092 0.0000
# 4 0.0000 0.0000 0.0000 31.8098 0.0000 4.5147
# 5 -0.5994 19.3811 -3.7092 0.0000 25.2020 0.0000
# 6 0.0000 0.0000 0.0000 4.5147 0.0000 27.1904
#
#
#
# Elastic Compliance Matrix: (Units=1/GPa)
#
#
# Indices 1 2 3 4 5 6 
#
# 1 0.025920 -0.000931 -0.003283 0.000000 0.000850 0.000000
# 2 -0.000931 0.024142 -0.003184 0.000000 -0.019057 0.000000
# 3 -0.003283 -0.003184 0.013378 0.000000 0.004340 0.000000
# 4 0.000000 0.000000 0.000000 0.032196 0.000000 -0.005346
# 5 0.000850 -0.019057 0.004340 0.000000 0.054994 0.000000
# 6 0.000000 0.000000 0.000000 -0.005346 0.000000 0.037665
#
#
# Mechanical properties :
#
#
# Convention : Reuss Voigt Hill
#
# Bulk Modulus (GPa) = 20.55808 24.52710 22.54259
# Shear Modulus (GPa) = 22.79922 27.32208 25.06065
#
# Velocity S-wave (km/s) = 3.27172 3.58156 3.43014
# Velocity P-wave (km/s) = 4.89123 5.34966 5.12557
#
# Compressibility (1/GPa) = 0.04864268
#
# Stress axis : x y z
#
# Youngs Moduli (GPa) = 38.58054 41.42169 74.74871
#
# Poissons Ratio (x) = 0.03858 0.24538
# Poissons Ratio (y) = 0.03593 0.23803
# Poissons Ratio (z) = 0.12665 0.13191
#
# Static dielectric constant tensor:
#      x y z
#    x 1.801080 0.000000 -0.022200 
#    y 0.000000 1.760350 0.000000 
#    z -0.022200 0.000000 1.817520 
# 
# From -- ./inp_files/11037.got.cif
#   From: 2010.05.17/outbox.cif.g08.bks.cpg/sg14_6_cif.got.tgz:11037.got - 2010.06.03 17:49:19.
