data_PCOD9246489
_publ_section_title
;
Structure prediction by ZEFSAII (Michael W. Deem and Ramdas Pophale) SiO2 
 PCOD9246489
Probable space group: P 21/C
;
_chemical_formula_sum "Si O2"
_cell_formula_units_Z 32
_cell_length_a 18.997913
_cell_length_b 11.142591
_cell_length_c 15.709470
_cell_angle_alpha 90.000000
_cell_angle_beta 29.061850
_cell_angle_gamma 90.000000
_cell_volume 1615.360785
_symmetry_space_group_name_H-M "P 21/C"
_symmetry_group_IT_number 14
_symmetry_cell_setting 'monoclinic'
loop_
_space_group_symop_operation_xyz
x,y,z
-x,1/2+y,1/2-z
-x,-y,-z
x,1/2-y,1/2+z
loop_
_atom_site_type_symbol
_atom_site_label
_atom_site_fract_x
_atom_site_fract_y
_atom_site_fract_z
Si Si1 0.273776 0.998618 0.689547
Si Si2 0.148251 0.821923 0.683273
Si Si3 0.849658 0.449721 0.264394
Si Si4 0.634278 0.111551 0.691361
Si Si5 0.641719 0.540781 0.627224
Si Si6 0.811951 0.556882 0.120524
Si Si7 0.550406 0.148076 0.359338
Si Si8 0.823357 0.670228 0.568749
O O1 0.386820 0.099749 0.538654
O O2 0.171594 0.067750 0.864241
O O3 0.198400 0.928540 0.693024
O O4 0.366571 0.901785 0.645590
O O5 0.179261 0.692127 0.692551
O O6 0.235071 0.835995 0.504036
O O7 0.974933 0.828458 0.858508
O O8 0.765480 0.518811 0.427168
O O9 0.797625 0.497382 0.228108
O O10 0.023024 0.469007 0.084608
O O11 0.505496 0.076084 0.763971
O O12 0.573438 0.212368 0.819582
O O13 0.697766 0.000613 0.676816
O O14 0.617216 0.420488 0.707447
O O15 0.694391 0.637737 0.640639
O O16 0.798972 0.700325 0.136084
#
# Coordination Sequence:
#
# PCOD9246489 Si02
#       8
#     4   4   4   4   4   4   4   4
#     4  10  21  41  64  90 125 159 207 256 311 372
#     4  11  21  40  68  93 121 166 207 259 311 383
#     4  10  22  44  65  89 129 162 211 259 320 369
#     4  12  24  39  65  91 127 163 213 248 320 367
#     4  11  23  40  62  89 126 161 201 260 309 370
#     4  10  24  43  62  93 124 167 210 263 307 381
#     4  10  22  40  59  92 122 160 200 259 306 366
#     4  10  24  41  63  93 127 160 211 259 315 366
#
# _framework density 19.809816000000001
#
# number of rings (size 3 to 8) (size 9 to 14) (size 15 to 20)
#    0.000    1.500    2.500    1.875    3.500    0.500 
#    0.000    0.000    0.000    0.000    0.000    0.000 
#    0.000    0.000    0.000    0.000    0.000    0.000 
#
# Total GULP energy -178811.529234 kJ/mol
# GULP energy per Si atom -5587.860289 kJ/mol
# Density = 1.976473 g / cm^3
# Si number density = 19.809816 Si / 1000 Ang^3
#
#
#
# Elastic Constant Matrix: (Units=GPa)
#
#
# Indices 1 2 3 4 5 6 
#
# 1 58.2734 15.1177 4.0886 0.0000 -12.3479 0.0000
# 2 15.1177 61.7353 0.3485 0.0000 -11.0007 0.0000
# 3 4.0886 0.3485 35.2889 0.0000 15.2906 0.0000
# 4 0.0000 0.0000 0.0000 23.3329 0.0000 0.7921
# 5 -12.3479 -11.0007 15.2906 0.0000 25.0351 0.0000
# 6 0.0000 0.0000 0.0000 0.7921 0.0000 22.4572
#
#
#
# Elastic Compliance Matrix: (Units=1/GPa)
#
#
# Indices 1 2 3 4 5 6 
#
# 1 0.021647 -0.002569 -0.009002 0.000000 0.015046 0.000000
# 2 -0.002569 0.018494 -0.003886 0.000000 0.009233 0.000000
# 3 -0.009002 -0.003886 0.043629 0.000000 -0.032794 0.000000
# 4 0.000000 0.000000 0.000000 0.042909 0.000000 -0.001513
# 5 0.015046 0.009233 -0.032794 0.000000 0.071452 0.000000
# 6 0.000000 0.000000 0.000000 -0.001513 0.000000 0.044582
#
#
# Mechanical properties :
#
#
# Convention : Reuss Voigt Hill
#
# Bulk Modulus (GPa) = 18.91908 21.60079 20.25993
# Shear Modulus (GPa) = 17.16766 23.21455 20.19111
#
# Velocity S-wave (km/s) = 2.94704 3.42697 3.19603
# Velocity P-wave (km/s) = 4.59904 5.15622 4.88558
#
# Compressibility (1/GPa) = 0.05285669
#
# Stress axis : x y z
#
# Youngs Moduli (GPa) = 46.19634 54.07036 22.92076
#
# Poissons Ratio (x) = 0.13890 0.20633
# Poissons Ratio (y) = 0.11868 0.08906
# Poissons Ratio (z) = 0.41586 0.21009
#
# Static dielectric constant tensor:
#      x y z
#    x 1.659640 0.000000 0.000890 
#    y 0.000000 1.678670 0.000000 
#    z 0.000890 0.000000 1.708580 
# 
# From -- ./inp_files/48981.got.cif
#   From: 2010.05.17/outbox.cif.g08.bks.cpg/sg14_25_cif.got.tgz:48981.got - 2010.06.03 17:49:19.
