data_PCOD9246892
_publ_section_title
;
Structure prediction by ZEFSAII (Michael W. Deem and Ramdas Pophale) SiO2 
 PCOD9246892
Probable space group: P 21/C
;
_chemical_formula_sum "Si O2"
_cell_formula_units_Z 32
_cell_length_a 15.545782
_cell_length_b 15.728375
_cell_length_c 15.894477
_cell_angle_alpha 90.000000
_cell_angle_beta 155.608154
_cell_angle_gamma 90.000000
_cell_volume 1604.967512
_symmetry_space_group_name_H-M "P 21/C"
_symmetry_group_IT_number 14
_symmetry_cell_setting 'monoclinic'
loop_
_space_group_symop_operation_xyz
x,y,z
-x,1/2+y,1/2-z
-x,-y,-z
x,1/2-y,1/2+z
loop_
_atom_site_type_symbol
_atom_site_label
_atom_site_fract_x
_atom_site_fract_y
_atom_site_fract_z
Si Si1 0.950632 0.361643 0.520150
Si Si2 0.373419 0.362058 0.676904
Si Si3 0.948339 0.063127 0.377006
Si Si4 0.792894 0.727694 0.858330
Si Si5 0.764380 0.289347 0.931237
Si Si6 0.146585 0.414731 0.306691
Si Si7 0.531590 0.344306 0.554206
Si Si8 0.294899 0.479555 0.769807
O O1 0.036567 0.284971 0.538094
O O2 0.152035 0.422989 0.705708
O O3 0.838544 0.309694 0.495716
O O4 0.802402 0.429715 0.342825
O O5 0.263241 0.275872 0.607159
O O6 0.604659 0.331754 0.855836
O O7 0.244185 0.401048 0.484745
O O8 0.347365 0.424560 0.733212
O O9 0.719175 0.103669 0.180213
O O10 0.112779 0.137763 0.533371
O O11 0.955751 0.005895 0.300559
O O12 0.000000 0.000000 0.500000
O O13 0.588270 0.717546 0.617236
O O14 0.636958 0.301072 0.729937
O O15 0.975296 0.344593 0.127970
O O16 0.344887 0.403730 0.421625
O O17 0.500000 0.500000 0.000000
#
# Coordination Sequence:
#
# PCOD9246892 Si02
#       8
#     4   4   4   4   4   4   4   4
#     4  10  21  42  68  99 123 175 232 273 329 396
#     4  10  27  44  62  99 138 179 213 283 345 380
#     4  12  21  38  68 103 128 171 220 272 331 404
#     4  11  23  41  66  99 130 174 233 270 327 409
#     4  11  22  42  67  95 135 172 214 275 343 391
#     4  11  23  42  63  95 140 170 211 276 338 394
#     4  11  20  37  69  96 122 172 218 269 321 409
#     4  10  24  44  74  95 129 177 240 278 319 403
#
# _framework density 19.938099000000001
#
# number of rings (size 3 to 8) (size 9 to 14) (size 15 to 20)
#    0.000    1.250    5.000    0.375    3.500    4.000 
#    6.750    0.000    0.000    0.000    0.000    0.000 
#    0.000    0.000    0.000    0.000    0.000    0.000 
#
# Total GULP energy -178388.539314 kJ/mol
# GULP energy per Si atom -5574.641854 kJ/mol
# Density = 1.989272 g / cm^3
# Si number density = 19.938099 Si / 1000 Ang^3
#
#
#
# Elastic Constant Matrix: (Units=GPa)
#
#
# Indices 1 2 3 4 5 6 
#
# 1 35.1016 15.8740 29.5752 0.0000 -6.3701 0.0000
# 2 15.8740 110.2565 49.7067 0.0000 -4.4513 0.0000
# 3 29.5752 49.7067 119.4458 0.0000 9.5279 0.0000
# 4 0.0000 0.0000 0.0000 -7.9681 0.0000 7.9167
# 5 -6.3701 -4.4513 9.5279 0.0000 21.2977 0.0000
# 6 0.0000 0.0000 0.0000 7.9167 0.0000 16.3906
#
#
#
# Elastic Compliance Matrix: (Units=1/GPa)
#
#
# Indices 1 2 3 4 5 6 
#
# 1 0.041548 0.000005 -0.011698 0.000000 0.017661 0.000000
# 2 0.000005 0.011611 -0.005213 0.000000 0.004761 0.000000
# 3 -0.011698 -0.005213 0.014315 0.000000 -0.010992 0.000000
# 4 0.000000 0.000000 0.000000 -0.084804 0.000000 0.040961
# 5 0.017661 0.004761 -0.010992 0.000000 0.058148 0.000000
# 6 0.000000 0.000000 0.000000 0.040961 0.000000 0.041226
#
#
# Mechanical properties :
#
#
# Convention : Reuss Voigt Hill
#
# Bulk Modulus (GPa) = 29.70731 50.56842 40.13786
# Shear Modulus (GPa) = 39.34578 17.25390 28.29984
#
# Velocity S-wave (km/s) = 4.44711 2.94491 3.77156
# Velocity P-wave (km/s) = 6.42660 6.08121 6.25629
#
# Compressibility (1/GPa) = 0.03366175
#
# Stress axis : x y z
#
# Youngs Moduli (GPa) = 24.06847 86.12235 69.85786
#
# Poissons Ratio (x) = -0.00045 0.81723
# Poissons Ratio (y) = -0.00012 0.36417
# Poissons Ratio (z) = 0.28156 0.44896
#
# Static dielectric constant tensor:
#      x y z
#    x 1.798800 0.000000 0.051420 
#    y 0.000000 1.707470 0.000000 
#    z 0.051420 0.000000 1.722610 
# 
# From -- ./inp_files/60745.got.cif
#   From: 2010.05.17/outbox.cif.g08.bks.cpg/sg14_31_cif.got.tgz:60745.got - 2010.06.03 17:49:19.
