data_PCOD9246319
_publ_section_title
;
Structure prediction by ZEFSAII (Michael W. Deem and Ramdas Pophale) SiO2 
 PCOD9246319
Probable space group: P 21/C
;
_chemical_formula_sum "Si O2"
_cell_formula_units_Z 28
_cell_length_a 8.306091
_cell_length_b 9.043363
_cell_length_c 19.123847
_cell_angle_alpha 90.000000
_cell_angle_beta 56.187761
_cell_angle_gamma 90.000000
_cell_volume 1193.528236
_symmetry_space_group_name_H-M "P 21/C"
_symmetry_group_IT_number 14
_symmetry_cell_setting 'monoclinic'
loop_
_space_group_symop_operation_xyz
x,y,z
-x,1/2+y,1/2-z
-x,-y,-z
x,1/2-y,1/2+z
loop_
_atom_site_type_symbol
_atom_site_label
_atom_site_fract_x
_atom_site_fract_y
_atom_site_fract_z
Si Si1 0.100895 0.003341 0.551400
Si Si2 0.488246 0.574881 0.101611
Si Si3 0.814503 0.284537 0.392061
Si Si4 0.832256 0.939592 0.239557
Si Si5 0.219271 0.558390 0.456337
Si Si6 0.573622 0.683997 0.679161
Si Si7 0.174307 0.752601 0.335067
O O1 0.331547 0.017903 0.485349
O O2 0.009674 0.143709 0.611896
O O3 0.070336 0.852471 0.600618
O O4 0.000000 0.000000 0.500000
O O5 0.373100 0.711973 0.096337
O O6 0.321174 0.457704 0.160957
O O7 0.578125 0.647847 0.150337
O O8 0.759674 0.391154 0.469334
O O9 0.958938 0.365031 0.303240
O O10 0.719846 0.850167 0.206490
O O11 0.862302 0.105584 0.201897
O O12 0.361097 0.429481 0.396738
O O13 0.237246 0.692947 0.396858
O O14 0.000000 0.500000 0.500000
O O15 0.356168 0.661596 0.758877
#
# Coordination Sequence:
#
# PCOD9246319 Si02
#       7
#     4   4   4   4   4   4   4
#     4  12  23  42  69  98 133 184 232 279 344 410
#     4  11  26  43  66 107 143 171 236 295 351 415
#     4  12  25  42  69 102 139 179 221 294 362 402
#     4  10  23  45  68  92 137 183 229 280 346 431
#     4  11  20  41  69 104 135 180 236 284 343 423
#     4  10  21  41  69  96 131 183 236 277 339 418
#     4  10  21  40  68 100 131 175 242 285 324 416
#
# _framework density 23.459855999999998
#
# number of rings (size 3 to 8) (size 9 to 14) (size 15 to 20)
#    0.000    1.143    4.286    3.000    0.000    5.143 
#    0.000    0.000    0.000    0.000    0.000    0.000 
#    0.000    0.000    0.000    0.000    0.000    0.000 
#
# Total GULP energy -156784.880123 kJ/mol
# GULP energy per Si atom -5599.460004 kJ/mol
# Density = 2.340646 g / cm^3
# Si number density = 23.459856 Si / 1000 Ang^3
#
#
#
# Elastic Constant Matrix: (Units=GPa)
#
#
# Indices 1 2 3 4 5 6 
#
# 1 87.9268 33.4987 39.7313 0.0000 -18.5234 0.0000
# 2 33.4987 71.2618 62.7285 0.0000 -27.8708 0.0000
# 3 39.7313 62.7285 159.6138 0.0000 -43.7864 0.0000
# 4 0.0000 0.0000 0.0000 56.6842 0.0000 -9.2962
# 5 -18.5234 -27.8708 -43.7864 0.0000 36.7911 0.0000
# 6 0.0000 0.0000 0.0000 -9.2962 0.0000 47.3052
#
#
#
# Elastic Compliance Matrix: (Units=1/GPa)
#
#
# Indices 1 2 3 4 5 6 
#
# 1 0.014161 -0.004921 -0.000977 0.000000 0.002239 0.000000
# 2 -0.004921 0.025508 -0.006204 0.000000 0.009462 0.000000
# 3 -0.000977 -0.006204 0.011169 0.000000 0.008101 0.000000
# 4 0.000000 0.000000 0.000000 0.018229 0.000000 0.003582
# 5 0.002239 0.009462 0.008101 0.000000 0.045117 0.000000
# 6 0.000000 0.000000 0.000000 0.003582 0.000000 0.021843
#
#
# Mechanical properties :
#
#
# Convention : Reuss Voigt Hill
#
# Bulk Modulus (GPa) = 37.54629 65.63550 51.59089
# Shear Modulus (GPa) = 29.56683 40.34570 34.95627
#
# Velocity S-wave (km/s) = 3.55394 4.15152 3.86430
# Velocity P-wave (km/s) = 5.73410 7.14273 6.47683
#
# Compressibility (1/GPa) = 0.02663379
#
# Stress axis : x y z
#
# Youngs Moduli (GPa) = 70.61595 39.20363 89.53660
#
# Poissons Ratio (x) = 0.19294 0.08744
# Poissons Ratio (y) = 0.34753 0.55548
# Poissons Ratio (z) = 0.06896 0.24322
#
# Static dielectric constant tensor:
#      x y z
#    x 1.895520 0.000000 0.052540 
#    y 0.000000 1.872570 0.000000 
#    z 0.052540 0.000000 1.909030 
# 
# From -- ./inp_files/64962.got.cif
#   From: 2010.05.17/outbox.cif.g08.bks.cpg/sg14_33_cif.got.tgz:64962.got - 2010.06.03 17:49:19.
