data_PCOD9246483
_publ_section_title
;
Structure prediction by ZEFSAII (Michael W. Deem and Ramdas Pophale) SiO2 
 PCOD9246483
Probable space group: P 21/C
;
_chemical_formula_sum "Si O2"
_cell_formula_units_Z 20
_cell_length_a 12.686295
_cell_length_b 5.430947
_cell_length_c 12.750336
_cell_angle_alpha 90.000000
_cell_angle_beta 53.520476
_cell_angle_gamma 90.000000
_cell_volume 706.359070
_symmetry_space_group_name_H-M "P 21/C"
_symmetry_group_IT_number 14
_symmetry_cell_setting 'monoclinic'
loop_
_space_group_symop_operation_xyz
x,y,z
-x,1/2+y,1/2-z
-x,-y,-z
x,1/2-y,1/2+z
loop_
_atom_site_type_symbol
_atom_site_label
_atom_site_fract_x
_atom_site_fract_y
_atom_site_fract_z
Si Si1 0.735829 0.392944 0.256271
Si Si2 0.128183 0.104035 0.738665
Si Si3 0.910814 0.381436 0.962939
Si Si4 0.434184 0.050788 0.873247
Si Si5 0.436782 0.543745 0.925529
O O1 0.797934 0.640639 0.271673
O O2 0.627162 0.309517 0.541581
O O3 0.579175 0.432367 0.339898
O O4 0.779867 0.361165 0.108701
O O5 0.210123 0.863157 0.726764
O O6 0.987085 0.135691 0.880345
O O7 0.096625 0.049361 0.636032
O O8 0.000000 0.500000 0.000000
O O9 0.359321 0.296061 0.947168
O O10 0.459161 0.048880 0.733520
O O11 0.500000 0.500000 0.000000
#
# Coordination Sequence:
#
# PCOD9246483 Si02
#       5
#     4   4   4   4   4
#     4  11  24  39  60  91 122 153 198 255 297 347
#     4  11  23  40  61  87 120 160 203 242 298 360
#     4  10  22  41  61  84 118 160 199 244 298 352
#     4  10  22  39  61  92 120 151 203 244 291 364
#     4  10  21  41  64  86 120 162 193 239 302 359
#
# _framework density 28.314211
#
# number of rings (size 3 to 8) (size 9 to 14) (size 15 to 20)
#    0.000    1.600    0.000    4.800    0.000    8.000 
#    0.000    0.000    0.000    0.000    0.000    0.000 
#    0.000    0.000    0.000    0.000    0.000    0.000 
#
# Total GULP energy -112089.865737 kJ/mol
# GULP energy per Si atom -5604.493287 kJ/mol
# Density = 2.824977 g / cm^3
# Si number density = 28.314211 Si / 1000 Ang^3
#
#
#
# Elastic Constant Matrix: (Units=GPa)
#
#
# Indices 1 2 3 4 5 6 
#
# 1 156.2267 73.5786 57.4976 0.0000 38.3633 0.0000
# 2 73.5786 287.6438 67.6163 0.0000 31.1109 0.0000
# 3 57.4976 67.6163 179.0353 0.0000 30.3007 0.0000
# 4 0.0000 0.0000 0.0000 42.2069 0.0000 5.5796
# 5 38.3633 31.1109 30.3007 0.0000 71.8531 0.0000
# 6 0.0000 0.0000 0.0000 5.5796 0.0000 59.9602
#
#
#
# Elastic Compliance Matrix: (Units=1/GPa)
#
#
# Indices 1 2 3 4 5 6 
#
# 1 0.008466 -0.001434 -0.001634 0.000000 -0.003210 0.000000
# 2 -0.001434 0.004145 -0.001002 0.000000 -0.000606 0.000000
# 3 -0.001634 -0.001002 0.006749 0.000000 -0.001540 0.000000
# 4 0.000000 0.000000 0.000000 0.023988 0.000000 -0.002232
# 5 -0.003210 -0.000606 -0.001540 0.000000 0.016543 0.000000
# 6 0.000000 0.000000 0.000000 -0.002232 0.000000 0.016885
#
#
# Mechanical properties :
#
#
# Convention : Reuss Voigt Hill
#
# Bulk Modulus (GPa) = 89.13165 113.36564 101.24864
# Shear Modulus (GPa) = 56.39731 63.08492 59.74111
#
# Velocity S-wave (km/s) = 4.46784 4.72532 4.59838
# Velocity P-wave (km/s) = 7.62649 8.36044 8.00188
#
# Compressibility (1/GPa) = 0.01121936
#
# Stress axis : x y z
#
# Youngs Moduli (GPa) = 118.11803 241.28211 148.16350
#
# Poissons Ratio (x) = 0.34608 0.24209
# Poissons Ratio (y) = 0.16942 0.14847
# Poissons Ratio (z) = 0.19299 0.24178
#
# Static dielectric constant tensor:
#      x y z
#    x 2.213580 0.000000 -0.066930 
#    y 0.000000 2.313680 0.000000 
#    z -0.066930 0.000000 2.253380 
# 
# From -- ./inp_files/31293.got.cif
#   From: 2010.05.17/outbox.cif.g08.bks.cpg/sg14_16_cif.got.tgz:31293.got - 2010.06.03 17:49:19.
