data_PCOD9246278
_publ_section_title
;
Structure prediction by ZEFSAII (Michael W. Deem and Ramdas Pophale) SiO2 
 PCOD9246278
Probable space group: P 21/C
;
_chemical_formula_sum "Si O2"
_cell_formula_units_Z 32
_cell_length_a 20.243689
_cell_length_b 9.260510
_cell_length_c 13.743918
_cell_angle_alpha 90.000000
_cell_angle_beta 31.427529
_cell_angle_gamma 90.000000
_cell_volume 1343.453177
_symmetry_space_group_name_H-M "P 21/C"
_symmetry_group_IT_number 14
_symmetry_cell_setting 'monoclinic'
loop_
_space_group_symop_operation_xyz
x,y,z
-x,1/2+y,1/2-z
-x,-y,-z
x,1/2-y,1/2+z
loop_
_atom_site_type_symbol
_atom_site_label
_atom_site_fract_x
_atom_site_fract_y
_atom_site_fract_z
Si Si1 0.981020 0.514653 0.910132
Si Si2 0.596207 0.002803 0.654896
Si Si3 0.465950 0.853953 0.984164
Si Si4 0.877061 0.027086 0.238770
Si Si5 0.188738 0.220542 0.833900
Si Si6 0.190721 0.740818 0.837655
Si Si7 0.456194 0.272991 0.927267
Si Si8 0.860604 0.494818 0.468125
O O1 0.104427 0.515764 0.688129
O O2 0.900444 0.659563 0.007224
O O3 0.899671 0.372270 0.994746
O O4 0.000000 0.500000 0.000000
O O5 0.746908 0.022116 0.462585
O O6 0.531452 0.152549 0.769681
O O7 0.552566 0.932364 0.607711
O O8 0.554247 0.875368 0.780890
O O9 0.318527 0.838224 0.143996
O O10 0.490959 0.728888 0.030023
O O11 0.500000 0.000000 0.000000
O O12 0.864621 0.169890 0.185512
O O13 0.999471 0.012358 0.154422
O O14 0.870382 0.890252 0.172294
O O15 0.311328 0.281027 0.625432
O O16 0.220968 0.125860 0.888173
O O17 0.207872 0.858061 0.900454
#
# Coordination Sequence:
#
# PCOD9246278 Si02
#       8
#     4   4   4   4   4   4   4   4
#     4  12  24  40  62  98 133 162 223 276 330 400
#     4  10  21  40  66  98 122 176 215 268 331 386
#     4  10  22  41  65  95 132 172 223 268 324 396
#     4  10  22  42  71  91 133 173 222 269 331 412
#     4  10  22  42  62  95 131 168 215 280 327 391
#     4  11  23  43  67  98 130 175 222 272 329 400
#     4  10  22  41  65  92 132 166 219 268 325 393
#     4  11  24  43  67  94 131 180 216 263 347 403
#
# _framework density 23.819213999999999
#
# number of rings (size 3 to 8) (size 9 to 14) (size 15 to 20)
#    0.000    1.500    0.000    6.000    5.250    0.000 
#    6.750    8.750    0.000    0.000    0.000    0.000 
#    0.000    0.000    0.000    0.000    0.000    0.000 
#
# Total GULP energy -178672.776743 kJ/mol
# GULP energy per Si atom -5583.524273 kJ/mol
# Density = 2.376500 g / cm^3
# Si number density = 23.819214 Si / 1000 Ang^3
#
#
#
# Elastic Constant Matrix: (Units=GPa)
#
#
# Indices 1 2 3 4 5 6 
#
# 1 39.4656 -7.0863 9.3248 0.0000 4.4522 0.0000
# 2 -7.0863 80.9528 19.8483 0.0000 -1.6572 0.0000
# 3 9.3248 19.8483 157.0103 0.0000 5.9267 0.0000
# 4 0.0000 0.0000 0.0000 29.4860 0.0000 17.7195
# 5 4.4522 -1.6572 5.9267 0.0000 36.9313 0.0000
# 6 0.0000 0.0000 0.0000 17.7195 0.0000 -50.2553
#
#
#
# Elastic Compliance Matrix: (Units=1/GPa)
#
#
# Indices 1 2 3 4 5 6 
#
# 1 0.026570 0.002714 -0.001816 0.000000 -0.002790 0.000000
# 2 0.002714 0.013051 -0.001832 0.000000 0.000552 0.000000
# 3 -0.001816 -0.001832 0.006744 0.000000 -0.000946 0.000000
# 4 0.000000 0.000000 0.000000 0.027985 0.000000 0.009867
# 5 -0.002790 0.000552 -0.000946 0.000000 0.027590 0.000000
# 6 0.000000 0.000000 0.000000 0.009867 0.000000 -0.016419
#
#
# Mechanical properties :
#
#
# Convention : Reuss Voigt Hill
#
# Bulk Modulus (GPa) = 22.47333 35.73358 29.10345
# Shear Modulus (GPa) = 48.91412 20.25517 34.58464
#
# Velocity S-wave (km/s) = 4.53654 2.91928 3.81460
# Velocity P-wave (km/s) = 6.07418 5.13785 5.62553
#
# Compressibility (1/GPa) = 0.04449719
#
# Stress axis : x y z
#
# Youngs Moduli (GPa) = 37.63707 76.62309 148.27751
#
# Poissons Ratio (x) = -0.20795 0.26923
# Poissons Ratio (y) = -0.10214 0.27162
# Poissons Ratio (z) = 0.06834 0.14036
#
# Static dielectric constant tensor:
#      x y z
#    x 2.105340 0.000000 -0.029560 
#    y 0.000000 1.847180 0.000000 
#    z -0.029560 0.000000 1.933660 
# 
# From -- ./inp_files/51354.got.cif
#   From: 2010.05.17/outbox.cif.g08.bks.cpg/sg14_26_cif.got.tgz:51354.got - 2010.06.03 17:49:19.
