data_PCOD9246926
_publ_section_title
;
Structure prediction by ZEFSAII (Michael W. Deem and Ramdas Pophale) SiO2 
 PCOD9246926
Probable space group: P 21/C
;
_chemical_formula_sum "Si O2"
_cell_formula_units_Z 30
_cell_length_a 23.759382
_cell_length_b 8.116518
_cell_length_c 20.939231
_cell_angle_alpha 90.000000
_cell_angle_beta 162.292987
_cell_angle_gamma 90.000000
_cell_volume 1228.154392
_symmetry_space_group_name_H-M "P 21/C"
_symmetry_group_IT_number 14
_symmetry_cell_setting 'monoclinic'
loop_
_space_group_symop_operation_xyz
x,y,z
-x,1/2+y,1/2-z
-x,-y,-z
x,1/2-y,1/2+z
loop_
_atom_site_type_symbol
_atom_site_label
_atom_site_fract_x
_atom_site_fract_y
_atom_site_fract_z
Si Si1 0.732221 0.461128 0.390282
Si Si2 0.255443 0.011536 0.952374
Si Si3 0.543819 0.032731 0.958523
Si Si4 0.000000 0.000000 0.000000
Si Si5 0.023685 0.772239 0.415725
Si Si6 0.050639 0.805492 0.188997
Si Si7 0.362091 0.598105 0.939550
Si Si8 0.186117 0.088947 0.647823
O O1 0.673495 0.484748 0.399989
O O2 0.806539 0.285728 0.445931
O O3 0.907170 0.584291 0.571471
O O4 0.557907 0.516604 0.160643
O O5 0.142971 0.175120 0.811339
O O6 0.411976 0.992991 0.067574
O O7 0.104755 0.864822 0.780382
O O8 0.619093 0.211900 0.059713
O O9 0.672905 0.910140 0.139989
O O10 0.330491 0.052806 0.745990
O O11 0.227054 0.983790 0.244006
O O12 0.984977 0.879911 0.919799
O O13 0.058120 0.927182 0.500993
O O14 0.243958 0.886048 0.377793
O O15 0.943089 0.749230 0.006508
#
# Coordination Sequence:
#
# PCOD9246926 Si02
#       8
#     4   4   4   2   4   4   4   4
#     4  12  24  48  66 102 142 185 230 275 355 416
#     4  10  25  44  70 101 135 188 234 280 338 419
#     4  10  21  42  71  99 128 180 229 284 333 415
#     4  12  24  44  64 106 146 170 232 292 362 400
#     4  11  25  43  70 105 138 181 219 296 351 401
#     4  10  22  44  70  96 134 179 226 286 338 408
#     4  11  24  43  69 100 133 187 221 286 350 408
#     4  10  21  42  71 100 133 167 237 280 347 409
#
# _framework density 24.426895999999999
#
# number of rings (size 3 to 8) (size 9 to 14) (size 15 to 20)
#    0.000    1.333    4.000    0.800    1.867    3.200 
#   16.800    0.000    0.000    0.000    0.000    0.000 
#    0.000    0.000    0.000    0.000    0.000    0.000 
#
# Total GULP energy -167285.374948 kJ/mol
# GULP energy per Si atom -5576.179165 kJ/mol
# Density = 2.437130 g / cm^3
# Si number density = 24.426896 Si / 1000 Ang^3
#
#
#
# Elastic Constant Matrix: (Units=GPa)
#
#
# Indices 1 2 3 4 5 6 
#
# 1 102.1763 15.8600 3.6547 0.0000 6.3120 0.0000
# 2 15.8600 40.9259 2.2121 0.0000 -1.9181 0.0000
# 3 3.6547 2.2121 74.6620 0.0000 17.9810 0.0000
# 4 0.0000 0.0000 0.0000 23.2354 0.0000 4.3197
# 5 6.3120 -1.9181 17.9810 0.0000 41.8429 0.0000
# 6 0.0000 0.0000 0.0000 4.3197 0.0000 27.3783
#
#
#
# Elastic Compliance Matrix: (Units=1/GPa)
#
#
# Indices 1 2 3 4 5 6 
#
# 1 0.010544 -0.004173 0.000041 0.000000 -0.001799 0.000000
# 2 -0.004173 0.026221 -0.001131 0.000000 0.002317 0.000000
# 3 0.000041 -0.001131 0.014991 0.000000 -0.006500 0.000000
# 4 0.000000 0.000000 0.000000 0.044338 0.000000 -0.006996
# 5 -0.001799 0.002317 -0.006500 0.000000 0.027070 0.000000
# 6 0.000000 0.000000 0.000000 -0.006996 0.000000 0.037629
#
#
# Mechanical properties :
#
#
# Convention : Reuss Voigt Hill
#
# Bulk Modulus (GPa) = 24.25369 29.02418 26.63894
# Shear Modulus (GPa) = 27.01795 31.56050 29.28922
#
# Velocity S-wave (km/s) = 3.32938 3.59839 3.46650
# Velocity P-wave (km/s) = 4.97296 5.40115 5.19147
#
# Compressibility (1/GPa) = 0.04123084
#
# Stress axis : x y z
#
# Youngs Moduli (GPa) = 94.83685 38.13705 66.70867
#
# Poissons Ratio (x) = 0.15914 -0.00273
# Poissons Ratio (y) = 0.39574 0.07543
# Poissons Ratio (z) = -0.00387 0.04312
#
# Static dielectric constant tensor:
#      x y z
#    x 1.979850 0.000000 0.070870 
#    y 0.000000 1.814580 0.000000 
#    z 0.070870 0.000000 1.836270 
# 
# From -- ./inp_files/70262.got.cif
#   From: 2010.05.17/outbox.cif.g08.bks.cpg/sg14_36_cif.got.tgz:70262.got - 2010.06.03 17:49:19.
