data_PCOD9246464
_publ_section_title
;
Structure prediction by ZEFSAII (Michael W. Deem and Ramdas Pophale) SiO2 
 PCOD9246464
Probable space group: P 21/C
;
_chemical_formula_sum "Si O2"
_cell_formula_units_Z 26
_cell_length_a 25.283171
_cell_length_b 9.362374
_cell_length_c 18.165752
_cell_angle_alpha 90.000000
_cell_angle_beta 15.528053
_cell_angle_gamma 90.000000
_cell_volume 1151.160165
_symmetry_space_group_name_H-M "P 21/C"
_symmetry_group_IT_number 14
_symmetry_cell_setting 'monoclinic'
loop_
_space_group_symop_operation_xyz
x,y,z
-x,1/2+y,1/2-z
-x,-y,-z
x,1/2-y,1/2+z
loop_
_atom_site_type_symbol
_atom_site_label
_atom_site_fract_x
_atom_site_fract_y
_atom_site_fract_z
Si Si1 0.918413 0.857746 0.956942
Si Si2 0.950963 0.585149 0.830027
Si Si3 0.682570 0.096022 0.783005
Si Si4 0.543582 0.019380 0.629365
Si Si5 0.000000 0.500000 0.500000
Si Si6 0.559609 0.657578 0.256975
Si Si7 0.479545 0.639691 0.076826
O O1 0.021022 0.729562 0.774986
O O2 0.020499 0.910079 0.894286
O O3 0.702522 0.797844 0.269033
O O4 0.916719 0.991156 0.902442
O O5 0.878637 0.481924 0.993334
O O6 0.757450 0.627958 0.039705
O O7 0.631879 0.124655 0.935751
O O8 0.663587 0.245878 0.766861
O O9 0.500000 0.000000 0.000000
O O10 0.448398 0.176117 0.755235
O O11 0.555515 0.945816 0.692594
O O12 0.437158 0.910244 0.716092
O O13 0.764387 0.026428 0.299867
O O14 0.500000 0.500000 0.000000
#
# Coordination Sequence:
#
# PCOD9246464 Si02
#       7
#     4   4   4   4   2   4   4
#     4  11  23  42  65  94 135 170 218 277 335 395
#     4  11  24  42  67  97 130 173 226 276 331 400
#     4  10  21  41  63  91 126 157 232 263 312 394
#     4  11  24  40  69  92 141 168 223 271 337 388
#     4  10  24  42  62  98 132 178 208 276 342 396
#     4  11  23  43  63 102 122 178 222 274 325 406
#     4  11  21  40  67  93 122 178 222 262 325 398
#
# _framework density 22.585909999999998
#
# number of rings (size 3 to 8) (size 9 to 14) (size 15 to 20)
#    0.000    1.231    6.154    0.000    6.462    0.000 
#    2.769    0.000    0.000    2.769    0.000    0.000 
#    0.000    0.000    0.000    0.000    0.000    0.000 
#
# Total GULP energy -144806.521461 kJ/mol
# GULP energy per Si atom -5569.481595 kJ/mol
# Density = 2.253450 g / cm^3
# Si number density = 22.585910 Si / 1000 Ang^3
#
#
#
# Elastic Constant Matrix: (Units=GPa)
#
#
# Indices 1 2 3 4 5 6 
#
# 1 128.5282 53.4404 16.3471 0.0000 21.1041 0.0000
# 2 53.4404 141.6080 27.0882 0.0000 20.9299 0.0000
# 3 16.3471 27.0882 64.0593 0.0000 9.6203 0.0000
# 4 0.0000 0.0000 0.0000 29.4991 0.0000 8.6469
# 5 21.1041 20.9299 9.6203 0.0000 23.8156 0.0000
# 6 0.0000 0.0000 0.0000 8.6469 0.0000 40.6194
#
#
#
# Elastic Compliance Matrix: (Units=1/GPa)
#
#
# Indices 1 2 3 4 5 6 
#
# 1 0.010017 -0.002769 -0.000444 0.000000 -0.006263 0.000000
# 2 -0.002769 0.009280 -0.002514 0.000000 -0.004686 0.000000
# 3 -0.000444 -0.002514 0.017455 0.000000 -0.004448 0.000000
# 4 0.000000 0.000000 0.000000 0.036155 0.000000 -0.007697
# 5 -0.006263 -0.004686 -0.004448 0.000000 0.053454 0.000000
# 6 0.000000 0.000000 0.000000 -0.007697 0.000000 0.026257
#
#
# Mechanical properties :
#
#
# Convention : Reuss Voigt Hill
#
# Bulk Modulus (GPa) = 39.53102 58.66076 49.09589
# Shear Modulus (GPa) = 28.98435 34.60813 31.79624
#
# Velocity S-wave (km/s) = 3.58619 3.91869 3.75612
# Velocity P-wave (km/s) = 5.88967 6.81935 6.37149
#
# Compressibility (1/GPa) = 0.02529659
#
# Stress axis : x y z
#
# Youngs Moduli (GPa) = 99.83234 107.75389 57.29036
#
# Poissons Ratio (x) = 0.29842 0.02546
# Poissons Ratio (y) = 0.27648 0.14402
# Poissons Ratio (z) = 0.04437 0.27087
#
# Static dielectric constant tensor:
#      x y z
#    x 1.809020 0.000000 -0.002460 
#    y 0.000000 1.825260 0.000000 
#    z -0.002460 0.000000 2.028370 
# 
# From -- ./inp_files/61779.got.cif
#   From: 2010.05.17/outbox.cif.g08.bks.cpg/sg14_31_cif.got.tgz:61779.got - 2010.06.03 17:49:19.
