data_PCOD9246294
_publ_section_title
;
Structure prediction by ZEFSAII (Michael W. Deem and Ramdas Pophale) SiO2 
 PCOD9246294
Probable space group: P 21/C
;
_chemical_formula_sum "Si O2"
_cell_formula_units_Z 20
_cell_length_a 7.083441
_cell_length_b 15.028783
_cell_length_c 8.098412
_cell_angle_alpha 90.000000
_cell_angle_beta 71.247115
_cell_angle_gamma 90.000000
_cell_volume 816.353903
_symmetry_space_group_name_H-M "P 21/C"
_symmetry_group_IT_number 14
_symmetry_cell_setting 'monoclinic'
loop_
_space_group_symop_operation_xyz
x,y,z
-x,1/2+y,1/2-z
-x,-y,-z
x,1/2-y,1/2+z
loop_
_atom_site_type_symbol
_atom_site_label
_atom_site_fract_x
_atom_site_fract_y
_atom_site_fract_z
Si Si1 0.979114 0.311748 0.365944
Si Si2 0.454152 0.687644 0.496818
Si Si3 0.118368 0.141421 0.160395
Si Si4 0.393994 0.124733 0.634350
Si Si5 0.594115 0.539193 0.231284
O O1 0.054550 0.209834 0.321643
O O2 0.963330 0.349838 0.556654
O O3 0.157982 0.365417 0.231691
O O4 0.757323 0.312000 0.355001
O O5 0.683670 0.678488 0.493520
O O6 0.484606 0.782573 0.397425
O O7 0.452568 0.601232 0.380640
O O8 0.195974 0.052450 0.229206
O O9 0.403238 0.085055 0.447711
O O10 0.503013 0.056850 0.727663
#
# Coordination Sequence:
#
# PCOD9246294 Si02
#       5
#     4   4   4   4   4
#     4  11  21  35  66  86 118 159 207 247 308 357
#     4   9  22  37  65  86 120 164 203 252 303 365
#     4   9  21  37  56  90 119 153 203 255 292 367
#     4  10  21  40  67  90 126 167 197 260 304 371
#     4   9  21  43  63  87 131 161 201 253 318 353
#
# _framework density 24.499179999999999
#
# number of rings (size 3 to 8) (size 9 to 14) (size 15 to 20)
#    1.200    1.200    0.000    2.400    2.800    1.600 
#    0.000    1.000    8.800    0.000    0.000    0.000 
#    0.000    0.000    0.000    0.000    0.000    0.000 
#
# Total GULP energy -111397.393239 kJ/mol
# GULP energy per Si atom -5569.869662 kJ/mol
# Density = 2.444342 g / cm^3
# Si number density = 24.499180 Si / 1000 Ang^3
#
#
#
# Elastic Constant Matrix: (Units=GPa)
#
#
# Indices 1 2 3 4 5 6 
#
# 1 128.0976 20.5391 31.8807 0.0000 -11.9418 0.0000
# 2 20.5391 128.3087 40.0990 0.0000 -15.8953 0.0000
# 3 31.8807 40.0990 75.0787 0.0000 -7.5715 0.0000
# 4 0.0000 0.0000 0.0000 37.0174 0.0000 0.3013
# 5 -11.9418 -15.8953 -7.5715 0.0000 36.8976 0.0000
# 6 0.0000 0.0000 0.0000 0.3013 0.0000 3.2662
#
#
#
# Elastic Compliance Matrix: (Units=1/GPa)
#
#
# Indices 1 2 3 4 5 6 
#
# 1 0.008893 -0.000056 -0.003532 0.000000 0.002129 0.000000
# 2 -0.000056 0.009709 -0.004842 0.000000 0.003171 0.000000
# 3 -0.003532 -0.004842 0.017440 0.000000 0.000350 0.000000
# 4 0.000000 0.000000 0.000000 0.027035 0.000000 -0.002494
# 5 0.002129 0.003171 0.000350 0.000000 0.029229 0.000000
# 6 0.000000 0.000000 0.000000 -0.002494 0.000000 0.306397
#
#
# Mechanical properties :
#
#
# Convention : Reuss Voigt Hill
#
# Bulk Modulus (GPa) = 52.12925 57.39139 54.76032
# Shear Modulus (GPa) = 11.84959 31.36733 21.60846
#
# Velocity S-wave (km/s) = 2.20164 3.58207 2.97308
# Velocity P-wave (km/s) = 5.27135 6.37063 5.84688
#
# Compressibility (1/GPa) = 0.01918309
#
# Stress axis : x y z
#
# Youngs Moduli (GPa) = 112.44845 103.00127 57.33882
#
# Poissons Ratio (x) = 0.00578 0.20249
# Poissons Ratio (y) = 0.00631 0.27762
# Poissons Ratio (z) = 0.39711 0.49870
#
# Static dielectric constant tensor:
#      x y z
#    x 1.919690 0.000000 0.049950 
#    y 0.000000 1.937420 0.000000 
#    z 0.049950 0.000000 1.982910 
# 
# From -- ./inp_files/9006.got.cif
#   From: 2010.05.17/outbox.cif.g08.bks.cpg/sg14_5_cif.got.tgz:9006.got - 2010.06.03 17:49:19.
