data_PCOD9246230
_publ_section_title
;
Structure prediction by ZEFSAII (Michael W. Deem and Ramdas Pophale) SiO2 
 PCOD9246230
Probable space group: P 21/C
;
_chemical_formula_sum "Si O2"
_cell_formula_units_Z 28
_cell_length_a 17.200352
_cell_length_b 11.741564
_cell_length_c 14.145111
_cell_angle_alpha 90.000000
_cell_angle_beta 23.044001
_cell_angle_gamma 90.000000
_cell_volume 1118.233622
_symmetry_space_group_name_H-M "P 21/C"
_symmetry_group_IT_number 14
_symmetry_cell_setting 'monoclinic'
loop_
_space_group_symop_operation_xyz
x,y,z
-x,1/2+y,1/2-z
-x,-y,-z
x,1/2-y,1/2+z
loop_
_atom_site_type_symbol
_atom_site_label
_atom_site_fract_x
_atom_site_fract_y
_atom_site_fract_z
Si Si1 0.728711 0.577577 0.858533
Si Si2 0.183361 0.234663 0.906253
Si Si3 0.629710 0.912991 0.939717
Si Si4 0.980699 0.745876 0.705497
Si Si5 0.568834 0.224972 0.218691
Si Si6 0.224292 0.890274 0.316282
Si Si7 0.262059 0.807974 0.656612
O O1 0.723598 0.629332 0.757744
O O2 0.900938 0.642659 0.727976
O O3 0.251016 0.557050 0.171749
O O4 0.530432 0.607230 0.139205
O O5 0.157390 0.235715 0.048132
O O6 0.956842 0.234014 0.124407
O O7 0.281990 0.344315 0.748591
O O8 0.759150 0.028683 0.793898
O O9 0.592338 0.815888 0.059365
O O10 0.395713 0.944769 0.189204
O O11 0.204058 0.726993 0.497476
O O12 0.021184 0.860090 0.596770
O O13 0.590961 0.260557 0.086177
O O14 0.307493 0.764419 0.198262
#
# Coordination Sequence:
#
# PCOD9246230 Si02
#       7
#     4   4   4   4   4   4   4
#     4  11  23  45  67  95 138 175 215 288 339 389
#     4  10  22  41  63  98 128 171 231 263 337 408
#     4   9  21  41  64  90 133 173 217 273 321 401
#     4  10  22  42  66  97 132 175 218 278 337 396
#     4   9  23  43  62 100 129 171 233 261 334 416
#     4  10  21  40  65  94 128 176 217 270 334 388
#     4  11  23  40  67  97 135 169 221 280 332 401
#
# _framework density 25.039490000000001
#
# number of rings (size 3 to 8) (size 9 to 14) (size 15 to 20)
#    0.000    2.000    1.429    0.429    4.000    4.000 
#    2.571    2.143    0.000    0.000    0.000    0.000 
#    0.000    0.000    0.000    0.000    0.000    0.000 
#
# Total GULP energy -156167.657355 kJ/mol
# GULP energy per Si atom -5577.416334 kJ/mol
# Density = 2.498250 g / cm^3
# Si number density = 25.039490 Si / 1000 Ang^3
#
#
#
# Elastic Constant Matrix: (Units=GPa)
#
#
# Indices 1 2 3 4 5 6 
#
# 1 58.9665 37.4085 40.1615 0.0000 20.0733 0.0000
# 2 37.4085 115.3989 52.3171 0.0000 12.1322 0.0000
# 3 40.1615 52.3171 152.1300 0.0000 24.6062 0.0000
# 4 0.0000 0.0000 0.0000 20.2901 0.0000 -11.0883
# 5 20.0733 12.1322 24.6062 0.0000 64.9743 0.0000
# 6 0.0000 0.0000 0.0000 -11.0883 0.0000 8.1282
#
#
#
# Elastic Compliance Matrix: (Units=1/GPa)
#
#
# Indices 1 2 3 4 5 6 
#
# 1 0.024999 -0.005860 -0.003741 0.000000 -0.005212 0.000000
# 2 -0.005860 0.011663 -0.002561 0.000000 0.000603 0.000000
# 3 -0.003741 -0.002561 0.008711 0.000000 -0.001665 0.000000
# 4 0.000000 0.000000 0.000000 0.193662 0.000000 0.264190
# 5 -0.005212 0.000603 -0.001665 0.000000 0.017519 0.000000
# 6 0.000000 0.000000 0.000000 0.264190 0.000000 0.483432
#
#
# Mechanical properties :
#
#
# Convention : Reuss Voigt Hill
#
# Bulk Modulus (GPa) = 47.51044 65.14108 56.32576
# Shear Modulus (GPa) = 6.48234 31.78573 19.13404
#
# Velocity S-wave (km/s) = 1.61074 3.56676 2.76733
# Velocity P-wave (km/s) = 4.74075 6.56005 5.72315
#
# Compressibility (1/GPa) = 0.02104801
#
# Stress axis : x y z
#
# Youngs Moduli (GPa) = 40.00216 85.74145 114.79507
#
# Poissons Ratio (x) = 0.50241 0.42949
# Poissons Ratio (y) = 0.23440 0.29404
# Poissons Ratio (z) = 0.14966 0.21962
#
# Static dielectric constant tensor:
#      x y z
#    x 2.121540 0.000000 -0.023750 
#    y 0.000000 2.031140 0.000000 
#    z -0.023750 0.000000 2.020410 
# 
# From -- ./inp_files/50745.got.cif
#   From: 2010.05.17/outbox.cif.g08.bks.cpg/sg14_26_cif.got.tgz:50745.got - 2010.06.03 17:49:19.
