data_PCOD9246907
_publ_section_title
;
Structure prediction by ZEFSAII (Michael W. Deem and Ramdas Pophale) SiO2 
 PCOD9246907
Probable space group: P 21/C
;
_chemical_formula_sum "Si O2"
_cell_formula_units_Z 24
_cell_length_a 7.274331
_cell_length_b 15.843902
_cell_length_c 9.131843
_cell_angle_alpha 90.000000
_cell_angle_beta 74.818822
_cell_angle_gamma 90.000000
_cell_volume 1015.750666
_symmetry_space_group_name_H-M "P 21/C"
_symmetry_group_IT_number 14
_symmetry_cell_setting 'monoclinic'
loop_
_space_group_symop_operation_xyz
x,y,z
-x,1/2+y,1/2-z
-x,-y,-z
x,1/2-y,1/2+z
loop_
_atom_site_type_symbol
_atom_site_label
_atom_site_fract_x
_atom_site_fract_y
_atom_site_fract_z
Si Si1 0.213260 0.064361 0.536100
Si Si2 0.202011 0.241516 0.463623
Si Si3 0.465146 0.237191 0.154900
Si Si4 0.609530 0.402728 0.092576
Si Si5 0.017436 0.082458 0.889259
Si Si6 0.579003 0.087392 0.930313
O O1 0.127876 0.144505 0.463673
O O2 0.440704 0.082845 0.510645
O O3 0.128395 0.059534 0.716826
O O4 0.224710 0.971455 0.460845
O O5 0.404780 0.239494 0.335338
O O6 0.261405 0.240523 0.621722
O O7 0.097928 0.329872 0.445811
O O8 0.636497 0.301733 0.083731
O O9 0.508222 0.150344 0.069678
O O10 0.519721 0.410691 0.273088
O O11 0.803685 0.099157 0.882400
O O12 0.000000 0.000000 0.000000
O O13 0.500000 0.000000 0.000000
#
# Coordination Sequence:
#
# PCOD9246907 Si02
#       6
#     4   4   4   4   4   4
#     4  10  22  43  72 102 140 183 229 294 352 423
#     4  11  21  44  70 100 137 185 224 293 353 411
#     4  11  21  42  72  99 141 179 237 284 351 420
#     4  10  21  42  70 101 136 180 233 281 358 413
#     4  12  26  44  67 100 140 182 241 289 352 419
#     4  12  25  43  68 100 138 184 237 290 348 422
#
# _framework density 23.627845000000001
#
# number of rings (size 3 to 8) (size 9 to 14) (size 15 to 20)
#    0.000    1.000    5.000    3.000    0.000    4.667 
#    3.000    0.000    0.000    0.000    0.000    0.000 
#    0.000    0.000    0.000    0.000    0.000    0.000 
#
# Total GULP energy -133661.669655 kJ/mol
# GULP energy per Si atom -5569.236236 kJ/mol
# Density = 2.357407 g / cm^3
# Si number density = 23.627845 Si / 1000 Ang^3
#
#
#
# Elastic Constant Matrix: (Units=GPa)
#
#
# Indices 1 2 3 4 5 6 
#
# 1 46.5703 20.1267 -5.5034 0.0000 -4.8615 0.0000
# 2 20.1267 246.3414 62.1323 0.0000 -18.9052 0.0000
# 3 -5.5034 62.1323 78.7756 0.0000 -8.0966 0.0000
# 4 0.0000 0.0000 0.0000 43.7889 0.0000 -3.9101
# 5 -4.8615 -18.9052 -8.0966 0.0000 29.4029 0.0000
# 6 0.0000 0.0000 0.0000 -3.9101 0.0000 45.0634
#
#
#
# Elastic Compliance Matrix: (Units=1/GPa)
#
#
# Indices 1 2 3 4 5 6 
#
# 1 0.023468 -0.002702 0.004107 0.000000 0.003274 0.000000
# 2 -0.002702 0.005524 -0.004349 0.000000 0.001907 0.000000
# 3 0.004107 -0.004349 0.016666 0.000000 0.002472 0.000000
# 4 0.000000 0.000000 0.000000 0.023015 0.000000 0.001997
# 5 0.003274 0.001907 0.002472 0.000000 0.036458 0.000000
# 6 0.000000 0.000000 0.000000 0.001997 0.000000 0.022364
#
#
# Mechanical properties :
#
#
# Convention : Reuss Voigt Hill
#
# Bulk Modulus (GPa) = 25.14543 58.35538 41.75040
# Shear Modulus (GPa) = 34.09727 43.31315 38.70521
#
# Velocity S-wave (km/s) = 3.80293 4.28616 4.05176
# Velocity P-wave (km/s) = 5.47252 7.01757 6.29264
#
# Compressibility (1/GPa) = 0.03976866
#
# Stress axis : x y z
#
# Youngs Moduli (GPa) = 42.61153 181.04452 60.00360
#
# Poissons Ratio (x) = 0.48919 -0.24644
# Poissons Ratio (y) = 0.11514 0.26097
# Poissons Ratio (z) = -0.17501 0.78742
#
# Static dielectric constant tensor:
#      x y z
#    x 1.995520 0.000000 0.044120 
#    y 0.000000 2.053010 0.000000 
#    z 0.044120 0.000000 1.826960 
# 
# From -- ./inp_files/8462.got.cif
#   From: 2010.05.17/outbox.cif.g08.bks.cpg/sg14_5_cif.got.tgz:8462.got - 2010.06.03 17:49:19.
