data_PCOD9246444
_publ_section_title
;
Structure prediction by ZEFSAII (Michael W. Deem and Ramdas Pophale) SiO2 
 PCOD9246444
Probable space group: P 21/C
;
_chemical_formula_sum "Si O2"
_cell_formula_units_Z 20
_cell_length_a 10.457031
_cell_length_b 11.800844
_cell_length_c 14.320828
_cell_angle_alpha 90.000000
_cell_angle_beta 151.575657
_cell_angle_gamma 90.000000
_cell_volume 841.191022
_symmetry_space_group_name_H-M "P 21/C"
_symmetry_group_IT_number 14
_symmetry_cell_setting 'monoclinic'
loop_
_space_group_symop_operation_xyz
x,y,z
-x,1/2+y,1/2-z
-x,-y,-z
x,1/2-y,1/2+z
loop_
_atom_site_type_symbol
_atom_site_label
_atom_site_fract_x
_atom_site_fract_y
_atom_site_fract_z
Si Si1 0.263255 0.513129 0.230213
Si Si2 0.318799 0.831473 0.937996
Si Si3 0.447202 0.439319 0.759023
Si Si4 0.957510 0.098089 0.066449
Si Si5 0.256900 0.921423 0.374771
O O1 0.412224 0.394692 0.352049
O O2 0.215745 0.582587 0.293501
O O3 0.463117 0.583341 0.288940
O O4 0.000000 0.500000 0.000000
O O5 0.123899 0.819550 0.902869
O O6 0.323154 0.708058 0.895744
O O7 0.303403 0.563408 0.661228
O O8 0.209538 0.372235 0.662116
O O9 0.710793 0.432401 0.992736
O O10 0.020353 0.981382 0.165802
O O11 0.500000 0.000000 0.500000
#
# Coordination Sequence:
#
# PCOD9246444 Si02
#       5
#     4   4   4   4   4
#     4  10  21  41  65  96 132 166 216 270 333 384
#     4  10  22  41  64  97 128 168 216 274 322 395
#     4   9  19  39  60  90 123 166 213 262 315 392
#     4   9  19  40  64  87 127 164 218 263 318 388
#     4  10  21  41  62  94 131 173 212 261 332 397
#
# _framework density 23.775811999999998
#
# number of rings (size 3 to 8) (size 9 to 14) (size 15 to 20)
#    0.000    2.400    0.000    1.200    0.000    1.600 
#   46.800    0.000    0.000    0.000    0.000    0.000 
#    0.000    0.000    0.000    0.000    0.000    0.000 
#
# Total GULP energy -111404.700613 kJ/mol
# GULP energy per Si atom -5570.235031 kJ/mol
# Density = 2.372170 g / cm^3
# Si number density = 23.775812 Si / 1000 Ang^3
#
#
#
# Elastic Constant Matrix: (Units=GPa)
#
#
# Indices 1 2 3 4 5 6 
#
# 1 112.1290 21.9823 5.8889 0.0000 -1.1832 0.0000
# 2 21.9823 123.3769 30.9116 0.0000 4.2331 0.0000
# 3 5.8889 30.9116 132.4156 0.0000 -0.8853 0.0000
# 4 0.0000 0.0000 0.0000 6.3942 0.0000 -1.0551
# 5 -1.1832 4.2331 -0.8853 0.0000 28.3703 0.0000
# 6 0.0000 0.0000 0.0000 -1.0551 0.0000 21.8457
#
#
#
# Elastic Compliance Matrix: (Units=1/GPa)
#
#
# Indices 1 2 3 4 5 6 
#
# 1 0.009253 -0.001666 -0.000018 0.000000 0.000634 0.000000
# 2 -0.001666 0.008960 -0.002028 0.000000 -0.001470 0.000000
# 3 -0.000018 -0.002028 0.008030 0.000000 0.000552 0.000000
# 4 0.000000 0.000000 0.000000 0.157649 0.000000 0.007614
# 5 0.000634 -0.001470 0.000552 0.000000 0.035511 0.000000
# 6 0.000000 0.000000 0.000000 0.007614 0.000000 0.046143
#
#
# Mechanical properties :
#
#
# Convention : Reuss Voigt Hill
#
# Bulk Modulus (GPa) = 53.13622 53.94304 53.53963
# Shear Modulus (GPa) = 17.90556 31.93127 24.91842
#
# Velocity S-wave (km/s) = 2.74724 3.66869 3.24088
# Velocity P-wave (km/s) = 5.69741 6.37834 6.04747
#
# Compressibility (1/GPa) = 0.01881956
#
# Stress axis : x y z
#
# Youngs Moduli (GPa) = 108.07890 111.60178 124.53612
#
# Poissons Ratio (x) = 0.18589 0.00229
# Poissons Ratio (y) = 0.18002 0.25250
# Poissons Ratio (z) = 0.00199 0.22627
#
# Static dielectric constant tensor:
#      x y z
#    x 2.017380 0.000000 -0.010860 
#    y 0.000000 1.857790 0.000000 
#    z -0.010860 0.000000 2.085810 
# 
# From -- ./inp_files/44514.got.cif
#   From: 2010.05.17/outbox.cif.g08.bks.cpg/sg14_23_cif.got.tgz:44514.got - 2010.06.03 17:49:19.
