data_PCOD9246741
_publ_section_title
;
Structure prediction by ZEFSAII (Michael W. Deem and Ramdas Pophale) SiO2 
 PCOD9246741
Probable space group: P 21/C
;
_chemical_formula_sum "Si O2"
_cell_formula_units_Z 24
_cell_length_a 13.863377
_cell_length_b 13.674320
_cell_length_c 7.541154
_cell_angle_alpha 90.000000
_cell_angle_beta 141.060743
_cell_angle_gamma 90.000000
_cell_volume 898.494024
_symmetry_space_group_name_H-M "P 21/C"
_symmetry_group_IT_number 14
_symmetry_cell_setting 'monoclinic'
loop_
_space_group_symop_operation_xyz
x,y,z
-x,1/2+y,1/2-z
-x,-y,-z
x,1/2-y,1/2+z
loop_
_atom_site_type_symbol
_atom_site_label
_atom_site_fract_x
_atom_site_fract_y
_atom_site_fract_z
Si Si1 0.014549 0.828152 0.725708
Si Si2 0.721748 0.580426 0.680319
Si Si3 0.966845 0.615055 0.565889
Si Si4 0.739939 0.003580 0.557222
Si Si5 0.352231 0.864053 0.061042
Si Si6 0.521656 0.169968 0.396731
O O1 0.900522 0.891132 0.440281
O O2 0.953551 0.717691 0.638941
O O3 0.004706 0.862797 0.913462
O O4 0.187554 0.831453 0.905033
O O5 0.675093 0.473272 0.545396
O O6 0.634083 0.659761 0.436207
O O7 0.675362 0.574044 0.823189
O O8 0.815002 0.549562 0.334875
O O9 0.115972 0.555312 0.838119
O O10 0.629389 0.090314 0.452841
O O11 0.404796 0.777741 0.005667
O O12 0.476084 0.863321 0.396881
#
# Coordination Sequence:
#
# PCOD9246741 Si02
#       6
#     4   4   4   4   4   4
#     4  11  22  42  65  98 127 169 216 263 317 377
#     4  11  27  41  67  98 128 167 217 267 318 378
#     4  10  22  37  66  96 129 167 215 265 314 375
#     4  10  21  42  62  95 128 169 214 258 323 371
#     4  12  24  44  67  93 129 171 214 263 319 386
#     4  12  25  44  66  95 130 173 211 262 328 378
#
# _framework density 26.711361
#
# number of rings (size 3 to 8) (size 9 to 14) (size 15 to 20)
#    0.000    1.000    3.333    2.500    2.333    5.333 
#    0.000    0.000    0.000    0.000    0.000    0.000 
#    0.000    0.000    0.000    0.000    0.000    0.000 
#
# Total GULP energy -134660.882628 kJ/mol
# GULP energy per Si atom -5610.870109 kJ/mol
# Density = 2.665056 g / cm^3
# Si number density = 26.711361 Si / 1000 Ang^3
#
#
#
# Elastic Constant Matrix: (Units=GPa)
#
#
# Indices 1 2 3 4 5 6 
#
# 1 44.2905 19.2067 24.8637 0.0000 4.0164 0.0000
# 2 19.2067 136.4742 31.5443 0.0000 5.5051 0.0000
# 3 24.8637 31.5443 135.0669 0.0000 4.5323 0.0000
# 4 0.0000 0.0000 0.0000 50.9687 0.0000 -10.0922
# 5 4.0164 5.5051 4.5323 0.0000 29.1648 0.0000
# 6 0.0000 0.0000 0.0000 -10.0922 0.0000 39.5663
#
#
#
# Elastic Compliance Matrix: (Units=1/GPa)
#
#
# Indices 1 2 3 4 5 6 
#
# 1 0.026270 -0.002641 -0.004136 0.000000 -0.002476 0.000000
# 2 -0.002641 0.008052 -0.001363 0.000000 -0.000944 0.000000
# 3 -0.004136 -0.001363 0.008500 0.000000 -0.000494 0.000000
# 4 0.000000 0.000000 0.000000 0.020664 0.000000 0.005271
# 5 -0.002476 -0.000944 -0.000494 0.000000 0.034884 0.000000
# 6 0.000000 0.000000 0.000000 0.005271 0.000000 0.026618
#
#
# Mechanical properties :
#
#
# Convention : Reuss Voigt Hill
#
# Bulk Modulus (GPa) = 37.67555 51.89567 44.78561
# Shear Modulus (GPa) = 33.30776 39.95441 36.63108
#
# Velocity S-wave (km/s) = 3.53505 3.87173 3.70721
# Velocity P-wave (km/s) = 5.54954 6.28153 5.92684
#
# Compressibility (1/GPa) = 0.02654241
#
# Stress axis : x y z
#
# Youngs Moduli (GPa) = 38.06626 124.19026 117.64813
#
# Poissons Ratio (x) = 0.32802 0.48658
# Poissons Ratio (y) = 0.10054 0.16031
# Poissons Ratio (z) = 0.15744 0.16923
#
# Static dielectric constant tensor:
#      x y z
#    x 2.080780 0.000000 0.008230 
#    y 0.000000 2.056460 0.000000 
#    z 0.008230 0.000000 2.115640 
# 
# From -- ./inp_files/8460.got.cif
#   From: 2010.05.17/outbox.cif.g08.bks.cpg/sg14_5_cif.got.tgz:8460.got - 2010.06.03 17:49:19.
