data_PCOD9246470
_publ_section_title
;
Structure prediction by ZEFSAII (Michael W. Deem and Ramdas Pophale) SiO2 
 PCOD9246470
Probable space group: P 21/C
;
_chemical_formula_sum "Si O2"
_cell_formula_units_Z 32
_cell_length_a 15.936441
_cell_length_b 14.432058
_cell_length_c 9.706312
_cell_angle_alpha 90.000000
_cell_angle_beta 141.362455
_cell_angle_gamma 90.000000
_cell_volume 1393.897664
_symmetry_space_group_name_H-M "P 21/C"
_symmetry_group_IT_number 14
_symmetry_cell_setting 'monoclinic'
loop_
_space_group_symop_operation_xyz
x,y,z
-x,1/2+y,1/2-z
-x,-y,-z
x,1/2-y,1/2+z
loop_
_atom_site_type_symbol
_atom_site_label
_atom_site_fract_x
_atom_site_fract_y
_atom_site_fract_z
Si Si1 0.342181 0.431260 0.865375
Si Si2 0.944817 0.281041 0.873514
Si Si3 0.761002 0.225918 0.384570
Si Si4 0.575270 0.371448 0.980110
Si Si5 0.462387 0.186541 0.761938
Si Si6 0.205067 0.378813 0.084124
Si Si7 0.075351 0.094149 0.116342
Si Si8 0.637624 0.055475 0.150226
O O1 0.339752 0.534241 0.928997
O O2 0.190520 0.401525 0.648043
O O3 0.438630 0.420719 0.860305
O O4 0.402140 0.358928 0.050235
O O5 0.849068 0.269580 0.618531
O O6 0.859321 0.317371 0.892850
O O7 0.085731 0.329924 0.016301
O O8 0.978174 0.178726 0.968661
O O9 0.663684 0.305682 0.197316
O O10 0.679791 0.131940 0.318566
O O11 0.513256 0.290171 0.806795
O O12 0.342902 0.178622 0.724374
O O13 0.589861 0.122483 0.965532
O O14 0.142227 0.399762 0.852845
O O15 0.253099 0.474274 0.216982
O O16 0.000000 0.000000 0.000000
O O17 0.500000 0.000000 0.000000
#
# Coordination Sequence:
#
# PCOD9246470 Si02
#       8
#     4   4   4   4   4   4   4   4
#     4  10  22  40  65  97 131 172 228 269 345 391
#     4  12  24  43  64  98 130 179 219 275 333 402
#     4  11  25  41  69  94 132 175 225 272 339 400
#     4  10  22  42  63  94 129 175 218 286 324 407
#     4   9  20  41  64  97 129 171 217 281 338 398
#     4  10  21  41  63  93 132 168 222 272 332 405
#     4  11  22  41  66  92 132 177 218 271 329 413
#     4   9  20  41  64  95 126 167 218 275 342 392
#
# _framework density 22.957208000000001
#
# number of rings (size 3 to 8) (size 9 to 14) (size 15 to 20)
#    0.000    1.750    1.250    2.250    3.500    2.500 
#   13.500    1.250    0.000    0.000    0.000    0.000 
#    0.000    0.000    0.000    0.000    0.000    0.000 
#
# Total GULP energy -178508.549516 kJ/mol
# GULP energy per Si atom -5578.392172 kJ/mol
# Density = 2.290496 g / cm^3
# Si number density = 22.957208 Si / 1000 Ang^3
#
#
#
# Elastic Constant Matrix: (Units=GPa)
#
#
# Indices 1 2 3 4 5 6 
#
# 1 59.7686 17.2003 6.3558 0.0000 15.8498 0.0000
# 2 17.2003 149.3038 35.2605 0.0000 9.9028 0.0000
# 3 6.3558 35.2605 80.4899 0.0000 12.4238 0.0000
# 4 0.0000 0.0000 0.0000 47.1236 0.0000 15.8918
# 5 15.8498 9.9028 12.4238 0.0000 22.0772 0.0000
# 6 0.0000 0.0000 0.0000 15.8918 0.0000 23.8843
#
#
#
# Elastic Compliance Matrix: (Units=1/GPa)
#
#
# Indices 1 2 3 4 5 6 
#
# 1 0.021111 -0.001768 0.001450 0.000000 -0.015180 0.000000
# 2 -0.001768 0.007674 -0.003161 0.000000 -0.000394 0.000000
# 3 0.001450 -0.003161 0.014933 0.000000 -0.008027 0.000000
# 4 0.000000 0.000000 0.000000 0.027360 0.000000 -0.018204
# 5 -0.015180 -0.000394 -0.008027 0.000000 0.060887 0.000000
# 6 0.000000 0.000000 0.000000 -0.018204 0.000000 0.053981
#
#
# Mechanical properties :
#
#
# Convention : Reuss Voigt Hill
#
# Bulk Modulus (GPa) = 27.20281 45.24395 36.22338
# Shear Modulus (GPa) = 24.37143 34.00006 29.18574
#
# Velocity S-wave (km/s) = 3.26176 3.85258 3.56941
# Velocity P-wave (km/s) = 5.10495 6.28813 5.72717
#
# Compressibility (1/GPa) = 0.03676091
#
# Stress axis : x y z
#
# Youngs Moduli (GPa) = 47.36846 130.30722 66.96445
#
# Poissons Ratio (x) = 0.23036 -0.09713
# Poissons Ratio (y) = 0.08374 0.21170
# Poissons Ratio (z) = -0.06870 0.41196
#
# Static dielectric constant tensor:
#      x y z
#    x 2.057770 0.000000 0.015040 
#    y 0.000000 1.894490 0.000000 
#    z 0.015040 0.000000 1.870250 
# 
# From -- ./inp_files/34256.got.cif
#   From: 2010.05.17/outbox.cif.g08.bks.cpg/sg14_18_cif.got.tgz:34256.got - 2010.06.03 17:49:19.
