data_PCOD9246920
_publ_section_title
;
Structure prediction by ZEFSAII (Michael W. Deem and Ramdas Pophale) SiO2 
 PCOD9246920
Probable space group: P 21/C
;
_chemical_formula_sum "Si O2"
_cell_formula_units_Z 32
_cell_length_a 16.495690
_cell_length_b 11.942159
_cell_length_c 14.174380
_cell_angle_alpha 90.000000
_cell_angle_beta 145.570156
_cell_angle_gamma 90.000000
_cell_volume 1578.740256
_symmetry_space_group_name_H-M "P 21/C"
_symmetry_group_IT_number 14
_symmetry_cell_setting 'monoclinic'
loop_
_space_group_symop_operation_xyz
x,y,z
-x,1/2+y,1/2-z
-x,-y,-z
x,1/2-y,1/2+z
loop_
_atom_site_type_symbol
_atom_site_label
_atom_site_fract_x
_atom_site_fract_y
_atom_site_fract_z
Si Si1 0.569442 0.668067 0.148321
Si Si2 0.882993 0.605916 0.183476
Si Si3 0.060390 0.016899 0.704484
Si Si4 0.298243 0.329805 0.516267
Si Si5 0.914130 0.109165 0.954863
Si Si6 0.312136 0.996140 0.363319
Si Si7 0.476168 0.874437 0.937011
Si Si8 0.854579 0.349540 0.870794
O O1 0.638907 0.669649 0.317738
O O2 0.670399 0.620422 0.161767
O O3 0.447230 0.572284 0.029070
O O4 0.513798 0.786782 0.057151
O O5 0.797054 0.508206 0.155430
O O6 0.945865 0.558898 0.148248
O O7 0.018970 0.634646 0.380074
O O8 0.778684 0.710386 0.071557
O O9 0.968793 0.104792 0.555797
O O10 0.144273 0.936175 0.714004
O O11 0.172747 0.078534 0.880262
O O12 0.419452 0.352007 0.552499
O O13 0.911657 0.226376 0.896660
O O14 0.751004 0.070446 0.787014
O O15 0.000000 0.000000 0.000000
O O16 0.309555 0.850526 0.750752
O O17 0.500000 0.000000 0.000000
#
# Coordination Sequence:
#
# PCOD9246920 Si02
#       8
#     4   4   4   4   4   4   4   4
#     4  11  25  43  71  98 143 187 228 297 352 437
#     4  11  24  41  69 102 139 181 234 295 349 429
#     4  11  26  45  70 103 141 186 240 295 357 427
#     4  12  26  46  70 108 142 187 242 289 364 436
#     4  10  21  42  70  95 133 182 230 287 348 422
#     4  10  22  44  66  97 137 179 234 282 361 404
#     4  12  26  49  73 102 147 188 239 299 365 434
#     4  11  24  47  72 101 142 189 238 300 363 422
#
# _framework density 20.269324999999998
#
# number of rings (size 3 to 8) (size 9 to 14) (size 15 to 20)
#    0.000    1.000    5.000    0.750    3.500    4.000 
#    2.250    0.000    0.000    0.000    0.000    0.000 
#    0.000    0.000    0.000    0.000    0.000    0.000 
#
# Total GULP energy -178476.534835 kJ/mol
# GULP energy per Si atom -5577.391714 kJ/mol
# Density = 2.022319 g / cm^3
# Si number density = 20.269325 Si / 1000 Ang^3
#
#
#
# Elastic Constant Matrix: (Units=GPa)
#
#
# Indices 1 2 3 4 5 6 
#
# 1 78.0124 26.3290 27.5140 0.0000 13.3815 0.0000
# 2 26.3290 136.1942 49.4029 0.0000 -5.4189 0.0000
# 3 27.5140 49.4029 104.0717 0.0000 -14.4334 0.0000
# 4 0.0000 0.0000 0.0000 28.8680 0.0000 4.6768
# 5 13.3815 -5.4189 -14.4334 0.0000 26.2271 0.0000
# 6 0.0000 0.0000 0.0000 4.6768 0.0000 20.3545
#
#
#
# Elastic Compliance Matrix: (Units=1/GPa)
#
#
# Indices 1 2 3 4 5 6 
#
# 1 0.017483 -0.001901 -0.005425 0.000000 -0.012299 0.000000
# 2 -0.001901 0.009083 -0.003696 0.000000 0.000812 0.000000
# 3 -0.005425 -0.003696 0.014156 0.000000 0.009795 0.000000
# 4 0.000000 0.000000 0.000000 0.035980 0.000000 -0.008267
# 5 -0.012299 0.000812 0.009795 0.000000 0.049962 0.000000
# 6 0.000000 0.000000 0.000000 -0.008267 0.000000 0.051029
#
#
# Mechanical properties :
#
#
# Convention : Reuss Voigt Hill
#
# Bulk Modulus (GPa) = 53.54292 58.30779 55.92535
# Shear Modulus (GPa) = 24.27605 29.42540 26.85073
#
# Velocity S-wave (km/s) = 3.46450 3.81428 3.64359
# Velocity P-wave (km/s) = 6.51742 6.94459 6.73439
#
# Compressibility (1/GPa) = 0.01867661
#
# Stress axis : x y z
#
# Youngs Moduli (GPa) = 57.19788 110.09355 70.64034
#
# Poissons Ratio (x) = 0.20931 0.38324
# Poissons Ratio (y) = 0.10875 0.26112
# Poissons Ratio (z) = 0.31031 0.40696
#
# Static dielectric constant tensor:
#      x y z
#    x 1.730720 0.000000 0.034670 
#    y 0.000000 1.778590 0.000000 
#    z 0.034670 0.000000 1.756300 
# 
# From -- ./inp_files/48938.got.cif
#   From: 2010.05.17/outbox.cif.g08.bks.cpg/sg14_25_cif.got.tgz:48938.got - 2010.06.03 17:49:19.
