data_PCOD9246937
_publ_section_title
;
Structure prediction by ZEFSAII (Michael W. Deem and Ramdas Pophale) SiO2 
 PCOD9246937
Probable space group: P 21/C
;
_chemical_formula_sum "Si O2"
_cell_formula_units_Z 28
_cell_length_a 18.474640
_cell_length_b 11.351478
_cell_length_c 9.312581
_cell_angle_alpha 90.000000
_cell_angle_beta 144.595330
_cell_angle_gamma 90.000000
_cell_volume 1131.456022
_symmetry_space_group_name_H-M "P 21/C"
_symmetry_group_IT_number 14
_symmetry_cell_setting 'monoclinic'
loop_
_space_group_symop_operation_xyz
x,y,z
-x,1/2+y,1/2-z
-x,-y,-z
x,1/2-y,1/2+z
loop_
_atom_site_type_symbol
_atom_site_label
_atom_site_fract_x
_atom_site_fract_y
_atom_site_fract_z
Si Si1 0.429375 0.893571 0.309660
Si Si2 0.847216 0.033702 0.213549
Si Si3 0.976335 0.377955 0.177885
Si Si4 0.440988 0.325154 0.483288
Si Si5 0.166887 0.315756 0.079740
Si Si6 0.860141 0.510595 0.216040
Si Si7 0.594436 0.979606 0.344443
O O1 0.467402 0.769795 0.438308
O O2 0.500000 0.000000 0.500000
O O3 0.503860 0.891190 0.279959
O O4 0.286186 0.923398 0.054709
O O5 0.836988 0.917833 0.303324
O O6 0.931968 0.988114 0.218055
O O7 0.912112 0.135183 0.416673
O O8 0.861611 0.409271 0.096745
O O9 0.062748 0.285502 0.402114
O O10 0.309032 0.269830 0.318524
O O11 0.398403 0.426942 0.303978
O O12 0.522017 0.396797 0.728963
O O13 0.147633 0.371264 0.890373
O O14 0.000000 0.500000 0.500000
O O15 0.739280 0.504357 0.121295
#
# Coordination Sequence:
#
# PCOD9246937 Si02
#       7
#     4   4   4   4   4   4   4
#     4  12  26  42  72 105 136 183 237 284 356 414
#     4  10  23  45  64 100 142 171 235 297 329 421
#     4  10  23  42  68  93 134 184 220 280 352 408
#     4  10  23  43  72  95 135 186 220 295 349 408
#     4  10  21  42  71  94 131 185 225 277 356 399
#     4  10  24  41  64 100 131 171 227 281 333 417
#     4  10  24  47  67 101 140 174 235 288 347 413
#
# _framework density 24.746873999999998
#
# number of rings (size 3 to 8) (size 9 to 14) (size 15 to 20)
#    0.000    1.714    1.429    0.857   10.000    2.286 
#    5.143    0.000    0.000    0.000    0.000    0.000 
#    0.000    0.000    0.000    0.000    0.000    0.000 
#
# Total GULP energy -156155.052069 kJ/mol
# GULP energy per Si atom -5576.966145 kJ/mol
# Density = 2.469055 g / cm^3
# Si number density = 24.746874 Si / 1000 Ang^3
#
#
#
# Elastic Constant Matrix: (Units=GPa)
#
#
# Indices 1 2 3 4 5 6 
#
# 1 58.5351 -0.5401 21.6113 0.0000 12.4404 0.0000
# 2 -0.5401 84.2873 50.9547 0.0000 0.2206 0.0000
# 3 21.6113 50.9547 170.7724 0.0000 34.7589 0.0000
# 4 0.0000 0.0000 0.0000 45.2101 0.0000 4.1058
# 5 12.4404 0.2206 34.7589 0.0000 35.5887 0.0000
# 6 0.0000 0.0000 0.0000 4.1058 0.0000 29.1097
#
#
#
# Elastic Compliance Matrix: (Units=1/GPa)
#
#
# Indices 1 2 3 4 5 6 
#
# 1 0.018772 0.001183 -0.001737 0.000000 -0.004873 0.000000
# 2 0.001183 0.015349 -0.005774 0.000000 0.005130 0.000000
# 3 -0.001737 -0.005774 0.009570 0.000000 -0.008704 0.000000
# 4 0.000000 0.000000 0.000000 0.022406 0.000000 -0.003160
# 5 -0.004873 0.005130 -0.008704 0.000000 0.038271 0.000000
# 6 0.000000 0.000000 0.000000 -0.003160 0.000000 0.034799
#
#
# Mechanical properties :
#
#
# Convention : Reuss Voigt Hill
#
# Bulk Modulus (GPa) = 32.22143 50.84963 41.53553
# Shear Modulus (GPa) = 30.83265 38.08630 34.45948
#
# Velocity S-wave (km/s) = 3.53359 3.92731 3.73564
# Velocity P-wave (km/s) = 5.44950 6.41541 5.95208
#
# Compressibility (1/GPa) = 0.03103525
#
# Stress axis : x y z
#
# Youngs Moduli (GPa) = 53.27218 65.15203 104.49501
#
# Poissons Ratio (x) = -0.07707 0.18147
# Poissons Ratio (y) = -0.06302 0.60332
# Poissons Ratio (z) = 0.09252 0.37617
#
# Static dielectric constant tensor:
#      x y z
#    x 2.152270 0.000000 -0.063210 
#    y 0.000000 2.035890 0.000000 
#    z -0.063210 0.000000 2.002160 
# 
# From -- ./inp_files/35206.got.cif
#   From: 2010.05.17/outbox.cif.g08.bks.cpg/sg14_18_cif.got.tgz:35206.got - 2010.06.03 17:49:19.
