data_PCOD9246198
_publ_section_title
;
Structure prediction by ZEFSAII (Michael W. Deem and Ramdas Pophale) SiO2 
 PCOD9246198
Probable space group: P 21/C
;
_chemical_formula_sum "Si O2"
_cell_formula_units_Z 28
_cell_length_a 13.748170
_cell_length_b 7.692860
_cell_length_c 13.843368
_cell_angle_alpha 90.000000
_cell_angle_beta 121.260841
_cell_angle_gamma 90.000000
_cell_volume 1251.543530
_symmetry_space_group_name_H-M "P 21/C"
_symmetry_group_IT_number 14
_symmetry_cell_setting 'monoclinic'
loop_
_space_group_symop_operation_xyz
x,y,z
-x,1/2+y,1/2-z
-x,-y,-z
x,1/2-y,1/2+z
loop_
_atom_site_type_symbol
_atom_site_label
_atom_site_fract_x
_atom_site_fract_y
_atom_site_fract_z
Si Si1 0.870492 0.512294 0.521388
Si Si2 0.063253 0.220374 0.123751
Si Si3 0.463336 0.213628 0.673444
Si Si4 0.607574 0.148862 0.414249
Si Si5 0.720391 0.622017 0.757477
Si Si6 0.360369 0.496254 0.481481
Si Si7 0.840990 0.138734 0.456772
O O1 0.898589 0.672162 0.466815
O O2 0.768174 0.524613 0.542652
O O3 0.835941 0.347014 0.435527
O O4 0.988688 0.439916 0.625743
O O5 0.183582 0.249286 0.235097
O O6 0.967809 0.372038 0.066129
O O7 0.573146 0.264886 0.792847
O O8 0.362072 0.195920 0.701763
O O9 0.431571 0.365102 0.584069
O O10 0.465654 0.027102 0.621125
O O11 0.598015 0.306167 0.483341
O O12 0.740670 0.099419 0.481196
O O13 0.645393 0.553573 0.632257
O O14 0.801498 0.474983 0.846628
#
# Coordination Sequence:
#
# PCOD9246198 Si02
#       7
#     4   4   4   4   4   4   4
#     4   8  17  35  59  77 119 158 193 239 298 358
#     4   9  16  35  58  84 113 164 195 239 306 353
#     4  11  22  42  65  87 122 165 198 256 314 362
#     4  10  21  40  65  84 115 166 199 249 314 359
#     4  11  22  36  61  93 120 159 205 254 299 362
#     4  11  22  42  59  93 127 154 210 255 298 368
#     4   8  18  35  58  81 112 159 196 237 305 358
#
# _framework density 22.372375000000002
#
# number of rings (size 3 to 8) (size 9 to 14) (size 15 to 20)
#    0.857    1.429    2.857    0.429    0.000    0.571 
#    5.143    0.714    0.000    0.000    0.000    0.000 
#    0.000    0.000    0.000    0.000    0.000    0.000 
#
# Total GULP energy -155960.123091 kJ/mol
# GULP energy per Si atom -5570.004396 kJ/mol
# Density = 2.232145 g / cm^3
# Si number density = 22.372375 Si / 1000 Ang^3
#
#
#
# Elastic Constant Matrix: (Units=GPa)
#
#
# Indices 1 2 3 4 5 6 
#
# 1 105.9195 17.0456 31.2713 0.0000 22.3213 0.0000
# 2 17.0456 59.3359 8.1687 0.0000 3.2632 0.0000
# 3 31.2713 8.1687 58.2323 0.0000 6.2341 0.0000
# 4 0.0000 0.0000 0.0000 24.2362 0.0000 13.1838
# 5 22.3213 3.2632 6.2341 0.0000 21.0234 0.0000
# 6 0.0000 0.0000 0.0000 13.1838 0.0000 19.8208
#
#
#
# Elastic Compliance Matrix: (Units=1/GPa)
#
#
# Indices 1 2 3 4 5 6 
#
# 1 0.014376 -0.002590 -0.005955 0.000000 -0.013095 0.000000
# 2 -0.002590 0.017735 -0.001133 0.000000 0.000333 0.000000
# 3 -0.005955 -0.001133 0.020484 0.000000 0.000424 0.000000
# 4 0.000000 0.000000 0.000000 0.064654 0.000000 -0.043004
# 5 -0.013095 0.000333 0.000424 0.000000 0.061293 0.000000
# 6 0.000000 0.000000 0.000000 -0.043004 0.000000 0.079056
#
#
# Mechanical properties :
#
#
# Convention : Reuss Voigt Hill
#
# Bulk Modulus (GPa) = 30.08417 37.38431 33.73424
# Shear Modulus (GPa) = 17.35925 24.14956 20.75441
#
# Velocity S-wave (km/s) = 2.78856 3.28904 3.04909
# Velocity P-wave (km/s) = 4.88306 5.58301 5.24473
#
# Compressibility (1/GPa) = 0.03324007
#
# Stress axis : x y z
#
# Youngs Moduli (GPa) = 69.56227 56.38630 48.81905
#
# Poissons Ratio (x) = 0.14603 0.29070
# Poissons Ratio (y) = 0.18015 0.05530
# Poissons Ratio (z) = 0.41422 0.06387
#
# Static dielectric constant tensor:
#      x y z
#    x 1.869870 0.000000 0.044550 
#    y 0.000000 1.883740 0.000000 
#    z 0.044550 0.000000 1.789400 
# 
# From -- ./inp_files/46554.got.cif
#   From: 2010.05.17/outbox.cif.g08.bks.cpg/sg14_24_cif.got.tgz:46554.got - 2010.06.03 17:49:19.
