data_PCOD9246641
_publ_section_title
;
Structure prediction by ZEFSAII (Michael W. Deem and Ramdas Pophale) SiO2 
 PCOD9246641
Probable space group: P 21/C
;
_chemical_formula_sum "Si O2"
_cell_formula_units_Z 32
_cell_length_a 14.788049
_cell_length_b 12.331621
_cell_length_c 17.974408
_cell_angle_alpha 90.000000
_cell_angle_beta 152.719159
_cell_angle_gamma 90.000000
_cell_volume 1502.398502
_symmetry_space_group_name_H-M "P 21/C"
_symmetry_group_IT_number 14
_symmetry_cell_setting 'monoclinic'
loop_
_space_group_symop_operation_xyz
x,y,z
-x,1/2+y,1/2-z
-x,-y,-z
x,1/2-y,1/2+z
loop_
_atom_site_type_symbol
_atom_site_label
_atom_site_fract_x
_atom_site_fract_y
_atom_site_fract_z
Si Si1 0.550179 0.370377 0.109454
Si Si2 0.335580 0.384562 0.805364
Si Si3 0.592031 0.508279 0.687850
Si Si4 0.204694 0.006872 0.813051
Si Si5 0.949038 0.762812 0.316107
Si Si6 0.661842 0.776876 0.326516
Si Si7 0.326258 0.708051 0.182887
Si Si8 0.877507 0.650299 0.122372
O O1 0.652850 0.486608 0.194024
O O2 0.670078 0.276136 0.238151
O O3 0.508248 0.353505 0.991063
O O4 0.333312 0.373851 0.991310
O O5 0.144401 0.336561 0.706699
O O6 0.342535 0.324054 0.732168
O O7 0.739523 0.473294 0.729702
O O8 0.382137 0.530335 0.495946
O O9 0.674563 0.614295 0.787686
O O10 0.574024 0.407560 0.729925
O O11 0.999506 0.955914 0.689254
O O12 0.199927 0.137891 0.808088
O O13 0.002671 0.717509 0.274310
O O14 0.118546 0.809101 0.492163
O O15 0.456343 0.776570 0.220452
O O16 0.826683 0.781582 0.511294
#
# Coordination Sequence:
#
# PCOD9246641 Si02
#       8
#     4   4   4   4   4   4   4   4
#     4   9  22  44  65  92 129 170 210 262 319 374
#     4  10  21  41  68  89 126 168 210 260 314 378
#     4  11  24  41  66  97 125 168 213 265 324 378
#     4  11  23  41  66  94 130 162 213 267 321 380
#     4  11  23  44  61  94 130 167 211 267 316 379
#     4  11  23  39  66  94 125 170 210 260 317 381
#     4  11  25  40  67  93 131 166 215 261 317 382
#     4  10  23  42  62  95 130 167 213 263 318 377
#
# _framework density 21.299275000000002
#
# number of rings (size 3 to 8) (size 9 to 14) (size 15 to 20)
#    0.000    1.500    1.250    3.750    8.750    1.500 
#    2.250    0.000    0.000    0.000    0.000    0.000 
#    0.000    0.000    0.000    0.000    0.000    0.000 
#
# Total GULP energy -178738.015956 kJ/mol
# GULP energy per Si atom -5585.562999 kJ/mol
# Density = 2.125080 g / cm^3
# Si number density = 21.299275 Si / 1000 Ang^3
#
#
#
# Elastic Constant Matrix: (Units=GPa)
#
#
# Indices 1 2 3 4 5 6 
#
# 1 49.3804 12.9574 8.5326 0.0000 -12.5476 0.0000
# 2 12.9574 62.8912 0.4698 0.0000 -10.0973 0.0000
# 3 8.5326 0.4698 17.9579 0.0000 -4.0420 0.0000
# 4 0.0000 0.0000 0.0000 19.4423 0.0000 2.4431
# 5 -12.5476 -10.0973 -4.0420 0.0000 16.8764 0.0000
# 6 0.0000 0.0000 0.0000 2.4431 0.0000 28.0261
#
#
#
# Elastic Compliance Matrix: (Units=1/GPa)
#
#
# Indices 1 2 3 4 5 6 
#
# 1 0.026596 -0.002858 -0.008980 0.000000 0.015914 0.000000
# 2 -0.002858 0.017967 0.002990 0.000000 0.009341 0.000000
# 3 -0.008980 0.002990 0.062123 0.000000 0.009991 0.000000
# 4 0.000000 0.000000 0.000000 0.052004 0.000000 -0.004533
# 5 0.015914 0.009341 0.009991 0.000000 0.079068 0.000000
# 6 0.000000 0.000000 0.000000 -0.004533 0.000000 0.036076
#
#
# Mechanical properties :
#
#
# Convention : Reuss Voigt Hill
#
# Bulk Modulus (GPa) = 11.23713 19.34990 15.29351
# Shear Modulus (GPa) = 15.56696 20.08695 17.82695
#
# Velocity S-wave (km/s) = 2.70639 3.07429 2.89619
# Velocity P-wave (km/s) = 3.87986 4.65899 4.28716
#
# Compressibility (1/GPa) = 0.08899072
#
# Stress axis : x y z
#
# Youngs Moduli (GPa) = 37.59933 55.65876 16.09706
#
# Poissons Ratio (x) = 0.15905 0.14456
# Poissons Ratio (y) = 0.10744 -0.04813
# Poissons Ratio (z) = 0.33765 -0.16643
#
# Static dielectric constant tensor:
#      x y z
#    x 1.795550 0.000000 -0.007820 
#    y 0.000000 1.729820 0.000000 
#    z -0.007820 0.000000 1.775400 
# 
# From -- ./inp_files/59483.got.cif
#   From: 2010.05.17/outbox.cif.g08.bks.cpg/sg14_30_cif.got.tgz:59483.got - 2010.06.03 17:49:19.
