data_PCOD9246000
_publ_section_title
;
Structure prediction by ZEFSAII (Michael W. Deem and Ramdas Pophale) SiO2 
 PCOD9246000
Probable space group: P 21/C
;
_chemical_formula_sum "Si O2"
_cell_formula_units_Z 20
_cell_length_a 9.770714
_cell_length_b 15.244709
_cell_length_c 8.749931
_cell_angle_alpha 90.000000
_cell_angle_beta 142.264307
_cell_angle_gamma 90.000000
_cell_volume 797.655854
_symmetry_space_group_name_H-M "P 21/C"
_symmetry_group_IT_number 14
_symmetry_cell_setting 'monoclinic'
loop_
_space_group_symop_operation_xyz
x,y,z
-x,1/2+y,1/2-z
-x,-y,-z
x,1/2-y,1/2+z
loop_
_atom_site_type_symbol
_atom_site_label
_atom_site_fract_x
_atom_site_fract_y
_atom_site_fract_z
Si Si1 0.630789 0.824917 0.947180
Si Si2 0.034069 0.306744 0.648264
Si Si3 0.366703 0.462401 0.028483
Si Si4 0.405950 0.670307 0.556017
Si Si5 0.004944 0.426405 0.371058
O O1 0.442617 0.835875 0.908127
O O2 0.844452 0.785087 0.227959
O O3 0.748309 0.909007 0.975833
O O4 0.542822 0.754896 0.744608
O O5 0.843884 0.319104 0.604624
O O6 0.938234 0.336647 0.399662
O O7 0.230337 0.376514 0.852285
O O8 0.184523 0.537249 0.909196
O O9 0.500000 0.500000 0.000000
O O10 0.505105 0.419035 0.286924
O O11 0.000000 0.500000 0.500000
#
# Coordination Sequence:
#
# PCOD9246000 Si02
#       5
#     4   4   4   4   4
#     4  11  24  42  65 100 135 175 228 281 339 402
#     4  10  22  40  67  98 131 175 226 272 338 409
#     4  10  21  39  68  94 132 178 219 271 340 401
#     4  11  24  39  67 100 132 176 226 283 341 403
#     4  10  21  43  67  92 135 177 217 276 336 404
#
# _framework density 25.07347
#
# number of rings (size 3 to 8) (size 9 to 14) (size 15 to 20)
#    0.000    1.600    4.000    0.000    2.800    0.800 
#    0.000    4.000    0.000    0.000    0.000    0.000 
#    0.000    0.000    0.000    0.000    0.000    0.000 
#
# Total GULP energy -111833.246056 kJ/mol
# GULP energy per Si atom -5591.662303 kJ/mol
# Density = 2.501640 g / cm^3
# Si number density = 25.073470 Si / 1000 Ang^3
#
#
#
# Elastic Constant Matrix: (Units=GPa)
#
#
# Indices 1 2 3 4 5 6 
#
# 1 156.6655 21.7966 16.7161 0.0000 0.2000 0.0000
# 2 21.7966 90.8693 34.0492 0.0000 -6.1070 0.0000
# 3 16.7161 34.0492 42.1258 0.0000 -2.9741 0.0000
# 4 0.0000 0.0000 0.0000 50.7756 0.0000 4.2505
# 5 0.2000 -6.1070 -2.9741 0.0000 36.5517 0.0000
# 6 0.0000 0.0000 0.0000 4.2505 0.0000 52.1786
#
#
#
# Elastic Compliance Matrix: (Units=1/GPa)
#
#
# Indices 1 2 3 4 5 6 
#
# 1 0.006718 -0.000899 -0.001964 0.000000 -0.000347 0.000000
# 2 -0.000899 0.016001 -0.012459 0.000000 0.001665 0.000000
# 3 -0.001964 -0.012459 0.034640 0.000000 0.000748 0.000000
# 4 0.000000 0.000000 0.000000 0.019830 0.000000 -0.001615
# 5 -0.000347 0.001665 0.000748 0.000000 0.027699 0.000000
# 6 0.000000 0.000000 0.000000 -0.001615 0.000000 0.019297
#
#
# Mechanical properties :
#
#
# Convention : Reuss Voigt Hill
#
# Bulk Modulus (GPa) = 37.43004 48.30939 42.86972
# Shear Modulus (GPa) = 30.53752 42.37443 36.45598
#
# Velocity S-wave (km/s) = 3.49366 4.11543 3.81723
# Velocity P-wave (km/s) = 5.58881 6.47235 6.04674
#
# Compressibility (1/GPa) = 0.02671651
#
# Stress axis : x y z
#
# Youngs Moduli (GPa) = 148.85244 62.49746 28.86795
#
# Poissons Ratio (x) = 0.05618 0.05669
# Poissons Ratio (y) = 0.13381 0.35966
# Poissons Ratio (z) = 0.29231 0.77864
#
# Static dielectric constant tensor:
#      x y z
#    x 1.973290 0.000000 0.007450 
#    y 0.000000 2.100780 0.000000 
#    z 0.007450 0.000000 2.198600 
# 
# From -- ./inp_files/9270.got.cif
#   From: 2010.05.17/outbox.cif.g08.bks.cpg/sg14_5_cif.got.tgz:9270.got - 2010.06.03 17:49:19.
