data_PCOD9246633
_publ_section_title
;
Structure prediction by ZEFSAII (Michael W. Deem and Ramdas Pophale) SiO2 
 PCOD9246633
Probable space group: P 21/C
;
_chemical_formula_sum "Si O2"
_cell_formula_units_Z 24
_cell_length_a 5.289786
_cell_length_b 13.128500
_cell_length_c 16.198033
_cell_angle_alpha 90.000000
_cell_angle_beta 125.401161
_cell_angle_gamma 90.000000
_cell_volume 916.927376
_symmetry_space_group_name_H-M "P 21/C"
_symmetry_group_IT_number 14
_symmetry_cell_setting 'monoclinic'
loop_
_space_group_symop_operation_xyz
x,y,z
-x,1/2+y,1/2-z
-x,-y,-z
x,1/2-y,1/2+z
loop_
_atom_site_type_symbol
_atom_site_label
_atom_site_fract_x
_atom_site_fract_y
_atom_site_fract_z
Si Si1 0.912654 0.313723 0.888979
Si Si2 0.768795 0.592084 0.897278
Si Si3 0.877262 0.116275 0.972330
Si Si4 0.355016 0.505343 0.381459
Si Si5 0.163572 0.020663 0.330035
Si Si6 0.356239 0.314476 0.673116
O O1 0.994505 0.197039 0.926859
O O2 0.120510 0.365275 0.857082
O O3 0.556115 0.328649 0.793429
O O4 0.990943 0.374739 0.986731
O O5 0.503056 0.523965 0.888401
O O6 0.947302 0.542597 0.853883
O O7 0.601634 0.696950 0.840348
O O8 0.520710 0.097713 0.880664
O O9 0.992415 0.163700 0.081996
O O10 0.000000 0.000000 0.000000
O O11 0.500000 0.500000 0.500000
O O12 0.995845 0.505107 0.289932
O O13 0.481356 0.605749 0.358755
#
# Coordination Sequence:
#
# PCOD9246633 Si02
#       6
#     4   4   4   4   4   4
#     4  10  21  41  68 101 139 182 236 292 350 426
#     4  11  24  45  68  99 140 185 232 288 354 419
#     4   9  19  39  65  93 135 179 228 283 346 410
#     4  10  22  40  66 103 141 184 236 293 352 419
#     4  11  25  44  69 102 140 185 234 288 355 421
#     4   9  21  39  65 102 136 185 236 290 352 417
#
# _framework density 26.174374
#
# number of rings (size 3 to 8) (size 9 to 14) (size 15 to 20)
#    0.000    2.000    0.000    2.000    0.000   12.000 
#    0.000   13.333    0.000    0.000    0.000    0.000 
#    0.000    0.000    0.000    0.000    0.000    0.000 
#
# Total GULP energy -134008.787055 kJ/mol
# GULP energy per Si atom -5583.699461 kJ/mol
# Density = 2.611480 g / cm^3
# Si number density = 26.174374 Si / 1000 Ang^3
#
#
#
# Elastic Constant Matrix: (Units=GPa)
#
#
# Indices 1 2 3 4 5 6 
#
# 1 94.5258 51.5066 35.6692 0.0000 -0.0581 0.0000
# 2 51.5066 158.0669 62.9939 0.0000 6.6411 0.0000
# 3 35.6692 62.9939 199.7368 0.0000 20.3366 0.0000
# 4 0.0000 0.0000 0.0000 48.9583 0.0000 -1.0625
# 5 -0.0581 6.6411 20.3366 0.0000 43.4729 0.0000
# 6 0.0000 0.0000 0.0000 -1.0625 0.0000 16.7903
#
#
#
# Elastic Compliance Matrix: (Units=1/GPa)
#
#
# Indices 1 2 3 4 5 6 
#
# 1 0.013143 -0.003830 -0.001260 0.000000 0.001192 0.000000
# 2 -0.003830 0.008352 -0.001911 0.000000 -0.000387 0.000000
# 3 -0.001260 -0.001911 0.006095 0.000000 -0.002561 0.000000
# 4 0.000000 0.000000 0.000000 0.020454 0.000000 0.001294
# 5 0.001192 -0.000387 -0.002561 0.000000 0.024262 0.000000
# 6 0.000000 0.000000 0.000000 0.001294 0.000000 0.059640
#
#
# Mechanical properties :
#
#
# Convention : Reuss Voigt Hill
#
# Bulk Modulus (GPa) = 73.59971 83.62987 78.61479
# Shear Modulus (GPa) = 33.22761 41.98830 37.60795
#
# Velocity S-wave (km/s) = 3.56683 4.00956 3.79466
# Velocity P-wave (km/s) = 6.71886 7.31135 7.02136
#
# Compressibility (1/GPa) = 0.01358701
#
# Stress axis : x y z
#
# Youngs Moduli (GPa) = 76.08845 119.72718 164.06773
#
# Poissons Ratio (x) = 0.45860 0.20679
# Poissons Ratio (y) = 0.29145 0.31349
# Poissons Ratio (z) = 0.09590 0.22877
#
# Static dielectric constant tensor:
#      x y z
#    x 2.387240 0.000000 -0.047610 
#    y 0.000000 2.094840 0.000000 
#    z -0.047610 0.000000 2.096400 
# 
# From -- ./inp_files/40519.got.cif
#   From: 2010.05.17/outbox.cif.g08.bks.cpg/sg14_21_cif.got.tgz:40519.got - 2010.06.03 17:49:19.
