data_PCOD9246167
_publ_section_title
;
Structure prediction by ZEFSAII (Michael W. Deem and Ramdas Pophale) SiO2 
 PCOD9246167
Probable space group: P 21/C
;
_chemical_formula_sum "Si O2"
_cell_formula_units_Z 32
_cell_length_a 11.530338
_cell_length_b 8.320043
_cell_length_c 15.875514
_cell_angle_alpha 90.000000
_cell_angle_beta 89.125519
_cell_angle_gamma 90.000000
_cell_volume 1522.806840
_symmetry_space_group_name_H-M "P 21/C"
_symmetry_group_IT_number 14
_symmetry_cell_setting 'monoclinic'
loop_
_space_group_symop_operation_xyz
x,y,z
-x,1/2+y,1/2-z
-x,-y,-z
x,1/2-y,1/2+z
loop_
_atom_site_type_symbol
_atom_site_label
_atom_site_fract_x
_atom_site_fract_y
_atom_site_fract_z
Si Si1 0.035726 0.886662 0.575675
Si Si2 0.798672 0.601413 0.811786
Si Si3 0.603020 0.425111 0.299947
Si Si4 0.174557 0.588617 0.499498
Si Si5 0.545322 0.707087 0.853864
Si Si6 0.090738 0.387745 0.347005
Si Si7 0.432239 0.666948 0.512894
Si Si8 0.150408 0.466884 0.679528
O O1 0.105885 0.741577 0.533125
O O2 0.929215 0.796765 0.624114
O O3 0.120745 0.981971 0.637057
O O4 0.000000 0.000000 0.500000
O O5 0.670373 0.620733 0.848916
O O6 0.802049 0.562390 0.712908
O O7 0.856373 0.778404 0.804502
O O8 0.535889 0.367159 0.217980
O O9 0.565642 0.606513 0.326171
O O10 0.580663 0.315847 0.384761
O O11 0.740814 0.442238 0.280075
O O12 0.107031 0.495885 0.428789
O O13 0.303961 0.641985 0.477028
O O14 0.182759 0.474195 0.580278
O O15 0.495463 0.708188 0.949691
O O16 0.970452 0.443468 0.304945
O O17 0.500000 0.500000 0.500000
#
# Coordination Sequence:
#
# PCOD9246167 Si02
#       8
#     4   4   4   4   4   4   4   4
#     4  11  23  41  62  92 127 157 205 257 305 370
#     4  11  23  39  60  94 125 160 203 258 310 364
#     4   9  20  39  63  88 123 162 211 254 315 367
#     4  10  21  40  64  91 114 168 205 246 312 374
#     4  10  22  40  62  93 126 165 207 261 308 367
#     4  11  22  38  65  89 124 162 203 247 317 371
#     4   9  20  40  64  88 120 169 209 251 307 375
#     4   9  19  41  60  84 124 161 203 252 306 372
#
# _framework density 21.013829000000001
#
# number of rings (size 3 to 8) (size 9 to 14) (size 15 to 20)
#    0.000    2.000    0.000    4.500    3.500    3.000 
#    9.000    1.250    0.000    0.000    0.000    0.000 
#    0.000    0.000    0.000    0.000    0.000    0.000 
#
# Total GULP energy -178559.243481 kJ/mol
# GULP energy per Si atom -5579.976359 kJ/mol
# Density = 2.096600 g / cm^3
# Si number density = 21.013829 Si / 1000 Ang^3
#
#
#
# Elastic Constant Matrix: (Units=GPa)
#
#
# Indices 1 2 3 4 5 6 
#
# 1 68.5436 20.3488 26.8298 0.0000 -7.3061 0.0000
# 2 20.3488 52.6588 55.2943 0.0000 5.2374 0.0000
# 3 26.8298 55.2943 89.4454 0.0000 5.9460 0.0000
# 4 0.0000 0.0000 0.0000 31.3650 0.0000 12.1823
# 5 -7.3061 5.2374 5.9460 0.0000 30.2216 0.0000
# 6 0.0000 0.0000 0.0000 12.1823 0.0000 19.8615
#
#
#
# Elastic Compliance Matrix: (Units=1/GPa)
#
#
# Indices 1 2 3 4 5 6 
#
# 1 0.017621 -0.004061 -0.003147 0.000000 0.005583 0.000000
# 2 -0.004061 0.055299 -0.032693 0.000000 -0.004133 0.000000
# 3 -0.003147 -0.032693 0.032432 0.000000 -0.001476 0.000000
# 4 0.000000 0.000000 0.000000 0.041854 0.000000 -0.025672
# 5 0.005583 -0.004133 -0.001476 0.000000 0.035445 0.000000
# 6 0.000000 0.000000 0.000000 -0.025672 0.000000 0.066095
#
#
# Mechanical properties :
#
#
# Convention : Reuss Voigt Hill
#
# Bulk Modulus (GPa) = 39.13405 46.17707 42.65556
# Shear Modulus (GPa) = 14.83396 23.50126 19.16761
#
# Velocity S-wave (km/s) = 2.65979 3.34783 3.02345
# Velocity P-wave (km/s) = 5.30057 6.07999 5.70361
#
# Compressibility (1/GPa) = 0.02555319
#
# Stress axis : x y z
#
# Youngs Moduli (GPa) = 56.74897 18.08342 30.83345
#
# Poissons Ratio (x) = 0.07343 0.09702
# Poissons Ratio (y) = 0.23043 1.00803
# Poissons Ratio (z) = 0.17857 0.59120
#
# Static dielectric constant tensor:
#      x y z
#    x 1.865470 0.000000 -0.127180 
#    y 0.000000 1.706640 0.000000 
#    z -0.127180 0.000000 1.784480 
# 
# From -- ./inp_files/57067.got.cif
#   From: 2010.05.17/outbox.cif.g08.bks.cpg/sg14_29_cif.got.tgz:57067.got - 2010.06.03 17:49:19.
