data_PCOD9246568
_publ_section_title
;
Structure prediction by ZEFSAII (Michael W. Deem and Ramdas Pophale) SiO2 
 PCOD9246568
Probable space group: P 21/C
;
_chemical_formula_sum "Si O2"
_cell_formula_units_Z 26
_cell_length_a 15.534055
_cell_length_b 12.735600
_cell_length_c 13.025086
_cell_angle_alpha 90.000000
_cell_angle_beta 153.830880
_cell_angle_gamma 90.000000
_cell_volume 1136.436840
_symmetry_space_group_name_H-M "P 21/C"
_symmetry_group_IT_number 14
_symmetry_cell_setting 'monoclinic'
loop_
_space_group_symop_operation_xyz
x,y,z
-x,1/2+y,1/2-z
-x,-y,-z
x,1/2-y,1/2+z
loop_
_atom_site_type_symbol
_atom_site_label
_atom_site_fract_x
_atom_site_fract_y
_atom_site_fract_z
Si Si1 0.043438 0.113804 0.739111
Si Si2 0.195389 0.579588 0.505384
Si Si3 0.663996 0.715866 0.847355
Si Si4 0.101263 0.274071 0.091024
Si Si5 0.771331 0.582705 0.145748
Si Si6 0.759667 0.290890 0.075618
Si Si7 0.500000 0.000000 0.500000
O O1 0.034125 0.152605 0.612528
O O2 0.842254 0.116389 0.589952
O O3 0.152388 0.004026 0.869364
O O4 0.181280 0.199496 0.943288
O O5 0.221877 0.692506 0.483954
O O6 0.996359 0.576772 0.357274
O O7 0.367460 0.545326 0.763889
O O8 0.461064 0.777804 0.620994
O O9 0.658459 0.623335 0.924531
O O10 0.757895 0.673938 0.842919
O O11 0.912594 0.229443 0.830659
O O12 0.232965 0.178069 0.275378
O O13 0.683827 0.486810 0.114157
#
# Coordination Sequence:
#
# PCOD9246568 Si02
#       7
#     4   4   4   4   4   4   2
#     4  10  24  42  64  98 131 174 223 267 333 406
#     4  12  24  43  67 101 133 169 224 279 325 395
#     4  10  21  42  62  90 135 170 215 273 319 391
#     4  10  21  41  66  89 129 180 209 266 337 389
#     4  11  23  42  64  97 133 165 223 276 326 392
#     4  11  22  44  66  92 135 174 213 277 328 392
#     4  12  24  36  68  98 124 172 212 278 330 382
#
# _framework density 22.878526999999998
#
# number of rings (size 3 to 8) (size 9 to 14) (size 15 to 20)
#    0.000    1.231    6.154    2.308    0.000    8.000 
#    0.000    0.769    0.000    0.000    0.000    0.000 
#    0.000    0.000    0.000    0.000    0.000    0.000 
#
# Total GULP energy -144864.211411 kJ/mol
# GULP energy per Si atom -5571.700439 kJ/mol
# Density = 2.282645 g / cm^3
# Si number density = 22.878527 Si / 1000 Ang^3
#
#
#
# Elastic Constant Matrix: (Units=GPa)
#
#
# Indices 1 2 3 4 5 6 
#
# 1 124.9570 -21.4394 27.8331 0.0000 -7.5527 0.0000
# 2 -21.4394 32.8229 5.7257 0.0000 -11.6783 0.0000
# 3 27.8331 5.7257 102.2071 0.0000 -14.4165 0.0000
# 4 0.0000 0.0000 0.0000 15.9373 0.0000 3.4609
# 5 -7.5527 -11.6783 -14.4165 0.0000 38.7054 0.0000
# 6 0.0000 0.0000 0.0000 3.4609 0.0000 17.3019
#
#
#
# Elastic Compliance Matrix: (Units=1/GPa)
#
#
# Indices 1 2 3 4 5 6 
#
# 1 0.010285 0.008457 -0.002778 0.000000 0.003524 0.000000
# 2 0.008457 0.041106 -0.002769 0.000000 0.013022 0.000000
# 3 -0.002778 -0.002769 0.011084 0.000000 0.002751 0.000000
# 4 0.000000 0.000000 0.000000 0.065595 0.000000 -0.013121
# 5 0.003524 0.013022 0.002751 0.000000 0.031477 0.000000
# 6 0.000000 0.000000 0.000000 -0.013121 0.000000 0.060422
#
#
# Mechanical properties :
#
#
# Convention : Reuss Voigt Hill
#
# Bulk Modulus (GPa) = 14.64231 31.58067 23.11149
# Shear Modulus (GPa) = 21.10468 30.91343 26.00906
#
# Velocity S-wave (km/s) = 3.04051 3.67985 3.37535
# Velocity P-wave (km/s) = 4.32899 5.64701 5.03134
#
# Compressibility (1/GPa) = 0.06829525
#
# Stress axis : x y z
#
# Youngs Moduli (GPa) = 97.22543 24.32716 90.22353
#
# Poissons Ratio (x) = -0.20573 0.25061
# Poissons Ratio (y) = -0.82220 0.24983
# Poissons Ratio (z) = 0.27005 0.06736
#
# Static dielectric constant tensor:
#      x y z
#    x 1.922910 0.000000 0.052360 
#    y 0.000000 1.979140 0.000000 
#    z 0.052360 0.000000 1.832930 
# 
# From -- ./inp_files/32815.got.cif
#   From: 2010.05.17/outbox.cif.g08.bks.cpg/sg14_17_cif.got.tgz:32815.got - 2010.06.03 17:49:19.
