data_PCOD9246286
_publ_section_title
;
Structure prediction by ZEFSAII (Michael W. Deem and Ramdas Pophale) SiO2 
 PCOD9246286
Probable space group: P 21/C
;
_chemical_formula_sum "Si O2"
_cell_formula_units_Z 32
_cell_length_a 17.873653
_cell_length_b 14.093855
_cell_length_c 12.363033
_cell_angle_alpha 90.000000
_cell_angle_beta 149.079661
_cell_angle_gamma 90.000000
_cell_volume 1600.298418
_symmetry_space_group_name_H-M "P 21/C"
_symmetry_group_IT_number 14
_symmetry_cell_setting 'monoclinic'
loop_
_space_group_symop_operation_xyz
x,y,z
-x,1/2+y,1/2-z
-x,-y,-z
x,1/2-y,1/2+z
loop_
_atom_site_type_symbol
_atom_site_label
_atom_site_fract_x
_atom_site_fract_y
_atom_site_fract_z
Si Si1 0.456822 0.352419 0.389225
Si Si2 0.307848 0.502159 0.353823
Si Si3 0.162600 0.015063 0.244947
Si Si4 0.833856 0.399831 0.030711
Si Si5 0.660640 0.024529 0.738818
Si Si6 0.608493 0.269811 0.244239
Si Si7 0.692617 0.707123 0.002351
Si Si8 0.831857 0.596138 0.623603
O O1 0.391870 0.410532 0.410275
O O2 0.565557 0.422932 0.459987
O O3 0.544600 0.264879 0.548852
O O4 0.332448 0.323108 0.152877
O O5 0.199213 0.476558 0.315711
O O6 0.230691 0.548912 0.155014
O O7 0.222646 0.122859 0.330747
O O8 0.181740 0.965924 0.384214
O O9 0.254719 0.964149 0.267516
O O10 0.000000 0.000000 0.000000
O O11 0.004922 0.390322 0.217349
O O12 0.737220 0.304955 0.929883
O O13 0.665160 0.123517 0.807370
O O14 0.500000 0.000000 0.500000
O O15 0.732131 0.942948 0.901695
O O16 0.467617 0.272433 0.147374
O O17 0.780788 0.803845 0.107703
#
# Coordination Sequence:
#
# PCOD9246286 Si02
#       8
#     4   4   4   4   4   4   4   4
#     4  10  21  40  67 102 127 172 226 289 331 403
#     4  10  21  43  70  92 135 173 230 276 341 399
#     4  12  27  49  69  98 145 188 225 288 357 415
#     4  11  26  47  67 100 139 181 228 284 346 418
#     4  12  26  45  72 104 142 182 233 288 344 415
#     4  11  25  43  70 105 132 178 232 286 344 410
#     4  12  25  42  71  99 135 180 232 279 349 410
#     4  12  26  43  68 102 138 184 229 280 348 416
#
# _framework density 19.996271
#
# number of rings (size 3 to 8) (size 9 to 14) (size 15 to 20)
#    0.000    0.750    5.000    1.875    5.250    0.000 
#    0.000    0.000    0.000    0.000    0.000    0.000 
#    0.000    0.000    0.000    0.000    0.000    0.000 
#
# Total GULP energy -178738.170987 kJ/mol
# GULP energy per Si atom -5585.567843 kJ/mol
# Density = 1.995076 g / cm^3
# Si number density = 19.996271 Si / 1000 Ang^3
#
#
#
# Elastic Constant Matrix: (Units=GPa)
#
#
# Indices 1 2 3 4 5 6 
#
# 1 126.2516 33.1685 23.4759 0.0000 25.3747 0.0000
# 2 33.1685 99.8210 32.7242 0.0000 13.4277 0.0000
# 3 23.4759 32.7242 96.7932 0.0000 15.8099 0.0000
# 4 0.0000 0.0000 0.0000 23.2442 0.0000 -0.2481
# 5 25.3747 13.4277 15.8099 0.0000 40.9634 0.0000
# 6 0.0000 0.0000 0.0000 -0.2481 0.0000 24.3947
#
#
#
# Elastic Compliance Matrix: (Units=1/GPa)
#
#
# Indices 1 2 3 4 5 6 
#
# 1 0.009657 -0.002296 -0.000760 0.000000 -0.004936 0.000000
# 2 -0.002296 0.012033 -0.003308 0.000000 -0.001246 0.000000
# 3 -0.000760 -0.003308 0.012146 0.000000 -0.003133 0.000000
# 4 0.000000 0.000000 0.000000 0.043026 0.000000 0.000438
# 5 -0.004936 -0.001246 -0.003133 0.000000 0.029087 0.000000
# 6 0.000000 0.000000 0.000000 0.000438 0.000000 0.040997
#
#
# Mechanical properties :
#
#
# Convention : Reuss Voigt Hill
#
# Bulk Modulus (GPa) = 47.37365 55.73367 51.55366
# Shear Modulus (GPa) = 29.99239 33.28695 31.63967
#
# Velocity S-wave (km/s) = 3.87705 4.08445 3.98210
# Velocity P-wave (km/s) = 6.61700 7.08351 6.85423
#
# Compressibility (1/GPa) = 0.02110878
#
# Stress axis : x y z
#
# Youngs Moduli (GPa) = 103.54915 83.10673 82.33445
#
# Poissons Ratio (x) = 0.19080 0.06255
# Poissons Ratio (y) = 0.23773 0.27235
# Poissons Ratio (z) = 0.07867 0.27490
#
# Static dielectric constant tensor:
#      x y z
#    x 1.710220 0.000000 0.028500 
#    y 0.000000 1.713220 0.000000 
#    z 0.028500 0.000000 1.710810 
# 
# From -- ./inp_files/34193.got.cif
#   From: 2010.05.17/outbox.cif.g08.bks.cpg/sg14_18_cif.got.tgz:34193.got - 2010.06.03 17:49:19.
