data_PCOD9246079
_publ_section_title
;
Structure prediction by ZEFSAII (Michael W. Deem and Ramdas Pophale) SiO2 
 PCOD9246079
Probable space group: P 21/C
;
_chemical_formula_sum "Si O2"
_cell_formula_units_Z 16
_cell_length_a 11.533304
_cell_length_b 8.462270
_cell_length_c 11.192690
_cell_angle_alpha 90.000000
_cell_angle_beta 38.078086
_cell_angle_gamma 90.000000
_cell_volume 673.710914
_symmetry_space_group_name_H-M "P 21/C"
_symmetry_group_IT_number 14
_symmetry_cell_setting 'monoclinic'
loop_
_space_group_symop_operation_xyz
x,y,z
-x,1/2+y,1/2-z
-x,-y,-z
x,1/2-y,1/2+z
loop_
_atom_site_type_symbol
_atom_site_label
_atom_site_fract_x
_atom_site_fract_y
_atom_site_fract_z
Si Si1 0.780792 0.954350 0.185075
Si Si2 0.648220 0.266676 0.337517
Si Si3 0.701022 0.549944 0.482189
Si Si4 0.986617 0.655899 0.090450
O O1 0.816712 0.770167 0.185384
O O2 0.677660 0.084112 0.351996
O O3 0.681774 0.967226 0.137973
O O4 0.000000 0.000000 0.000000
O O5 0.681750 0.389404 0.419473
O O6 0.457021 0.327178 0.433306
O O7 0.807860 0.278310 0.103746
O O8 0.913581 0.611402 0.281020
O O9 0.000000 0.500000 0.000000
#
# Coordination Sequence:
#
# PCOD9246079 Si02
#       4
#     4   4   4   4
#     4  10  22  39  62  94 125 166 219 264 324 397
#     4   9  21  39  60  88 121 161 213 260 315 384
#     4  10  21  40  62  87 126 166 205 269 321 366
#     4   9  20  38  59  87 120 158 205 255 318 384
#
# _framework density 23.749057000000001
#
# number of rings (size 3 to 8) (size 9 to 14) (size 15 to 20)
#    0.000    2.500    0.000    0.000    0.000   19.000 
#    0.000    2.500    0.000    0.000    0.000    0.000 
#    0.000    0.000    0.000    0.000    0.000    0.000 
#
# Total GULP energy -89080.103960 kJ/mol
# GULP energy per Si atom -5567.506498 kJ/mol
# Density = 2.369500 g / cm^3
# Si number density = 23.749057 Si / 1000 Ang^3
#
#
#
# Elastic Constant Matrix: (Units=GPa)
#
#
# Indices 1 2 3 4 5 6 
#
# 1 71.5667 27.9354 26.7436 0.0000 -9.5895 0.0000
# 2 27.9354 157.7605 49.9055 0.0000 -18.3168 0.0000
# 3 26.7436 49.9055 107.0883 0.0000 -17.1438 0.0000
# 4 0.0000 0.0000 0.0000 53.5767 0.0000 -11.2438
# 5 -9.5895 -18.3168 -17.1438 0.0000 26.9508 0.0000
# 6 0.0000 0.0000 0.0000 -11.2438 0.0000 13.4365
#
#
#
# Elastic Compliance Matrix: (Units=1/GPa)
#
#
# Indices 1 2 3 4 5 6 
#
# 1 0.016030 -0.001627 -0.002793 0.000000 0.002821 0.000000
# 2 -0.001627 0.007852 -0.002774 0.000000 0.002993 0.000000
# 3 -0.002793 -0.002774 0.012099 0.000000 0.004818 0.000000
# 4 0.000000 0.000000 0.000000 0.022641 0.000000 0.018946
# 5 0.002821 0.002993 0.004818 0.000000 0.043207 0.000000
# 6 0.000000 0.000000 0.000000 0.018946 0.000000 0.090279
#
#
# Mechanical properties :
#
#
# Convention : Reuss Voigt Hill
#
# Bulk Modulus (GPa) = 46.31150 60.62049 53.46600
# Shear Modulus (GPa) = 23.39792 34.24820 28.82306
#
# Velocity S-wave (km/s) = 3.14222 3.80160 3.48753
# Velocity P-wave (km/s) = 5.71904 6.69704 6.22727
#
# Compressibility (1/GPa) = 0.02159291
#
# Stress axis : x y z
#
# Youngs Moduli (GPa) = 62.38305 127.35990 82.64836
#
# Poissons Ratio (x) = 0.20726 0.23086
# Poissons Ratio (y) = 0.10152 0.22923
# Poissons Ratio (z) = 0.17425 0.35324
#
# Static dielectric constant tensor:
#      x y z
#    x 1.825820 0.000000 -0.019540 
#    y 0.000000 2.229520 0.000000 
#    z -0.019540 0.000000 1.960250 
# 
# From -- ./inp_files/22857.got.cif
#   From: 2010.05.17/outbox.cif.g08.bks.cpg/sg14_12_cif.got.tgz:22857.got - 2010.06.03 17:49:19.
