data_PCOD9246010
_publ_section_title
;
Structure prediction by ZEFSAII (Michael W. Deem and Ramdas Pophale) SiO2 
 PCOD9246010
Probable space group: P 21/C
;
_chemical_formula_sum "Si O2"
_cell_formula_units_Z 32
_cell_length_a 8.858850
_cell_length_b 12.028113
_cell_length_c 13.669325
_cell_angle_alpha 90.000000
_cell_angle_beta 83.872278
_cell_angle_gamma 90.000000
_cell_volume 1448.216268
_symmetry_space_group_name_H-M "P 21/C"
_symmetry_group_IT_number 14
_symmetry_cell_setting 'monoclinic'
loop_
_space_group_symop_operation_xyz
x,y,z
-x,1/2+y,1/2-z
-x,-y,-z
x,1/2-y,1/2+z
loop_
_atom_site_type_symbol
_atom_site_label
_atom_site_fract_x
_atom_site_fract_y
_atom_site_fract_z
Si Si1 0.165214 0.477519 0.901428
Si Si2 0.104502 0.667071 0.464306
Si Si3 0.350869 0.661602 0.997192
Si Si4 0.197051 0.059548 0.979393
Si Si5 0.906340 0.652581 0.918557
Si Si6 0.688857 0.983198 0.822966
Si Si7 0.396553 0.238852 0.664400
Si Si8 0.472528 0.308111 0.375815
O O1 0.268529 0.546807 0.973544
O O2 0.244895 0.474473 0.790828
O O3 0.006230 0.542315 0.892612
O O4 0.132845 0.364380 0.962976
O O5 0.217282 0.747940 0.512448
O O6 0.196419 0.558563 0.424471
O O7 0.958991 0.621428 0.532765
O O8 0.024629 0.747243 0.391451
O O9 0.458037 0.686641 0.897575
O O10 0.457672 0.695674 0.081347
O O11 0.193656 0.028882 0.095209
O O12 0.343284 0.134149 0.950390
O O13 0.753893 0.684788 0.873026
O O14 0.590653 0.871830 0.844755
O O15 0.598916 0.096892 0.848205
O O16 0.396428 0.214759 0.778245
#
# Coordination Sequence:
#
# PCOD9246010 Si02
#       8
#     4   4   4   4   4   4   4   4
#     4  10  25  45  71  94 139 181 232 282 345 417
#     4  10  21  39  69  96 127 177 222 278 346 396
#     4  11  22  45  67  97 138 176 224 283 343 407
#     4  11  22  40  67 100 135 173 222 285 349 401
#     4  10  23  48  64  97 138 181 226 285 342 410
#     4  12  23  42  67 104 130 177 229 286 337 417
#     4  12  26  42  69 100 136 183 227 277 343 417
#     4  12  25  44  67 102 142 181 227 288 346 414
#
# _framework density 22.096146000000001
#
# number of rings (size 3 to 8) (size 9 to 14) (size 15 to 20)
#    0.000    1.000    5.000    1.125    3.500    3.500 
#    0.000    3.750    0.000    0.000    0.000    0.000 
#    0.000    0.000    0.000    0.000    0.000    0.000 
#
# Total GULP energy -178485.317981 kJ/mol
# GULP energy per Si atom -5577.666187 kJ/mol
# Density = 2.204585 g / cm^3
# Si number density = 22.096146 Si / 1000 Ang^3
#
#
#
# Elastic Constant Matrix: (Units=GPa)
#
#
# Indices 1 2 3 4 5 6 
#
# 1 85.2061 17.6466 36.1376 0.0000 11.0969 0.0000
# 2 17.6466 81.1116 13.0916 0.0000 14.1875 0.0000
# 3 36.1376 13.0916 110.8115 0.0000 10.8428 0.0000
# 4 0.0000 0.0000 0.0000 20.3232 0.0000 2.4539
# 5 11.0969 14.1875 10.8428 0.0000 24.9091 0.0000
# 6 0.0000 0.0000 0.0000 2.4539 0.0000 24.0800
#
#
#
# Elastic Compliance Matrix: (Units=1/GPa)
#
#
# Indices 1 2 3 4 5 6 
#
# 1 0.014319 -0.001832 -0.004106 0.000000 -0.003548 0.000000
# 2 -0.001832 0.014012 -0.000373 0.000000 -0.007003 0.000000
# 3 -0.004106 -0.000373 0.010662 0.000000 -0.002599 0.000000
# 4 0.000000 0.000000 0.000000 0.049818 0.000000 -0.005077
# 5 -0.003548 -0.007003 -0.002599 0.000000 0.046847 0.000000
# 6 0.000000 0.000000 0.000000 -0.005077 0.000000 0.042045
#
#
# Mechanical properties :
#
#
# Convention : Reuss Voigt Hill
#
# Bulk Modulus (GPa) = 37.91956 45.65342 41.78649
# Shear Modulus (GPa) = 25.11101 27.87935 26.49518
#
# Velocity S-wave (km/s) = 3.37477 3.55594 3.46654
# Velocity P-wave (km/s) = 5.69068 6.12909 5.91395
#
# Compressibility (1/GPa) = 0.02637162
#
# Stress axis : x y z
#
# Youngs Moduli (GPa) = 69.83603 71.36608 93.79270
#
# Poissons Ratio (x) = 0.13073 0.38512
# Poissons Ratio (y) = 0.12793 0.03497
# Poissons Ratio (z) = 0.28676 0.02661
#
# Static dielectric constant tensor:
#      x y z
#    x 1.840120 0.000000 0.010480 
#    y 0.000000 1.894230 0.000000 
#    z 0.010480 0.000000 1.808620 
# 
# From -- ./inp_files/40313.got.cif
#   From: 2010.05.17/outbox.cif.g08.bks.cpg/sg14_21_cif.got.tgz:40313.got - 2010.06.03 17:49:19.
