data_PCOD9246097
_publ_section_title
;
Structure prediction by ZEFSAII (Michael W. Deem and Ramdas Pophale) SiO2 
 PCOD9246097
Probable space group: P 21/C
;
_chemical_formula_sum "Si O2"
_cell_formula_units_Z 32
_cell_length_a 13.753049
_cell_length_b 12.404375
_cell_length_c 10.122079
_cell_angle_alpha 90.000000
_cell_angle_beta 125.757941
_cell_angle_gamma 90.000000
_cell_volume 1401.291144
_symmetry_space_group_name_H-M "P 21/C"
_symmetry_group_IT_number 14
_symmetry_cell_setting 'monoclinic'
loop_
_space_group_symop_operation_xyz
x,y,z
-x,1/2+y,1/2-z
-x,-y,-z
x,1/2-y,1/2+z
loop_
_atom_site_type_symbol
_atom_site_label
_atom_site_fract_x
_atom_site_fract_y
_atom_site_fract_z
Si Si1 0.909705 0.766318 0.013564
Si Si2 0.562700 0.834990 0.563552
Si Si3 0.943620 0.967106 0.640492
Si Si4 0.836146 0.365125 0.239149
Si Si5 0.810027 0.040322 0.283231
Si Si6 0.340004 0.804746 0.972578
Si Si7 0.371191 0.955492 0.241181
Si Si8 0.224867 0.187888 0.843318
O O1 0.896279 0.650484 0.072750
O O2 0.833992 0.834734 0.060400
O O3 0.047577 0.800969 0.120115
O O4 0.864424 0.749818 0.829117
O O5 0.463882 0.757012 0.550165
O O6 0.492276 0.906367 0.400435
O O7 0.659364 0.762638 0.565272
O O8 0.618773 0.917621 0.715987
O O9 0.086513 0.955586 0.746933
O O10 0.891111 0.025575 0.724025
O O11 0.890759 0.039585 0.478649
O O12 0.760674 0.287326 0.079800
O O13 0.739556 0.403235 0.268204
O O14 0.716322 0.136625 0.200842
O O15 0.748837 0.925170 0.209389
O O16 0.356846 0.904215 0.085726
#
# Coordination Sequence:
#
# PCOD9246097 Si02
#       8
#     4   4   4   4   4   4   4   4
#     4  11  24  40  68 102 141 181 225 283 351 413
#     4  10  25  48  65  96 133 184 229 288 343 395
#     4  10  21  40  62  93 146 172 215 269 345 412
#     4  11  23  40  70 101 134 186 221 283 352 415
#     4  10  22  39  63 100 130 176 220 274 335 411
#     4  11  25  41  72  97 131 177 232 291 332 418
#     4  10  25  45  69  97 135 174 236 288 343 404
#     4  11  25  43  68  99 140 184 227 285 342 417
#
# _framework density 22.836081
#
# number of rings (size 3 to 8) (size 9 to 14) (size 15 to 20)
#    0.000    1.500    2.500    0.750    8.750    0.500 
#    4.500    1.875    0.000    0.000    0.000    0.000 
#    0.000    0.000    0.000    0.000    0.000    0.000 
#
# Total GULP energy -178685.473854 kJ/mol
# GULP energy per Si atom -5583.921058 kJ/mol
# Density = 2.278410 g / cm^3
# Si number density = 22.836081 Si / 1000 Ang^3
#
#
#
# Elastic Constant Matrix: (Units=GPa)
#
#
# Indices 1 2 3 4 5 6 
#
# 1 57.0383 18.8208 34.1162 0.0000 23.6806 0.0000
# 2 18.8208 66.9625 17.6644 0.0000 14.7338 0.0000
# 3 34.1162 17.6644 81.0409 0.0000 11.6894 0.0000
# 4 0.0000 0.0000 0.0000 34.5280 0.0000 8.6489
# 5 23.6806 14.7338 11.6894 0.0000 26.4218 0.0000
# 6 0.0000 0.0000 0.0000 8.6489 0.0000 27.6390
#
#
#
# Elastic Compliance Matrix: (Units=1/GPa)
#
#
# Indices 1 2 3 4 5 6 
#
# 1 0.035250 -0.001323 -0.010789 0.000000 -0.026083 0.000000
# 2 -0.001323 0.017560 -0.002168 0.000000 -0.007648 0.000000
# 3 -0.010789 -0.002168 0.016861 0.000000 0.003419 0.000000
# 4 0.000000 0.000000 0.000000 0.031425 0.000000 -0.009834
# 5 -0.026083 -0.007648 0.003419 0.000000 0.063976 0.000000
# 6 0.000000 0.000000 0.000000 -0.009834 0.000000 0.039258
#
#
# Mechanical properties :
#
#
# Convention : Reuss Voigt Hill
#
# Bulk Modulus (GPa) = 24.32349 38.47158 31.39754
# Shear Modulus (GPa) = 20.27629 26.68045 23.47837
#
# Velocity S-wave (km/s) = 2.98301 3.42182 3.20992
# Velocity P-wave (km/s) = 4.74752 5.70045 5.24567
#
# Compressibility (1/GPa) = 0.04111252
#
# Stress axis : x y z
#
# Youngs Moduli (GPa) = 28.36840 56.94752 59.30947
#
# Poissons Ratio (x) = 0.07532 0.63990
# Poissons Ratio (y) = 0.03752 0.12856
# Poissons Ratio (z) = 0.30607 0.12344
#
# Static dielectric constant tensor:
#      x y z
#    x 1.855420 0.000000 -0.038480 
#    y 0.000000 1.906500 0.000000 
#    z -0.038480 0.000000 1.887340 
# 
# From -- ./inp_files/32400.got.cif
#   From: 2010.05.17/outbox.cif.g08.bks.cpg/sg14_17_cif.got.tgz:32400.got - 2010.06.03 17:49:19.
