data_PCOD9246462
_publ_section_title
;
Structure prediction by ZEFSAII (Michael W. Deem and Ramdas Pophale) SiO2 
 PCOD9246462
Probable space group: P 21/C
;
_chemical_formula_sum "Si O2"
_cell_formula_units_Z 32
_cell_length_a 9.393649
_cell_length_b 22.356427
_cell_length_c 16.533487
_cell_angle_alpha 90.000000
_cell_angle_beta 26.402961
_cell_angle_gamma 90.000000
_cell_volume 1544.010372
_symmetry_space_group_name_H-M "P 21/C"
_symmetry_group_IT_number 14
_symmetry_cell_setting 'monoclinic'
loop_
_space_group_symop_operation_xyz
x,y,z
-x,1/2+y,1/2-z
-x,-y,-z
x,1/2-y,1/2+z
loop_
_atom_site_type_symbol
_atom_site_label
_atom_site_fract_x
_atom_site_fract_y
_atom_site_fract_z
Si Si1 0.891466 0.557170 0.103993
Si Si2 0.227791 0.810059 0.917488
Si Si3 0.177970 0.573063 0.530939
Si Si4 0.816672 0.388830 0.898252
Si Si5 0.329077 0.132968 0.424952
Si Si6 0.169105 0.226460 0.288086
Si Si7 0.282487 0.969387 0.681868
Si Si8 0.878260 0.842664 0.298579
O O1 0.537618 0.553653 0.324565
O O2 0.869536 0.612162 0.052150
O O3 0.146326 0.568048 0.044421
O O4 0.000000 0.500000 0.000000
O O5 0.407290 0.820500 0.742192
O O6 0.486046 0.794474 0.856551
O O7 0.083452 0.875166 0.014222
O O8 0.982662 0.756442 0.053954
O O9 0.934595 0.517995 0.662333
O O10 0.146869 0.611358 0.629809
O O11 0.940014 0.423331 0.756275
O O12 0.996573 0.329911 0.836400
O O13 0.456058 0.371927 0.060190
O O14 0.504497 0.072421 0.368226
O O15 0.132176 0.159167 0.599677
O O16 0.137140 0.279008 0.238033
O O17 0.500000 0.000000 0.500000
#
# Coordination Sequence:
#
# PCOD9246462 Si02
#       8
#     4   4   4   4   4   4   4   4
#     4  11  24  39  61  94 132 158 200 267 322 367
#     4  10  22  39  64  88 126 162 210 262 322 377
#     4  10  21  41  63  91 122 176 203 250 324 382
#     4  11  21  40  64  88 123 166 211 255 322 375
#     4  10  21  42  60  95 123 157 213 262 311 364
#     4  11  20  42  61  89 119 171 208 256 318 384
#     4  11  21  39  65  92 126 166 215 260 303 392
#     4  10  22  40  70  84 119 174 216 249 308 388
#
# _framework density 20.725249999999999
#
# number of rings (size 3 to 8) (size 9 to 14) (size 15 to 20)
#    0.000    1.500    6.250    0.750    0.000    2.500 
#    6.750    0.000    0.000    0.000    0.000    0.000 
#    0.000    0.000    0.000    0.000    0.000    0.000 
#
# Total GULP energy -178462.370607 kJ/mol
# GULP energy per Si atom -5576.949081 kJ/mol
# Density = 2.067808 g / cm^3
# Si number density = 20.725250 Si / 1000 Ang^3
#
#
#
# Elastic Constant Matrix: (Units=GPa)
#
#
# Indices 1 2 3 4 5 6 
#
# 1 60.9638 -1.2354 5.0564 0.0000 2.2245 0.0000
# 2 -1.2354 99.3873 23.7859 0.0000 -3.6596 0.0000
# 3 5.0564 23.7859 86.6257 0.0000 11.3535 0.0000
# 4 0.0000 0.0000 0.0000 42.0210 0.0000 7.5500
# 5 2.2245 -3.6596 11.3535 0.0000 26.0461 0.0000
# 6 0.0000 0.0000 0.0000 7.5500 0.0000 27.3711
#
#
#
# Elastic Compliance Matrix: (Units=1/GPa)
#
#
# Indices 1 2 3 4 5 6 
#
# 1 0.016524 0.000398 -0.000951 0.000000 -0.000941 0.000000
# 2 0.000398 0.011000 -0.003438 0.000000 0.003010 0.000000
# 3 -0.000951 -0.003438 0.013359 0.000000 -0.006225 0.000000
# 4 0.000000 0.000000 0.000000 0.025039 0.000000 -0.006907
# 5 -0.000941 0.003010 -0.006225 0.000000 0.041610 0.000000
# 6 0.000000 0.000000 0.000000 -0.006907 0.000000 0.038440
#
#
# Mechanical properties :
#
#
# Convention : Reuss Voigt Hill
#
# Bulk Modulus (GPa) = 30.39241 33.57673 31.98457
# Shear Modulus (GPa) = 30.31735 33.71229 32.01482
#
# Velocity S-wave (km/s) = 3.82883 4.03752 3.93456
# Velocity P-wave (km/s) = 5.85174 6.16210 6.00893
#
# Compressibility (1/GPa) = 0.03290295
#
# Stress axis : x y z
#
# Youngs Moduli (GPa) = 60.51643 90.90656 74.85361
#
# Poissons Ratio (x) = -0.03620 0.07115
# Poissons Ratio (y) = -0.02410 0.25737
# Poissons Ratio (z) = 0.05752 0.31256
#
# Static dielectric constant tensor:
#      x y z
#    x 1.743220 0.000000 0.010710 
#    y 0.000000 1.826960 0.000000 
#    z 0.010710 0.000000 1.798000 
# 
# From -- ./inp_files/42214.got.cif
#   From: 2010.05.17/outbox.cif.g08.bks.cpg/sg14_22_cif.got.tgz:42214.got - 2010.06.03 17:49:19.
