data_PCOD9246350
_publ_section_title
;
Structure prediction by ZEFSAII (Michael W. Deem and Ramdas Pophale) SiO2 
 PCOD9246350
Probable space group: P 21/C
;
_chemical_formula_sum "Si O2"
_cell_formula_units_Z 28
_cell_length_a 11.934158
_cell_length_b 12.841317
_cell_length_c 8.903348
_cell_angle_alpha 90.000000
_cell_angle_beta 66.400827
_cell_angle_gamma 90.000000
_cell_volume 1250.330585
_symmetry_space_group_name_H-M "P 21/C"
_symmetry_group_IT_number 14
_symmetry_cell_setting 'monoclinic'
loop_
_space_group_symop_operation_xyz
x,y,z
-x,1/2+y,1/2-z
-x,-y,-z
x,1/2-y,1/2+z
loop_
_atom_site_type_symbol
_atom_site_label
_atom_site_fract_x
_atom_site_fract_y
_atom_site_fract_z
Si Si1 0.325172 0.698472 0.280600
Si Si2 0.687089 0.810894 0.896782
Si Si3 0.531872 0.166799 0.590946
Si Si4 0.161801 0.153534 0.477114
Si Si5 0.661273 0.523303 0.674255
Si Si6 0.912971 0.981153 0.234298
Si Si7 0.956596 0.177888 0.042711
O O1 0.402001 0.795941 0.293927
O O2 0.357407 0.596072 0.361201
O O3 0.182119 0.715426 0.378279
O O4 0.365955 0.663676 0.092733
O O5 0.564793 0.755513 0.904847
O O6 0.762427 0.718943 0.938846
O O7 0.758355 0.854605 0.714769
O O8 0.669477 0.899479 0.029960
O O9 0.450440 0.065534 0.665405
O O10 0.122117 0.047329 0.578383
O O11 0.047030 0.226531 0.503391
O O12 0.789771 0.526449 0.697353
O O13 0.968168 0.094905 0.173923
O O14 0.005870 0.893884 0.119844
#
# Coordination Sequence:
#
# PCOD9246350 Si02
#       7
#     4   4   4   4   4   4   4
#     4  11  27  40  64  93 134 174 202 264 329 384
#     4  12  21  38  70  95 120 161 225 266 305 366
#     4  12  22  44  63  94 128 170 219 254 325 385
#     4  12  20  39  70  96 120 163 216 273 308 366
#     4  11  22  45  67  93 127 168 221 267 310 378
#     4  10  21  40  69  91 119 173 209 258 318 380
#     4  10  22  40  64  92 133 160 208 254 328 379
#
# _framework density 22.394076999999999
#
# number of rings (size 3 to 8) (size 9 to 14) (size 15 to 20)
#    0.000    0.857    7.143    0.429    2.000    0.571 
#    0.000    0.714    0.000    0.000    0.000    0.000 
#    0.000    0.000    0.000    0.000    0.000    0.000 
#
# Total GULP energy -156672.977426 kJ/mol
# GULP energy per Si atom -5595.463479 kJ/mol
# Density = 2.234311 g / cm^3
# Si number density = 22.394077 Si / 1000 Ang^3
#
#
#
# Elastic Constant Matrix: (Units=GPa)
#
#
# Indices 1 2 3 4 5 6 
#
# 1 70.8134 0.9665 19.7101 0.0000 -29.8928 0.0000
# 2 0.9665 29.8907 -3.4098 0.0000 -2.3305 0.0000
# 3 19.7101 -3.4098 104.4310 0.0000 -14.1410 0.0000
# 4 0.0000 0.0000 0.0000 34.2304 0.0000 12.9277
# 5 -29.8928 -2.3305 -14.1410 0.0000 30.8714 0.0000
# 6 0.0000 0.0000 0.0000 12.9277 0.0000 -44.5228
#
#
#
# Elastic Compliance Matrix: (Units=1/GPa)
#
#
# Indices 1 2 3 4 5 6 
#
# 1 0.024118 0.000830 -0.001444 0.000000 0.022754 0.000000
# 2 0.000830 0.033915 0.001499 0.000000 0.004050 0.000000
# 3 -0.001444 0.001499 0.010366 0.000000 0.003464 0.000000
# 4 0.000000 0.000000 0.000000 0.026327 0.000000 0.007644
# 5 0.022754 0.004050 0.003464 0.000000 0.056318 0.000000
# 6 0.000000 0.000000 0.000000 0.007644 0.000000 -0.020241
#
#
# Mechanical properties :
#
#
# Convention : Reuss Voigt Hill
#
# Bulk Modulus (GPa) = 14.25126 26.62987 20.44056
# Shear Modulus (GPa) = 32.80365 16.64035 24.72200
#
# Velocity S-wave (km/s) = 3.83147 2.72889 3.32618
# Velocity P-wave (km/s) = 5.09423 4.67401 4.88864
#
# Compressibility (1/GPa) = 0.07016926
#
# Stress axis : x y z
#
# Youngs Moduli (GPa) = 41.46365 29.48529 96.46799
#
# Poissons Ratio (x) = -0.02446 0.13926
# Poissons Ratio (y) = -0.03440 -0.14463
# Poissons Ratio (z) = 0.05986 -0.04421
#
# Static dielectric constant tensor:
#      x y z
#    x 1.829480 0.000000 0.005480 
#    y 0.000000 1.828640 0.000000 
#    z 0.005480 0.000000 1.840470 
# 
# From -- ./inp_files/12783.got.cif
#   From: 2010.05.17/outbox.cif.g08.bks.cpg/sg14_7_cif.got.tgz:12783.got - 2010.06.03 17:49:19.
