data_PCOD9246403
_publ_section_title
;
Structure prediction by ZEFSAII (Michael W. Deem and Ramdas Pophale) SiO2 
 PCOD9246403
Probable space group: P 21/C
;
_chemical_formula_sum "Si O2"
_cell_formula_units_Z 32
_cell_length_a 4.953380
_cell_length_b 24.297523
_cell_length_c 12.014867
_cell_angle_alpha 90.000000
_cell_angle_beta 98.809280
_cell_angle_gamma 90.000000
_cell_volume 1428.989518
_symmetry_space_group_name_H-M "P 21/C"
_symmetry_group_IT_number 14
_symmetry_cell_setting 'monoclinic'
loop_
_space_group_symop_operation_xyz
x,y,z
-x,1/2+y,1/2-z
-x,-y,-z
x,1/2-y,1/2+z
loop_
_atom_site_type_symbol
_atom_site_label
_atom_site_fract_x
_atom_site_fract_y
_atom_site_fract_z
Si Si1 0.189904 0.456794 0.447945
Si Si2 0.758278 0.806906 0.352813
Si Si3 0.214222 0.839537 0.782954
Si Si4 0.282228 0.742148 0.952073
Si Si5 0.506931 0.986252 0.370663
Si Si6 0.985824 0.577253 0.794630
Si Si7 0.310075 0.215313 0.324608
Si Si8 0.478156 0.552430 0.334749
O O1 0.394605 0.494765 0.387661
O O2 0.325879 0.422886 0.556834
O O3 0.000000 0.500000 0.500000
O O4 0.042652 0.423544 0.341207
O O5 0.982800 0.782714 0.452899
O O6 0.853172 0.867737 0.333173
O O7 0.450046 0.795480 0.373392
O O8 0.791845 0.769299 0.246466
O O9 0.226136 0.802098 0.895368
O O10 0.489977 0.821788 0.738147
O O11 0.234703 0.904276 0.806461
O O12 0.960855 0.822240 0.689579
O O13 0.489906 0.737612 0.067018
O O14 0.298676 0.935763 0.340464
O O15 0.807127 0.970239 0.344717
O O16 0.500000 0.000000 0.500000
O O17 0.412906 0.034890 0.279677
#
# Coordination Sequence:
#
# PCOD9246403 Si02
#       8
#     4   4   4   4   4   4   4   4
#     4  10  21  41  63  90 127 160 204 273 302 366
#     4  10  22  39  60  90 119 155 204 253 297 370
#     4  10  23  38  62  92 119 162 207 247 313 372
#     4  10  21  41  60  87 127 157 202 257 301 365
#     4  11  24  41  61  91 128 162 205 257 301 375
#     4  11  23  41  64  91 120 163 210 246 319 363
#     4  10  22  40  59  88 122 157 201 252 302 366
#     4  10  23  40  61  93 126 161 212 256 315 375
#
# _framework density 22.393446000000001
#
# number of rings (size 3 to 8) (size 9 to 14) (size 15 to 20)
#    0.000    1.750    1.250    1.875    3.500    3.000 
#    0.000    1.250    0.000    0.000    0.000    0.000 
#    0.000    0.000    0.000    0.000    0.000    0.000 
#
# Total GULP energy -178442.757808 kJ/mol
# GULP energy per Si atom -5576.336182 kJ/mol
# Density = 2.234248 g / cm^3
# Si number density = 22.393446 Si / 1000 Ang^3
#
#
#
# Elastic Constant Matrix: (Units=GPa)
#
#
# Indices 1 2 3 4 5 6 
#
# 1 83.0038 -1.0240 5.1376 0.0000 9.3906 0.0000
# 2 -1.0240 48.1379 18.4936 0.0000 8.4024 0.0000
# 3 5.1376 18.4936 139.7643 0.0000 5.7573 0.0000
# 4 0.0000 0.0000 0.0000 7.5867 0.0000 6.9962
# 5 9.3906 8.4024 5.7573 0.0000 26.2102 0.0000
# 6 0.0000 0.0000 0.0000 6.9962 0.0000 19.0804
#
#
#
# Elastic Compliance Matrix: (Units=1/GPa)
#
#
# Indices 1 2 3 4 5 6 
#
# 1 0.012638 0.001281 -0.000435 0.000000 -0.004843 0.000000
# 2 0.001281 0.023148 -0.002811 0.000000 -0.007262 0.000000
# 3 -0.000435 -0.002811 0.007568 0.000000 -0.000605 0.000000
# 4 0.000000 0.000000 0.000000 0.199147 0.000000 -0.073021
# 5 -0.004843 -0.007262 -0.000605 0.000000 0.042349 0.000000
# 6 0.000000 0.000000 0.000000 -0.073021 0.000000 0.079184
#
#
# Mechanical properties :
#
#
# Convention : Reuss Voigt Hill
#
# Bulk Modulus (GPa) = 25.36409 35.12451 30.24430
# Shear Modulus (GPa) = 13.11973 27.12871 20.12422
#
# Velocity S-wave (km/s) = 2.42311 3.48438 3.00103
# Velocity P-wave (km/s) = 4.37947 5.64863 5.05405
#
# Compressibility (1/GPa) = 0.03942582
#
# Stress axis : x y z
#
# Youngs Moduli (GPa) = 79.12462 43.19945 132.13944
#
# Poissons Ratio (x) = -0.05535 0.05743
# Poissons Ratio (y) = -0.10137 0.37144
# Poissons Ratio (z) = 0.03439 0.12143
#
# Static dielectric constant tensor:
#      x y z
#    x 1.833130 0.000000 0.023090 
#    y 0.000000 1.864900 0.000000 
#    z 0.023090 0.000000 1.893150 
# 
# From -- ./inp_files/22141.got.cif
#   From: 2010.05.17/outbox.cif.g08.bks.cpg/sg14_12_cif.got.tgz:22141.got - 2010.06.03 17:49:19.
