data_PCOD9246711
_publ_section_title
;
Structure prediction by ZEFSAII (Michael W. Deem and Ramdas Pophale) SiO2 
 PCOD9246711
Probable space group: P 21/C
;
_chemical_formula_sum "Si O2"
_cell_formula_units_Z 28
_cell_length_a 18.655329
_cell_length_b 5.126200
_cell_length_c 13.098821
_cell_angle_alpha 90.000000
_cell_angle_beta 64.133662
_cell_angle_gamma 90.000000
_cell_volume 1127.154717
_symmetry_space_group_name_H-M "P 21/C"
_symmetry_group_IT_number 14
_symmetry_cell_setting 'monoclinic'
loop_
_space_group_symop_operation_xyz
x,y,z
-x,1/2+y,1/2-z
-x,-y,-z
x,1/2-y,1/2+z
loop_
_atom_site_type_symbol
_atom_site_label
_atom_site_fract_x
_atom_site_fract_y
_atom_site_fract_z
Si Si1 0.668868 0.298339 0.631668
Si Si2 0.858447 0.575567 0.661681
Si Si3 0.838790 0.425294 0.042750
Si Si4 0.008662 0.702375 0.181585
Si Si5 0.305945 0.400368 0.167669
Si Si6 0.579336 0.536249 0.324684
Si Si7 0.428809 0.764246 0.476585
O O1 0.754307 0.176258 0.554116
O O2 0.679944 0.457065 0.730224
O O3 0.624417 0.426010 0.563488
O O4 0.605193 0.073102 0.701011
O O5 0.860449 0.282190 0.618796
O O6 0.943350 0.675575 0.646526
O O7 0.788378 0.590172 0.789741
O O8 0.833054 0.782265 0.589617
O O9 0.911060 0.397701 0.920183
O O10 0.972038 0.447081 0.257685
O O11 0.337626 0.114600 0.173482
O O12 0.363697 0.517161 0.046162
O O13 0.514856 0.765540 0.367899
O O14 0.546222 0.323973 0.424160
#
# Coordination Sequence:
#
# PCOD9246711 Si02
#       7
#     4   4   4   4   4   4   4
#     4  10  23  39  63  96 126 175 227 279 338 414
#     4  11  23  44  71  93 137 184 218 284 342 413
#     4  11  23  45  67  96 135 180 233 269 354 413
#     4  12  26  42  68 105 136 174 229 288 342 418
#     4  10  22  40  63  91 129 169 223 270 345 401
#     4  10  21  42  59  91 129 169 222 271 346 403
#     4  10  23  38  63  92 128 171 218 286 333 403
#
# _framework density 24.84131
#
# number of rings (size 3 to 8) (size 9 to 14) (size 15 to 20)
#    0.000    1.429    1.429    3.000    4.000    2.286 
#    0.000    0.000    0.000    0.000    0.000    0.000 
#    0.000    0.000    0.000    0.000    0.000    0.000 
#
# Total GULP energy -156301.058186 kJ/mol
# GULP energy per Si atom -5582.180649 kJ/mol
# Density = 2.478477 g / cm^3
# Si number density = 24.841310 Si / 1000 Ang^3
#
#
#
# Elastic Constant Matrix: (Units=GPa)
#
#
# Indices 1 2 3 4 5 6 
#
# 1 105.5920 -9.3771 34.9125 0.0000 -6.8210 0.0000
# 2 -9.3771 68.9510 11.0717 0.0000 5.8183 0.0000
# 3 34.9125 11.0717 80.0264 0.0000 -20.9443 0.0000
# 4 0.0000 0.0000 0.0000 30.5559 0.0000 1.7894
# 5 -6.8210 5.8183 -20.9443 0.0000 27.9537 0.0000
# 6 0.0000 0.0000 0.0000 1.7894 0.0000 13.5971
#
#
#
# Elastic Compliance Matrix: (Units=1/GPa)
#
#
# Indices 1 2 3 4 5 6 
#
# 1 0.011553 0.002725 -0.006005 0.000000 -0.002248 0.000000
# 2 0.002725 0.016258 -0.005162 0.000000 -0.006587 0.000000
# 3 -0.006005 -0.005162 0.019564 0.000000 0.014267 0.000000
# 4 0.000000 0.000000 0.000000 0.032981 0.000000 -0.004340
# 5 -0.002248 -0.006587 0.014267 0.000000 0.047286 0.000000
# 6 0.000000 0.000000 0.000000 -0.004340 0.000000 0.074117
#
#
# Mechanical properties :
#
#
# Convention : Reuss Voigt Hill
#
# Bulk Modulus (GPa) = 32.79711 36.42041 34.60876
# Shear Modulus (GPa) = 21.85252 28.95216 25.40234
#
# Velocity S-wave (km/s) = 2.96917 3.41762 3.20126
# Velocity P-wave (km/s) = 4.99859 5.50151 5.25607
#
# Compressibility (1/GPa) = 0.03049049
#
# Stress axis : x y z
#
# Youngs Moduli (GPa) = 86.55907 61.50682 51.11437
#
# Poissons Ratio (x) = -0.16761 0.30696
# Poissons Ratio (y) = -0.23588 0.26386
# Poissons Ratio (z) = 0.51982 0.31750
#
# Static dielectric constant tensor:
#      x y z
#    x 1.990710 0.000000 0.069160 
#    y 0.000000 2.048750 0.000000 
#    z 0.069160 0.000000 2.040080 
# 
# From -- ./inp_files/48086.got.cif
#   From: 2010.05.17/outbox.cif.g08.bks.cpg/sg14_25_cif.got.tgz:48086.got - 2010.06.03 17:49:19.
