data_PCOD9246609
_publ_section_title
;
Structure prediction by ZEFSAII (Michael W. Deem and Ramdas Pophale) SiO2 
 PCOD9246609
Probable space group: P 21/C
;
_chemical_formula_sum "Si O2"
_cell_formula_units_Z 32
_cell_length_a 11.851090
_cell_length_b 28.291826
_cell_length_c 9.091420
_cell_angle_alpha 90.000000
_cell_angle_beta 150.348717
_cell_angle_gamma 90.000000
_cell_volume 1508.031422
_symmetry_space_group_name_H-M "P 21/C"
_symmetry_group_IT_number 14
_symmetry_cell_setting 'monoclinic'
loop_
_space_group_symop_operation_xyz
x,y,z
-x,1/2+y,1/2-z
-x,-y,-z
x,1/2-y,1/2+z
loop_
_atom_site_type_symbol
_atom_site_label
_atom_site_fract_x
_atom_site_fract_y
_atom_site_fract_z
Si Si1 0.899334 0.582929 0.701441
Si Si2 0.876648 0.713244 0.955178
Si Si3 0.801719 0.133557 0.711161
Si Si4 0.526217 0.842724 0.880456
Si Si5 0.165174 0.307000 0.757146
Si Si6 0.240142 0.021954 0.208466
Si Si7 0.509513 0.607678 0.904809
Si Si8 0.790980 0.376993 0.717763
O O1 0.690562 0.617774 0.498478
O O2 0.815955 0.536052 0.525012
O O3 0.052661 0.607734 0.748623
O O4 0.042823 0.584760 0.015460
O O5 0.675199 0.698343 0.616683
O O6 0.911949 0.766704 0.944111
O O7 0.809534 0.711685 0.049499
O O8 0.067268 0.671948 0.149765
O O9 0.649758 0.170504 0.446296
O O10 0.636945 0.099508 0.614326
O O11 0.955181 0.157105 0.008138
O O12 0.393821 0.864602 0.867847
O O13 0.382727 0.339516 0.964903
O O14 0.289753 0.069297 0.361965
O O15 0.500000 0.000000 0.500000
O O16 0.000000 0.000000 0.000000
O O17 0.345032 0.605435 0.578288
#
# Coordination Sequence:
#
# PCOD9246609 Si02
#       8
#     4   4   4   4   4   4   4   4
#     4  10  22  43  70 101 133 181 228 284 364 424
#     4  11  26  40  59 103 138 183 243 294 344 416
#     4  11  21  40  69  91 129 185 232 281 353 422
#     4  10  21  41  67  92 134 177 236 278 347 422
#     4  12  26  39  63  95 144 179 241 293 352 424
#     4  12  27  46  78 112 145 181 244 306 365 450
#     4  12  24  46  69 101 134 192 232 296 367 432
#     4  10  23  43  69  95 138 188 232 286 353 432
#
# _framework density 21.219715000000001
#
# number of rings (size 3 to 8) (size 9 to 14) (size 15 to 20)
#    0.000    1.000    5.000    0.750    8.750    2.000 
#    0.000    1.250    0.000    0.000    0.000    0.000 
#    0.000    0.000    0.000    0.000    0.000    0.000 
#
# Total GULP energy -178356.126018 kJ/mol
# GULP energy per Si atom -5573.628938 kJ/mol
# Density = 2.117142 g / cm^3
# Si number density = 21.219715 Si / 1000 Ang^3
#
#
#
# Elastic Constant Matrix: (Units=GPa)
#
#
# Indices 1 2 3 4 5 6 
#
# 1 111.1043 24.3850 26.2060 0.0000 3.8115 0.0000
# 2 24.3850 55.5349 31.6189 0.0000 -1.1727 0.0000
# 3 26.2060 31.6189 139.8317 0.0000 -13.9679 0.0000
# 4 0.0000 0.0000 0.0000 29.0344 0.0000 -2.9851
# 5 3.8115 -1.1727 -13.9679 0.0000 34.3368 0.0000
# 6 0.0000 0.0000 0.0000 -2.9851 0.0000 22.4028
#
#
#
# Elastic Compliance Matrix: (Units=1/GPa)
#
#
# Indices 1 2 3 4 5 6 
#
# 1 0.010186 -0.003814 -0.001222 0.000000 -0.001758 0.000000
# 2 -0.003814 0.022147 -0.004352 0.000000 -0.000591 0.000000
# 3 -0.001222 -0.004352 0.008718 0.000000 0.003533 0.000000
# 4 0.000000 0.000000 0.000000 0.034920 0.000000 0.004653
# 5 -0.001758 -0.000591 0.003533 0.000000 0.030736 0.000000
# 6 0.000000 0.000000 0.000000 0.004653 0.000000 0.045257
#
#
# Mechanical properties :
#
#
# Convention : Reuss Voigt Hill
#
# Bulk Modulus (GPa) = 44.89531 52.32120 48.60826
# Shear Modulus (GPa) = 28.06388 32.10553 30.08471
#
# Velocity S-wave (km/s) = 3.64062 3.89396 3.76942
# Velocity P-wave (km/s) = 6.23502 6.70281 6.47314
#
# Compressibility (1/GPa) = 0.02227404
#
# Stress axis : x y z
#
# Youngs Moduli (GPa) = 98.17174 45.15327 114.71112
#
# Poissons Ratio (x) = 0.17221 0.14020
# Poissons Ratio (y) = 0.37442 0.49923
# Poissons Ratio (z) = 0.11999 0.19651
#
# Static dielectric constant tensor:
#      x y z
#    x 1.741910 0.000000 0.037040 
#    y 0.000000 1.827010 0.000000 
#    z 0.037040 0.000000 1.830590 
# 
# From -- ./inp_files/14690.got.cif
#   From: 2010.05.17/outbox.cif.g08.bks.cpg/sg14_8_cif.got.tgz:14690.got - 2010.06.03 17:49:19.
