data_PCOD9246174
_publ_section_title
;
Structure prediction by ZEFSAII (Michael W. Deem and Ramdas Pophale) SiO2 
 PCOD9246174
Probable space group: P 21/C
;
_chemical_formula_sum "Si O2"
_cell_formula_units_Z 28
_cell_length_a 17.118667
_cell_length_b 8.010742
_cell_length_c 16.141855
_cell_angle_alpha 90.000000
_cell_angle_beta 144.872617
_cell_angle_gamma 90.000000
_cell_volume 1273.688183
_symmetry_space_group_name_H-M "P 21/C"
_symmetry_group_IT_number 14
_symmetry_cell_setting 'monoclinic'
loop_
_space_group_symop_operation_xyz
x,y,z
-x,1/2+y,1/2-z
-x,-y,-z
x,1/2-y,1/2+z
loop_
_atom_site_type_symbol
_atom_site_label
_atom_site_fract_x
_atom_site_fract_y
_atom_site_fract_z
Si Si1 0.951226 0.135577 0.888741
Si Si2 0.512911 0.698724 0.995675
Si Si3 0.805942 0.651237 0.183439
Si Si4 0.086081 0.806916 0.486669
Si Si5 0.367827 0.839453 0.206187
Si Si6 0.822654 0.840205 0.501436
Si Si7 0.462923 0.224003 0.302583
O O1 0.909908 0.291607 0.910105
O O2 0.833397 0.039846 0.737159
O O3 0.072659 0.195782 0.935476
O O4 0.000000 0.000000 0.000000
O O5 0.670238 0.721944 0.107097
O O6 0.481445 0.771766 0.058583
O O7 0.500000 0.500000 0.000000
O O8 0.421506 0.745824 0.837732
O O9 0.939304 0.749566 0.328004
O O10 0.797618 0.659307 0.077684
O O11 0.206672 0.683379 0.561945
O O12 0.117243 0.985812 0.476823
O O13 0.435114 0.762352 0.183163
O O14 0.419119 0.029561 0.258367
O O15 0.677779 0.818869 0.333114
#
# Coordination Sequence:
#
# PCOD9246174 Si02
#       7
#     4   4   4   4   4   4   4
#     4  10  21  40  64  91 131 174 218 272 342 398
#     4  10  22  42  71  94 132 180 224 271 344 413
#     4  11  22  43  68 100 133 182 231 279 344 414
#     4  11  24  41  66 100 136 175 231 282 346 406
#     4  11  23  43  67 100 135 181 229 282 344 415
#     4  12  23  41  69 102 136 177 231 290 340 411
#     4  11  22  42  70  96 136 179 226 284 347 410
#
# _framework density 21.983404
#
# number of rings (size 3 to 8) (size 9 to 14) (size 15 to 20)
#    0.000    1.143    1.429    7.286    2.000    0.000 
#    2.571    2.857    0.000    0.000    0.000    0.000 
#    0.000    0.000    0.000    0.000    0.000    0.000 
#
# Total GULP energy -156586.935086 kJ/mol
# GULP energy per Si atom -5592.390539 kJ/mol
# Density = 2.193337 g / cm^3
# Si number density = 21.983404 Si / 1000 Ang^3
#
#
#
# Elastic Constant Matrix: (Units=GPa)
#
#
# Indices 1 2 3 4 5 6 
#
# 1 122.8125 21.6253 46.5253 0.0000 -19.8123 0.0000
# 2 21.6253 45.0090 18.4695 0.0000 -7.1342 0.0000
# 3 46.5253 18.4695 83.4060 0.0000 -2.5004 0.0000
# 4 0.0000 0.0000 0.0000 17.9731 0.0000 4.2979
# 5 -19.8123 -7.1342 -2.5004 0.0000 48.8704 0.0000
# 6 0.0000 0.0000 0.0000 4.2979 0.0000 17.8357
#
#
#
# Elastic Compliance Matrix: (Units=1/GPa)
#
#
# Indices 1 2 3 4 5 6 
#
# 1 0.011369 -0.002510 -0.005668 0.000000 0.003953 0.000000
# 2 -0.002510 0.025535 -0.004179 0.000000 0.002496 0.000000
# 3 -0.005668 -0.004179 0.016014 0.000000 -0.002088 0.000000
# 4 0.000000 0.000000 0.000000 0.059041 0.000000 -0.014227
# 5 0.003953 0.002496 -0.002088 0.000000 0.022322 0.000000
# 6 0.000000 0.000000 0.000000 -0.014227 0.000000 0.059496
#
#
# Mechanical properties :
#
#
# Convention : Reuss Voigt Hill
#
# Bulk Modulus (GPa) = 35.45680 47.16306 41.30993
# Shear Modulus (GPa) = 21.94021 27.90965 24.92493
#
# Velocity S-wave (km/s) = 3.16260 3.56698 3.37086
# Velocity P-wave (km/s) = 5.43138 6.20201 5.82945
#
# Compressibility (1/GPa) = 0.02820334
#
# Stress axis : x y z
#
# Youngs Moduli (GPa) = 87.95674 39.16265 62.44585
#
# Poissons Ratio (x) = 0.09831 0.35392
# Poissons Ratio (y) = 0.22080 0.26098
# Poissons Ratio (z) = 0.49850 0.16367
#
# Static dielectric constant tensor:
#      x y z
#    x 1.803030 0.000000 -0.017680 
#    y 0.000000 1.882820 0.000000 
#    z -0.017680 0.000000 1.805800 
# 
# From -- ./inp_files/46759.got.cif
#   From: 2010.05.17/outbox.cif.g08.bks.cpg/sg14_24_cif.got.tgz:46759.got - 2010.06.03 17:49:19.
