data_PCOD9246623
_publ_section_title
;
Structure prediction by ZEFSAII (Michael W. Deem and Ramdas Pophale) SiO2 
 PCOD9246623
Probable space group: P 21/C
;
_chemical_formula_sum "Si O2"
_cell_formula_units_Z 32
_cell_length_a 11.248262
_cell_length_b 11.334089
_cell_length_c 11.860130
_cell_angle_alpha 90.000000
_cell_angle_beta 109.889346
_cell_angle_gamma 90.000000
_cell_volume 1421.843080
_symmetry_space_group_name_H-M "P 21/C"
_symmetry_group_IT_number 14
_symmetry_cell_setting 'monoclinic'
loop_
_space_group_symop_operation_xyz
x,y,z
-x,1/2+y,1/2-z
-x,-y,-z
x,1/2-y,1/2+z
loop_
_atom_site_type_symbol
_atom_site_label
_atom_site_fract_x
_atom_site_fract_y
_atom_site_fract_z
Si Si1 0.453198 0.153695 0.442460
Si Si2 0.652808 0.162503 0.316470
Si Si3 0.276058 0.344545 0.687146
Si Si4 0.116103 0.668303 0.581570
Si Si5 0.449300 0.107068 0.057548
Si Si6 0.309408 0.090767 0.596427
Si Si7 0.037222 0.399789 0.924574
Si Si8 0.990808 0.560908 0.340086
O O1 0.582475 0.169645 0.415211
O O2 0.354811 0.108662 0.318183
O O3 0.414530 0.286021 0.465011
O O4 0.432861 0.085968 0.554569
O O5 0.751026 0.270559 0.342817
O O6 0.554703 0.155735 0.180788
O O7 0.708458 0.029564 0.340527
O O8 0.327210 0.417114 0.595916
O O9 0.311536 0.208111 0.673008
O O10 0.129849 0.359519 0.664481
O O11 0.058608 0.570108 0.646479
O O12 0.021462 0.778270 0.553457
O O13 0.104909 0.605434 0.455793
O O14 0.500000 0.000000 0.000000
O O15 0.188833 0.106243 0.476383
O O16 0.986385 0.426263 0.784002
O O17 0.000000 0.500000 0.000000
#
# Coordination Sequence:
#
# PCOD9246623 Si02
#       8
#     4   4   4   4   4   4   4   4
#     4  10  22  41  65  98 134 179 227 283 353 421
#     4  11  24  43  68 101 140 179 234 295 353 439
#     4  10  21  41  67  96 136 181 228 282 351 425
#     4  11  27  47  68 107 139 193 241 293 372 425
#     4  10  23  41  65 104 137 182 231 290 355 426
#     4  11  21  40  67  98 132 179 229 283 356 425
#     4  12  25  45  71 102 139 186 241 300 358 435
#     4  11  26  47  72 100 146 189 240 304 358 445
#
# _framework density 22.505998999999999
#
# number of rings (size 3 to 8) (size 9 to 14) (size 15 to 20)
#    0.000    1.250    3.750    1.125    3.500    2.000 
#    6.750    0.000    0.000    0.000    0.000    0.000 
#    0.000    0.000    0.000    0.000    0.000    0.000 
#
# Total GULP energy -178755.707046 kJ/mol
# GULP energy per Si atom -5586.115845 kJ/mol
# Density = 2.245477 g / cm^3
# Si number density = 22.505999 Si / 1000 Ang^3
#
#
#
# Elastic Constant Matrix: (Units=GPa)
#
#
# Indices 1 2 3 4 5 6 
#
# 1 74.6391 26.1955 29.7647 0.0000 -8.4186 0.0000
# 2 26.1955 104.1431 51.5764 0.0000 -12.9672 0.0000
# 3 29.7647 51.5764 96.4193 0.0000 -11.9155 0.0000
# 4 0.0000 0.0000 0.0000 20.6328 0.0000 9.1949
# 5 -8.4186 -12.9672 -11.9155 0.0000 37.7778 0.0000
# 6 0.0000 0.0000 0.0000 9.1949 0.0000 28.8913
#
#
#
# Elastic Compliance Matrix: (Units=1/GPa)
#
#
# Indices 1 2 3 4 5 6 
#
# 1 0.015709 -0.001962 -0.003590 0.000000 0.001695 0.000000
# 2 -0.001962 0.013515 -0.006352 0.000000 0.002198 0.000000
# 3 -0.003590 -0.006352 0.015098 0.000000 0.001782 0.000000
# 4 0.000000 0.000000 0.000000 0.056477 0.000000 -0.017974
# 5 0.001695 0.002198 0.001782 0.000000 0.028165 0.000000
# 6 0.000000 0.000000 0.000000 -0.017974 0.000000 0.040333
#
#
# Mechanical properties :
#
#
# Convention : Reuss Voigt Hill
#
# Bulk Modulus (GPa) = 48.75001 54.47498 51.61250
# Shear Modulus (GPa) = 25.00696 28.63804 26.82250
#
# Velocity S-wave (km/s) = 3.33697 3.57103 3.45598
# Velocity P-wave (km/s) = 6.04608 6.42341 6.23760
#
# Compressibility (1/GPa) = 0.02051281
#
# Stress axis : x y z
#
# Youngs Moduli (GPa) = 63.65600 73.98982 66.23489
#
# Poissons Ratio (x) = 0.14519 0.23781
# Poissons Ratio (y) = 0.12491 0.42074
# Poissons Ratio (z) = 0.22855 0.47000
#
# Static dielectric constant tensor:
#      x y z
#    x 1.846130 0.000000 0.045030 
#    y 0.000000 1.851450 0.000000 
#    z 0.045030 0.000000 1.780800 
# 
# From -- ./inp_files/29398.got.cif
#   From: 2010.05.17/outbox.cif.g08.bks.cpg/sg14_15_cif.got.tgz:29398.got - 2010.06.03 17:49:19.
