data_PCOD9246924
_publ_section_title
;
Structure prediction by ZEFSAII (Michael W. Deem and Ramdas Pophale) SiO2 
 PCOD9246924
Probable space group: P 21/C
;
_chemical_formula_sum "Si O2"
_cell_formula_units_Z 24
_cell_length_a 10.098857
_cell_length_b 17.369143
_cell_length_c 8.902678
_cell_angle_alpha 90.000000
_cell_angle_beta 131.416196
_cell_angle_gamma 90.000000
_cell_volume 1171.085469
_symmetry_space_group_name_H-M "P 21/C"
_symmetry_group_IT_number 14
_symmetry_cell_setting 'monoclinic'
loop_
_space_group_symop_operation_xyz
x,y,z
-x,1/2+y,1/2-z
-x,-y,-z
x,1/2-y,1/2+z
loop_
_atom_site_type_symbol
_atom_site_label
_atom_site_fract_x
_atom_site_fract_y
_atom_site_fract_z
Si Si1 0.948066 0.929929 0.075980
Si Si2 0.723275 0.172639 0.667076
Si Si3 0.711086 0.338851 0.509887
Si Si4 0.561525 0.538050 0.794479
Si Si5 0.642046 0.585089 0.163244
Si Si6 0.163525 0.978600 0.725667
O O1 0.116910 0.883083 0.261953
O O2 0.846204 0.963039 0.142784
O O3 0.808482 0.880124 0.874477
O O4 0.000000 0.000000 0.000000
O O5 0.712440 0.257323 0.591507
O O6 0.755851 0.175236 0.869989
O O7 0.535093 0.134662 0.485517
O O8 0.530847 0.389515 0.356000
O O9 0.837370 0.395186 0.698530
O O10 0.416739 0.489193 0.781129
O O11 0.664156 0.488883 0.748754
O O12 0.689428 0.563313 0.027383
O O13 0.000000 0.000000 0.500000
#
# Coordination Sequence:
#
# PCOD9246924 Si02
#       6
#     4   4   4   4   4   4
#     4  12  22  43  69  97 131 178 228 273 331 396
#     4  11  26  44  66  98 140 177 216 279 343 394
#     4  11  25  45  65  97 138 176 217 277 341 394
#     4  10  21  42  70  98 129 172 231 271 326 403
#     4  10  21  43  70  96 131 179 218 274 333 394
#     4  12  24  39  71 103 129 173 233 283 317 404
#
# _framework density 20.493805999999999
#
# number of rings (size 3 to 8) (size 9 to 14) (size 15 to 20)
#    0.000    1.000    3.333    4.500    4.667    0.000 
#    3.000    0.000    0.000    0.000    0.000    0.000 
#    0.000    0.000    0.000    0.000    0.000    0.000 
#
# Total GULP energy -133952.789249 kJ/mol
# GULP energy per Si atom -5581.366219 kJ/mol
# Density = 2.044716 g / cm^3
# Si number density = 20.493806 Si / 1000 Ang^3
#
#
#
# Elastic Constant Matrix: (Units=GPa)
#
#
# Indices 1 2 3 4 5 6 
#
# 1 75.3896 29.0260 23.3429 0.0000 -14.0842 0.0000
# 2 29.0260 121.3973 48.1829 0.0000 -5.1367 0.0000
# 3 23.3429 48.1829 143.8027 0.0000 -5.6486 0.0000
# 4 0.0000 0.0000 0.0000 41.2324 0.0000 -10.9358
# 5 -14.0842 -5.1367 -5.6486 0.0000 27.4531 0.0000
# 6 0.0000 0.0000 0.0000 -10.9358 0.0000 21.2135
#
#
#
# Elastic Compliance Matrix: (Units=1/GPa)
#
#
# Indices 1 2 3 4 5 6 
#
# 1 0.016245 -0.003042 -0.001323 0.000000 0.007493 0.000000
# 2 -0.003042 0.010106 -0.002903 0.000000 -0.000267 0.000000
# 3 -0.001323 -0.002903 0.008159 0.000000 0.000457 0.000000
# 4 0.000000 0.000000 0.000000 0.028094 0.000000 0.014483
# 5 0.007493 -0.000267 0.000457 0.000000 0.040314 0.000000
# 6 0.000000 0.000000 0.000000 0.014483 0.000000 0.054606
#
#
# Mechanical properties :
#
#
# Convention : Reuss Voigt Hill
#
# Bulk Modulus (GPa) = 50.06524 60.18812 55.12668
# Shear Modulus (GPa) = 27.97707 33.98232 30.97969
#
# Velocity S-wave (km/s) = 3.69880 4.07649 3.89223
# Velocity P-wave (km/s) = 6.53636 7.18260 6.86708
#
# Compressibility (1/GPa) = 0.01997394
#
# Stress axis : x y z
#
# Youngs Moduli (GPa) = 61.55669 98.95591 122.55904
#
# Poissons Ratio (x) = 0.30101 0.16221
# Poissons Ratio (y) = 0.18725 0.35575
# Poissons Ratio (z) = 0.08147 0.28724
#
# Static dielectric constant tensor:
#      x y z
#    x 1.750960 0.000000 0.017460 
#    y 0.000000 1.754950 0.000000 
#    z 0.017460 0.000000 1.786960 
# 
# From -- ./inp_files/10300.got.cif
#   From: 2010.05.17/outbox.cif.g08.bks.cpg/sg14_6_cif.got.tgz:10300.got - 2010.06.03 17:49:19.
