data_PCOD9246642
_publ_section_title
;
Structure prediction by ZEFSAII (Michael W. Deem and Ramdas Pophale) SiO2 
 PCOD9246642
Probable space group: P 21/C
;
_chemical_formula_sum "Si O2"
_cell_formula_units_Z 24
_cell_length_a 16.662152
_cell_length_b 7.957833
_cell_length_c 10.310679
_cell_angle_alpha 90.000000
_cell_angle_beta 41.857466
_cell_angle_gamma 90.000000
_cell_volume 912.265338
_symmetry_space_group_name_H-M "P 21/C"
_symmetry_group_IT_number 14
_symmetry_cell_setting 'monoclinic'
loop_
_space_group_symop_operation_xyz
x,y,z
-x,1/2+y,1/2-z
-x,-y,-z
x,1/2-y,1/2+z
loop_
_atom_site_type_symbol
_atom_site_label
_atom_site_fract_x
_atom_site_fract_y
_atom_site_fract_z
Si Si1 0.931807 0.708402 0.587404
Si Si2 0.148880 0.558490 0.819575
Si Si3 0.348013 0.769250 0.510703
Si Si4 0.381419 0.233739 0.901975
Si Si5 0.306529 0.407308 0.241463
Si Si6 0.820294 0.493718 0.927933
O O1 0.835396 0.638126 0.599575
O O2 0.922511 0.563912 0.707257
O O3 0.059746 0.786791 0.393930
O O4 0.873749 0.879732 0.719350
O O5 0.286856 0.608812 0.647468
O O6 0.123982 0.517811 0.999338
O O7 0.479037 0.740118 0.298848
O O8 0.338609 0.920440 0.627589
O O9 0.251307 0.823707 0.517945
O O10 0.349666 0.086561 0.836851
O O11 0.366462 0.263695 0.075095
O O12 0.290054 0.374965 0.954926
#
# Coordination Sequence:
#
# PCOD9246642 Si02
#       6
#     4   4   4   4   4   4
#     4   9  22  42  65  90 129 171 223 271 338 398
#     4  11  22  43  66  95 129 174 225 275 336 399
#     4  10  24  39  63 100 128 171 228 269 331 399
#     4  10  21  41  68  89 138 170 224 267 336 398
#     4  10  22  44  64  98 130 184 213 281 335 396
#     4  10  24  44  60 100 133 177 220 279 339 396
#
# _framework density 26.308135
#
# number of rings (size 3 to 8) (size 9 to 14) (size 15 to 20)
#    0.000    2.333    1.667    0.500    2.333   11.333 
#   12.000    0.000    0.000    0.000    0.000    0.000 
#    0.000    0.000    0.000    0.000    0.000    0.000 
#
# Total GULP energy -133992.865450 kJ/mol
# GULP energy per Si atom -5583.036060 kJ/mol
# Density = 2.624826 g / cm^3
# Si number density = 26.308135 Si / 1000 Ang^3
#
#
#
# Elastic Constant Matrix: (Units=GPa)
#
#
# Indices 1 2 3 4 5 6 
#
# 1 80.7172 11.3413 65.3488 0.0000 1.1276 0.0000
# 2 11.3413 85.5130 10.1426 0.0000 -3.9330 0.0000
# 3 65.3488 10.1426 116.4772 0.0000 -21.6751 0.0000
# 4 0.0000 0.0000 0.0000 29.0835 0.0000 2.3053
# 5 1.1276 -3.9330 -21.6751 0.0000 53.0537 0.0000
# 6 0.0000 0.0000 0.0000 2.3053 0.0000 20.0352
#
#
#
# Elastic Compliance Matrix: (Units=1/GPa)
#
#
# Indices 1 2 3 4 5 6 
#
# 1 0.025002 -0.001835 -0.015143 0.000000 -0.006854 0.000000
# 2 -0.001835 0.011963 0.000173 0.000000 0.000997 0.000000
# 3 -0.015143 0.000173 0.018538 0.000000 0.007908 0.000000
# 4 0.000000 0.000000 0.000000 0.034700 0.000000 -0.003993
# 5 -0.006854 0.000997 0.007908 0.000000 0.022299 0.000000
# 6 0.000000 0.000000 0.000000 -0.003993 0.000000 0.050372
#
#
# Mechanical properties :
#
#
# Convention : Reuss Voigt Hill
#
# Bulk Modulus (GPa) = 45.67608 50.70811 48.19210
# Shear Modulus (GPa) = 24.53605 33.49281 29.01443
#
# Velocity S-wave (km/s) = 3.05723 3.57192 3.32455
# Velocity P-wave (km/s) = 5.46460 6.02727 5.75282
#
# Compressibility (1/GPa) = 0.02189330
#
# Stress axis : x y z
#
# Youngs Moduli (GPa) = 39.99607 83.59255 53.94358
#
# Poissons Ratio (x) = 0.15340 0.81688
# Poissons Ratio (y) = 0.07340 -0.00935
# Poissons Ratio (z) = 0.60567 -0.01449
#
# Static dielectric constant tensor:
#      x y z
#    x 2.028920 0.000000 0.016040 
#    y 0.000000 2.268670 0.000000 
#    z 0.016040 0.000000 2.110510 
# 
# From -- ./inp_files/34866.got.cif
#   From: 2010.05.17/outbox.cif.g08.bks.cpg/sg14_18_cif.got.tgz:34866.got - 2010.06.03 17:49:19.
