data_PCOD9246799
_publ_section_title
;
Structure prediction by ZEFSAII (Michael W. Deem and Ramdas Pophale) SiO2 
 PCOD9246799
Probable space group: P 21/C
;
_chemical_formula_sum "Si O2"
_cell_formula_units_Z 24
_cell_length_a 8.979881
_cell_length_b 5.269089
_cell_length_c 22.110064
_cell_angle_alpha 90.000000
_cell_angle_beta 91.498673
_cell_angle_gamma 90.000000
_cell_volume 1045.797336
_symmetry_space_group_name_H-M "P 21/C"
_symmetry_group_IT_number 14
_symmetry_cell_setting 'monoclinic'
loop_
_space_group_symop_operation_xyz
x,y,z
-x,1/2+y,1/2-z
-x,-y,-z
x,1/2-y,1/2+z
loop_
_atom_site_type_symbol
_atom_site_label
_atom_site_fract_x
_atom_site_fract_y
_atom_site_fract_z
Si Si1 0.251352 0.120624 0.082126
Si Si2 0.979986 0.243963 0.404787
Si Si3 0.401252 0.948878 0.918149
Si Si4 0.114773 0.367419 0.192562
Si Si5 0.822279 0.074051 0.181736
Si Si6 0.745484 0.957860 0.528521
O O1 0.421530 0.040391 0.081203
O O2 0.200963 0.172835 0.150339
O O3 0.131904 0.914123 0.057096
O O4 0.239215 0.371596 0.040659
O O5 0.092213 0.432866 0.371619
O O6 0.089767 0.048745 0.439785
O O7 0.890279 0.113805 0.349589
O O8 0.335045 0.875514 0.851241
O O9 0.340714 0.717003 0.958812
O O10 0.343333 0.220384 0.941829
O O11 0.187763 0.409071 0.257983
O O12 0.940204 0.294357 0.199801
#
# Coordination Sequence:
#
# PCOD9246799 Si02
#       6
#     4   4   4   4   4   4
#     4  11  26  40  64 104 131 173 221 283 340 396
#     4  10  22  40  66  95 127 172 222 275 324 393
#     4  11  25  45  68  97 134 181 220 275 342 407
#     4  11  21  40  66  89 131 167 222 275 322 396
#     4  10  21  42  65  92 123 175 226 264 330 395
#     4  11  24  45  70  94 137 180 221 271 338 414
#
# _framework density 22.948996000000001
#
# number of rings (size 3 to 8) (size 9 to 14) (size 15 to 20)
#    0.000    1.333    3.333    1.500    4.667    0.667 
#    3.000    0.000    0.000    0.000    0.000    0.000 
#    0.000    0.000    0.000    0.000    0.000    0.000 
#
# Total GULP energy -134177.058281 kJ/mol
# GULP energy per Si atom -5590.710762 kJ/mol
# Density = 2.289676 g / cm^3
# Si number density = 22.948996 Si / 1000 Ang^3
#
#
#
# Elastic Constant Matrix: (Units=GPa)
#
#
# Indices 1 2 3 4 5 6 
#
# 1 129.6597 22.6515 43.6156 0.0000 4.6920 0.0000
# 2 22.6515 73.2448 -3.2626 0.0000 -5.9709 0.0000
# 3 43.6156 -3.2626 105.8035 0.0000 12.1633 0.0000
# 4 0.0000 0.0000 0.0000 32.2983 0.0000 -0.0116
# 5 4.6920 -5.9709 12.1633 0.0000 26.9170 0.0000
# 6 0.0000 0.0000 0.0000 -0.0116 0.0000 21.8534
#
#
#
# Elastic Compliance Matrix: (Units=1/GPa)
#
#
# Indices 1 2 3 4 5 6 
#
# 1 0.009642 -0.003208 -0.004007 0.000000 -0.000582 0.000000
# 2 -0.003208 0.014972 0.001411 0.000000 0.003243 0.000000
# 3 -0.004007 0.001411 0.011635 0.000000 -0.004246 0.000000
# 4 0.000000 0.000000 0.000000 0.030961 0.000000 0.000016
# 5 -0.000582 0.003243 -0.004246 0.000000 0.039891 0.000000
# 6 0.000000 0.000000 0.000000 0.000016 0.000000 0.045760
#
#
# Mechanical properties :
#
#
# Convention : Reuss Voigt Hill
#
# Bulk Modulus (GPa) = 40.58058 48.30188 44.44123
# Shear Modulus (GPa) = 28.95520 32.59396 30.77458
#
# Velocity S-wave (km/s) = 3.55592 3.77275 3.66594
# Velocity P-wave (km/s) = 5.88054 6.33019 6.10951
#
# Compressibility (1/GPa) = 0.02464233
#
# Stress axis : x y z
#
# Youngs Moduli (GPa) = 103.71614 66.79121 85.94900
#
# Poissons Ratio (x) = 0.21424 0.34437
# Poissons Ratio (y) = 0.33269 -0.12129
# Poissons Ratio (z) = 0.41555 -0.09426
#
# Static dielectric constant tensor:
#      x y z
#    x 1.864090 0.000000 -0.010440 
#    y 0.000000 1.941550 0.000000 
#    z -0.010440 0.000000 1.871610 
# 
# From -- ./inp_files/71631.got.cif
#   From: 2010.05.17/outbox.cif.g08.bks.cpg/sg14_36_cif.got.tgz:71631.got - 2010.06.03 17:49:19.
