data_PCOD9246627
_publ_section_title
;
Structure prediction by ZEFSAII (Michael W. Deem and Ramdas Pophale) SiO2 
 PCOD9246627
Probable space group: P 21/C
;
_chemical_formula_sum "Si O2"
_cell_formula_units_Z 28
_cell_length_a 7.896538
_cell_length_b 13.606356
_cell_length_c 11.715281
_cell_angle_alpha 90.000000
_cell_angle_beta 111.976762
_cell_angle_gamma 90.000000
_cell_volume 1167.261749
_symmetry_space_group_name_H-M "P 21/C"
_symmetry_group_IT_number 14
_symmetry_cell_setting 'monoclinic'
loop_
_space_group_symop_operation_xyz
x,y,z
-x,1/2+y,1/2-z
-x,-y,-z
x,1/2-y,1/2+z
loop_
_atom_site_type_symbol
_atom_site_label
_atom_site_fract_x
_atom_site_fract_y
_atom_site_fract_z
Si Si1 0.405251 0.397587 0.443741
Si Si2 0.138338 0.366058 0.826215
Si Si3 0.742430 0.355244 0.282182
Si Si4 0.471702 0.678098 0.996561
Si Si5 0.132142 0.841872 0.559345
Si Si6 0.084952 0.353772 0.223813
Si Si7 0.810318 0.959047 0.905602
O O1 0.500000 0.500000 0.500000
O O2 0.512570 0.294258 0.466530
O O3 0.271460 0.408383 0.301281
O O4 0.273682 0.386699 0.522646
O O5 0.333513 0.373092 0.937346
O O6 0.111381 0.251624 0.790142
O O7 0.155739 0.409225 0.705665
O O8 0.968277 0.399231 0.862449
O O9 0.813524 0.263397 0.372929
O O10 0.686894 0.444706 0.349051
O O11 0.911164 0.395339 0.248124
O O12 0.594489 0.325644 0.150806
O O13 0.318911 0.628835 0.041062
O O14 0.979014 0.838456 0.421639
O O15 0.000000 0.000000 0.000000
#
# Coordination Sequence:
#
# PCOD9246627 Si02
#       7
#     4   4   4   4   4   4   4
#     4  11  24  42  68 108 138 181 239 299 356 415
#     4  10  24  39  68 100 133 185 226 286 354 414
#     4  10  21  41  67  98 135 185 228 282 356 424
#     4  10  24  43  67 102 138 180 236 283 355 429
#     4  10  21  42  71  96 132 186 228 281 346 427
#     4   9  20  41  64  95 134 178 231 277 354 421
#     4  12  24  43  70 100 141 180 240 295 349 424
#
# _framework density 23.987765
#
# number of rings (size 3 to 8) (size 9 to 14) (size 15 to 20)
#    0.000    1.714    1.429    1.714    6.000    5.143 
#    0.000    2.857    0.000    0.000    0.000    0.000 
#    0.000    0.000    0.000    0.000    0.000    0.000 
#
# Total GULP energy -156443.969084 kJ/mol
# GULP energy per Si atom -5587.284610 kJ/mol
# Density = 2.393317 g / cm^3
# Si number density = 23.987765 Si / 1000 Ang^3
#
#
#
# Elastic Constant Matrix: (Units=GPa)
#
#
# Indices 1 2 3 4 5 6 
#
# 1 98.1396 31.6810 52.4015 0.0000 8.0390 0.0000
# 2 31.6810 35.1845 30.9987 0.0000 4.4941 0.0000
# 3 52.4015 30.9987 140.3362 0.0000 -3.6523 0.0000
# 4 0.0000 0.0000 0.0000 38.6216 0.0000 -7.5735
# 5 8.0390 4.4941 -3.6523 0.0000 28.2442 0.0000
# 6 0.0000 0.0000 0.0000 -7.5735 0.0000 31.1117
#
#
#
# Elastic Compliance Matrix: (Units=1/GPa)
#
#
# Indices 1 2 3 4 5 6 
#
# 1 0.015839 -0.010623 -0.003653 0.000000 -0.003290 0.000000
# 2 -0.010623 0.043702 -0.005809 0.000000 -0.004681 0.000000
# 3 -0.003653 -0.005809 0.009857 0.000000 0.003239 0.000000
# 4 0.000000 0.000000 0.000000 0.027190 0.000000 0.006619
# 5 -0.003290 -0.004681 0.003239 0.000000 0.037506 0.000000
# 6 0.000000 0.000000 0.000000 0.006619 0.000000 0.033754
#
#
# Mechanical properties :
#
#
# Convention : Reuss Voigt Hill
#
# Bulk Modulus (GPa) = 34.21286 55.98029 45.09657
# Shear Modulus (GPa) = 22.96101 30.16743 26.56422
#
# Velocity S-wave (km/s) = 3.09722 3.55014 3.33138
# Velocity P-wave (km/s) = 5.20422 6.33974 5.79984
#
# Compressibility (1/GPa) = 0.02922878
#
# Stress axis : x y z
#
# Youngs Moduli (GPa) = 63.13515 22.88219 101.44754
#
# Poissons Ratio (x) = 0.24307 0.37064
# Poissons Ratio (y) = 0.67067 0.58927
# Poissons Ratio (z) = 0.23066 0.13291
#
# Static dielectric constant tensor:
#      x y z
#    x 1.772360 0.000000 0.100870 
#    y 0.000000 2.083120 0.000000 
#    z 0.100870 0.000000 1.803120 
# 
# From -- ./inp_files/25579.got.cif
#   From: 2010.05.17/outbox.cif.g08.bks.cpg/sg14_13_cif.got.tgz:25579.got - 2010.06.03 17:49:19.
