data_PCOD9246624
_publ_section_title
;
Structure prediction by ZEFSAII (Michael W. Deem and Ramdas Pophale) SiO2 
 PCOD9246624
Probable space group: P 21/C
;
_chemical_formula_sum "Si O2"
_cell_formula_units_Z 28
_cell_length_a 9.469175
_cell_length_b 9.690826
_cell_length_c 14.331977
_cell_angle_alpha 90.000000
_cell_angle_beta 54.637715
_cell_angle_gamma 90.000000
_cell_volume 1072.525837
_symmetry_space_group_name_H-M "P 21/C"
_symmetry_group_IT_number 14
_symmetry_cell_setting 'monoclinic'
loop_
_space_group_symop_operation_xyz
x,y,z
-x,1/2+y,1/2-z
-x,-y,-z
x,1/2-y,1/2+z
loop_
_atom_site_type_symbol
_atom_site_label
_atom_site_fract_x
_atom_site_fract_y
_atom_site_fract_z
Si Si1 0.078152 0.419292 0.363415
Si Si2 0.372932 0.299822 0.714363
Si Si3 0.056823 0.807116 0.475090
Si Si4 0.660184 0.363208 0.990167
Si Si5 0.194560 0.698370 0.255004
Si Si6 0.314499 0.344263 0.943797
Si Si7 0.184768 0.106714 0.124775
O O1 0.205459 0.299801 0.279449
O O2 0.204288 0.549945 0.302536
O O3 0.013725 0.351741 0.484634
O O4 0.901333 0.465072 0.378766
O O5 0.526538 0.220990 0.604060
O O6 0.412951 0.332335 0.807137
O O7 0.303003 0.416309 0.670122
O O8 0.153110 0.839268 0.532816
O O9 0.188497 0.811082 0.338334
O O10 0.880611 0.882883 0.517496
O O11 0.675387 0.305148 0.879945
O O12 0.366603 0.472181 0.988593
O O13 0.995117 0.693486 0.293592
O O14 0.292833 0.202287 0.010551
#
# Coordination Sequence:
#
# PCOD9246624 Si02
#       7
#     4   4   4   4   4   4   4
#     4   9  20  40  67  89 125 172 225 262 320 391
#     4  11  24  42  64  96 138 171 213 280 341 380
#     4  10  21  41  67  97 131 178 224 265 328 395
#     4  12  25  40  64 102 135 169 215 277 336 398
#     4   9  20  38  69  93 125 170 222 268 319 392
#     4  10  23  44  65  93 131 176 222 269 324 395
#     4   9  21  42  67  95 119 173 226 272 317 396
#
# _framework density 26.106597000000001
#
# number of rings (size 3 to 8) (size 9 to 14) (size 15 to 20)
#    0.857    1.143    0.000    3.429    2.000    5.714 
#    5.143    0.714    0.000    0.000    0.000    0.000 
#    0.000    0.000    0.000    0.000    0.000    0.000 
#
# Total GULP energy -156304.331840 kJ/mol
# GULP energy per Si atom -5582.297566 kJ/mol
# Density = 2.604718 g / cm^3
# Si number density = 26.106597 Si / 1000 Ang^3
#
#
#
# Elastic Constant Matrix: (Units=GPa)
#
#
# Indices 1 2 3 4 5 6 
#
# 1 77.2597 17.3151 21.1179 0.0000 -0.7198 0.0000
# 2 17.3151 52.7875 23.4755 0.0000 -0.7608 0.0000
# 3 21.1179 23.4755 193.2846 0.0000 4.0602 0.0000
# 4 0.0000 0.0000 0.0000 27.9916 0.0000 0.6858
# 5 -0.7198 -0.7608 4.0602 0.0000 30.1387 0.0000
# 6 0.0000 0.0000 0.0000 0.6858 0.0000 42.8744
#
#
#
# Elastic Compliance Matrix: (Units=1/GPa)
#
#
# Indices 1 2 3 4 5 6 
#
# 1 0.014169 -0.004176 -0.001049 0.000000 0.000374 0.000000
# 2 -0.004176 0.021277 -0.002143 0.000000 0.000726 0.000000
# 3 -0.001049 -0.002143 0.005566 0.000000 -0.000829 0.000000
# 4 0.000000 0.000000 0.000000 0.035739 0.000000 -0.000572
# 5 0.000374 0.000726 -0.000829 0.000000 0.033319 0.000000
# 6 0.000000 0.000000 0.000000 -0.000572 0.000000 0.023333
#
#
# Mechanical properties :
#
#
# Convention : Reuss Voigt Hill
#
# Bulk Modulus (GPa) = 38.05652 49.68320 43.86986
# Shear Modulus (GPa) = 31.86771 37.62915 34.74843
#
# Velocity S-wave (km/s) = 3.49761 3.80065 3.65227
# Velocity P-wave (km/s) = 5.56058 6.19130 5.88439
#
# Compressibility (1/GPa) = 0.02627671
#
# Stress axis : x y z
#
# Youngs Moduli (GPa) = 70.57450 46.99852 179.66131
#
# Poissons Ratio (x) = 0.19626 0.18843
# Poissons Ratio (y) = 0.29472 0.38506
# Poissons Ratio (z) = 0.07402 0.10073
#
# Static dielectric constant tensor:
#      x y z
#    x 2.076930 0.000000 0.019550 
#    y 0.000000 2.176460 0.000000 
#    z 0.019550 0.000000 2.081160 
# 
# From -- ./inp_files/40868.got.cif
#   From: 2010.05.17/outbox.cif.g08.bks.cpg/sg14_21_cif.got.tgz:40868.got - 2010.06.03 17:49:19.
