data_PCOD9246264
_publ_section_title
;
Structure prediction by ZEFSAII (Michael W. Deem and Ramdas Pophale) SiO2 
 PCOD9246264
Probable space group: P 21/C
;
_chemical_formula_sum "Si O2"
_cell_formula_units_Z 32
_cell_length_a 12.744906
_cell_length_b 17.502587
_cell_length_c 10.983722
_cell_angle_alpha 90.000000
_cell_angle_beta 36.709705
_cell_angle_gamma 90.000000
_cell_volume 1464.589620
_symmetry_space_group_name_H-M "P 21/C"
_symmetry_group_IT_number 14
_symmetry_cell_setting 'monoclinic'
loop_
_space_group_symop_operation_xyz
x,y,z
-x,1/2+y,1/2-z
-x,-y,-z
x,1/2-y,1/2+z
loop_
_atom_site_type_symbol
_atom_site_label
_atom_site_fract_x
_atom_site_fract_y
_atom_site_fract_z
Si Si1 0.643306 0.936818 0.169639
Si Si2 0.716754 0.700288 0.426757
Si Si3 0.037040 0.116531 0.964621
Si Si4 0.166353 0.362618 0.078832
Si Si5 0.652128 0.389469 0.888208
Si Si6 0.394362 0.717161 0.549527
Si Si7 0.457271 0.595213 0.287157
Si Si8 0.022684 0.701377 0.974746
O O1 0.641451 0.865030 0.082251
O O2 0.804807 0.920684 0.109170
O O3 0.470195 0.940684 0.414625
O O4 0.646373 0.016563 0.096467
O O5 0.747150 0.780370 0.466169
O O6 0.581077 0.712150 0.442512
O O7 0.906407 0.676122 0.197285
O O8 0.068275 0.108593 0.791102
O O9 0.028236 0.208687 0.994740
O O10 0.851884 0.085650 0.184636
O O11 0.333674 0.413563 0.888286
O O12 0.039192 0.345644 0.085237
O O13 0.641069 0.304475 0.953936
O O14 0.575116 0.383022 0.823472
O O15 0.392799 0.661293 0.436523
O O16 0.232041 0.696848 0.789667
#
# Coordination Sequence:
#
# PCOD9246264 Si02
#       8
#     4   4   4   4   4   4   4   4
#     4  12  25  42  59  93 135 168 204 249 320 383
#     4  11  22  40  65  87 126 165 203 258 313 369
#     4  10  22  38  65  93 122 160 205 263 316 363
#     4  11  19  40  66  90 120 162 210 261 309 361
#     4  11  23  42  67  93 123 163 212 264 311 367
#     4  11  23  41  68  96 120 161 219 265 303 363
#     4  12  24  41  66  93 126 170 206 256 316 377
#     4  10  21  40  66  94 118 158 215 263 308 361
#
# _framework density 21.849122999999999
#
# number of rings (size 3 to 8) (size 9 to 14) (size 15 to 20)
#    0.000    1.000    5.000    2.625    0.000    2.000 
#    2.250    0.625    0.000    0.000    0.000    0.000 
#    0.000    0.000    0.000    0.000    0.000    0.000 
#
# Total GULP energy -179060.902788 kJ/mol
# GULP energy per Si atom -5595.653212 kJ/mol
# Density = 2.179939 g / cm^3
# Si number density = 21.849123 Si / 1000 Ang^3
#
#
#
# Elastic Constant Matrix: (Units=GPa)
#
#
# Indices 1 2 3 4 5 6 
#
# 1 7.1866 -1.2477 0.9211 0.0000 0.8388 0.0000
# 2 -1.2477 65.2693 17.0098 0.0000 10.9637 0.0000
# 3 0.9211 17.0098 105.7549 0.0000 -15.7414 0.0000
# 4 0.0000 0.0000 0.0000 13.6208 0.0000 10.4983
# 5 0.8388 10.9637 -15.7414 0.0000 27.7571 0.0000
# 6 0.0000 0.0000 0.0000 10.4983 0.0000 23.7400
#
#
#
# Elastic Compliance Matrix: (Units=1/GPa)
#
#
# Indices 1 2 3 4 5 6 
#
# 1 0.141344 0.004886 -0.003211 0.000000 -0.008023 0.000000
# 2 0.004886 0.018230 -0.004444 0.000000 -0.009868 0.000000
# 3 -0.003211 -0.004444 0.011440 0.000000 0.008340 0.000000
# 4 0.000000 0.000000 0.000000 0.111381 0.000000 -0.049255
# 5 -0.008023 -0.009868 0.008340 0.000000 0.044897 0.000000
# 6 0.000000 0.000000 0.000000 -0.049255 0.000000 0.063904
#
#
# Mechanical properties :
#
#
# Convention : Reuss Voigt Hill
#
# Bulk Modulus (GPa) = 6.04311 23.50858 14.77585
# Shear Modulus (GPa) = 11.06457 23.79208 17.42833
#
# Velocity S-wave (km/s) = 2.25279 3.30347 2.82736
# Velocity P-wave (km/s) = 3.08846 5.03323 4.17564
#
# Compressibility (1/GPa) = 0.16547761
#
# Stress axis : x y z
#
# Youngs Moduli (GPa) = 7.07492 54.85383 87.41332
#
# Poissons Ratio (x) = -0.26804 0.28070
# Poissons Ratio (y) = -0.03457 0.38843
# Poissons Ratio (z) = 0.02272 0.24375
#
# Static dielectric constant tensor:
#      x y z
#    x 1.768160 0.000000 -0.014780 
#    y 0.000000 1.801910 0.000000 
#    z -0.014780 0.000000 1.826930 
# 
# From -- ./inp_files/32990.got.cif
#   From: 2010.05.17/outbox.cif.g08.bks.cpg/sg14_17_cif.got.tgz:32990.got - 2010.06.03 17:49:19.
