data_PCOD9246112
_publ_section_title
;
Structure prediction by ZEFSAII (Michael W. Deem and Ramdas Pophale) SiO2 
 PCOD9246112
Probable space group: P 21/C
;
_chemical_formula_sum "Si O2"
_cell_formula_units_Z 20
_cell_length_a 24.561899
_cell_length_b 6.191146
_cell_length_c 15.741873
_cell_angle_alpha 90.000000
_cell_angle_beta 157.828881
_cell_angle_gamma 90.000000
_cell_volume 903.361148
_symmetry_space_group_name_H-M "P 21/C"
_symmetry_group_IT_number 14
_symmetry_cell_setting 'monoclinic'
loop_
_space_group_symop_operation_xyz
x,y,z
-x,1/2+y,1/2-z
-x,-y,-z
x,1/2-y,1/2+z
loop_
_atom_site_type_symbol
_atom_site_label
_atom_site_fract_x
_atom_site_fract_y
_atom_site_fract_z
Si Si1 0.120358 0.238839 0.363854
Si Si2 0.334701 0.194359 0.440589
Si Si3 0.379743 0.016488 0.167037
Si Si4 0.828428 0.358464 0.191152
Si Si5 0.079261 0.408455 0.993261
O O1 0.266662 0.381468 0.570003
O O2 0.153936 0.018891 0.363143
O O3 0.075108 0.202142 0.394655
O O4 0.993267 0.361246 0.129471
O O5 0.466051 0.077259 0.582754
O O6 0.394551 0.304127 0.613795
O O7 0.222104 0.007409 0.304676
O O8 0.242203 0.379131 0.260328
O O9 0.295487 0.812954 0.006789
O O10 0.973394 0.217981 0.404512
#
# Coordination Sequence:
#
# PCOD9246112 Si02
#       5
#     4   4   4   4   4
#     4  10  22  40  61  89 125 154 199 246 293 354
#     4  11  22  39  64  90 118 159 199 241 300 356
#     4  10  22  40  61  89 125 154 199 246 293 354
#     4  10  21  40  63  88 122 152 195 260 293 346
#     4  11  22  39  64  90 118 159 199 241 300 356
#
# _framework density 22.139538000000002
#
# number of rings (size 3 to 8) (size 9 to 14) (size 15 to 20)
#    0.000    1.600    4.000    0.600    0.000    9.600 
#    0.000    1.000    0.000    0.000    0.000    0.000 
#    0.000    0.000    0.000    0.000    0.000    0.000 
#
# Total GULP energy -111721.443228 kJ/mol
# GULP energy per Si atom -5586.072161 kJ/mol
# Density = 2.208915 g / cm^3
# Si number density = 22.139538 Si / 1000 Ang^3
#
#
#
# Elastic Constant Matrix: (Units=GPa)
#
#
# Indices 1 2 3 4 5 6 
#
# 1 60.8223 23.4664 16.5363 0.0000 7.3455 0.0000
# 2 23.4664 74.0412 11.5610 0.0000 10.2104 0.0000
# 3 16.5363 11.5610 66.6587 0.0000 0.1701 0.0000
# 4 0.0000 0.0000 0.0000 10.8756 0.0000 8.7931
# 5 7.3455 10.2104 0.1701 0.0000 13.0440 0.0000
# 6 0.0000 0.0000 0.0000 8.7931 0.0000 32.4131
#
#
#
# Elastic Compliance Matrix: (Units=1/GPa)
#
#
# Indices 1 2 3 4 5 6 
#
# 1 0.020339 -0.004728 -0.004206 0.000000 -0.007698 0.000000
# 2 -0.004728 0.016702 -0.001697 0.000000 -0.010389 0.000000
# 3 -0.004206 -0.001697 0.016331 0.000000 0.003484 0.000000
# 4 0.000000 0.000000 0.000000 0.117784 0.000000 -0.031952
# 5 -0.007698 -0.010389 0.003484 0.000000 0.089086 0.000000
# 6 0.000000 0.000000 0.000000 -0.031952 0.000000 0.039520
#
#
# Mechanical properties :
#
#
# Convention : Reuss Voigt Hill
#
# Bulk Modulus (GPa) = 31.14366 33.84995 32.49681
# Shear Modulus (GPa) = 15.07269 21.26376 18.16823
#
# Velocity S-wave (km/s) = 2.61205 3.10246 2.86776
# Velocity P-wave (km/s) = 4.81608 5.30625 5.06709
#
# Compressibility (1/GPa) = 0.03210926
#
# Stress axis : x y z
#
# Youngs Moduli (GPa) = 49.16770 59.87246 61.23457
#
# Poissons Ratio (x) = 0.28306 0.25754
# Poissons Ratio (y) = 0.23245 0.10394
# Poissons Ratio (z) = 0.20679 0.10163
#
# Static dielectric constant tensor:
#      x y z
#    x 1.780960 0.000000 0.012160 
#    y 0.000000 1.812870 0.000000 
#    z 0.012160 0.000000 1.848170 
# 
# From -- ./inp_files/36812.got.cif
#   From: 2010.05.17/outbox.cif.g08.bks.cpg/sg14_19_cif.got.tgz:36812.got - 2010.06.03 17:49:19.
