data_PCOD9246582
_publ_section_title
;
Structure prediction by ZEFSAII (Michael W. Deem and Ramdas Pophale) SiO2 
 PCOD9246582
Probable space group: P 21/C
;
_chemical_formula_sum "Si O2"
_cell_formula_units_Z 28
_cell_length_a 7.051582
_cell_length_b 21.632419
_cell_length_c 12.488356
_cell_angle_alpha 90.000000
_cell_angle_beta 32.696323
_cell_angle_gamma 90.000000
_cell_volume 1029.059520
_symmetry_space_group_name_H-M "P 21/C"
_symmetry_group_IT_number 14
_symmetry_cell_setting 'monoclinic'
loop_
_space_group_symop_operation_xyz
x,y,z
-x,1/2+y,1/2-z
-x,-y,-z
x,1/2-y,1/2+z
loop_
_atom_site_type_symbol
_atom_site_label
_atom_site_fract_x
_atom_site_fract_y
_atom_site_fract_z
Si Si1 0.811317 0.266699 0.187552
Si Si2 0.689397 0.870406 0.136534
Si Si3 0.727092 0.064527 0.511448
Si Si4 0.172058 0.329821 0.812491
Si Si5 0.848380 0.330961 0.377624
Si Si6 0.086604 0.447554 0.178298
Si Si7 0.620338 0.377424 0.773230
O O1 0.469107 0.311246 0.347482
O O2 0.986412 0.288210 0.215641
O O3 0.703162 0.195747 0.243479
O O4 0.000045 0.286732 0.985876
O O5 0.365988 0.913921 0.324158
O O6 0.877951 0.843501 0.155576
O O7 0.993563 0.904635 0.927201
O O8 0.344052 0.039269 0.656625
O O9 0.876370 0.129799 0.394000
O O10 0.980498 0.009799 0.354458
O O11 0.484756 0.302332 0.593590
O O12 0.395195 0.381409 0.771390
O O13 0.790583 0.399852 0.355773
O O14 0.362840 0.406561 0.979643
#
# Coordination Sequence:
#
# PCOD9246582 Si02
#       7
#     4   4   4   4   4   4   4
#     4  11  22  44  62  93 132 168 216 271 314 391
#     4   9  22  41  61  95 130 166 218 264 324 393
#     4   9  21  42  65  91 130 169 216 272 322 390
#     4  10  22  43  63  96 126 170 219 262 324 390
#     4  10  22  43  65  97 128 172 216 262 336 375
#     4  10  21  41  66  95 128 169 218 270 324 388
#     4  11  22  40  61  91 133 162 218 270 312 392
#
# _framework density 27.209311
#
# number of rings (size 3 to 8) (size 9 to 14) (size 15 to 20)
#    0.000    2.000    1.429    0.857    2.000    1.714 
#   25.714    0.000    0.000    0.000    0.000    0.000 
#    0.000    0.000    0.000    0.000    0.000    0.000 
#
# Total GULP energy -156416.018874 kJ/mol
# GULP energy per Si atom -5586.286388 kJ/mol
# Density = 2.714738 g / cm^3
# Si number density = 27.209311 Si / 1000 Ang^3
#
#
#
# Elastic Constant Matrix: (Units=GPa)
#
#
# Indices 1 2 3 4 5 6 
#
# 1 77.2843 22.1825 13.8999 0.0000 2.7911 0.0000
# 2 22.1825 88.4186 28.6019 0.0000 6.5953 0.0000
# 3 13.8999 28.6019 140.9634 0.0000 9.0829 0.0000
# 4 0.0000 0.0000 0.0000 32.1685 0.0000 -4.1732
# 5 2.7911 6.5953 9.0829 0.0000 37.2291 0.0000
# 6 0.0000 0.0000 0.0000 -4.1732 0.0000 31.6534
#
#
#
# Elastic Compliance Matrix: (Units=1/GPa)
#
#
# Indices 1 2 3 4 5 6 
#
# 1 0.014014 -0.003267 -0.000700 0.000000 -0.000301 0.000000
# 2 -0.003267 0.012957 -0.002209 0.000000 -0.001511 0.000000
# 3 -0.000700 -0.002209 0.007704 0.000000 -0.001436 0.000000
# 4 0.000000 0.000000 0.000000 0.031627 0.000000 0.004170
# 5 -0.000301 -0.001511 -0.001436 0.000000 0.027501 0.000000
# 6 0.000000 0.000000 0.000000 0.004170 0.000000 0.032142
#
#
# Mechanical properties :
#
#
# Convention : Reuss Voigt Hill
#
# Bulk Modulus (GPa) = 44.79805 48.44830 46.62317
# Shear Modulus (GPa) = 34.30820 36.34233 35.32527
#
# Velocity S-wave (km/s) = 3.55477 3.65863 3.60707
# Velocity P-wave (km/s) = 5.77481 5.97427 5.87539
#
# Compressibility (1/GPa) = 0.02232240
#
# Stress axis : x y z
#
# Youngs Moduli (GPa) = 71.35901 77.17877 129.80551
#
# Poissons Ratio (x) = 0.25214 0.09080
# Poissons Ratio (y) = 0.23313 0.28680
# Poissons Ratio (z) = 0.04992 0.17052
#
# Static dielectric constant tensor:
#      x y z
#    x 2.263970 0.000000 -0.017540 
#    y 0.000000 2.174880 0.000000 
#    z -0.017540 0.000000 2.166780 
# 
# From -- ./inp_files/42101.got.cif
#   From: 2010.05.17/outbox.cif.g08.bks.cpg/sg14_22_cif.got.tgz:42101.got - 2010.06.03 17:49:19.
