data_PCOD9246683
_publ_section_title
;
Structure prediction by ZEFSAII (Michael W. Deem and Ramdas Pophale) SiO2 
 PCOD9246683
Probable space group: P 21/C
;
_chemical_formula_sum "Si O2"
_cell_formula_units_Z 24
_cell_length_a 13.971393
_cell_length_b 14.156210
_cell_length_c 10.219007
_cell_angle_alpha 90.000000
_cell_angle_beta 149.776364
_cell_angle_gamma 90.000000
_cell_volume 1017.391926
_symmetry_space_group_name_H-M "P 21/C"
_symmetry_group_IT_number 14
_symmetry_cell_setting 'monoclinic'
loop_
_space_group_symop_operation_xyz
x,y,z
-x,1/2+y,1/2-z
-x,-y,-z
x,1/2-y,1/2+z
loop_
_atom_site_type_symbol
_atom_site_label
_atom_site_fract_x
_atom_site_fract_y
_atom_site_fract_z
Si Si1 0.394952 0.591385 0.431337
Si Si2 0.887976 0.780323 0.854328
Si Si3 0.850771 0.443228 0.626170
Si Si4 0.700229 0.211696 0.743247
Si Si5 0.222907 0.154889 0.539580
Si Si6 0.366497 0.415187 0.793989
O O1 0.500000 0.500000 0.500000
O O2 0.208095 0.568678 0.293392
O O3 0.347908 0.679405 0.281298
O O4 0.560086 0.628061 0.724370
O O5 0.839452 0.770615 0.644439
O O6 0.781843 0.875673 0.774809
O O7 0.810440 0.699971 0.857518
O O8 0.114388 0.788165 0.129841
O O9 0.756151 0.356562 0.430137
O O10 0.757618 0.540167 0.467575
O O11 0.073640 0.431726 0.859159
O O12 0.518603 0.168073 0.454497
O O13 0.500000 0.500000 0.000000
#
# Coordination Sequence:
#
# PCOD9246683 Si02
#       6
#     4   4   4   4   4   4
#     4  12  26  43  66 104 141 189 229 295 357 422
#     4  11  23  44  72 100 138 188 232 292 353 421
#     4  10  24  44  65 106 139 176 243 294 346 431
#     4  10  22  44  70  95 138 187 240 281 356 423
#     4  11  24  44  69  99 141 181 237 283 353 418
#     4  10  21  41  70  99 134 180 235 292 343 422
#
# _framework density 23.589728999999998
#
# number of rings (size 3 to 8) (size 9 to 14) (size 15 to 20)
#    0.000    1.333    3.333    2.000    0.000   10.667 
#    6.000    0.000    0.000    0.000    0.000    0.000 
#    0.000    0.000    0.000    0.000    0.000    0.000 
#
# Total GULP energy -134066.212775 kJ/mol
# GULP energy per Si atom -5586.092199 kJ/mol
# Density = 2.353604 g / cm^3
# Si number density = 23.589729 Si / 1000 Ang^3
#
#
#
# Elastic Constant Matrix: (Units=GPa)
#
#
# Indices 1 2 3 4 5 6 
#
# 1 45.7415 -1.8218 15.1172 0.0000 24.3700 0.0000
# 2 -1.8218 96.2769 4.1687 0.0000 11.0871 0.0000
# 3 15.1172 4.1687 64.0048 0.0000 25.7299 0.0000
# 4 0.0000 0.0000 0.0000 29.1963 0.0000 6.5298
# 5 24.3700 11.0871 25.7299 0.0000 42.6500 0.0000
# 6 0.0000 0.0000 0.0000 6.5298 0.0000 35.8235
#
#
#
# Elastic Compliance Matrix: (Units=1/GPa)
#
#
# Indices 1 2 3 4 5 6 
#
# 1 0.032151 0.002804 -0.000130 0.000000 -0.019022 0.000000
# 2 0.002804 0.010967 0.000546 0.000000 -0.004783 0.000000
# 3 -0.000130 0.000546 0.020655 0.000000 -0.012529 0.000000
# 4 0.000000 0.000000 0.000000 0.035707 0.000000 -0.006509
# 5 -0.019022 -0.004783 -0.012529 0.000000 0.043117 0.000000
# 6 0.000000 0.000000 0.000000 -0.006509 0.000000 0.029101
#
#
# Mechanical properties :
#
#
# Convention : Reuss Voigt Hill
#
# Bulk Modulus (GPa) = 14.24198 26.77239 20.50719
# Shear Modulus (GPa) = 26.50251 34.10456 30.30354
#
# Velocity S-wave (km/s) = 3.35547 3.80641 3.58803
# Velocity P-wave (km/s) = 4.58941 5.54005 5.08699
#
# Compressibility (1/GPa) = 0.07021496
#
# Stress axis : x y z
#
# Youngs Moduli (GPa) = 31.10341 91.18343 48.41328
#
# Poissons Ratio (x) = -0.25572 0.00627
# Poissons Ratio (y) = -0.08723 -0.02643
# Poissons Ratio (z) = 0.00403 -0.04978
#
# Static dielectric constant tensor:
#      x y z
#    x 1.857860 0.000000 -0.035790 
#    y 0.000000 1.938640 0.000000 
#    z -0.035790 0.000000 1.938060 
# 
# From -- ./inp_files/32649.got.cif
#   From: 2010.05.17/outbox.cif.g08.bks.cpg/sg14_17_cif.got.tgz:32649.got - 2010.06.03 17:49:19.
