data_PCOD9246304
_publ_section_title
;
Structure prediction by ZEFSAII (Michael W. Deem and Ramdas Pophale) SiO2 
 PCOD9246304
Probable space group: P 21/C
;
_chemical_formula_sum "Si O2"
_cell_formula_units_Z 20
_cell_length_a 8.390878
_cell_length_b 16.848296
_cell_length_c 10.279764
_cell_angle_alpha 90.000000
_cell_angle_beta 145.322518
_cell_angle_gamma 90.000000
_cell_volume 826.847649
_symmetry_space_group_name_H-M "P 21/C"
_symmetry_group_IT_number 14
_symmetry_cell_setting 'monoclinic'
loop_
_space_group_symop_operation_xyz
x,y,z
-x,1/2+y,1/2-z
-x,-y,-z
x,1/2-y,1/2+z
loop_
_atom_site_type_symbol
_atom_site_label
_atom_site_fract_x
_atom_site_fract_y
_atom_site_fract_z
Si Si1 0.809144 0.956571 0.060769
Si Si2 0.810163 0.598629 0.130431
Si Si3 0.766362 0.279838 0.493403
Si Si4 0.222793 0.664402 0.771827
Si Si5 0.670818 0.577444 0.761799
O O1 0.797821 0.932416 0.205125
O O2 0.926896 0.880845 0.064726
O O3 0.037696 0.026195 0.198127
O O4 0.515017 0.998594 0.833475
O O5 0.940061 0.679894 0.270012
O O6 0.477840 0.603593 0.921212
O O7 0.874651 0.590348 0.019821
O O8 0.735981 0.203261 0.560604
O O9 0.755867 0.272361 0.330942
O O10 0.535476 0.346328 0.376536
#
# Coordination Sequence:
#
# PCOD9246304 Si02
#       5
#     4   4   4   4   4
#     4  10  21  40  67  95 125 167 208 267 308 375
#     4  10  22  41  64  93 126 166 215 257 317 373
#     4  10  25  42  61  94 130 167 212 259 314 383
#     4  11  25  41  64  94 129 167 211 261 314 375
#     4   9  21  42  64  97 130 161 211 261 316 373
#
# _framework density 24.188251999999999
#
# number of rings (size 3 to 8) (size 9 to 14) (size 15 to 20)
#    0.000    2.000    0.000    1.200    5.600   10.400 
#    0.000    0.000    0.000    0.000    0.000    0.000 
#    0.000    0.000    0.000    0.000    0.000    0.000 
#
# Total GULP energy -111905.340652 kJ/mol
# GULP energy per Si atom -5595.267033 kJ/mol
# Density = 2.413320 g / cm^3
# Si number density = 24.188252 Si / 1000 Ang^3
#
#
#
# Elastic Constant Matrix: (Units=GPa)
#
#
# Indices 1 2 3 4 5 6 
#
# 1 96.3665 33.8602 13.8875 0.0000 -1.7507 0.0000
# 2 33.8602 42.7191 -7.9428 0.0000 1.3749 0.0000
# 3 13.8875 -7.9428 42.4560 0.0000 -9.6339 0.0000
# 4 0.0000 0.0000 0.0000 19.5711 0.0000 -4.9314
# 5 -1.7507 1.3749 -9.6339 0.0000 26.9569 0.0000
# 6 0.0000 0.0000 0.0000 -4.9314 0.0000 36.7060
#
#
#
# Elastic Compliance Matrix: (Units=1/GPa)
#
#
# Indices 1 2 3 4 5 6 
#
# 1 0.016818 -0.014883 -0.008560 0.000000 -0.001208 0.000000
# 2 -0.014883 0.037427 0.012208 0.000000 0.001487 0.000000
# 3 -0.008560 0.012208 0.030874 0.000000 0.009855 0.000000
# 4 0.000000 0.000000 0.000000 0.052886 0.000000 0.007105
# 5 -0.001208 0.001487 0.009855 0.000000 0.040464 0.000000
# 6 0.000000 0.000000 0.000000 0.007105 0.000000 0.028198
#
#
# Mechanical properties :
#
#
# Convention : Reuss Voigt Hill
#
# Bulk Modulus (GPa) = 15.96184 29.01682 22.48933
# Shear Modulus (GPa) = 19.99836 26.09592 23.04714
#
# Velocity S-wave (km/s) = 2.87850 3.28818 3.09013
# Velocity P-wave (km/s) = 4.20250 5.14183 4.69571
#
# Compressibility (1/GPa) = 0.06264943
#
# Stress axis : x y z
#
# Youngs Moduli (GPa) = 59.45976 26.71842 32.38989
#
# Poissons Ratio (x) = 0.39765 0.27725
# Poissons Ratio (y) = 0.88494 -0.39541
# Poissons Ratio (z) = 0.50896 -0.32617
#
# Static dielectric constant tensor:
#      x y z
#    x 1.950040 0.000000 0.010680 
#    y 0.000000 1.920530 0.000000 
#    z 0.010680 0.000000 1.914350 
# 
# From -- ./inp_files/21339.got.cif
#   From: 2010.05.17/outbox.cif.g08.bks.cpg/sg14_11_cif.got.tgz:21339.got - 2010.06.03 17:49:19.
