data_PCOD9246918
_publ_section_title
;
Structure prediction by ZEFSAII (Michael W. Deem and Ramdas Pophale) SiO2 
 PCOD9246918
Probable space group: P 21/C
;
_chemical_formula_sum "Si O2"
_cell_formula_units_Z 32
_cell_length_a 11.686949
_cell_length_b 8.954775
_cell_length_c 14.351521
_cell_angle_alpha 90.000000
_cell_angle_beta 98.849785
_cell_angle_gamma 90.000000
_cell_volume 1484.063532
_symmetry_space_group_name_H-M "P 21/C"
_symmetry_group_IT_number 14
_symmetry_cell_setting 'monoclinic'
loop_
_space_group_symop_operation_xyz
x,y,z
-x,1/2+y,1/2-z
-x,-y,-z
x,1/2-y,1/2+z
loop_
_atom_site_type_symbol
_atom_site_label
_atom_site_fract_x
_atom_site_fract_y
_atom_site_fract_z
Si Si1 0.549108 0.370950 0.568374
Si Si2 0.327651 0.883400 0.212691
Si Si3 0.960109 0.552423 0.837344
Si Si4 0.464405 0.911172 0.731009
Si Si5 0.157948 0.035815 0.496421
Si Si6 0.133500 0.795816 0.801929
Si Si7 0.405160 0.087987 0.547891
Si Si8 0.227115 0.801844 0.009883
O O1 0.500000 0.500000 0.500000
O O2 0.584948 0.437748 0.671779
O O3 0.450786 0.251133 0.575842
O O4 0.648044 0.288553 0.523349
O O5 0.430635 0.761291 0.208250
O O6 0.240534 0.808224 0.277512
O O7 0.402007 0.029310 0.251801
O O8 0.252612 0.893023 0.107684
O O9 0.022883 0.685536 0.790530
O O10 0.885533 0.613576 0.914997
O O11 0.889162 0.437054 0.766118
O O12 0.063660 0.463255 0.903636
O O13 0.396817 0.001665 0.644086
O O14 0.282638 0.092959 0.482232
O O15 0.176483 0.860961 0.525899
O O16 0.153019 0.852872 0.910815
O O17 0.500000 0.000000 0.500000
#
# Coordination Sequence:
#
# PCOD9246918 Si02
#       8
#     4   4   4   4   4   4   4   4
#     4  12  24  40  59 101 137 170 216 270 330 403
#     4  12  23  41  66  98 141 175 222 275 340 414
#     4  10  23  44  69  92 128 169 235 272 334 387
#     4  12  23  38  64  99 134 179 216 261 337 411
#     4  10  21  42  70  93 121 179 227 273 320 408
#     4  11  23  45  66  96 126 179 223 286 332 389
#     4  12  23  40  66  96 134 176 217 267 340 410
#     4  11  20  40  69  90 130 177 213 267 342 391
#
# _framework density 21.562418000000001
#
# number of rings (size 3 to 8) (size 9 to 14) (size 15 to 20)
#    0.000    0.750    7.500    0.000    1.750    0.000 
#    4.500    0.625    0.000    0.000    0.000    0.000 
#    0.000    0.000    0.000    0.000    0.000    0.000 
#
# Total GULP energy -178565.523963 kJ/mol
# GULP energy per Si atom -5580.172624 kJ/mol
# Density = 2.151334 g / cm^3
# Si number density = 21.562418 Si / 1000 Ang^3
#
#
#
# Elastic Constant Matrix: (Units=GPa)
#
#
# Indices 1 2 3 4 5 6 
#
# 1 78.5607 11.3700 4.2788 0.0000 2.6128 0.0000
# 2 11.3700 49.8045 8.4904 0.0000 2.3626 0.0000
# 3 4.2788 8.4904 112.4500 0.0000 12.7969 0.0000
# 4 0.0000 0.0000 0.0000 20.5760 0.0000 5.3495
# 5 2.6128 2.3626 12.7969 0.0000 24.7695 0.0000
# 6 0.0000 0.0000 0.0000 5.3495 0.0000 31.6682
#
#
#
# Elastic Compliance Matrix: (Units=1/GPa)
#
#
# Indices 1 2 3 4 5 6 
#
# 1 0.013197 -0.002936 -0.000164 0.000000 -0.001028 0.000000
# 2 -0.002936 0.021028 -0.001363 0.000000 -0.000992 0.000000
# 3 -0.000164 -0.001363 0.009547 0.000000 -0.004785 0.000000
# 4 0.000000 0.000000 0.000000 0.050833 0.000000 -0.008587
# 5 -0.001028 -0.000992 -0.004785 0.000000 0.043047 0.000000
# 6 0.000000 0.000000 0.000000 -0.008587 0.000000 0.033028
#
#
# Mechanical properties :
#
#
# Convention : Reuss Voigt Hill
#
# Bulk Modulus (GPa) = 28.69757 32.12149 30.40953
# Shear Modulus (GPa) = 26.14778 29.84779 27.99779
#
# Velocity S-wave (km/s) = 3.48610 3.72459 3.60731
# Velocity P-wave (km/s) = 5.43524 5.78153 5.61105
#
# Compressibility (1/GPa) = 0.03484616
#
# Stress axis : x y z
#
# Youngs Moduli (GPa) = 75.77455 47.55513 104.75039
#
# Poissons Ratio (x) = 0.13963 0.01713
# Poissons Ratio (y) = 0.22249 0.14279
# Poissons Ratio (z) = 0.01239 0.06482
#
# Static dielectric constant tensor:
#      x y z
#    x 2.061520 0.000000 -0.288070 
#    y 0.000000 1.770200 0.000000 
#    z -0.288070 0.000000 2.188230 
# 
# From -- ./inp_files/43721.got.cif
#   From: 2010.05.17/outbox.cif.g08.bks.cpg/sg14_22_cif.got.tgz:43721.got - 2010.06.03 17:49:19.
