data_PCOD9246558
_publ_section_title
;
Structure prediction by ZEFSAII (Michael W. Deem and Ramdas Pophale) SiO2 
 PCOD9246558
Probable space group: P 21/C
;
_chemical_formula_sum "Si O2"
_cell_formula_units_Z 26
_cell_length_a 6.802406
_cell_length_b 6.961545
_cell_length_c 24.670167
_cell_angle_alpha 90.000000
_cell_angle_beta 94.659156
_cell_angle_gamma 90.000000
_cell_volume 1164.401591
_symmetry_space_group_name_H-M "P 21/C"
_symmetry_group_IT_number 14
_symmetry_cell_setting 'monoclinic'
loop_
_space_group_symop_operation_xyz
x,y,z
-x,1/2+y,1/2-z
-x,-y,-z
x,1/2-y,1/2+z
loop_
_atom_site_type_symbol
_atom_site_label
_atom_site_fract_x
_atom_site_fract_y
_atom_site_fract_z
Si Si1 0.438273 0.097766 0.927084
Si Si2 0.238413 0.599813 0.246632
Si Si3 0.856096 0.255257 0.557549
Si Si4 0.277610 0.276740 0.526215
Si Si5 0.060907 0.241868 0.671634
Si Si6 0.388158 0.946982 0.180891
Si Si7 0.500000 0.000000 0.500000
O O1 0.252206 0.954722 0.928388
O O2 0.622305 0.974245 0.953879
O O3 0.494801 0.142954 0.867531
O O4 0.384944 0.266937 0.968673
O O5 0.153369 0.430478 0.207843
O O6 0.270551 0.786914 0.210858
O O7 0.447950 0.540140 0.276683
O O8 0.089560 0.648037 0.292008
O O9 0.047200 0.286684 0.524290
O O10 0.944319 0.174870 0.615716
O O11 0.702539 0.123600 0.523781
O O12 0.375002 0.090788 0.553908
O O13 0.234856 0.389018 0.658619
#
# Coordination Sequence:
#
# PCOD9246558 Si02
#       7
#     4   4   4   4   4   4   2
#     4  10  22  40  67  96 130 179 232 281 357 422
#     4  12  26  45  73 104 147 183 241 298 356 429
#     4  11  22  43  70  93 142 184 232 294 356 421
#     4  10  21  41  65  96 135 178 226 287 347 426
#     4  12  25  45  72 106 140 190 236 297 366 424
#     4  12  24  46  71 102 143 185 235 298 358 426
#     4  10  24  42  62  98 136 178 236 288 346 424
#
# _framework density 22.329066999999998
#
# number of rings (size 3 to 8) (size 9 to 14) (size 15 to 20)
#    0.000    0.923    6.154    0.923    0.000    1.231 
#    8.308    0.000    0.000    0.000    0.000    0.000 
#    0.000    0.000    0.000    0.000    0.000    0.000 
#
# Total GULP energy -145039.736600 kJ/mol
# GULP energy per Si atom -5578.451408 kJ/mol
# Density = 2.227824 g / cm^3
# Si number density = 22.329067 Si / 1000 Ang^3
#
#
#
# Elastic Constant Matrix: (Units=GPa)
#
#
# Indices 1 2 3 4 5 6 
#
# 1 168.3651 35.9579 33.5170 0.0000 -10.4643 0.0000
# 2 35.9579 76.7312 15.2054 0.0000 -6.9580 0.0000
# 3 33.5170 15.2054 91.1496 0.0000 -12.2834 0.0000
# 4 0.0000 0.0000 0.0000 21.8951 0.0000 0.5486
# 5 -10.4643 -6.9580 -12.2834 0.0000 34.9607 0.0000
# 6 0.0000 0.0000 0.0000 0.5486 0.0000 31.1164
#
#
#
# Elastic Compliance Matrix: (Units=1/GPa)
#
#
# Indices 1 2 3 4 5 6 
#
# 1 0.006986 -0.002804 -0.001989 0.000000 0.000834 0.000000
# 2 -0.002804 0.014736 -0.001202 0.000000 0.001671 0.000000
# 3 -0.001989 -0.001202 0.012376 0.000000 0.003514 0.000000
# 4 0.000000 0.000000 0.000000 0.045693 0.000000 -0.000806
# 5 0.000834 0.001671 0.003514 0.000000 0.030420 0.000000
# 6 0.000000 0.000000 0.000000 -0.000806 0.000000 0.032152
#
#
# Mechanical properties :
#
#
# Convention : Reuss Voigt Hill
#
# Bulk Modulus (GPa) = 45.23008 56.17851 50.70429
# Shear Modulus (GPa) = 30.91716 34.36549 32.64133
#
# Velocity S-wave (km/s) = 3.72508 3.92733 3.82754
# Velocity P-wave (km/s) = 6.22910 6.76603 6.50311
#
# Compressibility (1/GPa) = 0.02210918
#
# Stress axis : x y z
#
# Youngs Moduli (GPa) = 143.14159 67.85968 80.79969
#
# Poissons Ratio (x) = 0.19028 0.16069
# Poissons Ratio (y) = 0.40138 0.09712
# Poissons Ratio (z) = 0.28466 0.08157
#
# Static dielectric constant tensor:
#      x y z
#    x 1.812890 0.000000 -0.019550 
#    y 0.000000 2.002080 0.000000 
#    z -0.019550 0.000000 1.873150 
# 
# From -- ./inp_files/75683.got.cif
#   From: 2010.05.17/outbox.cif.g08.bks.cpg/sg14_38_cif.got.tgz:75683.got - 2010.06.03 17:49:19.
