data_PCOD9246753
_publ_section_title
;
Structure prediction by ZEFSAII (Michael W. Deem and Ramdas Pophale) SiO2 
 PCOD9246753
Probable space group: P 21/C
;
_chemical_formula_sum "Si O2"
_cell_formula_units_Z 16
_cell_length_a 5.038362
_cell_length_b 7.412051
_cell_length_c 16.575572
_cell_angle_alpha 90.000000
_cell_angle_beta 86.634860
_cell_angle_gamma 90.000000
_cell_volume 617.940702
_symmetry_space_group_name_H-M "P 21/C"
_symmetry_group_IT_number 14
_symmetry_cell_setting 'monoclinic'
loop_
_space_group_symop_operation_xyz
x,y,z
-x,1/2+y,1/2-z
-x,-y,-z
x,1/2-y,1/2+z
loop_
_atom_site_type_symbol
_atom_site_label
_atom_site_fract_x
_atom_site_fract_y
_atom_site_fract_z
Si Si1 0.726804 0.495697 0.427131
Si Si2 0.869835 0.693174 0.010751
Si Si3 0.827173 0.206818 0.766870
Si Si4 0.341772 0.100548 0.323543
O O1 0.500000 0.500000 0.500000
O O2 0.796023 0.708599 0.429253
O O3 0.708286 0.434092 0.335549
O O4 0.937823 0.346583 0.455029
O O5 0.645132 0.658201 0.082631
O O6 0.000000 0.500000 0.000000
O O7 0.630735 0.375187 0.780259
O O8 0.121029 0.269362 0.785589
O O9 0.773940 0.099651 0.685913
#
# Coordination Sequence:
#
# PCOD9246753 Si02
#       4
#     4   4   4   4
#     4  10  21  42  63  91 130 165 207 270 319 367
#     4  10  23  40  65  95 124 166 218 260 316 383
#     4  11  24  42  65  92 132 167 212 264 320 379
#     4  11  24  43  63  96 127 169 214 258 322 384
#
# _framework density 25.892451999999999
#
# number of rings (size 3 to 8) (size 9 to 14) (size 15 to 20)
#    0.000    1.500    2.500    1.500    3.500    3.000 
#    0.000    0.000    0.000    0.000    0.000    0.000 
#    0.000    0.000    0.000    0.000    0.000    0.000 
#
# Total GULP energy -89342.456623 kJ/mol
# GULP energy per Si atom -5583.903539 kJ/mol
# Density = 2.583352 g / cm^3
# Si number density = 25.892452 Si / 1000 Ang^3
#
#
#
# Elastic Constant Matrix: (Units=GPa)
#
#
# Indices 1 2 3 4 5 6 
#
# 1 44.2055 -2.0104 -1.8424 0.0000 -5.6525 0.0000
# 2 -2.0104 112.1249 6.2596 0.0000 -14.2973 0.0000
# 3 -1.8424 6.2596 43.7603 0.0000 -9.4810 0.0000
# 4 0.0000 0.0000 0.0000 40.5548 0.0000 -8.0770
# 5 -5.6525 -14.2973 -9.4810 0.0000 27.0036 0.0000
# 6 0.0000 0.0000 0.0000 -8.0770 0.0000 32.6091
#
#
#
# Elastic Compliance Matrix: (Units=1/GPa)
#
#
# Indices 1 2 3 4 5 6 
#
# 1 0.023567 0.001102 0.002197 0.000000 0.006288 0.000000
# 2 0.001102 0.009619 -0.000191 0.000000 0.005257 0.000000
# 3 0.002197 -0.000191 0.024947 0.000000 0.009118 0.000000
# 4 0.000000 0.000000 0.000000 0.025937 0.000000 0.006424
# 5 0.006288 0.005257 0.009118 0.000000 0.044333 0.000000
# 6 0.000000 0.000000 0.000000 0.006424 0.000000 0.032258
#
#
# Mechanical properties :
#
#
# Convention : Reuss Voigt Hill
#
# Bulk Modulus (GPa) = 15.54011 22.76714 19.15363
# Shear Modulus (GPa) = 28.42596 33.21241 30.81918
#
# Velocity S-wave (km/s) = 3.31697 3.58537 3.45378
# Velocity P-wave (km/s) = 4.54803 5.09430 4.82890
#
# Compressibility (1/GPa) = 0.06434960
#
# Stress axis : x y z
#
# Youngs Moduli (GPa) = 42.43161 103.95743 40.08498
#
# Poissons Ratio (x) = -0.11453 -0.08807
# Poissons Ratio (y) = -0.04675 0.00764
# Poissons Ratio (z) = -0.09322 0.01982
#
# Static dielectric constant tensor:
#      x y z
#    x 2.082440 0.000000 -0.001320 
#    y 0.000000 2.078000 0.000000 
#    z -0.001320 0.000000 2.115340 
# 
# From -- ./inp_files/52613.got.cif
#   From: 2010.05.17/outbox.cif.g08.bks.cpg/sg14_27_cif.got.tgz:52613.got - 2010.06.03 17:49:19.
