data_PCOD9246070
_publ_section_title
;
Structure prediction by ZEFSAII (Michael W. Deem and Ramdas Pophale) SiO2 
 PCOD9246070
Probable space group: P 21/C
;
_chemical_formula_sum "Si O2"
_cell_formula_units_Z 28
_cell_length_a 19.823885
_cell_length_b 5.295160
_cell_length_c 12.223466
_cell_angle_alpha 90.000000
_cell_angle_beta 118.042807
_cell_angle_gamma 90.000000
_cell_volume 1132.464177
_symmetry_space_group_name_H-M "P 21/C"
_symmetry_group_IT_number 14
_symmetry_cell_setting 'monoclinic'
loop_
_space_group_symop_operation_xyz
x,y,z
-x,1/2+y,1/2-z
-x,-y,-z
x,1/2-y,1/2+z
loop_
_atom_site_type_symbol
_atom_site_label
_atom_site_fract_x
_atom_site_fract_y
_atom_site_fract_z
Si Si1 0.813571 0.410552 0.594581
Si Si2 0.924456 0.457592 0.071532
Si Si3 0.597114 0.247391 0.275765
Si Si4 0.313498 0.020194 0.842033
Si Si5 0.418430 0.246650 0.099094
Si Si6 0.820334 0.828659 0.868457
Si Si7 0.930914 0.799514 0.792674
O O1 0.855483 0.163280 0.586804
O O2 0.737366 0.379449 0.605580
O O3 0.799740 0.545905 0.467403
O O4 0.871975 0.580200 0.709504
O O5 0.962654 0.618442 0.197461
O O6 0.990604 0.269254 0.085252
O O7 0.881878 0.612360 0.947097
O O8 0.653861 0.172053 0.222086
O O9 0.510303 0.235549 0.163873
O O10 0.605888 0.523380 0.335250
O O11 0.603344 0.021650 0.370353
O O12 0.255328 0.215099 0.741170
O O13 0.379359 0.174341 0.955077
O O14 0.874276 0.976730 0.822652
#
# Coordination Sequence:
#
# PCOD9246070 Si02
#       7
#     4   4   4   4   4   4   4
#     4  10  23  41  60  92 123 165 219 268 326 400
#     4  11  21  40  62  86 123 163 220 275 328 399
#     4  10  23  45  72 105 137 180 225 281 327 398
#     4  11  23  43  66  94 137 175 213 273 341 400
#     4  10  23  45  73 104 139 176 232 272 330 405
#     4  10  24  40  60  92 124 167 219 272 332 395
#     4  10  21  40  62  85 118 164 216 273 334 385
#
# _framework density 24.724844000000001
#
# number of rings (size 3 to 8) (size 9 to 14) (size 15 to 20)
#    0.000    1.714    1.429    1.714    2.000    4.000 
#   10.286    4.286    0.000    0.000    0.000    0.000 
#    0.000    0.000    0.000    0.000    0.000    0.000 
#
# Total GULP energy -156602.993142 kJ/mol
# GULP energy per Si atom -5592.964041 kJ/mol
# Density = 2.466857 g / cm^3
# Si number density = 24.724844 Si / 1000 Ang^3
#
#
#
# Elastic Constant Matrix: (Units=GPa)
#
#
# Indices 1 2 3 4 5 6 
#
# 1 101.8811 -1.9544 24.1989 0.0000 -17.8573 0.0000
# 2 -1.9544 42.9553 14.3722 0.0000 4.0109 0.0000
# 3 24.1989 14.3722 126.2540 0.0000 14.4715 0.0000
# 4 0.0000 0.0000 0.0000 4.7825 0.0000 25.3619
# 5 -17.8573 4.0109 14.4715 0.0000 41.0748 0.0000
# 6 0.0000 0.0000 0.0000 25.3619 0.0000 -5.0910
#
#
#
# Elastic Compliance Matrix: (Units=1/GPa)
#
#
# Indices 1 2 3 4 5 6 
#
# 1 0.011607 0.000979 -0.003026 0.000000 0.006017 0.000000
# 2 0.000979 0.024368 -0.002853 0.000000 -0.000949 0.000000
# 3 -0.003026 -0.002853 0.009320 0.000000 -0.004321 0.000000
# 4 0.000000 0.000000 0.000000 0.007626 0.000000 0.037991
# 5 0.006017 -0.000949 -0.004321 0.000000 0.028577 0.000000
# 6 0.000000 0.000000 0.000000 0.037991 0.000000 -0.007164
#
#
# Mechanical properties :
#
#
# Convention : Reuss Voigt Hill
#
# Bulk Modulus (GPa) = 28.17234 38.25821 33.21528
# Shear Modulus (GPa) = 52.10177 23.78483 37.94330
#
# Velocity S-wave (km/s) = 4.59547 3.10495 3.92168
# Velocity P-wave (km/s) = 6.29102 5.32555 5.82831
#
# Compressibility (1/GPa) = 0.03549580
#
# Stress axis : x y z
#
# Youngs Moduli (GPa) = 86.15154 41.03809 107.29041
#
# Poissons Ratio (x) = -0.04016 0.32465
# Poissons Ratio (y) = -0.08432 0.30607
# Poissons Ratio (z) = 0.26068 0.11707
#
# Static dielectric constant tensor:
#      x y z
#    x 1.968300 0.000000 -0.109710 
#    y 0.000000 2.067230 0.000000 
#    z -0.109710 0.000000 2.139690 
# 
# From -- ./inp_files/34791.got.cif
#   From: 2010.05.17/outbox.cif.g08.bks.cpg/sg14_18_cif.got.tgz:34791.got - 2010.06.03 17:49:19.
