data_PCOD9246260
_publ_section_title
;
Structure prediction by ZEFSAII (Michael W. Deem and Ramdas Pophale) SiO2 
 PCOD9246260
Probable space group: P 21/C
;
_chemical_formula_sum "Si O2"
_cell_formula_units_Z 28
_cell_length_a 15.530649
_cell_length_b 9.019458
_cell_length_c 14.138425
_cell_angle_alpha 90.000000
_cell_angle_beta 138.768219
_cell_angle_gamma 90.000000
_cell_volume 1305.349511
_symmetry_space_group_name_H-M "P 21/C"
_symmetry_group_IT_number 14
_symmetry_cell_setting 'monoclinic'
loop_
_space_group_symop_operation_xyz
x,y,z
-x,1/2+y,1/2-z
-x,-y,-z
x,1/2-y,1/2+z
loop_
_atom_site_type_symbol
_atom_site_label
_atom_site_fract_x
_atom_site_fract_y
_atom_site_fract_z
Si Si1 0.710627 0.721692 0.618576
Si Si2 0.503110 0.153727 0.204805
Si Si3 0.140419 0.084456 0.129855
Si Si4 0.768922 0.174805 0.906522
Si Si5 0.504244 0.825294 0.116139
Si Si6 0.021934 0.832721 0.545813
Si Si7 0.216470 0.895278 0.861507
O O1 0.615575 0.731304 0.449828
O O2 0.802219 0.860864 0.722101
O O3 0.613593 0.690266 0.626916
O O4 0.790285 0.570229 0.666699
O O5 0.639276 0.229520 0.290043
O O6 0.487707 0.191441 0.302580
O O7 0.509189 0.981442 0.178603
O O8 0.239544 0.975647 0.160690
O O9 0.111058 0.240856 0.055531
O O10 0.000000 0.000000 0.000000
O O11 0.890333 0.265591 0.965692
O O12 0.792629 0.133057 0.034798
O O13 0.359836 0.835218 0.950768
O O14 0.105510 0.816799 0.709660
O O15 0.000000 0.000000 0.500000
#
# Coordination Sequence:
#
# PCOD9246260 Si02
#       7
#     4   4   4   4   4   4   4
#     4  11  21  39  68  91 126 175 205 260 334 380
#     4  10  22  40  62  97 126 163 211 258 328 389
#     4  10  24  42  60  90 131 163 217 270 306 372
#     4  10  23  42  62  92 135 159 211 280 309 378
#     4  10  22  39  64  96 130 160 211 265 321 389
#     4  11  21  41  66  91 123 173 219 254 322 382
#     4  10  21  40  66  93 125 167 210 259 323 389
#
# _framework density 21.450194
#
# number of rings (size 3 to 8) (size 9 to 14) (size 15 to 20)
#    0.000    1.714    1.429    3.429    6.000    1.714 
#   10.286    0.000    0.000    0.000    0.000    0.000 
#    0.000    0.000    0.000    0.000    0.000    0.000 
#
# Total GULP energy -156355.436263 kJ/mol
# GULP energy per Si atom -5584.122724 kJ/mol
# Density = 2.140137 g / cm^3
# Si number density = 21.450194 Si / 1000 Ang^3
#
#
#
# Elastic Constant Matrix: (Units=GPa)
#
#
# Indices 1 2 3 4 5 6 
#
# 1 20.0095 6.7322 -7.6885 0.0000 -6.0495 0.0000
# 2 6.7322 61.3775 -3.4358 0.0000 4.5697 0.0000
# 3 -7.6885 -3.4358 59.3826 0.0000 1.9780 0.0000
# 4 0.0000 0.0000 0.0000 41.1890 0.0000 -2.5090
# 5 -6.0495 4.5697 1.9780 0.0000 24.1933 0.0000
# 6 0.0000 0.0000 0.0000 -2.5090 0.0000 33.5895
#
#
#
# Elastic Compliance Matrix: (Units=1/GPa)
#
#
# Indices 1 2 3 4 5 6 
#
# 1 0.059840 -0.007359 0.006796 0.000000 0.015797 0.000000
# 2 -0.007359 0.017497 0.000232 0.000000 -0.005164 0.000000
# 3 0.006796 0.000232 0.017726 0.000000 0.000206 0.000000
# 4 0.000000 0.000000 0.000000 0.024389 0.000000 0.001822
# 5 0.015797 -0.005164 0.000206 0.000000 0.046242 0.000000
# 6 0.000000 0.000000 0.000000 0.001822 0.000000 0.029907
#
#
# Mechanical properties :
#
#
# Convention : Reuss Voigt Hill
#
# Bulk Modulus (GPa) = 10.59331 14.66501 12.62916
# Shear Modulus (GPa) = 21.95557 29.47179 25.71368
#
# Velocity S-wave (km/s) = 3.20278 3.71072 3.46607
# Velocity P-wave (km/s) = 4.31583 5.02105 4.68174
#
# Compressibility (1/GPa) = 0.09439923
#
# Stress axis : x y z
#
# Youngs Moduli (GPa) = 16.71134 57.15181 56.41320
#
# Poissons Ratio (x) = 0.42059 -0.38337
# Poissons Ratio (y) = 0.12298 -0.01306
# Poissons Ratio (z) = -0.11356 -0.01323
#
# Static dielectric constant tensor:
#      x y z
#    x 1.794660 0.000000 0.023670 
#    y 0.000000 1.820490 0.000000 
#    z 0.023670 0.000000 1.807670 
# 
# From -- ./inp_files/48588.got.cif
#   From: 2010.05.17/outbox.cif.g08.bks.cpg/sg14_25_cif.got.tgz:48588.got - 2010.06.03 17:49:19.
