data_PCOD9246811
_publ_section_title
;
Structure prediction by ZEFSAII (Michael W. Deem and Ramdas Pophale) SiO2 
 PCOD9246811
Probable space group: P 21/C
;
_chemical_formula_sum "Si O2"
_cell_formula_units_Z 28
_cell_length_a 15.834820
_cell_length_b 7.053347
_cell_length_c 14.402680
_cell_angle_alpha 90.000000
_cell_angle_beta 140.546744
_cell_angle_gamma 90.000000
_cell_volume 1022.190979
_symmetry_space_group_name_H-M "P 21/C"
_symmetry_group_IT_number 14
_symmetry_cell_setting 'monoclinic'
loop_
_space_group_symop_operation_xyz
x,y,z
-x,1/2+y,1/2-z
-x,-y,-z
x,1/2-y,1/2+z
loop_
_atom_site_type_symbol
_atom_site_label
_atom_site_fract_x
_atom_site_fract_y
_atom_site_fract_z
Si Si1 0.117773 0.963013 0.908735
Si Si2 0.327727 0.836566 0.393010
Si Si3 0.502863 0.023714 0.854645
Si Si4 0.268575 0.247581 0.403266
Si Si5 0.962017 0.273759 0.843636
Si Si6 0.640764 0.035191 0.782693
Si Si7 0.774010 0.639557 0.839832
O O1 0.183683 0.137322 0.906661
O O2 0.013269 0.056790 0.889269
O O3 0.052952 0.835436 0.775795
O O4 0.234813 0.858616 0.062715
O O5 0.428150 0.702574 0.534595
O O6 0.189725 0.727155 0.251620
O O7 0.285008 0.021334 0.417167
O O8 0.385550 0.910555 0.345060
O O9 0.528112 0.040111 0.765727
O O10 0.349676 0.999280 0.750255
O O11 0.588901 0.848042 0.964059
O O12 0.210507 0.304817 0.254052
O O13 0.081223 0.390217 0.992714
O O14 0.704465 0.825088 0.827401
#
# Coordination Sequence:
#
# PCOD9246811 Si02
#       7
#     4   4   4   4   4   4   4
#     4  10  21  42  66 103 147 182 244 298 355 435
#     4  11  23  45  81 103 143 199 240 307 372 428
#     4  11  23  52  70 106 152 191 249 302 360 452
#     4  10  22  44  73 103 141 187 247 300 361 436
#     4  11  22  43  71 107 143 194 240 302 374 429
#     4   9  22  45  68 106 146 182 252 300 358 438
#     4  10  24  44  69 107 145 190 244 305 369 435
#
# _framework density 27.392143999999998
#
# number of rings (size 3 to 8) (size 9 to 14) (size 15 to 20)
#    0.000    1.714    2.857    1.286    0.000    9.143 
#   23.143    2.857    6.286    0.000    0.000    0.000 
#    0.000    0.000    0.000    0.000    0.000    0.000 
#
# Total GULP energy -156939.151120 kJ/mol
# GULP energy per Si atom -5604.969683 kJ/mol
# Density = 2.732980 g / cm^3
# Si number density = 27.392144 Si / 1000 Ang^3
#
#
#
# Elastic Constant Matrix: (Units=GPa)
#
#
# Indices 1 2 3 4 5 6 
#
# 1 100.3392 11.7372 51.8166 0.0000 -5.8942 0.0000
# 2 11.7372 100.2290 32.8897 0.0000 19.7472 0.0000
# 3 51.8166 32.8897 197.0681 0.0000 13.4032 0.0000
# 4 0.0000 0.0000 0.0000 41.2615 0.0000 4.6841
# 5 -5.8942 19.7472 13.4032 0.0000 49.6927 0.0000
# 6 0.0000 0.0000 0.0000 4.6841 0.0000 34.0058
#
#
#
# Elastic Compliance Matrix: (Units=1/GPa)
#
#
# Indices 1 2 3 4 5 6 
#
# 1 0.011845 -0.000866 -0.003147 0.000000 0.002598 0.000000
# 2 -0.000866 0.011369 -0.001381 0.000000 -0.004248 0.000000
# 3 -0.003147 -0.001381 0.006235 0.000000 -0.001506 0.000000
# 4 0.000000 0.000000 0.000000 0.024621 0.000000 -0.003391
# 5 0.002598 -0.004248 -0.001506 0.000000 0.022526 0.000000
# 6 0.000000 0.000000 0.000000 -0.003391 0.000000 0.029874
#
#
# Mechanical properties :
#
#
# Convention : Reuss Voigt Hill
#
# Bulk Modulus (GPa) = 53.58762 65.61370 59.60066
# Shear Modulus (GPa) = 40.49345 45.07153 42.78249
#
# Velocity S-wave (km/s) = 3.84902 4.06078 3.95632
# Velocity P-wave (km/s) = 6.27367 6.78174 6.53265
#
# Compressibility (1/GPa) = 0.01866103
#
# Stress axis : x y z
#
# Youngs Moduli (GPa) = 84.42293 87.96139 160.39474
#
# Poissons Ratio (x) = 0.07621 0.50470
# Poissons Ratio (y) = 0.07315 0.22145
# Poissons Ratio (z) = 0.26565 0.12144
#
# Static dielectric constant tensor:
#      x y z
#    x 2.127240 0.000000 0.057080 
#    y 0.000000 2.259260 0.000000 
#    z 0.057080 0.000000 2.179420 
# 
# From -- ./inp_files/46763.got.cif
#   From: 2010.05.17/outbox.cif.g08.bks.cpg/sg14_24_cif.got.tgz:46763.got - 2010.06.03 17:49:19.
