data_PCOD9246056
_publ_section_title
;
Structure prediction by ZEFSAII (Michael W. Deem and Ramdas Pophale) SiO2 
 PCOD9246056
Probable space group: P 21/C
;
_chemical_formula_sum "Si O2"
_cell_formula_units_Z 24
_cell_length_a 13.665720
_cell_length_b 20.590832
_cell_length_c 5.259927
_cell_angle_alpha 90.000000
_cell_angle_beta 49.038811
_cell_angle_gamma 90.000000
_cell_volume 1117.690468
_symmetry_space_group_name_H-M "P 21/C"
_symmetry_group_IT_number 14
_symmetry_cell_setting 'monoclinic'
loop_
_space_group_symop_operation_xyz
x,y,z
-x,1/2+y,1/2-z
-x,-y,-z
x,1/2-y,1/2+z
loop_
_atom_site_type_symbol
_atom_site_label
_atom_site_fract_x
_atom_site_fract_y
_atom_site_fract_z
Si Si1 0.335430 0.880250 0.794737
Si Si2 0.944090 0.389126 0.091534
Si Si3 0.896700 0.521971 0.882535
Si Si4 0.874013 0.794390 0.972976
Si Si5 0.582603 0.708965 0.977682
Si Si6 0.363151 0.533412 0.747203
O O1 0.454846 0.831471 0.626565
O O2 0.348571 0.917239 0.505911
O O3 0.185591 0.856300 0.076317
O O4 0.351513 0.928500 0.003714
O O5 0.058050 0.408674 0.091896
O O6 0.902737 0.461394 0.069945
O O7 0.013449 0.347231 0.757726
O O8 0.000000 0.500000 0.500000
O O9 0.751176 0.519280 0.030753
O O10 0.887105 0.744666 0.713099
O O11 0.726533 0.822087 0.203446
O O12 0.578713 0.766673 0.775188
O O13 0.500000 0.500000 0.500000
#
# Coordination Sequence:
#
# PCOD9246056 Si02
#       6
#     4   4   4   4   4   4
#     4  11  23  40  61  89 121 157 201 250 297 362
#     4  10  23  39  62  91 125 162 203 250 308 366
#     4  10  21  40  61  89 128 163 198 253 308 361
#     4  10  24  41  62  91 120 158 208 251 301 366
#     4  10  22  42  61  87 120 158 202 250 304 354
#     4  11  24  39  59  92 122 157 206 242 298 366
#
# _framework density 21.472850000000001
#
# number of rings (size 3 to 8) (size 9 to 14) (size 15 to 20)
#    0.000    1.667    1.667    1.500    4.667    2.667 
#    0.000    0.000    0.000    0.000    0.000    0.000 
#    0.000    0.000    0.000    0.000    0.000    0.000 
#
# Total GULP energy -133911.073124 kJ/mol
# GULP energy per Si atom -5579.628047 kJ/mol
# Density = 2.142398 g / cm^3
# Si number density = 21.472850 Si / 1000 Ang^3
#
#
#
# Elastic Constant Matrix: (Units=GPa)
#
#
# Indices 1 2 3 4 5 6 
#
# 1 64.2802 11.7052 29.0338 0.0000 -8.4874 0.0000
# 2 11.7052 31.2634 24.4085 0.0000 -14.1774 0.0000
# 3 29.0338 24.4085 120.3820 0.0000 -22.9484 0.0000
# 4 0.0000 0.0000 0.0000 41.0718 0.0000 -4.9154
# 5 -8.4874 -14.1774 -22.9484 0.0000 68.9418 0.0000
# 6 0.0000 0.0000 0.0000 -4.9154 0.0000 32.2410
#
#
#
# Elastic Compliance Matrix: (Units=1/GPa)
#
#
# Indices 1 2 3 4 5 6 
#
# 1 0.017864 -0.003860 -0.003478 0.000000 0.000247 0.000000
# 2 -0.003860 0.040980 -0.006259 0.000000 0.005868 0.000000
# 3 -0.003478 -0.006259 0.010771 0.000000 0.001870 0.000000
# 4 0.000000 0.000000 0.000000 0.024800 0.000000 0.003781
# 5 0.000247 0.005868 0.001870 0.000000 0.016365 0.000000
# 6 0.000000 0.000000 0.000000 0.003781 0.000000 0.031593
#
#
# Mechanical properties :
#
#
# Convention : Reuss Voigt Hill
#
# Bulk Modulus (GPa) = 23.57449 38.46896 31.02172
# Shear Modulus (GPa) = 27.21712 38.50279 32.85995
#
# Velocity S-wave (km/s) = 3.56408 4.23909 3.91615
# Velocity P-wave (km/s) = 5.28578 6.47409 5.90988
#
# Compressibility (1/GPa) = 0.04241874
#
# Stress axis : x y z
#
# Youngs Moduli (GPa) = 55.97957 24.40238 92.83815
#
# Poissons Ratio (x) = 0.09420 0.32294
# Poissons Ratio (y) = 0.21610 0.58110
# Poissons Ratio (z) = 0.19472 0.15274
#
# Static dielectric constant tensor:
#      x y z
#    x 2.074780 0.000000 -0.176560 
#    y 0.000000 2.042580 0.000000 
#    z -0.176560 0.000000 1.881530 
# 
# From -- ./inp_files/1617.got.cif
#   From: 2010.05.17/outbox.cif.g08.bks.cpg/sg14_1_cif.got.tgz:1617.got - 2010.06.03 17:49:19.
