data_PCOD9246149
_publ_section_title
;
Structure prediction by ZEFSAII (Michael W. Deem and Ramdas Pophale) SiO2 
 PCOD9246149
Probable space group: P 21/C
;
_chemical_formula_sum "Si O2"
_cell_formula_units_Z 32
_cell_length_a 4.992303
_cell_length_b 22.456451
_cell_length_c 11.931285
_cell_angle_alpha 90.000000
_cell_angle_beta 79.981154
_cell_angle_gamma 90.000000
_cell_volume 1317.211532
_symmetry_space_group_name_H-M "P 21/C"
_symmetry_group_IT_number 14
_symmetry_cell_setting 'monoclinic'
loop_
_space_group_symop_operation_xyz
x,y,z
-x,1/2+y,1/2-z
-x,-y,-z
x,1/2-y,1/2+z
loop_
_atom_site_type_symbol
_atom_site_label
_atom_site_fract_x
_atom_site_fract_y
_atom_site_fract_z
Si Si1 0.633142 0.905409 0.935228
Si Si2 0.017685 0.833964 0.267798
Si Si3 0.916747 0.805916 0.518446
Si Si4 0.969030 0.556875 0.221963
Si Si5 0.584895 0.116746 0.449388
Si Si6 0.300834 0.548992 0.836024
Si Si7 0.262588 0.489362 0.378480
Si Si8 0.586080 0.808420 0.118749
O O1 0.793614 0.896604 0.807143
O O2 0.388559 0.950070 0.921527
O O3 0.793462 0.942767 0.019657
O O4 0.557770 0.845550 0.005589
O O5 0.928097 0.797339 0.383723
O O6 0.772980 0.840194 0.198838
O O7 0.103047 0.898338 0.309397
O O8 0.283872 0.804629 0.191755
O O9 0.714082 0.860972 0.557338
O O10 0.763045 0.750500 0.583699
O O11 0.217220 0.826473 0.535402
O O12 0.250520 0.583544 0.159717
O O13 0.022907 0.507275 0.313820
O O14 0.833626 0.515922 0.137104
O O15 0.574947 0.074642 0.558821
O O16 0.512963 0.537831 0.721047
#
# Coordination Sequence:
#
# PCOD9246149 Si02
#       8
#     4   4   4   4   4   4   4   4
#     4  10  23  38  63 102 133 178 221 284 338 408
#     4  11  24  45  71 102 130 181 226 286 330 412
#     4  11  27  48  68 102 136 178 235 288 332 391
#     4  11  24  39  66 100 142 180 218 286 347 411
#     4  11  26  46  68 100 141 183 228 283 337 402
#     4  10  22  40  69  98 135 181 231 271 336 422
#     4  10  21  40  63  99 137 172 221 284 342 403
#     4  12  25  44  75  96 132 182 233 274 347 401
#
# _framework density 24.293742999999999
#
# number of rings (size 3 to 8) (size 9 to 14) (size 15 to 20)
#    0.000    1.250    1.250    3.750    8.750    2.500 
#    0.000    0.000    0.000    0.000    0.000    0.000 
#    0.000    0.000    0.000    0.000    0.000    0.000 
#
# Total GULP energy -179103.387134 kJ/mol
# GULP energy per Si atom -5596.980848 kJ/mol
# Density = 2.423845 g / cm^3
# Si number density = 24.293743 Si / 1000 Ang^3
#
#
#
# Elastic Constant Matrix: (Units=GPa)
#
#
# Indices 1 2 3 4 5 6 
#
# 1 71.2045 -3.7484 16.6506 0.0000 -18.8709 0.0000
# 2 -3.7484 67.8840 19.4374 0.0000 0.2481 0.0000
# 3 16.6506 19.4374 114.1283 0.0000 -20.2859 0.0000
# 4 0.0000 0.0000 0.0000 32.5017 0.0000 -9.8327
# 5 -18.8709 0.2481 -20.2859 0.0000 36.3963 0.0000
# 6 0.0000 0.0000 0.0000 -9.8327 0.0000 25.2768
#
#
#
# Elastic Compliance Matrix: (Units=1/GPa)
#
#
# Indices 1 2 3 4 5 6 
#
# 1 0.016475 0.001229 -0.001217 0.000000 0.007856 0.000000
# 2 0.001229 0.015679 -0.003058 0.000000 -0.001174 0.000000
# 3 -0.001217 -0.003058 0.010380 0.000000 0.005176 0.000000
# 4 0.000000 0.000000 0.000000 0.034871 0.000000 0.013565
# 5 0.007856 -0.001174 0.005176 0.000000 0.034441 0.000000
# 6 0.000000 0.000000 0.000000 0.013565 0.000000 0.044839
#
#
# Mechanical properties :
#
#
# Convention : Reuss Voigt Hill
#
# Bulk Modulus (GPa) = 27.43993 35.32176 31.38085
# Shear Modulus (GPa) = 28.58370 33.56011 31.07190
#
# Velocity S-wave (km/s) = 3.43386 3.72079 3.58020
# Velocity P-wave (km/s) = 5.20014 5.74718 5.48049
#
# Compressibility (1/GPa) = 0.03644324
#
# Stress axis : x y z
#
# Youngs Moduli (GPa) = 60.69720 63.78003 96.33532
#
# Poissons Ratio (x) = -0.07841 0.11721
# Poissons Ratio (y) = -0.07462 0.29463
# Poissons Ratio (z) = 0.07385 0.19506
#
# Static dielectric constant tensor:
#      x y z
#    x 1.937290 0.000000 0.018690 
#    y 0.000000 1.992060 0.000000 
#    z 0.018690 0.000000 1.972090 
# 
# From -- ./inp_files/22175.got.cif
#   From: 2010.05.17/outbox.cif.g08.bks.cpg/sg14_12_cif.got.tgz:22175.got - 2010.06.03 17:49:19.
