data_PCOD9246898
_publ_section_title
;
Structure prediction by ZEFSAII (Michael W. Deem and Ramdas Pophale) SiO2 
 PCOD9246898
Probable space group: P 21/C
;
_chemical_formula_sum "Si O2"
_cell_formula_units_Z 28
_cell_length_a 7.358177
_cell_length_b 15.450667
_cell_length_c 19.088068
_cell_angle_alpha 90.000000
_cell_angle_beta 145.799576
_cell_angle_gamma 90.000000
_cell_volume 1219.789549
_symmetry_space_group_name_H-M "P 21/C"
_symmetry_group_IT_number 14
_symmetry_cell_setting 'monoclinic'
loop_
_space_group_symop_operation_xyz
x,y,z
-x,1/2+y,1/2-z
-x,-y,-z
x,1/2-y,1/2+z
loop_
_atom_site_type_symbol
_atom_site_label
_atom_site_fract_x
_atom_site_fract_y
_atom_site_fract_z
Si Si1 0.431359 0.114163 0.888025
Si Si2 0.468043 0.276690 0.530949
Si Si3 0.932317 0.802443 0.351313
Si Si4 0.809077 0.620786 0.345832
Si Si5 0.663976 0.067063 0.189319
Si Si6 0.373124 0.926473 0.587492
Si Si7 0.838789 0.595827 0.037979
O O1 0.328771 0.148230 0.778699
O O2 0.306712 0.016615 0.849815
O O3 0.317892 0.180226 0.912479
O O4 0.815574 0.107020 0.020026
O O5 0.522837 0.353451 0.601744
O O6 0.283514 0.193692 0.502177
O O7 0.822469 0.243870 0.623176
O O8 0.764834 0.725132 0.341692
O O9 0.180372 0.863995 0.472599
O O10 0.599047 0.561333 0.331032
O O11 0.697103 0.603122 0.230138
O O12 0.004285 0.082686 0.335995
O O13 0.121853 0.922255 0.572473
O O14 0.408410 0.020158 0.562581
#
# Coordination Sequence:
#
# PCOD9246898 Si02
#       7
#     4   4   4   4   4   4   4
#     4  11  23  43  64  93 132 172 210 263 322 381
#     4  11  24  40  61  95 130 173 209 260 319 387
#     4  11  22  42  64  92 130 171 211 260 322 381
#     4  10  22  39  67  96 123 164 218 264 320 376
#     4  11  22  43  63  95 127 167 216 267 317 378
#     4  10  21  42  69  95 123 167 213 273 316 376
#     4  10  22  43  67  95 126 162 221 266 321 379
#
# _framework density 22.954781000000001
#
# number of rings (size 3 to 8) (size 9 to 14) (size 15 to 20)
#    0.000    1.429    1.429    4.286    0.000    2.857 
#   10.286    0.000    0.000    0.000    0.000    0.000 
#    0.000    0.000    0.000    0.000    0.000    0.000 
#
# Total GULP energy -156386.307955 kJ/mol
# GULP energy per Si atom -5585.225284 kJ/mol
# Density = 2.290254 g / cm^3
# Si number density = 22.954781 Si / 1000 Ang^3
#
#
#
# Elastic Constant Matrix: (Units=GPa)
#
#
# Indices 1 2 3 4 5 6 
#
# 1 35.2457 9.3269 7.3633 0.0000 -12.4980 0.0000
# 2 9.3269 152.6347 55.1996 0.0000 -13.3584 0.0000
# 3 7.3633 55.1996 161.0373 0.0000 -21.3926 0.0000
# 4 0.0000 0.0000 0.0000 50.6349 0.0000 -10.1344
# 5 -12.4980 -13.3584 -21.3926 0.0000 17.1977 0.0000
# 6 0.0000 0.0000 0.0000 -10.1344 0.0000 34.7137
#
#
#
# Elastic Compliance Matrix: (Units=1/GPa)
#
#
# Indices 1 2 3 4 5 6 
#
# 1 0.039009 -0.000585 0.002543 0.000000 0.031057 0.000000
# 2 -0.000585 0.007632 -0.002226 0.000000 0.002734 0.000000
# 3 0.002543 -0.002226 0.008233 0.000000 0.010359 0.000000
# 4 0.000000 0.000000 0.000000 0.020975 0.000000 0.006123
# 5 0.031057 0.002734 0.010359 0.000000 0.095727 0.000000
# 6 0.000000 0.000000 0.000000 0.006123 0.000000 0.030595
#
#
# Mechanical properties :
#
#
# Convention : Reuss Voigt Hill
#
# Bulk Modulus (GPa) = 18.40405 54.74415 36.57410
# Shear Modulus (GPa) = 22.64304 38.97779 30.81041
#
# Velocity S-wave (km/s) = 3.14414 4.12518 3.66761
# Velocity P-wave (km/s) = 4.60605 6.82568 5.82261
#
# Compressibility (1/GPa) = 0.05433585
#
# Stress axis : x y z
#
# Youngs Moduli (GPa) = 25.63535 131.03371 121.46696
#
# Poissons Ratio (x) = 0.07667 -0.30884
# Poissons Ratio (y) = 0.01500 0.27039
# Poissons Ratio (z) = -0.06518 0.29168
#
# Static dielectric constant tensor:
#      x y z
#    x 1.942130 0.000000 -0.032480 
#    y 0.000000 1.981250 0.000000 
#    z -0.032480 0.000000 1.886610 
# 
# From -- ./inp_files/65886.got.cif
#   From: 2010.05.17/outbox.cif.g08.bks.cpg/sg14_33_cif.got.tgz:65886.got - 2010.06.03 17:49:19.
