data_PCOD9246825
_publ_section_title
;
Structure prediction by ZEFSAII (Michael W. Deem and Ramdas Pophale) SiO2 
 PCOD9246825
Probable space group: P 21/C
;
_chemical_formula_sum "Si O2"
_cell_formula_units_Z 24
_cell_length_a 11.043031
_cell_length_b 11.683675
_cell_length_c 15.103975
_cell_angle_alpha 90.000000
_cell_angle_beta 41.495288
_cell_angle_gamma 90.000000
_cell_volume 1291.169373
_symmetry_space_group_name_H-M "P 21/C"
_symmetry_group_IT_number 14
_symmetry_cell_setting 'monoclinic'
loop_
_space_group_symop_operation_xyz
x,y,z
-x,1/2+y,1/2-z
-x,-y,-z
x,1/2-y,1/2+z
loop_
_atom_site_type_symbol
_atom_site_label
_atom_site_fract_x
_atom_site_fract_y
_atom_site_fract_z
Si Si1 0.702023 0.741965 0.237253
Si Si2 0.218900 0.538845 0.617092
Si Si3 0.607266 0.236980 0.735093
Si Si4 0.441174 0.308788 0.504559
Si Si5 0.834577 0.012262 0.657798
Si Si6 0.062340 0.613011 0.517212
O O1 0.541322 0.779055 0.260164
O O2 0.651928 0.763872 0.367022
O O3 0.720330 0.604776 0.219282
O O4 0.894354 0.798380 0.107472
O O5 0.308227 0.414114 0.550136
O O6 0.383335 0.627518 0.548012
O O7 0.110382 0.530151 0.769429
O O8 0.109268 0.580887 0.592626
O O9 0.712127 0.118426 0.695365
O O10 0.757554 0.330346 0.624802
O O11 0.503806 0.260576 0.884284
O O12 0.000000 0.000000 0.500000
O O13 0.000000 0.500000 0.500000
#
# Coordination Sequence:
#
# PCOD9246825 Si02
#       6
#     4   4   4   4   4   4
#     4  11  23  40  67  91 126 166 207 258 314 370
#     4   9  19  39  64  86 128 158 208 256 311 378
#     4  11  23  41  64  90 129 161 210 260 302 382
#     4   9  19  40  66  86 115 175 203 247 316 367
#     4  10  21  42  66  96 117 170 216 251 312 373
#     4  12  25  41  61  98 129 162 206 266 321 364
#
# _framework density 18.587802
#
# number of rings (size 3 to 8) (size 9 to 14) (size 15 to 20)
#    0.000    1.667    3.333    2.000    2.333    1.333 
#   15.000    0.833    0.000    0.000    0.000    0.000 
#    0.000    0.000    0.000    0.000    0.000    0.000 
#
# Total GULP energy -134006.523860 kJ/mol
# GULP energy per Si atom -5583.605161 kJ/mol
# Density = 1.854550 g / cm^3
# Si number density = 18.587802 Si / 1000 Ang^3
#
#
#
# Elastic Constant Matrix: (Units=GPa)
#
#
# Indices 1 2 3 4 5 6 
#
# 1 107.8438 45.7681 39.5975 0.0000 9.0077 0.0000
# 2 45.7681 51.9144 19.9627 0.0000 16.3634 0.0000
# 3 39.5975 19.9627 139.5352 0.0000 17.3651 0.0000
# 4 0.0000 0.0000 0.0000 20.8131 0.0000 7.8526
# 5 9.0077 16.3634 17.3651 0.0000 23.8202 0.0000
# 6 0.0000 0.0000 0.0000 7.8526 0.0000 20.4448
#
#
#
# Elastic Compliance Matrix: (Units=1/GPa)
#
#
# Indices 1 2 3 4 5 6 
#
# 1 0.016435 -0.015340 -0.003307 0.000000 0.006734 0.000000
# 2 -0.015340 0.039215 0.001510 0.000000 -0.022239 0.000000
# 3 -0.003307 0.001510 0.008647 0.000000 -0.006091 0.000000
# 4 0.000000 0.000000 0.000000 0.056189 0.000000 -0.021582
# 5 0.006734 -0.022239 -0.006091 0.000000 0.059152 0.000000
# 6 0.000000 0.000000 0.000000 -0.021582 0.000000 0.057201
#
#
# Mechanical properties :
#
#
# Convention : Reuss Voigt Hill
#
# Bulk Modulus (GPa) = 33.30690 56.66108 44.98399
# Shear Modulus (GPa) = 17.78598 25.94662 21.86630
#
# Velocity S-wave (km/s) = 3.09668 3.74022 3.43356
# Velocity P-wave (km/s) = 5.54468 7.01437 6.32238
#
# Compressibility (1/GPa) = 0.03002381
#
# Stress axis : x y z
#
# Youngs Moduli (GPa) = 60.84738 25.50049 115.64574
#
# Poissons Ratio (x) = 0.39117 0.38247
# Poissons Ratio (y) = 0.93337 -0.17468
# Poissons Ratio (z) = 0.20124 -0.03852
#
# Static dielectric constant tensor:
#      x y z
#    x 1.614970 0.000000 0.012280 
#    y 0.000000 1.632820 0.000000 
#    z 0.012280 0.000000 1.686420 
# 
# From -- ./inp_files/44277.got.cif
#   From: 2010.05.17/outbox.cif.g08.bks.cpg/sg14_23_cif.got.tgz:44277.got - 2010.06.03 17:49:19.
