data_PCOD9246923
_publ_section_title
;
Structure prediction by ZEFSAII (Michael W. Deem and Ramdas Pophale) SiO2 
 PCOD9246923
Probable space group: P 21/C
;
_chemical_formula_sum "Si O2"
_cell_formula_units_Z 20
_cell_length_a 9.309021
_cell_length_b 12.980946
_cell_length_c 13.771450
_cell_angle_alpha 90.000000
_cell_angle_beta 30.764096
_cell_angle_gamma 90.000000
_cell_volume 851.215424
_symmetry_space_group_name_H-M "P 21/C"
_symmetry_group_IT_number 14
_symmetry_cell_setting 'monoclinic'
loop_
_space_group_symop_operation_xyz
x,y,z
-x,1/2+y,1/2-z
-x,-y,-z
x,1/2-y,1/2+z
loop_
_atom_site_type_symbol
_atom_site_label
_atom_site_fract_x
_atom_site_fract_y
_atom_site_fract_z
Si Si1 0.012293 0.641317 0.582240
Si Si2 0.730049 0.921628 0.831998
Si Si3 0.062096 0.246680 0.670573
Si Si4 0.801097 0.046588 0.306705
Si Si5 0.357029 0.305399 0.809466
O O1 0.310532 0.679225 0.367193
O O2 0.032299 0.681369 0.682517
O O3 0.952305 0.520426 0.634962
O O4 0.756900 0.698703 0.674543
O O5 0.717191 0.890120 0.728500
O O6 0.030438 0.963542 0.690102
O O7 0.500000 0.000000 0.000000
O O8 0.297484 0.321319 0.582685
O O9 0.187719 0.187368 0.507345
O O10 0.831153 0.331405 0.771510
O O11 0.500000 0.000000 0.500000
#
# Coordination Sequence:
#
# PCOD9246923 Si02
#       5
#     4   4   4   4   4
#     4  11  23  40  68  93 139 178 228 287 344 412
#     4   9  19  43  68  95 133 183 228 284 349 418
#     4   9  23  41  65 101 130 176 237 277 348 411
#     4  10  21  42  70  97 138 181 226 287 346 405
#     4  11  22  41  66  96 137 181 223 287 347 408
#
# _framework density 23.495815
#
# number of rings (size 3 to 8) (size 9 to 14) (size 15 to 20)
#    1.200    0.800    2.000    1.200    0.000    5.600 
#    0.000    7.000    0.000    0.000    0.000    0.000 
#    0.000    0.000    0.000    0.000    0.000    0.000 
#
# Total GULP energy -111646.893438 kJ/mol
# GULP energy per Si atom -5582.344672 kJ/mol
# Density = 2.344234 g / cm^3
# Si number density = 23.495815 Si / 1000 Ang^3
#
#
#
# Elastic Constant Matrix: (Units=GPa)
#
#
# Indices 1 2 3 4 5 6 
#
# 1 91.1146 6.7238 47.3636 0.0000 0.1817 0.0000
# 2 6.7238 53.3699 24.9114 0.0000 -0.5510 0.0000
# 3 47.3636 24.9114 126.5179 0.0000 12.7173 0.0000
# 4 0.0000 0.0000 0.0000 26.7324 0.0000 -9.2665
# 5 0.1817 -0.5510 12.7173 0.0000 51.5682 0.0000
# 6 0.0000 0.0000 0.0000 -9.2665 0.0000 18.7944
#
#
#
# Elastic Compliance Matrix: (Units=1/GPa)
#
#
# Indices 1 2 3 4 5 6 
#
# 1 0.013737 0.000820 -0.005435 0.000000 0.001301 0.000000
# 2 0.000820 0.020762 -0.004529 0.000000 0.001336 0.000000
# 3 -0.005435 -0.004529 0.011109 0.000000 -0.002769 0.000000
# 4 0.000000 0.000000 0.000000 0.045119 0.000000 0.022246
# 5 0.001301 0.001336 -0.002769 0.000000 0.020084 0.000000
# 6 0.000000 0.000000 0.000000 0.022246 0.000000 0.064176
#
#
# Mechanical properties :
#
#
# Convention : Reuss Voigt Hill
#
# Bulk Modulus (GPa) = 36.60455 47.66664 42.13559
# Shear Modulus (GPa) = 24.70579 32.21925 28.46252
#
# Velocity S-wave (km/s) = 3.24620 3.70709 3.48427
# Velocity P-wave (km/s) = 5.44641 6.21729 5.84457
#
# Compressibility (1/GPa) = 0.02731901
#
# Stress axis : x y z
#
# Youngs Moduli (GPa) = 72.79459 48.16556 90.01947
#
# Poissons Ratio (x) = -0.03947 0.48924
# Poissons Ratio (y) = -0.05966 0.40770
# Poissons Ratio (z) = 0.39563 0.21815
#
# Static dielectric constant tensor:
#      x y z
#    x 1.938190 0.000000 -0.065820 
#    y 0.000000 1.945020 0.000000 
#    z -0.065820 0.000000 1.946280 
# 
# From -- ./inp_files/25921.got.cif
#   From: 2010.05.17/outbox.cif.g08.bks.cpg/sg14_13_cif.got.tgz:25921.got - 2010.06.03 17:49:19.
