data_PCOD9246998
_publ_section_title
;
Structure prediction by ZEFSAII (Michael W. Deem and Ramdas Pophale) SiO2 
 PCOD9246998
Probable space group: P 21/C
;
_chemical_formula_sum "Si O2"
_cell_formula_units_Z 24
_cell_length_a 20.393290
_cell_length_b 9.843459
_cell_length_c 8.586943
_cell_angle_alpha 90.000000
_cell_angle_beta 34.022763
_cell_angle_gamma 90.000000
_cell_volume 964.474957
_symmetry_space_group_name_H-M "P 21/C"
_symmetry_group_IT_number 14
_symmetry_cell_setting 'monoclinic'
loop_
_space_group_symop_operation_xyz
x,y,z
-x,1/2+y,1/2-z
-x,-y,-z
x,1/2-y,1/2+z
loop_
_atom_site_type_symbol
_atom_site_label
_atom_site_fract_x
_atom_site_fract_y
_atom_site_fract_z
Si Si1 0.398353 0.319915 0.255064
Si Si2 0.972663 0.479183 0.371676
Si Si3 0.226264 0.810628 0.664737
Si Si4 0.730823 0.912440 0.280383
Si Si5 0.545168 0.907981 0.051306
Si Si6 0.777340 0.057624 0.659824
O O1 0.306303 0.394460 0.325019
O O2 0.331773 0.202350 0.489308
O O3 0.475286 0.406938 0.223096
O O4 0.477270 0.240029 0.975270
O O5 0.872027 0.586326 0.520235
O O6 0.902310 0.336993 0.503977
O O7 0.000000 0.500000 0.500000
O O8 0.097190 0.494300 0.045614
O O9 0.299171 0.936696 0.593698
O O10 0.215172 0.845012 0.506051
O O11 0.265760 0.660225 0.623489
O O12 0.684787 0.555746 0.291782
O O13 0.500000 0.000000 0.000000
#
# Coordination Sequence:
#
# PCOD9246998 Si02
#       6
#     4   4   4   4   4   4
#     4  10  21  43  66  87 122 163 199 253 300 371
#     4   8  17  35  54  88 125 162 195 240 300 361
#     4   9  21  36  57  91 125 153 201 247 305 355
#     4   9  19  38  62  89 125 158 201 241 307 363
#     4  11  25  44  65  91 118 161 208 251 308 351
#     4  11  21  38  61  86 128 158 204 253 301 361
#
# _framework density 24.884004999999998
#
# number of rings (size 3 to 8) (size 9 to 14) (size 15 to 20)
#    1.000    1.333    1.667    0.000    2.333    6.667 
#    0.000    3.333    0.000    0.000    0.000    0.000 
#    0.000    0.000    0.000    0.000    0.000    0.000 
#
# Total GULP energy -133792.756374 kJ/mol
# GULP energy per Si atom -5574.698182 kJ/mol
# Density = 2.482737 g / cm^3
# Si number density = 24.884005 Si / 1000 Ang^3
#
#
#
# Elastic Constant Matrix: (Units=GPa)
#
#
# Indices 1 2 3 4 5 6 
#
# 1 179.1770 32.7082 29.0307 0.0000 19.1879 0.0000
# 2 32.7082 63.2993 15.0495 0.0000 13.5723 0.0000
# 3 29.0307 15.0495 48.3064 0.0000 3.4842 0.0000
# 4 0.0000 0.0000 0.0000 35.3056 0.0000 14.9406
# 5 19.1879 13.5723 3.4842 0.0000 46.4774 0.0000
# 6 0.0000 0.0000 0.0000 14.9406 0.0000 46.6385
#
#
#
# Elastic Compliance Matrix: (Units=1/GPa)
#
#
# Indices 1 2 3 4 5 6 
#
# 1 0.006719 -0.002317 -0.003182 0.000000 -0.001859 0.000000
# 2 -0.002317 0.018902 -0.004190 0.000000 -0.004249 0.000000
# 3 -0.003182 -0.004190 0.023865 0.000000 0.000748 0.000000
# 4 0.000000 0.000000 0.000000 0.032766 0.000000 -0.010497
# 5 -0.001859 -0.004249 0.000748 0.000000 0.023468 0.000000
# 6 0.000000 0.000000 0.000000 -0.010497 0.000000 0.024804
#
#
# Mechanical properties :
#
#
# Convention : Reuss Voigt Hill
#
# Bulk Modulus (GPa) = 33.21327 49.37329 41.29328
# Shear Modulus (GPa) = 31.26222 39.95056 35.60639
#
# Velocity S-wave (km/s) = 3.54830 4.01118 3.78682
# Velocity P-wave (km/s) = 5.49213 6.42940 5.97916
#
# Compressibility (1/GPa) = 0.03010845
#
# Stress axis : x y z
#
# Youngs Moduli (GPa) = 148.84179 52.90350 41.90258
#
# Poissons Ratio (x) = 0.12256 0.13333
# Poissons Ratio (y) = 0.34481 0.17558
# Poissons Ratio (z) = 0.47359 0.22168
#
# Static dielectric constant tensor:
#      x y z
#    x 1.973640 0.000000 -0.123010 
#    y 0.000000 1.998690 0.000000 
#    z -0.123010 0.000000 2.169350 
# 
# From -- ./inp_files/19616.got.cif
#   From: 2010.05.17/outbox.cif.g08.bks.cpg/sg14_10_cif.got.tgz:19616.got - 2010.06.03 17:49:19.
