data_PCOD9246947
_publ_section_title
;
Structure prediction by ZEFSAII (Michael W. Deem and Ramdas Pophale) SiO2 
 PCOD9246947
Probable space group: P 21/C
;
_chemical_formula_sum "Si O2"
_cell_formula_units_Z 20
_cell_length_a 5.517275
_cell_length_b 4.473828
_cell_length_c 29.241961
_cell_angle_alpha 90.000000
_cell_angle_beta 83.190125
_cell_angle_gamma 90.000000
_cell_volume 716.697087
_symmetry_space_group_name_H-M "P 21/C"
_symmetry_group_IT_number 14
_symmetry_cell_setting 'monoclinic'
loop_
_space_group_symop_operation_xyz
x,y,z
-x,1/2+y,1/2-z
-x,-y,-z
x,1/2-y,1/2+z
loop_
_atom_site_type_symbol
_atom_site_label
_atom_site_fract_x
_atom_site_fract_y
_atom_site_fract_z
Si Si1 0.528601 0.278918 0.955397
Si Si2 0.969849 0.798765 0.545151
Si Si3 0.908643 0.232380 0.634406
Si Si4 0.937957 0.373302 0.783251
Si Si5 0.407122 0.883449 0.141752
O O1 0.274207 0.110558 0.956120
O O2 0.562202 0.357855 0.900667
O O3 0.782887 0.114422 0.956521
O O4 0.500000 0.500000 0.000000
O O5 0.937101 0.023982 0.588568
O O6 0.000000 0.000000 0.500000
O O7 0.658531 0.428061 0.639324
O O8 0.157861 0.428361 0.635613
O O9 0.914500 0.019351 0.678352
O O10 0.916480 0.601524 0.742129
O O11 0.678484 0.275039 0.809947
#
# Coordination Sequence:
#
# PCOD9246947 Si02
#       5
#     4   4   4   4   4
#     4  10  21  42  73 109 159 208 266 329 402 493
#     4  10  21  42  73 109 159 208 266 329 402 493
#     4  12  27  51  83 118 163 219 278 347 420 506
#     4  12  28  58  86 126 164 222 284 364 434 506
#     4  12  27  51  83 118 163 219 278 347 420 506
#
# _framework density 27.905788999999999
#
# number of rings (size 3 to 8) (size 9 to 14) (size 15 to 20)
#    0.000    0.800    4.000    2.400    0.000    0.000 
#    7.200   24.000    4.400    0.000    0.000    0.000 
#    0.000    0.000    0.000    0.000    0.000    0.000 
#
# Total GULP energy -111712.069960 kJ/mol
# GULP energy per Si atom -5585.603498 kJ/mol
# Density = 2.784227 g / cm^3
# Si number density = 27.905789 Si / 1000 Ang^3
#
#
#
# Elastic Constant Matrix: (Units=GPa)
#
#
# Indices 1 2 3 4 5 6 
#
# 1 313.9024 55.5633 28.8586 0.0000 -12.9253 0.0000
# 2 55.5633 107.2273 77.6931 0.0000 -9.9951 0.0000
# 3 28.8586 77.6931 227.5868 0.0000 -28.2336 0.0000
# 4 0.0000 0.0000 0.0000 100.5710 0.0000 -3.2619
# 5 -12.9253 -9.9951 -28.2336 0.0000 24.1623 0.0000
# 6 0.0000 0.0000 0.0000 -3.2619 0.0000 19.9116
#
#
#
# Elastic Compliance Matrix: (Units=1/GPa)
#
#
# Indices 1 2 3 4 5 6 
#
# 1 0.003568 -0.002014 0.000431 0.000000 0.001579 0.000000
# 2 -0.002014 0.013528 -0.004447 0.000000 -0.000677 0.000000
# 3 0.000431 -0.004447 0.006617 0.000000 0.006123 0.000000
# 4 0.000000 0.000000 0.000000 0.009996 0.000000 0.001638
# 5 0.001579 -0.000677 0.006123 0.000000 0.049106 0.000000
# 6 0.000000 0.000000 0.000000 0.001638 0.000000 0.050490
#
#
# Mechanical properties :
#
#
# Convention : Reuss Voigt Hill
#
# Bulk Modulus (GPa) = 85.81140 108.10517 96.95829
# Shear Modulus (GPa) = 33.50101 61.36908 47.43504
#
# Velocity S-wave (km/s) = 3.46859 4.69460 4.12737
# Velocity P-wave (km/s) = 6.84534 8.25888 7.58511
#
# Compressibility (1/GPa) = 0.01165346
#
# Stress axis : x y z
#
# Youngs Moduli (GPa) = 280.30515 73.91832 151.12677
#
# Poissons Ratio (x) = 0.14885 -0.06513
# Poissons Ratio (y) = 0.56445 0.67206
# Poissons Ratio (z) = -0.12079 0.32871
#
# Static dielectric constant tensor:
#      x y z
#    x 2.195530 0.000000 0.019850 
#    y 0.000000 2.106060 0.000000 
#    z 0.019850 0.000000 2.190640 
# 
# From -- ./inp_files/75455.got.cif
#   From: 2010.05.17/outbox.cif.g08.bks.cpg/sg14_38_cif.got.tgz:75455.got - 2010.06.03 17:49:19.
