data_PCOD9246408
_publ_section_title
;
Structure prediction by ZEFSAII (Michael W. Deem and Ramdas Pophale) SiO2 
 PCOD9246408
Probable space group: P 21/C
;
_chemical_formula_sum "Si O2"
_cell_formula_units_Z 24
_cell_length_a 9.255685
_cell_length_b 16.203008
_cell_length_c 16.699189
_cell_angle_alpha 90.000000
_cell_angle_beta 147.697959
_cell_angle_gamma 90.000000
_cell_volume 1338.294787
_symmetry_space_group_name_H-M "P 21/C"
_symmetry_group_IT_number 14
_symmetry_cell_setting 'monoclinic'
loop_
_space_group_symop_operation_xyz
x,y,z
-x,1/2+y,1/2-z
-x,-y,-z
x,1/2-y,1/2+z
loop_
_atom_site_type_symbol
_atom_site_label
_atom_site_fract_x
_atom_site_fract_y
_atom_site_fract_z
Si Si1 0.729405 0.982468 0.172215
Si Si2 0.782661 0.181937 0.465881
Si Si3 0.821752 0.157322 0.298839
Si Si4 0.684733 0.079042 0.573302
Si Si5 0.649148 0.810228 0.189695
Si Si6 0.612463 0.765580 0.494844
O O1 0.621124 0.909028 0.178235
O O2 0.005593 0.945300 0.264463
O O3 0.808123 0.066543 0.253660
O O4 0.500000 0.000000 0.000000
O O5 0.817769 0.151448 0.392581
O O6 0.677300 0.111822 0.478001
O O7 0.581921 0.259122 0.375127
O O8 0.065922 0.209950 0.636551
O O9 0.096167 0.204147 0.399968
O O10 0.560209 0.207624 0.144781
O O11 0.570380 0.154055 0.572113
O O12 0.500000 0.000000 0.500000
O O13 0.647392 0.781318 0.096169
#
# Coordination Sequence:
#
# PCOD9246408 Si02
#       6
#     4   4   4   4   4   4
#     4  11  22  37  64  91 119 157 207 248 292 356
#     4  10  23  38  61  88 121 154 199 246 307 351
#     4  12  23  39  61  93 121 154 201 258 299 354
#     4  10  21  41  61  87 117 164 200 240 295 365
#     4  10  21  41  61  85 119 163 198 238 300 366
#     4  11  22  39  65  86 123 162 202 241 301 367
#
# _framework density 17.933268000000002
#
# number of rings (size 3 to 8) (size 9 to 14) (size 15 to 20)
#    0.000    1.333    3.333    4.000    0.000    2.667 
#    3.000    0.000    0.000    3.000    0.000    0.000 
#    0.000    0.000    0.000    0.000    0.000    0.000 
#
# Total GULP energy -134003.198405 kJ/mol
# GULP energy per Si atom -5583.466600 kJ/mol
# Density = 1.789245 g / cm^3
# Si number density = 17.933268 Si / 1000 Ang^3
#
#
#
# Elastic Constant Matrix: (Units=GPa)
#
#
# Indices 1 2 3 4 5 6 
#
# 1 55.4399 11.4116 33.0957 0.0000 0.5897 0.0000
# 2 11.4116 105.0458 46.5338 0.0000 18.7091 0.0000
# 3 33.0957 46.5338 111.8654 0.0000 9.3031 0.0000
# 4 0.0000 0.0000 0.0000 36.6413 0.0000 7.1799
# 5 0.5897 18.7091 9.3031 0.0000 16.6644 0.0000
# 6 0.0000 0.0000 0.0000 7.1799 0.0000 16.5758
#
#
#
# Elastic Compliance Matrix: (Units=1/GPa)
#
#
# Indices 1 2 3 4 5 6 
#
# 1 0.022049 0.000103 -0.006808 0.000000 0.002905 0.000000
# 2 0.000103 0.013922 -0.004742 0.000000 -0.012987 0.000000
# 3 -0.006808 -0.004742 0.013070 0.000000 -0.001732 0.000000
# 4 0.000000 0.000000 0.000000 0.029823 0.000000 -0.012918
# 5 0.002905 -0.012987 -0.001732 0.000000 0.075453 0.000000
# 6 0.000000 0.000000 0.000000 -0.012918 0.000000 0.065924
#
#
# Mechanical properties :
#
#
# Convention : Reuss Voigt Hill
#
# Bulk Modulus (GPa) = 38.24321 50.49261 44.36791
# Shear Modulus (GPa) = 19.85305 26.06363 22.95834
#
# Velocity S-wave (km/s) = 3.33085 3.81644 3.58188
# Velocity P-wave (km/s) = 6.01368 6.90198 6.47308
#
# Compressibility (1/GPa) = 0.02614843
#
# Stress axis : x y z
#
# Youngs Moduli (GPa) = 45.35252 71.82893 76.51131
#
# Poissons Ratio (x) = -0.00741 0.52088
# Poissons Ratio (y) = -0.00468 0.36280
# Poissons Ratio (z) = 0.30875 0.34060
#
# Static dielectric constant tensor:
#      x y z
#    x 1.600360 0.000000 0.009880 
#    y 0.000000 1.620070 0.000000 
#    z 0.009880 0.000000 1.581850 
# 
# From -- ./inp_files/18042.got.cif
#   From: 2010.05.17/outbox.cif.g08.bks.cpg/sg14_10_cif.got.tgz:18042.got - 2010.06.03 17:49:19.
