data_PCOD9246820
_publ_section_title
;
Structure prediction by ZEFSAII (Michael W. Deem and Ramdas Pophale) SiO2 
 PCOD9246820
Probable space group: P 21/C
;
_chemical_formula_sum "Si O2"
_cell_formula_units_Z 32
_cell_length_a 5.835849
_cell_length_b 27.966778
_cell_length_c 9.191603
_cell_angle_alpha 90.000000
_cell_angle_beta 84.352492
_cell_angle_gamma 90.000000
_cell_volume 1492.878984
_symmetry_space_group_name_H-M "P 21/C"
_symmetry_group_IT_number 14
_symmetry_cell_setting 'monoclinic'
loop_
_space_group_symop_operation_xyz
x,y,z
-x,1/2+y,1/2-z
-x,-y,-z
x,1/2-y,1/2+z
loop_
_atom_site_type_symbol
_atom_site_label
_atom_site_fract_x
_atom_site_fract_y
_atom_site_fract_z
Si Si1 0.753796 0.026726 0.476768
Si Si2 0.434366 0.792206 0.887927
Si Si3 0.495909 0.391478 0.518043
Si Si4 0.947729 0.213864 0.653624
Si Si5 0.215454 0.890308 0.294473
Si Si6 0.259147 0.251893 0.882818
Si Si7 0.726211 0.470011 0.646160
Si Si8 0.113065 0.427760 0.409657
O O1 0.730131 0.072430 0.582910
O O2 0.785429 0.041057 0.307301
O O3 0.500000 0.000000 0.500000
O O4 0.000000 0.000000 0.500000
O O5 0.387586 0.848207 0.905113
O O6 0.219324 0.758795 0.864406
O O7 0.614068 0.782863 0.747443
O O8 0.552914 0.777047 0.033784
O O9 0.611119 0.393955 0.352008
O O10 0.505939 0.439795 0.612274
O O11 0.229374 0.385992 0.495382
O O12 0.808368 0.164553 0.658090
O O13 0.079759 0.220235 0.799362
O O14 0.128375 0.216277 0.510217
O O15 0.976814 0.907550 0.235934
O O16 0.721305 0.527021 0.631724
O O17 0.910605 0.449816 0.519689
#
# Coordination Sequence:
#
# PCOD9246820 Si02
#       8
#     4   4   4   4   4   4   4   4
#     4  12  27  47  69 101 143 181 229 290 352 417
#     4  11  23  42  64  97 132 169 222 281 343 413
#     4  11  23  39  67  95 129 172 225 277 345 415
#     4  11  23  43  67  93 135 171 226 276 340 414
#     4  11  24  41  68  96 126 181 223 278 346 410
#     4  10  23  41  66  93 132 174 215 279 343 402
#     4  10  23  40  65  96 126 175 221 278 338 404
#     4  10  21  42  66  92 129 166 226 277 336 411
#
# _framework density 21.435092000000001
#
# number of rings (size 3 to 8) (size 9 to 14) (size 15 to 20)
#    0.000    1.250    1.250    4.125    1.750    7.000 
#    0.000    0.000    0.000    0.000    0.000    0.000 
#    0.000    0.000    0.000    0.000    0.000    0.000 
#
# Total GULP energy -178598.103430 kJ/mol
# GULP energy per Si atom -5581.190732 kJ/mol
# Density = 2.138630 g / cm^3
# Si number density = 21.435092 Si / 1000 Ang^3
#
#
#
# Elastic Constant Matrix: (Units=GPa)
#
#
# Indices 1 2 3 4 5 6 
#
# 1 52.2105 3.6485 0.8297 0.0000 17.5222 0.0000
# 2 3.6485 30.3826 -5.6921 0.0000 1.2095 0.0000
# 3 0.8297 -5.6921 87.2748 0.0000 15.4405 0.0000
# 4 0.0000 0.0000 0.0000 27.5413 0.0000 5.7704
# 5 17.5222 1.2095 15.4405 0.0000 36.6510 0.0000
# 6 0.0000 0.0000 0.0000 5.7704 0.0000 22.7920
#
#
#
# Elastic Compliance Matrix: (Units=1/GPa)
#
#
# Indices 1 2 3 4 5 6 
#
# 1 0.023212 -0.001995 0.001730 0.000000 -0.011760 0.000000
# 2 -0.001995 0.033654 0.002422 0.000000 -0.001177 0.000000
# 3 0.001730 0.002422 0.012707 0.000000 -0.006260 0.000000
# 4 0.000000 0.000000 0.000000 0.038343 0.000000 -0.009707
# 5 -0.011760 -0.001177 -0.006260 0.000000 0.035583 0.000000
# 6 0.000000 0.000000 0.000000 -0.009707 0.000000 0.046333
#
#
# Mechanical properties :
#
#
# Convention : Reuss Voigt Hill
#
# Bulk Modulus (GPa) = 13.53428 18.60444 16.06936
# Shear Modulus (GPa) = 23.79290 28.80232 26.29761
#
# Velocity S-wave (km/s) = 3.33528 3.66963 3.50644
# Velocity P-wave (km/s) = 4.59999 5.16267 4.88943
#
# Compressibility (1/GPa) = 0.07388648
#
# Stress axis : x y z
#
# Youngs Moduli (GPa) = 43.08124 29.71431 78.69592
#
# Poissons Ratio (x) = 0.05928 -0.13613
# Poissons Ratio (y) = 0.08595 -0.19061
# Poissons Ratio (z) = -0.07452 -0.07197
#
# Static dielectric constant tensor:
#      x y z
#    x 1.949770 0.000000 0.044970 
#    y 0.000000 1.810120 0.000000 
#    z 0.044970 0.000000 1.747930 
# 
# From -- ./inp_files/6794.got.cif
#   From: 2010.05.17/outbox.cif.g08.bks.cpg/sg14_4_cif.got.tgz:6794.got - 2010.06.03 17:49:19.
