data_PCOD9246982
_publ_section_title
;
Structure prediction by ZEFSAII (Michael W. Deem and Ramdas Pophale) SiO2 
 PCOD9246982
Probable space group: P 21/C
;
_chemical_formula_sum "Si O2"
_cell_formula_units_Z 32
_cell_length_a 22.171320
_cell_length_b 11.845870
_cell_length_c 14.969026
_cell_angle_alpha 90.000000
_cell_angle_beta 21.647364
_cell_angle_gamma 90.000000
_cell_volume 1450.282175
_symmetry_space_group_name_H-M "P 21/C"
_symmetry_group_IT_number 14
_symmetry_cell_setting 'monoclinic'
loop_
_space_group_symop_operation_xyz
x,y,z
-x,1/2+y,1/2-z
-x,-y,-z
x,1/2-y,1/2+z
loop_
_atom_site_type_symbol
_atom_site_label
_atom_site_fract_x
_atom_site_fract_y
_atom_site_fract_z
Si Si1 0.295834 0.483784 0.494913
Si Si2 0.861512 0.325572 0.871597
Si Si3 0.233131 0.271668 0.360568
Si Si4 0.185101 0.902708 0.973668
Si Si5 0.179025 0.419757 0.072593
Si Si6 0.539172 0.388249 0.033088
Si Si7 0.321019 0.782288 0.027883
Si Si8 0.682307 0.738169 0.963120
O O1 0.181466 0.530200 0.572533
O O2 0.297937 0.583472 0.564375
O O3 0.256179 0.360558 0.586307
O O4 0.473342 0.468853 0.202497
O O5 0.790957 0.228481 0.032957
O O6 0.055830 0.327459 0.621050
O O7 0.781395 0.448097 0.988585
O O8 0.827274 0.276165 0.820068
O O9 0.224018 0.149182 0.420877
O O10 0.265656 0.273842 0.210546
O O11 0.379757 0.333207 0.209235
O O12 0.017603 0.913552 0.151410
O O13 0.338658 0.942923 0.705061
O O14 0.254129 0.355974 0.054657
O O15 0.641251 0.285419 0.935359
O O16 0.485270 0.763438 0.742503
#
# Coordination Sequence:
#
# PCOD9246982 Si02
#       8
#     4   4   4   4   4   4   4   4
#     4  10  21  43  65  94 133 171 215 271 323 394
#     4  10  24  43  64  94 135 164 219 272 324 389
#     4  11  23  44  67 100 128 174 219 265 335 392
#     4  10  23  41  68  95 130 175 219 266 328 388
#     4  11  24  43  66  97 134 172 215 277 326 384
#     4  11  22  41  69  98 131 172 225 263 330 392
#     4  10  23  42  63  99 131 170 216 274 323 387
#     4  11  25  41  67  95 132 171 221 271 329 388
#
# _framework density 22.064671000000001
#
# number of rings (size 3 to 8) (size 9 to 14) (size 15 to 20)
#    0.000    1.500    2.500    2.625    7.000    2.500 
#    0.000    7.500    0.000    0.000    0.000    0.000 
#    0.000    0.000    0.000    0.000    0.000    0.000 
#
# Total GULP energy -178884.828352 kJ/mol
# GULP energy per Si atom -5590.150886 kJ/mol
# Density = 2.201445 g / cm^3
# Si number density = 22.064671 Si / 1000 Ang^3
#
#
#
# Elastic Constant Matrix: (Units=GPa)
#
#
# Indices 1 2 3 4 5 6 
#
# 1 81.2846 21.7287 -3.9116 0.0000 -8.8875 0.0000
# 2 21.7287 135.8161 -26.6714 0.0000 -1.2788 0.0000
# 3 -3.9116 -26.6714 20.5230 0.0000 -13.4223 0.0000
# 4 0.0000 0.0000 0.0000 15.6109 0.0000 -2.3328
# 5 -8.8875 -1.2788 -13.4223 0.0000 41.3337 0.0000
# 6 0.0000 0.0000 0.0000 -2.3328 0.0000 31.4054
#
#
#
# Elastic Compliance Matrix: (Units=1/GPa)
#
#
# Indices 1 2 3 4 5 6 
#
# 1 0.013264 -0.001477 0.003103 0.000000 0.003814 0.000000
# 2 -0.001477 0.011228 0.018194 0.000000 0.005938 0.000000
# 3 0.003103 0.018194 0.093657 0.000000 0.031644 0.000000
# 4 0.000000 0.000000 0.000000 0.064777 0.000000 0.004812
# 5 0.003814 0.005938 0.031644 0.000000 0.035473 0.000000
# 6 0.000000 0.000000 0.000000 0.004812 0.000000 0.032199
#
#
# Mechanical properties :
#
#
# Convention : Reuss Voigt Hill
#
# Bulk Modulus (GPa) = 6.33756 24.43499 15.38627
# Shear Modulus (GPa) = 18.97155 34.10187 26.53671
#
# Velocity S-wave (km/s) = 2.93544 3.93560 3.47173
# Velocity P-wave (km/s) = 3.79046 5.63474 4.80197
#
# Compressibility (1/GPa) = 0.15778953
#
# Stress axis : x y z
#
# Youngs Moduli (GPa) = 75.39468 89.06370 10.67725
#
# Poissons Ratio (x) = 0.13151 -0.03314
# Poissons Ratio (y) = 0.11133 -0.19426
# Poissons Ratio (z) = -0.23398 -1.62040
#
# Static dielectric constant tensor:
#      x y z
#    x 1.816760 0.000000 -0.009620 
#    y 0.000000 1.844250 0.000000 
#    z -0.009620 0.000000 1.778670 
# 
# From -- ./inp_files/62352.got.cif
#   From: 2010.05.17/outbox.cif.g08.bks.cpg/sg14_32_cif.got.tgz:62352.got - 2010.06.03 17:49:19.
