data_PCOD9246770
_publ_section_title
;
Structure prediction by ZEFSAII (Michael W. Deem and Ramdas Pophale) SiO2 
 PCOD9246770
Probable space group: P 21/C
;
_chemical_formula_sum "Si O2"
_cell_formula_units_Z 32
_cell_length_a 12.796028
_cell_length_b 14.442527
_cell_length_c 18.227424
_cell_angle_alpha 90.000000
_cell_angle_beta 157.813157
_cell_angle_gamma 90.000000
_cell_volume 1272.061316
_symmetry_space_group_name_H-M "P 21/C"
_symmetry_group_IT_number 14
_symmetry_cell_setting 'monoclinic'
loop_
_space_group_symop_operation_xyz
x,y,z
-x,1/2+y,1/2-z
-x,-y,-z
x,1/2-y,1/2+z
loop_
_atom_site_type_symbol
_atom_site_label
_atom_site_fract_x
_atom_site_fract_y
_atom_site_fract_z
Si Si1 0.729323 0.551907 0.260968
Si Si2 0.348308 0.689907 0.198117
Si Si3 0.151912 0.785641 0.765553
Si Si4 0.234516 0.828835 0.450406
Si Si5 0.396798 0.385477 0.115273
Si Si6 0.101206 0.097416 0.965007
Si Si7 0.343581 0.403051 0.394943
Si Si8 0.819253 0.907347 0.376928
O O1 0.533835 0.466953 0.159772
O O2 0.870278 0.593152 0.426842
O O3 0.947816 0.500303 0.350589
O O4 0.509974 0.627933 0.092420
O O5 0.459313 0.787045 0.297278
O O6 0.589500 0.613298 0.365029
O O7 0.299129 0.689275 0.077885
O O8 0.054642 0.669719 0.043406
O O9 0.160106 0.761586 0.857187
O O10 0.923859 0.865735 0.608712
O O11 0.061917 0.688028 0.669815
O O12 0.451450 0.825494 0.939483
O O13 0.964043 0.894856 0.271566
O O14 0.406924 0.409789 0.207676
O O15 0.500000 0.500000 0.500000
O O16 0.297669 0.388223 0.278545
O O17 0.000000 0.000000 0.500000
#
# Coordination Sequence:
#
# PCOD9246770 Si02
#       8
#     4   4   4   4   4   4   4   4
#     4  10  21  42  64  90 129 165 216 269 316 379
#     4   9  21  39  62  91 126 160 214 264 317 375
#     4  11  24  39  63  94 129 170 211 261 331 388
#     4  10  22  42  59  90 129 168 208 264 320 390
#     4  11  23  37  66  94 123 167 216 265 323 376
#     4   9  21  39  63  91 122 164 212 261 317 378
#     4  11  24  42  65  95 132 169 210 268 327 386
#     4  11  22  40  66  92 125 165 215 266 314 382
#
# _framework density 25.156019000000001
#
# number of rings (size 3 to 8) (size 9 to 14) (size 15 to 20)
#    0.000    1.750    0.000    4.500    5.250    4.500 
#    6.750    1.250    0.000    0.000    0.000    0.000 
#    0.000    0.000    0.000    0.000    0.000    0.000 
#
# Total GULP energy -179151.447843 kJ/mol
# GULP energy per Si atom -5598.482745 kJ/mol
# Density = 2.509876 g / cm^3
# Si number density = 25.156019 Si / 1000 Ang^3
#
#
#
# Elastic Constant Matrix: (Units=GPa)
#
#
# Indices 1 2 3 4 5 6 
#
# 1 54.9132 4.6863 8.9160 0.0000 5.8139 0.0000
# 2 4.6863 64.1549 23.8972 0.0000 -8.6937 0.0000
# 3 8.9160 23.8972 122.0839 0.0000 -3.8725 0.0000
# 4 0.0000 0.0000 0.0000 57.4068 0.0000 5.9602
# 5 5.8139 -8.6937 -3.8725 0.0000 16.6269 0.0000
# 6 0.0000 0.0000 0.0000 5.9602 0.0000 33.2693
#
#
#
# Elastic Compliance Matrix: (Units=1/GPa)
#
#
# Indices 1 2 3 4 5 6 
#
# 1 0.019459 -0.002053 -0.001279 0.000000 -0.008175 0.000000
# 2 -0.002053 0.018182 -0.003108 0.000000 0.009501 0.000000
# 3 -0.001279 -0.003108 0.008921 0.000000 0.000900 0.000000
# 4 0.000000 0.000000 0.000000 0.017750 0.000000 -0.003180
# 5 -0.008175 0.009501 0.000900 0.000000 0.068179 0.000000
# 6 0.000000 0.000000 0.000000 -0.003180 0.000000 0.030627
#
#
# Mechanical properties :
#
#
# Convention : Reuss Voigt Hill
#
# Bulk Modulus (GPa) = 29.68777 35.12788 32.40782
# Shear Modulus (GPa) = 26.70572 35.03744 30.87158
#
# Velocity S-wave (km/s) = 3.26176 3.73608 3.50695
# Velocity P-wave (km/s) = 5.10025 5.71011 5.41377
#
# Compressibility (1/GPa) = 0.03368391
#
# Stress axis : x y z
#
# Youngs Moduli (GPa) = 51.39026 54.99838 112.09083
#
# Poissons Ratio (x) = 0.11291 0.14332
# Poissons Ratio (y) = 0.10550 0.34835
# Poissons Ratio (z) = 0.06571 0.17092
#
# Static dielectric constant tensor:
#      x y z
#    x 2.009030 0.000000 0.060530 
#    y 0.000000 1.956440 0.000000 
#    z 0.060530 0.000000 2.185760 
# 
# From -- ./inp_files/68717.got.cif
#   From: 2010.05.17/outbox.cif.g08.bks.cpg/sg14_35_cif.got.tgz:68717.got - 2010.06.03 17:49:19.
