data_PCOD9246872
_publ_section_title
;
Structure prediction by ZEFSAII (Michael W. Deem and Ramdas Pophale) SiO2 
 PCOD9246872
Probable space group: P 21/C
;
_chemical_formula_sum "Si O2"
_cell_formula_units_Z 32
_cell_length_a 12.336597
_cell_length_b 11.414888
_cell_length_c 12.465350
_cell_angle_alpha 90.000000
_cell_angle_beta 111.467471
_cell_angle_gamma 90.000000
_cell_volume 1633.602749
_symmetry_space_group_name_H-M "P 21/C"
_symmetry_group_IT_number 14
_symmetry_cell_setting 'monoclinic'
loop_
_space_group_symop_operation_xyz
x,y,z
-x,1/2+y,1/2-z
-x,-y,-z
x,1/2-y,1/2+z
loop_
_atom_site_type_symbol
_atom_site_label
_atom_site_fract_x
_atom_site_fract_y
_atom_site_fract_z
Si Si1 0.492004 0.788648 0.879438
Si Si2 0.142883 0.227570 0.471380
Si Si3 0.685928 0.477076 0.760890
Si Si4 0.288022 0.133768 0.179689
Si Si5 0.704709 0.385619 0.233074
Si Si6 0.874933 0.181709 0.376952
Si Si7 0.329066 0.209054 0.874732
Si Si8 0.232778 0.540803 0.987482
O O1 0.399599 0.892967 0.834772
O O2 0.600232 0.818842 0.843020
O O3 0.423567 0.671854 0.821008
O O4 0.550990 0.785363 0.016979
O O5 0.177737 0.294869 0.593550
O O6 0.218889 0.301808 0.413915
O O7 0.005959 0.218750 0.403456
O O8 0.186376 0.092484 0.481373
O O9 0.819081 0.430740 0.794976
O O10 0.670961 0.606470 0.712236
O O11 0.667103 0.458767 0.882586
O O12 0.308532 0.169712 0.308755
O O13 0.284359 0.994440 0.181954
O O14 0.790185 0.286284 0.310937
O O15 0.737091 0.422013 0.122144
O O16 0.856688 0.136062 0.492909
#
# Coordination Sequence:
#
# PCOD9246872 Si02
#       8
#     4   4   4   4   4   4   4   4
#     4  10  25  40  63  91 125 171 208 267 320 375
#     4  11  22  42  64  98 127 172 211 259 328 370
#     4   9  21  43  62  93 123 166 207 261 314 374
#     4  11  24  40  62  93 130 163 212 268 308 388
#     4  11  24  45  64  98 125 170 221 257 330 379
#     4   9  23  42  68  90 131 167 208 270 312 386
#     4  11  22  39  63  93 128 164 213 256 315 381
#     4  10  21  42  68  90 127 167 210 265 311 383
#
# _framework density 19.588605000000001
#
# number of rings (size 3 to 8) (size 9 to 14) (size 15 to 20)
#    0.750    1.000    2.500    0.750    3.500    3.000 
#    9.000    0.000    0.000    0.000    0.000    0.000 
#    0.000    0.000    0.000    0.000    0.000    0.000 
#
# Total GULP energy -178184.186901 kJ/mol
# GULP energy per Si atom -5568.255841 kJ/mol
# Density = 1.954402 g / cm^3
# Si number density = 19.588605 Si / 1000 Ang^3
#
#
#
# Elastic Constant Matrix: (Units=GPa)
#
#
# Indices 1 2 3 4 5 6 
#
# 1 31.8795 8.4620 0.4620 0.0000 11.2224 0.0000
# 2 8.4620 102.5568 17.8725 0.0000 3.8376 0.0000
# 3 0.4620 17.8725 35.1158 0.0000 -3.1308 0.0000
# 4 0.0000 0.0000 0.0000 155.1216 0.0000 6.1438
# 5 11.2224 3.8376 -3.1308 0.0000 23.4902 0.0000
# 6 0.0000 0.0000 0.0000 6.1438 0.0000 16.3722
#
#
#
# Elastic Compliance Matrix: (Units=1/GPa)
#
#
# Indices 1 2 3 4 5 6 
#
# 1 0.038361 -0.002327 -0.000932 0.000000 -0.018071 0.000000
# 2 -0.002327 0.010988 -0.005691 0.000000 -0.001442 0.000000
# 3 -0.000932 -0.005691 0.031887 0.000000 0.005625 0.000000
# 4 0.000000 0.000000 0.000000 0.006544 0.000000 -0.002456
# 5 -0.018071 -0.001442 0.005625 0.000000 0.052190 0.000000
# 6 0.000000 0.000000 0.000000 -0.002456 0.000000 0.062001
#
#
# Mechanical properties :
#
#
# Convention : Reuss Voigt Hill
#
# Bulk Modulus (GPa) = 15.78816 24.79387 20.29101
# Shear Modulus (GPa) = 20.74853 48.51384 34.63119
#
# Velocity S-wave (km/s) = 3.25809 4.98198 4.20923
# Velocity P-wave (km/s) = 4.71496 6.76596 5.83134
#
# Compressibility (1/GPa) = 0.06333860
#
# Stress axis : x y z
#
# Youngs Moduli (GPa) = 26.06836 91.00576 31.36049
#
# Poissons Ratio (x) = 0.21173 0.02922
# Poissons Ratio (y) = 0.06065 0.17846
# Poissons Ratio (z) = 0.02429 0.51787
#
# Static dielectric constant tensor:
#      x y z
#    x 1.695730 0.000000 -0.034830 
#    y 0.000000 1.681190 0.000000 
#    z -0.034830 0.000000 1.743550 
# 
# From -- ./inp_files/29392.got.cif
#   From: 2010.05.17/outbox.cif.g08.bks.cpg/sg14_15_cif.got.tgz:29392.got - 2010.06.03 17:49:19.
