data_PCOD9246562
_publ_section_title
;
Structure prediction by ZEFSAII (Michael W. Deem and Ramdas Pophale) SiO2 
 PCOD9246562
Probable space group: P 21/C
;
_chemical_formula_sum "Si O2"
_cell_formula_units_Z 32
_cell_length_a 23.199336
_cell_length_b 5.394351
_cell_length_c 10.883589
_cell_angle_alpha 90.000000
_cell_angle_beta 98.542063
_cell_angle_gamma 90.000000
_cell_volume 1346.921787
_symmetry_space_group_name_H-M "P 21/C"
_symmetry_group_IT_number 14
_symmetry_cell_setting 'monoclinic'
loop_
_space_group_symop_operation_xyz
x,y,z
-x,1/2+y,1/2-z
-x,-y,-z
x,1/2-y,1/2+z
loop_
_atom_site_type_symbol
_atom_site_label
_atom_site_fract_x
_atom_site_fract_y
_atom_site_fract_z
Si Si1 0.822772 0.433861 0.585438
Si Si2 0.235935 0.444542 0.860123
Si Si3 0.067871 0.476828 0.230864
Si Si4 0.432639 0.564354 0.468901
Si Si5 0.040487 0.972432 0.131388
Si Si6 0.733614 0.073216 0.871171
Si Si7 0.344473 0.213161 0.517975
Si Si8 0.617383 0.331044 0.799892
O O1 0.800807 0.717102 0.597980
O O2 0.889942 0.458296 0.642314
O O3 0.795206 0.347174 0.447100
O O4 0.796552 0.208531 0.658793
O O5 0.252748 0.370892 0.727615
O O6 0.297127 0.478940 0.951319
O O7 0.071740 0.707584 0.139731
O O8 0.002627 0.456641 0.264046
O O9 0.079794 0.214782 0.168036
O O10 0.500000 0.500000 0.500000
O O11 0.394498 0.312657 0.446592
O O12 0.411607 0.695976 0.589631
O O13 0.417556 0.704660 0.337149
O O14 0.000000 0.000000 0.000000
O O15 0.684864 0.252559 0.799924
O O16 0.697104 0.944611 0.967414
O O17 0.375930 0.111386 0.648773
#
# Coordination Sequence:
#
# PCOD9246562 Si02
#       8
#     4   4   4   4   4   4   4   4
#     4  11  24  39  60  98 132 168 217 279 334 397
#     4  11  23  40  64  93 134 175 223 268 340 411
#     4  10  22  39  61  94 128 163 222 277 324 402
#     4  11  27  43  68 102 133 178 234 299 359 425
#     4  10  21  41  66  87 123 176 217 268 336 404
#     4  10  23  39  64  92 124 174 215 268 336 413
#     4  10  22  42  67  93 126 177 221 281 343 426
#     4  11  23  45  70  93 136 176 233 285 363 429
#
# _framework density 23.757876
#
# number of rings (size 3 to 8) (size 9 to 14) (size 15 to 20)
#    0.000    1.500    1.250    2.625    7.000    3.500 
#    0.000    0.000    0.000    0.000    0.000    0.000 
#    0.000    0.000    0.000    0.000    0.000    0.000 
#
# Total GULP energy -178390.383968 kJ/mol
# GULP energy per Si atom -5574.699499 kJ/mol
# Density = 2.370380 g / cm^3
# Si number density = 23.757876 Si / 1000 Ang^3
#
#
#
# Elastic Constant Matrix: (Units=GPa)
#
#
# Indices 1 2 3 4 5 6 
#
# 1 60.7059 10.4212 15.9794 0.0000 17.9898 0.0000
# 2 10.4212 91.4749 14.5954 0.0000 0.8178 0.0000
# 3 15.9794 14.5954 102.2329 0.0000 15.3382 0.0000
# 4 0.0000 0.0000 0.0000 26.3127 0.0000 7.4651
# 5 17.9898 0.8178 15.3382 0.0000 29.0728 0.0000
# 6 0.0000 0.0000 0.0000 7.4651 0.0000 22.5781
#
#
#
# Elastic Compliance Matrix: (Units=1/GPa)
#
#
# Indices 1 2 3 4 5 6 
#
# 1 0.020733 -0.002075 -0.001117 0.000000 -0.012182 0.000000
# 2 -0.002075 0.011403 -0.001573 0.000000 0.001793 0.000000
# 3 -0.001117 -0.001573 0.010936 0.000000 -0.005034 0.000000
# 4 0.000000 0.000000 0.000000 0.041938 0.000000 -0.013866
# 5 -0.012182 0.001793 -0.005034 0.000000 0.044540 0.000000
# 6 0.000000 0.000000 0.000000 -0.013866 0.000000 0.048875
#
#
# Mechanical properties :
#
#
# Convention : Reuss Voigt Hill
#
# Bulk Modulus (GPa) = 29.81206 37.37842 33.59524
# Shear Modulus (GPa) = 25.10852 29.82058 27.46455
#
# Velocity S-wave (km/s) = 3.25445 3.54671 3.40372
# Velocity P-wave (km/s) = 5.16696 5.70433 5.44228
#
# Compressibility (1/GPa) = 0.03354347
#
# Stress axis : x y z
#
# Youngs Moduli (GPa) = 48.23243 87.69440 91.44139
#
# Poissons Ratio (x) = 0.18196 0.10212
# Poissons Ratio (y) = 0.10008 0.14381
# Poissons Ratio (z) = 0.05387 0.13791
#
# Static dielectric constant tensor:
#      x y z
#    x 1.925150 0.000000 -0.037750 
#    y 0.000000 2.028860 0.000000 
#    z -0.037750 0.000000 1.985180 
# 
# From -- ./inp_files/35599.got.cif
#   From: 2010.05.17/outbox.cif.g08.bks.cpg/sg14_18_cif.got.tgz:35599.got - 2010.06.03 17:49:19.
