data_PCOD9246838
_publ_section_title
;
Structure prediction by ZEFSAII (Michael W. Deem and Ramdas Pophale) SiO2 
 PCOD9246838
Probable space group: P 21/C
;
_chemical_formula_sum "Si O2"
_cell_formula_units_Z 24
_cell_length_a 21.281143
_cell_length_b 5.158410
_cell_length_c 10.295564
_cell_angle_alpha 90.000000
_cell_angle_beta 127.386698
_cell_angle_gamma 90.000000
_cell_volume 898.018428
_symmetry_space_group_name_H-M "P 21/C"
_symmetry_group_IT_number 14
_symmetry_cell_setting 'monoclinic'
loop_
_space_group_symop_operation_xyz
x,y,z
-x,1/2+y,1/2-z
-x,-y,-z
x,1/2-y,1/2+z
loop_
_atom_site_type_symbol
_atom_site_label
_atom_site_fract_x
_atom_site_fract_y
_atom_site_fract_z
Si Si1 0.080040 0.632068 0.055557
Si Si2 0.357647 0.156139 0.974320
Si Si3 0.571989 0.164671 0.531601
Si Si4 0.864978 0.445239 0.147819
Si Si5 0.286180 0.655355 0.610076
Si Si6 0.203322 0.238857 0.138664
O O1 0.083855 0.684999 0.905391
O O2 0.095724 0.879267 0.166933
O O3 0.147702 0.411066 0.160327
O O4 0.000000 0.500000 0.000000
O O5 0.427786 0.944988 0.038195
O O6 0.388226 0.449426 0.012248
O O7 0.290194 0.141062 0.777364
O O8 0.311524 0.074347 0.044966
O O9 0.500000 0.000000 0.500000
O O10 0.630234 0.224457 0.724252
O O11 0.845994 0.720140 0.057317
O O12 0.774611 0.339736 0.039147
O O13 0.231256 0.555888 0.661313
#
# Coordination Sequence:
#
# PCOD9246838 Si02
#       6
#     4   4   4   4   4   4
#     4  10  22  42  64  97 133 175 226 284 358 405
#     4  11  23  41  69  92 134 180 228 280 341 417
#     4  11  25  41  62 100 135 173 227 285 345 407
#     4  10  21  42  67  88 137 170 228 285 333 423
#     4  11  22  39  69  92 125 178 225 277 342 408
#     4   9  22  39  64  95 126 172 231 278 333 414
#
# _framework density 26.72551
#
# number of rings (size 3 to 8) (size 9 to 14) (size 15 to 20)
#    1.000    0.667    3.333    0.500    2.333    4.000 
#    0.000    1.667    0.000    0.000    0.000    0.000 
#    0.000    0.000    0.000    0.000    0.000    0.000 
#
# Total GULP energy -133715.976606 kJ/mol
# GULP energy per Si atom -5571.499025 kJ/mol
# Density = 2.666468 g / cm^3
# Si number density = 26.725510 Si / 1000 Ang^3
#
#
#
# Elastic Constant Matrix: (Units=GPa)
#
#
# Indices 1 2 3 4 5 6 
#
# 1 97.3124 -2.1632 10.6060 0.0000 -12.2679 0.0000
# 2 -2.1632 69.3429 3.4527 0.0000 2.3168 0.0000
# 3 10.6060 3.4527 47.7720 0.0000 -17.4667 0.0000
# 4 0.0000 0.0000 0.0000 26.6214 0.0000 -1.6892
# 5 -12.2679 2.3168 -17.4667 0.0000 52.0048 0.0000
# 6 0.0000 0.0000 0.0000 -1.6892 0.0000 41.0061
#
#
#
# Elastic Compliance Matrix: (Units=1/GPa)
#
#
# Indices 1 2 3 4 5 6 
#
# 1 0.010714 0.000354 -0.001694 0.000000 0.001943 0.000000
# 2 0.000354 0.014544 -0.001523 0.000000 -0.001076 0.000000
# 3 -0.001694 -0.001523 0.024279 0.000000 0.007823 0.000000
# 4 0.000000 0.000000 0.000000 0.037662 0.000000 0.001551
# 5 0.001943 -0.001076 0.007823 0.000000 0.022363 0.000000
# 6 0.000000 0.000000 0.000000 0.001551 0.000000 0.024451
#
#
# Mechanical properties :
#
#
# Convention : Reuss Voigt Hill
#
# Bulk Modulus (GPa) = 22.82580 26.46870 24.64725
# Shear Modulus (GPa) = 32.39562 37.42859 34.91211
#
# Velocity S-wave (km/s) = 3.48539 3.74636 3.61823
# Velocity P-wave (km/s) = 4.97560 5.35155 5.16699
#
# Compressibility (1/GPa) = 0.04381008
#
# Stress axis : x y z
#
# Youngs Moduli (GPa) = 93.33975 68.75736 41.18760
#
# Poissons Ratio (x) = -0.02432 0.06976
# Poissons Ratio (y) = -0.03301 0.06273
# Poissons Ratio (z) = 0.15810 0.10472
#
# Static dielectric constant tensor:
#      x y z
#    x 2.236380 0.000000 -0.083450 
#    y 0.000000 2.260660 0.000000 
#    z -0.083450 0.000000 2.093230 
# 
# From -- ./inp_files/35471.got.cif
#   From: 2010.05.17/outbox.cif.g08.bks.cpg/sg14_18_cif.got.tgz:35471.got - 2010.06.03 17:49:19.
