data_PCOD9246635
_publ_section_title
;
Structure prediction by ZEFSAII (Michael W. Deem and Ramdas Pophale) SiO2 
 PCOD9246635
Probable space group: P 21/C
;
_chemical_formula_sum "Si O2"
_cell_formula_units_Z 28
_cell_length_a 5.721666
_cell_length_b 18.834864
_cell_length_c 11.825975
_cell_angle_alpha 90.000000
_cell_angle_beta 81.152246
_cell_angle_gamma 90.000000
_cell_volume 1259.282244
_symmetry_space_group_name_H-M "P 21/C"
_symmetry_group_IT_number 14
_symmetry_cell_setting 'monoclinic'
loop_
_space_group_symop_operation_xyz
x,y,z
-x,1/2+y,1/2-z
-x,-y,-z
x,1/2-y,1/2+z
loop_
_atom_site_type_symbol
_atom_site_label
_atom_site_fract_x
_atom_site_fract_y
_atom_site_fract_z
Si Si1 0.109168 0.902760 0.213854
Si Si2 0.726448 0.638467 0.923134
Si Si3 0.794391 0.884160 0.667852
Si Si4 0.409951 0.207558 0.116567
Si Si5 0.065405 0.836656 0.987438
Si Si6 0.887490 0.047859 0.189820
Si Si7 0.552037 0.030560 0.670964
O O1 0.368780 0.909335 0.245257
O O2 0.945449 0.890668 0.334913
O O3 0.053865 0.846050 0.122621
O O4 0.065494 0.981862 0.169328
O O5 0.640916 0.709322 0.867955
O O6 0.530654 0.575984 0.929995
O O7 0.796950 0.653690 0.047114
O O8 0.626117 0.841696 0.768828
O O9 0.031178 0.893878 0.723524
O O10 0.736380 0.966750 0.640403
O O11 0.685834 0.203306 0.057898
O O12 0.190359 0.184398 0.048063
O O13 0.122926 0.912873 0.927184
O O14 0.655140 0.011935 0.253241
#
# Coordination Sequence:
#
# PCOD9246635 Si02
#       7
#     4   4   4   4   4   4   4
#     4  10  24  39  68 101 138 172 232 289 348 410
#     4  11  26  42  66 101 138 186 233 292 348 415
#     4  10  22  45  68  96 140 180 236 289 345 418
#     4  11  27  46  70 100 136 193 233 285 354 413
#     4  11  24  46  70 100 141 180 234 279 349 416
#     4   9  20  41  67 101 130 180 224 289 348 406
#     4  10  21  41  68 104 132 182 234 285 352 406
#
# _framework density 22.234888000000002
#
# number of rings (size 3 to 8) (size 9 to 14) (size 15 to 20)
#    0.000    1.714    1.429    0.857    8.000    6.857 
#    0.000    0.000    0.000    0.000    0.000    0.000 
#    0.000    0.000    0.000    0.000    0.000    0.000 
#
# Total GULP energy -155952.759791 kJ/mol
# GULP energy per Si atom -5569.741421 kJ/mol
# Density = 2.218428 g / cm^3
# Si number density = 22.234888 Si / 1000 Ang^3
#
#
#
# Elastic Constant Matrix: (Units=GPa)
#
#
# Indices 1 2 3 4 5 6 
#
# 1 51.0247 -1.0727 8.7171 0.0000 11.0153 0.0000
# 2 -1.0727 72.2944 13.6181 0.0000 6.3284 0.0000
# 3 8.7171 13.6181 89.9506 0.0000 15.8405 0.0000
# 4 0.0000 0.0000 0.0000 20.8120 0.0000 4.3394
# 5 11.0153 6.3284 15.8405 0.0000 14.2544 0.0000
# 6 0.0000 0.0000 0.0000 4.3394 0.0000 17.2377
#
#
#
# Elastic Compliance Matrix: (Units=1/GPa)
#
#
# Indices 1 2 3 4 5 6 
#
# 1 0.023879 0.001956 0.000985 0.000000 -0.020416 0.000000
# 2 0.001956 0.014677 -0.001241 0.000000 -0.006649 0.000000
# 3 0.000985 -0.001241 0.013983 0.000000 -0.015749 0.000000
# 4 0.000000 0.000000 0.000000 0.050711 0.000000 -0.012766
# 5 -0.020416 -0.006649 -0.015749 0.000000 0.106384 0.000000
# 6 0.000000 0.000000 0.000000 -0.012766 0.000000 0.061226
#
#
# Mechanical properties :
#
#
# Convention : Reuss Voigt Hill
#
# Bulk Modulus (GPa) = 17.87658 28.42162 23.14910
# Shear Modulus (GPa) = 17.47605 23.26130 20.36867
#
# Velocity S-wave (km/s) = 2.80656 3.23795 3.02995
# Velocity P-wave (km/s) = 4.30810 5.17584 4.76178
#
# Compressibility (1/GPa) = 0.05593910
#
# Stress axis : x y z
#
# Youngs Moduli (GPa) = 41.87864 68.13348 71.51480
#
# Poissons Ratio (x) = -0.13326 -0.07045
# Poissons Ratio (y) = -0.08191 0.08873
# Poissons Ratio (z) = -0.04125 0.08453
#
# Static dielectric constant tensor:
#      x y z
#    x 1.928610 0.000000 0.050650 
#    y 0.000000 1.842320 0.000000 
#    z 0.050650 0.000000 1.852970 
# 
# From -- ./inp_files/21565.got.cif
#   From: 2010.05.17/outbox.cif.g08.bks.cpg/sg14_11_cif.got.tgz:21565.got - 2010.06.03 17:49:19.
