data_PCOD9246220
_publ_section_title
;
Structure prediction by ZEFSAII (Michael W. Deem and Ramdas Pophale) SiO2 
 PCOD9246220
Probable space group: P 21/C
;
_chemical_formula_sum "Si O2"
_cell_formula_units_Z 32
_cell_length_a 10.713487
_cell_length_b 10.819748
_cell_length_c 10.827540
_cell_angle_alpha 90.000000
_cell_angle_beta 96.833253
_cell_angle_gamma 90.000000
_cell_volume 1246.183001
_symmetry_space_group_name_H-M "P 21/C"
_symmetry_group_IT_number 14
_symmetry_cell_setting 'monoclinic'
loop_
_space_group_symop_operation_xyz
x,y,z
-x,1/2+y,1/2-z
-x,-y,-z
x,1/2-y,1/2+z
loop_
_atom_site_type_symbol
_atom_site_label
_atom_site_fract_x
_atom_site_fract_y
_atom_site_fract_z
Si Si1 0.586574 0.327262 0.394999
Si Si2 0.880426 0.884593 0.075679
Si Si3 0.936930 0.295717 0.025604
Si Si4 0.437871 0.171722 0.534717
Si Si5 0.342646 0.083558 0.138374
Si Si6 0.060829 0.502816 0.165500
Si Si7 0.214323 0.386205 0.878982
Si Si8 0.310200 0.719445 0.854150
O O1 0.468372 0.239407 0.407533
O O2 0.561704 0.470401 0.367944
O O3 0.653002 0.321441 0.537510
O O4 0.667925 0.274950 0.289991
O O5 0.776420 0.930011 0.967336
O O6 0.100662 0.020403 0.809948
O O7 0.007770 0.832541 0.022952
O O8 0.823508 0.757669 0.124872
O O9 0.057372 0.369876 0.096243
O O10 0.834085 0.294328 0.122442
O O11 0.883524 0.385007 0.909661
O O12 0.403866 0.284674 0.620252
O O13 0.312631 0.093864 0.502601
O O14 0.573840 0.124605 0.594154
O O15 0.284509 0.075735 0.264742
O O16 0.915168 0.541597 0.142926
#
# Coordination Sequence:
#
# PCOD9246220 Si02
#       8
#     4   4   4   4   4   4   4   4
#     4  10  23  42  65 101 129 178 217 279 333 395
#     4  10  23  40  62  99 130 181 216 277 334 390
#     4  10  22  41  64  93 132 175 220 276 331 400
#     4   9  22  42  66  90 129 177 216 276 335 384
#     4  11  21  40  65  97 130 171 229 271 324 407
#     4  10  22  41  64  92 131 176 226 272 330 400
#     4  10  21  40  65  92 133 169 223 277 328 393
#     4  10  23  41  69  93 132 172 219 276 338 387
#
# _framework density 25.678412999999999
#
# number of rings (size 3 to 8) (size 9 to 14) (size 15 to 20)
#    0.750    1.250    0.000    2.625    3.500    2.500 
#    2.250    3.750    0.000    0.000    0.000    0.000 
#    0.000    0.000    0.000    0.000    0.000    0.000 
#
# Total GULP energy -178483.196202 kJ/mol
# GULP energy per Si atom -5577.599881 kJ/mol
# Density = 2.561997 g / cm^3
# Si number density = 25.678413 Si / 1000 Ang^3
#
#
#
# Elastic Constant Matrix: (Units=GPa)
#
#
# Indices 1 2 3 4 5 6 
#
# 1 99.4361 13.7783 27.2128 0.0000 -11.4276 0.0000
# 2 13.7783 36.1990 25.2807 0.0000 9.4590 0.0000
# 3 27.2128 25.2807 116.8540 0.0000 -10.6283 0.0000
# 4 0.0000 0.0000 0.0000 22.7885 0.0000 -9.1953
# 5 -11.4276 9.4590 -10.6283 0.0000 44.0258 0.0000
# 6 0.0000 0.0000 0.0000 -9.1953 0.0000 24.9180
#
#
#
# Elastic Compliance Matrix: (Units=1/GPa)
#
#
# Indices 1 2 3 4 5 6 
#
# 1 0.011447 -0.004300 -0.001412 0.000000 0.003554 0.000000
# 2 -0.004300 0.037954 -0.008234 0.000000 -0.011258 0.000000
# 3 -0.001412 -0.008234 0.011038 0.000000 0.004067 0.000000
# 4 0.000000 0.000000 0.000000 0.051559 0.000000 0.019027
# 5 0.003554 -0.011258 0.004067 0.000000 0.027037 0.000000
# 6 0.000000 0.000000 0.000000 0.019027 0.000000 0.047153
#
#
# Mechanical properties :
#
#
# Convention : Reuss Voigt Hill
#
# Bulk Modulus (GPa) = 30.72425 42.78142 36.75284
# Shear Modulus (GPa) = 22.22928 30.76094 26.49511
#
# Velocity S-wave (km/s) = 2.94544 3.46487 3.21566
# Velocity P-wave (km/s) = 4.85370 5.71872 5.30387
#
# Compressibility (1/GPa) = 0.03254758
#
# Stress axis : x y z
#
# Youngs Moduli (GPa) = 87.35555 26.34794 90.59739
#
# Poissons Ratio (x) = 0.11328 0.12796
# Poissons Ratio (y) = 0.37559 0.74596
# Poissons Ratio (z) = 0.12338 0.21694
#
# Static dielectric constant tensor:
#      x y z
#    x 2.046840 0.000000 -0.021250 
#    y 0.000000 2.112600 0.000000 
#    z -0.021250 0.000000 2.049530 
# 
# From -- ./inp_files/29088.got.cif
#   From: 2010.05.17/outbox.cif.g08.bks.cpg/sg14_15_cif.got.tgz:29088.got - 2010.06.03 17:49:19.
