data_PCOD9246970
_publ_section_title
;
Structure prediction by ZEFSAII (Michael W. Deem and Ramdas Pophale) SiO2 
 PCOD9246970
Probable space group: P 21/C
;
_chemical_formula_sum "Si O2"
_cell_formula_units_Z 24
_cell_length_a 5.860080
_cell_length_b 14.140294
_cell_length_c 14.295748
_cell_angle_alpha 90.000000
_cell_angle_beta 86.505736
_cell_angle_gamma 90.000000
_cell_volume 1182.389929
_symmetry_space_group_name_H-M "P 21/C"
_symmetry_group_IT_number 14
_symmetry_cell_setting 'monoclinic'
loop_
_space_group_symop_operation_xyz
x,y,z
-x,1/2+y,1/2-z
-x,-y,-z
x,1/2-y,1/2+z
loop_
_atom_site_type_symbol
_atom_site_label
_atom_site_fract_x
_atom_site_fract_y
_atom_site_fract_z
Si Si1 0.883716 0.253293 0.036342
Si Si2 0.230672 0.293151 0.174980
Si Si3 0.609875 0.156296 0.210989
Si Si4 0.825001 0.191422 0.832326
Si Si5 0.255608 0.965779 0.461056
Si Si6 0.449824 0.958024 0.266030
O O1 0.763109 0.189890 0.119380
O O2 0.751653 0.352130 0.027757
O O3 0.124586 0.283600 0.075302
O O4 0.894711 0.201807 0.937404
O O5 0.358541 0.196184 0.195435
O O6 0.401610 0.379579 0.183826
O O7 0.035826 0.312403 0.255900
O O8 0.692105 0.214891 0.299647
O O9 0.598611 0.045547 0.228205
O O10 0.672576 0.099565 0.813625
O O11 0.272953 0.991290 0.350207
O O12 0.500000 0.000000 0.500000
O O13 0.000000 0.000000 0.500000
#
# Coordination Sequence:
#
# PCOD9246970 Si02
#       6
#     4   4   4   4   4   4
#     4  11  23  43  64  99 133 177 232 284 346 414
#     4  10  21  43  64  91 138 171 223 288 334 431
#     4  10  23  42  66  91 136 177 222 282 353 414
#     4  10  23  40  65  93 131 178 224 283 347 416
#     4  12  25  40  70 103 137 175 238 291 343 415
#     4  11  23  44  64  98 135 177 225 289 346 413
#
# _framework density 20.297872999999999
#
# number of rings (size 3 to 8) (size 9 to 14) (size 15 to 20)
#    0.000    1.333    5.000    2.000    2.333    6.000 
#    0.000    1.667    0.000    0.000    0.000    0.000 
#    0.000    0.000    0.000    0.000    0.000    0.000 
#
# Total GULP energy -133941.689529 kJ/mol
# GULP energy per Si atom -5580.903730 kJ/mol
# Density = 2.025167 g / cm^3
# Si number density = 20.297873 Si / 1000 Ang^3
#
#
#
# Elastic Constant Matrix: (Units=GPa)
#
#
# Indices 1 2 3 4 5 6 
#
# 1 76.5364 15.1613 23.4326 0.0000 3.7639 0.0000
# 2 15.1613 72.9034 30.9404 0.0000 0.6241 0.0000
# 3 23.4326 30.9404 116.8957 0.0000 15.5822 0.0000
# 4 0.0000 0.0000 0.0000 21.7197 0.0000 -7.0689
# 5 3.7639 0.6241 15.5822 0.0000 18.7365 0.0000
# 6 0.0000 0.0000 0.0000 -7.0689 0.0000 12.4821
#
#
#
# Elastic Compliance Matrix: (Units=1/GPa)
#
#
# Indices 1 2 3 4 5 6 
#
# 1 0.014180 -0.002015 -0.002180 0.000000 -0.000969 0.000000
# 2 -0.002015 0.015917 -0.004265 0.000000 0.003422 0.000000
# 3 -0.002180 -0.004265 0.011295 0.000000 -0.008814 0.000000
# 4 0.000000 0.000000 0.000000 0.056445 0.000000 0.031966
# 5 -0.000969 0.003422 -0.008814 0.000000 0.060783 0.000000
# 6 0.000000 0.000000 0.000000 0.031966 0.000000 0.098218
#
#
# Mechanical properties :
#
#
# Convention : Reuss Voigt Hill
#
# Bulk Modulus (GPa) = 40.86422 45.04492 42.95457
# Shear Modulus (GPa) = 17.73581 23.70772 20.72177
#
# Velocity S-wave (km/s) = 2.95918 3.42130 3.19859
# Velocity P-wave (km/s) = 5.64372 6.15200 5.90334
#
# Compressibility (1/GPa) = 0.02447128
#
# Stress axis : x y z
#
# Youngs Moduli (GPa) = 70.52195 62.82707 88.53181
#
# Poissons Ratio (x) = 0.12663 0.19299
# Poissons Ratio (y) = 0.14214 0.37759
# Poissons Ratio (z) = 0.15373 0.26796
#
# Static dielectric constant tensor:
#      x y z
#    x 1.786450 0.000000 -0.005140 
#    y 0.000000 1.709390 0.000000 
#    z -0.005140 0.000000 1.727240 
# 
# From -- ./inp_files/37294.got.cif
#   From: 2010.05.17/outbox.cif.g08.bks.cpg/sg14_19_cif.got.tgz:37294.got - 2010.06.03 17:49:19.
