data_PCOD9246787
_publ_section_title
;
Structure prediction by ZEFSAII (Michael W. Deem and Ramdas Pophale) SiO2 
 PCOD9246787
Probable space group: P 21/C
;
_chemical_formula_sum "Si O2"
_cell_formula_units_Z 32
_cell_length_a 5.408842
_cell_length_b 11.294265
_cell_length_c 22.824200
_cell_angle_alpha 90.000000
_cell_angle_beta 72.981568
_cell_angle_gamma 90.000000
_cell_volume 1333.249439
_symmetry_space_group_name_H-M "P 21/C"
_symmetry_group_IT_number 14
_symmetry_cell_setting 'monoclinic'
loop_
_space_group_symop_operation_xyz
x,y,z
-x,1/2+y,1/2-z
-x,-y,-z
x,1/2-y,1/2+z
loop_
_atom_site_type_symbol
_atom_site_label
_atom_site_fract_x
_atom_site_fract_y
_atom_site_fract_z
Si Si1 0.012120 0.122004 0.462154
Si Si2 0.943679 0.862847 0.714642
Si Si3 0.369580 0.047583 0.925586
Si Si4 0.521420 0.507250 0.810502
Si Si5 0.144945 0.099972 0.149198
Si Si6 0.451137 0.954950 0.569582
Si Si7 0.045510 0.335530 0.539409
Si Si8 0.231147 0.119733 0.812089
O O1 0.826711 0.105793 0.419643
O O2 0.317177 0.133064 0.430369
O O3 0.930373 0.231417 0.507952
O O4 0.000000 0.000000 0.500000
O O5 0.741699 0.942952 0.691575
O O6 0.809904 0.854817 0.788761
O O7 0.947562 0.730748 0.689261
O O8 0.229740 0.918058 0.703408
O O9 0.345295 0.127539 0.869072
O O10 0.631372 0.977047 0.896771
O O11 0.307586 0.122668 0.987948
O O12 0.148121 0.946333 0.943591
O O13 0.522463 0.547783 0.878717
O O14 0.576022 0.602879 0.756046
O O15 0.085046 0.198695 0.104450
O O16 0.919566 0.004118 0.173817
O O17 0.500000 0.000000 0.500000
#
# Coordination Sequence:
#
# PCOD9246787 Si02
#       8
#     4   4   4   4   4   4   4   4
#     4  10  23  43  63  99 134 172 219 270 334 402
#     4  11  25  41  69  98 130 176 222 281 338 396
#     4  10  21  42  64  96 134 173 229 272 343 398
#     4  11  24  44  64  97 132 172 222 279 332 399
#     4  10  22  44  65  98 135 176 230 280 338 410
#     4  10  23  42  64  91 133 174 219 268 330 405
#     4  10  23  38  67  98 135 178 219 284 336 401
#     4  10  24  42  65  96 131 176 226 279 335 404
#
# _framework density 24.001508999999999
#
# number of rings (size 3 to 8) (size 9 to 14) (size 15 to 20)
#    0.000    1.750    1.250    1.125    7.000    2.000 
#    2.250    1.250    0.000    0.000    0.000    0.000 
#    0.000    0.000    0.000    0.000    0.000    0.000 
#
# Total GULP energy -178497.033645 kJ/mol
# GULP energy per Si atom -5578.032301 kJ/mol
# Density = 2.394688 g / cm^3
# Si number density = 24.001509 Si / 1000 Ang^3
#
#
#
# Elastic Constant Matrix: (Units=GPa)
#
#
# Indices 1 2 3 4 5 6 
#
# 1 111.7279 -8.7024 17.9040 0.0000 5.4285 0.0000
# 2 -8.7024 36.2275 10.1616 0.0000 6.5298 0.0000
# 3 17.9040 10.1616 144.8696 0.0000 19.2993 0.0000
# 4 0.0000 0.0000 0.0000 27.9584 0.0000 1.2756
# 5 5.4285 6.5298 19.2993 0.0000 36.1952 0.0000
# 6 0.0000 0.0000 0.0000 1.2756 0.0000 10.2899
#
#
#
# Elastic Compliance Matrix: (Units=1/GPa)
#
#
# Indices 1 2 3 4 5 6 
#
# 1 0.009424 0.002830 -0.001192 0.000000 -0.001289 0.000000
# 2 0.002830 0.029654 -0.001788 0.000000 -0.004821 0.000000
# 3 -0.001192 -0.001788 0.007652 0.000000 -0.003579 0.000000
# 4 0.000000 0.000000 0.000000 0.035971 0.000000 -0.004459
# 5 -0.001289 -0.004821 -0.003579 0.000000 0.030599 0.000000
# 6 0.000000 0.000000 0.000000 -0.004459 0.000000 0.097736
#
#
# Mechanical properties :
#
#
# Convention : Reuss Voigt Hill
#
# Bulk Modulus (GPa) = 21.53658 36.83906 29.18782
# Shear Modulus (GPa) = 22.04476 33.11949 27.58212
#
# Velocity S-wave (km/s) = 3.03392 3.71872 3.39364
# Velocity P-wave (km/s) = 4.61144 5.81554 5.24814
#
# Compressibility (1/GPa) = 0.04643263
#
# Stress axis : x y z
#
# Youngs Moduli (GPa) = 106.10827 33.72272 130.68159
#
# Poissons Ratio (x) = -0.09545 0.15572
# Poissons Ratio (y) = -0.30033 0.23360
# Poissons Ratio (z) = 0.12644 0.06028
#
# Static dielectric constant tensor:
#      x y z
#    x 2.060390 0.000000 -0.119100 
#    y 0.000000 1.947070 0.000000 
#    z -0.119100 0.000000 2.192990 
# 
# From -- ./inp_files/71297.got.cif
#   From: 2010.05.17/outbox.cif.g08.bks.cpg/sg14_36_cif.got.tgz:71297.got - 2010.06.03 17:49:19.
