data_PCOD9246439
_publ_section_title
;
Structure prediction by ZEFSAII (Michael W. Deem and Ramdas Pophale) SiO2 
 PCOD9246439
Probable space group: P 21/C
;
_chemical_formula_sum "Si O2"
_cell_formula_units_Z 28
_cell_length_a 7.693946
_cell_length_b 14.076378
_cell_length_c 11.957024
_cell_angle_alpha 90.000000
_cell_angle_beta 115.881907
_cell_angle_gamma 90.000000
_cell_volume 1165.088150
_symmetry_space_group_name_H-M "P 21/C"
_symmetry_group_IT_number 14
_symmetry_cell_setting 'monoclinic'
loop_
_space_group_symop_operation_xyz
x,y,z
-x,1/2+y,1/2-z
-x,-y,-z
x,1/2-y,1/2+z
loop_
_atom_site_type_symbol
_atom_site_label
_atom_site_fract_x
_atom_site_fract_y
_atom_site_fract_z
Si Si1 0.507319 0.719506 0.162618
Si Si2 0.866460 0.436186 0.728171
Si Si3 0.153217 0.807993 0.978389
Si Si4 0.387168 0.417979 0.204571
Si Si5 0.189250 0.535482 0.670877
Si Si6 0.250064 0.160374 0.086168
Si Si7 0.796625 0.829932 0.566716
O O1 0.298172 0.723392 0.046661
O O2 0.570058 0.829491 0.199775
O O3 0.544919 0.680192 0.297632
O O4 0.648387 0.656818 0.126368
O O5 0.774098 0.373686 0.602477
O O6 0.723414 0.500489 0.759185
O O7 0.026970 0.503733 0.712473
O O8 0.992362 0.364083 0.839123
O O9 0.144617 0.869876 0.089450
O O10 0.926474 0.790371 0.891421
O O11 0.597565 0.450286 0.220701
O O12 0.268178 0.383430 0.063656
O O13 0.210643 0.450574 0.585686
O O14 0.232018 0.218107 0.967970
#
# Coordination Sequence:
#
# PCOD9246439 Si02
#       7
#     4   4   4   4   4   4   4
#     4  10  22  42  61  93 129 165 212 264 323 375
#     4  11  22  43  67  95 128 172 214 261 326 381
#     4  10  22  40  64  98 120 172 221 256 323 382
#     4  10  25  41  64  96 125 174 215 260 326 383
#     4  10  22  42  65  94 127 166 222 265 309 391
#     4  10  21  41  62  90 132 163 211 274 312 377
#     4  11  23  42  61  94 134 162 214 269 319 383
#
# _framework density 24.032516999999999
#
# number of rings (size 3 to 8) (size 9 to 14) (size 15 to 20)
#    0.000    1.714    2.857    2.143    6.000    2.857 
#   10.286    0.000    0.000    0.000    0.000    0.000 
#    0.000    0.000    0.000    0.000    0.000    0.000 
#
# Total GULP energy -156436.718983 kJ/mol
# GULP energy per Si atom -5587.025678 kJ/mol
# Density = 2.397782 g / cm^3
# Si number density = 24.032517 Si / 1000 Ang^3
#
#
#
# Elastic Constant Matrix: (Units=GPa)
#
#
# Indices 1 2 3 4 5 6 
#
# 1 74.0153 25.0342 35.0390 0.0000 6.5655 0.0000
# 2 25.0342 48.8372 10.2568 0.0000 2.3252 0.0000
# 3 35.0390 10.2568 86.8535 0.0000 6.8808 0.0000
# 4 0.0000 0.0000 0.0000 24.6203 0.0000 5.3857
# 5 6.5655 2.3252 6.8808 0.0000 31.7755 0.0000
# 6 0.0000 0.0000 0.0000 5.3857 0.0000 44.4867
#
#
#
# Elastic Compliance Matrix: (Units=1/GPa)
#
#
# Indices 1 2 3 4 5 6 
#
# 1 0.019842 -0.008643 -0.006827 0.000000 -0.001989 0.000000
# 2 -0.008643 0.024794 0.000571 0.000000 -0.000152 0.000000
# 3 -0.006827 0.000571 0.014338 0.000000 -0.001736 0.000000
# 4 0.000000 0.000000 0.000000 0.041722 0.000000 -0.005051
# 5 -0.001989 -0.000152 -0.001736 0.000000 0.032269 0.000000
# 6 0.000000 0.000000 0.000000 -0.005051 0.000000 0.023090
#
#
# Mechanical properties :
#
#
# Convention : Reuss Voigt Hill
#
# Bulk Modulus (GPa) = 34.27400 38.92957 36.60178
# Shear Modulus (GPa) = 25.56534 29.46823 27.51678
#
# Velocity S-wave (km/s) = 3.26510 3.50549 3.38743
# Velocity P-wave (km/s) = 5.33920 5.71126 5.52836
#
# Compressibility (1/GPa) = 0.02917664
#
# Stress axis : x y z
#
# Youngs Moduli (GPa) = 50.39777 40.33253 69.74571
#
# Poissons Ratio (x) = 0.34858 0.47613
# Poissons Ratio (y) = 0.43558 -0.03981
# Poissons Ratio (z) = 0.34405 -0.02302
#
# Static dielectric constant tensor:
#      x y z
#    x 1.982060 0.000000 0.019500 
#    y 0.000000 1.938520 0.000000 
#    z 0.019500 0.000000 1.971840 
# 
# From -- ./inp_files/25347.got.cif
#   From: 2010.05.17/outbox.cif.g08.bks.cpg/sg14_13_cif.got.tgz:25347.got - 2010.06.03 17:49:19.
