data_PCOD9246847
_publ_section_title
;
Structure prediction by ZEFSAII (Michael W. Deem and Ramdas Pophale) SiO2 
 PCOD9246847
Probable space group: P 21/C
;
_chemical_formula_sum "Si O2"
_cell_formula_units_Z 28
_cell_length_a 9.814811
_cell_length_b 22.592084
_cell_length_c 5.257762
_cell_angle_alpha 90.000000
_cell_angle_beta 73.643697
_cell_angle_gamma 90.000000
_cell_volume 1118.657850
_symmetry_space_group_name_H-M "P 21/C"
_symmetry_group_IT_number 14
_symmetry_cell_setting 'monoclinic'
loop_
_space_group_symop_operation_xyz
x,y,z
-x,1/2+y,1/2-z
-x,-y,-z
x,1/2-y,1/2+z
loop_
_atom_site_type_symbol
_atom_site_label
_atom_site_fract_x
_atom_site_fract_y
_atom_site_fract_z
Si Si1 0.442283 0.596019 0.929898
Si Si2 0.627063 0.709313 0.903042
Si Si3 0.783697 0.406836 0.331685
Si Si4 0.654914 0.509716 0.688223
Si Si5 0.053816 0.034224 0.721746
Si Si6 0.088216 0.282055 0.419791
Si Si7 0.249991 0.713153 0.427215
O O1 0.515989 0.656809 0.955456
O O2 0.284172 0.605690 0.905284
O O3 0.549344 0.562743 0.673612
O O4 0.430617 0.544961 0.143751
O O5 0.612861 0.755209 0.674781
O O6 0.782875 0.680053 0.763271
O O7 0.734512 0.473332 0.425906
O O8 0.954498 0.407348 0.259583
O O9 0.714030 0.355391 0.540879
O O10 0.777025 0.534002 0.818542
O O11 0.000000 0.000000 0.500000
O O12 0.000000 0.000000 0.000000
O O13 0.111213 0.226644 0.209563
O O14 0.921615 0.208971 0.982492
O O15 0.292107 0.747704 0.150345
#
# Coordination Sequence:
#
# PCOD9246847 Si02
#       7
#     4   4   4   4   4   4   4
#     4  11  24  42  70  93 139 177 221 281 331 402
#     4  10  23  42  65  97 131 174 222 268 331 401
#     4  11  24  41  69  94 139 172 228 278 337 400
#     4  10  24  45  65  99 132 179 231 268 341 394
#     4  10  21  42  67  93 126 166 215 272 321 387
#     4   8  16  36  58  85 124 162 213 260 311 386
#     4  10  23  39  65  97 132 173 217 276 340 393
#
# _framework density 25.029995
#
# number of rings (size 3 to 8) (size 9 to 14) (size 15 to 20)
#    0.000    2.000    1.429    0.429    6.000    1.143 
#    0.000    0.000    0.000    0.000    0.000    0.000 
#    0.000    0.000    0.000    0.000    0.000    0.000 
#
# Total GULP energy -156133.228542 kJ/mol
# GULP energy per Si atom -5576.186734 kJ/mol
# Density = 2.497303 g / cm^3
# Si number density = 25.029995 Si / 1000 Ang^3
#
#
#
# Elastic Constant Matrix: (Units=GPa)
#
#
# Indices 1 2 3 4 5 6 
#
# 1 108.2162 30.2880 24.3900 0.0000 3.4341 0.0000
# 2 30.2880 107.2699 37.4650 0.0000 5.3878 0.0000
# 3 24.3900 37.4650 110.9098 0.0000 20.8984 0.0000
# 4 0.0000 0.0000 0.0000 25.7939 0.0000 -7.6839
# 5 3.4341 5.3878 20.8984 0.0000 44.8185 0.0000
# 6 0.0000 0.0000 0.0000 -7.6839 0.0000 38.0674
#
#
#
# Elastic Compliance Matrix: (Units=1/GPa)
#
#
# Indices 1 2 3 4 5 6 
#
# 1 0.010235 -0.002382 -0.001483 0.000000 0.000193 0.000000
# 2 -0.002382 0.011131 -0.003309 0.000000 0.000387 0.000000
# 3 -0.001483 -0.003309 0.011362 0.000000 -0.004787 0.000000
# 4 0.000000 0.000000 0.000000 0.041249 0.000000 0.008326
# 5 0.000193 0.000387 -0.004787 0.000000 0.024483 0.000000
# 6 0.000000 0.000000 0.000000 0.008326 0.000000 0.027950
#
#
# Mechanical properties :
#
#
# Convention : Reuss Voigt Hill
#
# Bulk Modulus (GPa) = 54.40392 56.74244 55.57318
# Shear Modulus (GPa) = 34.04017 37.35282 35.69650
#
# Velocity S-wave (km/s) = 3.69178 3.86725 3.78054
# Velocity P-wave (km/s) = 6.32100 6.53145 6.42709
#
# Compressibility (1/GPa) = 0.01838103
#
# Stress axis : x y z
#
# Youngs Moduli (GPa) = 97.69969 89.83797 88.01120
#
# Poissons Ratio (x) = 0.21398 0.13050
# Poissons Ratio (y) = 0.23271 0.29125
# Poissons Ratio (z) = 0.14486 0.29730
#
# Static dielectric constant tensor:
#      x y z
#    x 2.133720 0.000000 -0.079020 
#    y 0.000000 1.973720 0.000000 
#    z -0.079020 0.000000 2.053940 
# 
# From -- ./inp_files/2834.got.cif
#   From: 2010.05.17/outbox.cif.g08.bks.cpg/sg14_2_cif.got.tgz:2834.got - 2010.06.03 17:49:19.
