data_PCOD9246877
_publ_section_title
;
Structure prediction by ZEFSAII (Michael W. Deem and Ramdas Pophale) SiO2 
 PCOD9246877
Probable space group: P 21/C
;
_chemical_formula_sum "Si O2"
_cell_formula_units_Z 28
_cell_length_a 17.428343
_cell_length_b 11.423767
_cell_length_c 19.645262
_cell_angle_alpha 90.000000
_cell_angle_beta 18.951401
_cell_angle_gamma 90.000000
_cell_volume 1270.263636
_symmetry_space_group_name_H-M "P 21/C"
_symmetry_group_IT_number 14
_symmetry_cell_setting 'monoclinic'
loop_
_space_group_symop_operation_xyz
x,y,z
-x,1/2+y,1/2-z
-x,-y,-z
x,1/2-y,1/2+z
loop_
_atom_site_type_symbol
_atom_site_label
_atom_site_fract_x
_atom_site_fract_y
_atom_site_fract_z
Si Si1 0.548005 0.038204 0.537091
Si Si2 0.932627 0.719179 0.157399
Si Si3 0.648201 0.388608 0.679827
Si Si4 0.193059 0.509942 0.898606
Si Si5 0.912778 0.584117 0.398893
Si Si6 0.373598 0.313044 0.468900
Si Si7 0.242110 0.243898 0.846545
O O1 0.465593 0.167678 0.632167
O O2 0.827351 0.029645 0.316430
O O3 0.500000 0.000000 0.500000
O O4 0.389248 0.953314 0.716851
O O5 0.693683 0.731684 0.399989
O O6 0.904066 0.742503 0.100933
O O7 0.114010 0.816233 0.028419
O O8 0.042827 0.589883 0.076692
O O9 0.689393 0.494983 0.593989
O O10 0.455954 0.286959 0.846772
O O11 0.419588 0.591878 0.694282
O O12 0.276157 0.377567 0.843374
O O13 0.000000 0.500000 0.000000
O O14 0.863188 0.641743 0.368217
O O15 0.885676 0.671215 0.486394
#
# Coordination Sequence:
#
# PCOD9246877 Si02
#       7
#     4   4   4   4   4   4   4
#     4  11  22  40  67  97 129 169 223 271 325 393
#     4  10  21  42  68  93 127 173 220 268 328 393
#     4  10  22  42  62  87 128 167 214 265 335 387
#     4   9  22  42  66  94 130 171 216 271 329 394
#     4  11  25  40  62  98 130 173 219 273 338 393
#     4  11  24  41  66  94 131 174 220 274 338 396
#     4  10  22  40  65  96 131 166 219 271 326 390
#
# _framework density 22.042667999999999
#
# number of rings (size 3 to 8) (size 9 to 14) (size 15 to 20)
#    0.000    1.714    0.000    3.429    2.000   12.571 
#    5.143    0.000    0.000    0.000    0.000    0.000 
#    0.000    0.000    0.000    0.000    0.000    0.000 
#
# Total GULP energy -155964.787025 kJ/mol
# GULP energy per Si atom -5570.170965 kJ/mol
# Density = 2.199250 g / cm^3
# Si number density = 22.042668 Si / 1000 Ang^3
#
#
#
# Elastic Constant Matrix: (Units=GPa)
#
#
# Indices 1 2 3 4 5 6 
#
# 1 55.5421 13.9495 11.6800 0.0000 -0.0183 0.0000
# 2 13.9495 116.2103 37.7514 0.0000 7.3078 0.0000
# 3 11.6800 37.7514 77.6110 0.0000 7.9563 0.0000
# 4 0.0000 0.0000 0.0000 28.5833 0.0000 -0.1810
# 5 -0.0183 7.3078 7.9563 0.0000 26.4252 0.0000
# 6 0.0000 0.0000 0.0000 -0.1810 0.0000 16.3822
#
#
#
# Elastic Compliance Matrix: (Units=1/GPa)
#
#
# Indices 1 2 3 4 5 6 
#
# 1 0.018869 -0.001634 -0.002159 0.000000 0.001115 0.000000
# 2 -0.001634 0.010410 -0.004666 0.000000 -0.001475 0.000000
# 3 -0.002159 -0.004666 0.015836 0.000000 -0.003479 0.000000
# 4 0.000000 0.000000 0.000000 0.034988 0.000000 0.000387
# 5 0.001115 -0.001475 -0.003479 0.000000 0.039299 0.000000
# 6 0.000000 0.000000 0.000000 0.000387 0.000000 0.061046
#
#
# Mechanical properties :
#
#
# Convention : Reuss Voigt Hill
#
# Bulk Modulus (GPa) = 35.46569 41.79171 38.62870
# Shear Modulus (GPa) = 24.18193 26.67696 25.42944
#
# Velocity S-wave (km/s) = 3.31577 3.48263 3.40022
# Velocity P-wave (km/s) = 5.54830 5.93062 5.74264
#
# Compressibility (1/GPa) = 0.02819626
#
# Stress axis : x y z
#
# Youngs Moduli (GPa) = 52.99670 96.06276 63.14612
#
# Poissons Ratio (x) = 0.15693 0.13636
# Poissons Ratio (y) = 0.08658 0.29467
# Poissons Ratio (z) = 0.11444 0.44828
#
# Static dielectric constant tensor:
#      x y z
#    x 1.813180 0.000000 0.011360 
#    y 0.000000 1.499220 0.000000 
#    z 0.011360 0.000000 1.798410 
# 
# From -- ./inp_files/69264.got.cif
#   From: 2010.05.17/outbox.cif.g08.bks.cpg/sg14_35_cif.got.tgz:69264.got - 2010.06.03 17:49:19.
