data_PCOD9246466
_publ_section_title
;
Structure prediction by ZEFSAII (Michael W. Deem and Ramdas Pophale) SiO2 
 PCOD9246466
Probable space group: P 21/C
;
_chemical_formula_sum "Si O2"
_cell_formula_units_Z 16
_cell_length_a 10.005208
_cell_length_b 4.901265
_cell_length_c 13.496996
_cell_angle_alpha 90.000000
_cell_angle_beta 84.720099
_cell_angle_gamma 90.000000
_cell_volume 659.059783
_symmetry_space_group_name_H-M "P 21/C"
_symmetry_group_IT_number 14
_symmetry_cell_setting 'monoclinic'
loop_
_space_group_symop_operation_xyz
x,y,z
-x,1/2+y,1/2-z
-x,-y,-z
x,1/2-y,1/2+z
loop_
_atom_site_type_symbol
_atom_site_label
_atom_site_fract_x
_atom_site_fract_y
_atom_site_fract_z
Si Si1 0.298515 0.990862 0.561642
Si Si2 0.708095 0.775915 0.642745
Si Si3 0.449103 0.727624 0.379393
Si Si4 0.912648 0.448822 0.764123
O O1 0.246653 0.176293 0.474171
O O2 0.400472 0.164436 0.622837
O O3 0.178807 0.879715 0.635230
O O4 0.388191 0.772195 0.495097
O O5 0.579787 0.576445 0.649548
O O6 0.821470 0.621371 0.694647
O O7 0.647652 0.069153 0.676883
O O8 0.973087 0.171162 0.716514
#
# Coordination Sequence:
#
# PCOD9246466 Si02
#       4
#     4   4   4   4
#     4   9  23  40  67  89 128 148 204 255 301 368
#     4  10  21  41  63  92 119 159 200 249 312 345
#     4   9  20  40  67  94 114 153 199 256 321 343
#     4  12  28  41  58  91 125 168 209 239 290 363
#
# _framework density 24.277007999999999
#
# number of rings (size 3 to 8) (size 9 to 14) (size 15 to 20)
#    1.500    0.500    0.000    2.250    3.500    4.000 
#    0.000    0.000    0.000    0.000    0.000    0.000 
#    0.000    0.000    0.000    0.000    0.000    0.000 
#
# Total GULP energy -89418.068592 kJ/mol
# GULP energy per Si atom -5588.629287 kJ/mol
# Density = 2.422175 g / cm^3
# Si number density = 24.277008 Si / 1000 Ang^3
#
#
#
# Elastic Constant Matrix: (Units=GPa)
#
#
# Indices 1 2 3 4 5 6 
#
# 1 62.1937 -1.6544 27.3930 0.0000 -19.4457 0.0000
# 2 -1.6544 87.0648 -3.0863 0.0000 -4.6711 0.0000
# 3 27.3930 -3.0863 79.8104 0.0000 -13.6597 0.0000
# 4 0.0000 0.0000 0.0000 10.3133 0.0000 8.2081
# 5 -19.4457 -4.6711 -13.6597 0.0000 43.8500 0.0000
# 6 0.0000 0.0000 0.0000 8.2081 0.0000 34.0160
#
#
#
# Elastic Compliance Matrix: (Units=1/GPa)
#
#
# Indices 1 2 3 4 5 6 
#
# 1 0.021063 0.000596 -0.005912 0.000000 0.007562 0.000000
# 2 0.000596 0.011605 0.000529 0.000000 0.001666 0.000000
# 3 -0.005912 0.000529 0.014937 0.000000 0.002088 0.000000
# 4 0.000000 0.000000 0.000000 0.120009 0.000000 -0.028958
# 5 0.007562 0.001666 0.002088 0.000000 0.026986 0.000000
# 6 0.000000 0.000000 0.000000 -0.028958 0.000000 0.036385
#
#
# Mechanical properties :
#
#
# Convention : Reuss Voigt Hill
#
# Bulk Modulus (GPa) = 26.29370 30.48595 28.38983
# Shear Modulus (GPa) = 19.74446 31.39697 25.57072
#
# Velocity S-wave (km/s) = 2.85493 3.60012 3.24896
# Velocity P-wave (km/s) = 4.66066 5.46498 5.07877
#
# Compressibility (1/GPa) = 0.03803192
#
# Stress axis : x y z
#
# Youngs Moduli (GPa) = 47.47638 86.16865 66.94961
#
# Poissons Ratio (x) = -0.05139 0.39581
# Poissons Ratio (y) = -0.02832 -0.03542
# Poissons Ratio (z) = 0.28068 -0.04559
#
# Static dielectric constant tensor:
#      x y z
#    x 1.964510 0.000000 0.027480 
#    y 0.000000 1.897290 0.000000 
#    z 0.027480 0.000000 1.985430 
# 
# From -- ./inp_files/38418.got.cif
#   From: 2010.05.17/outbox.cif.g08.bks.cpg/sg14_20_cif.got.tgz:38418.got - 2010.06.03 17:49:19.
