data_PCOD9246133
_publ_section_title
;
Structure prediction by ZEFSAII (Michael W. Deem and Ramdas Pophale) SiO2 
 PCOD9246133
Probable space group: P 21/C
;
_chemical_formula_sum "Si O2"
_cell_formula_units_Z 28
_cell_length_a 20.605819
_cell_length_b 5.012637
_cell_length_c 13.249547
_cell_angle_alpha 90.000000
_cell_angle_beta 51.316391
_cell_angle_gamma 90.000000
_cell_volume 1068.294163
_symmetry_space_group_name_H-M "P 21/C"
_symmetry_group_IT_number 14
_symmetry_cell_setting 'monoclinic'
loop_
_space_group_symop_operation_xyz
x,y,z
-x,1/2+y,1/2-z
-x,-y,-z
x,1/2-y,1/2+z
loop_
_atom_site_type_symbol
_atom_site_label
_atom_site_fract_x
_atom_site_fract_y
_atom_site_fract_z
Si Si1 0.953062 0.629074 0.256793
Si Si2 0.578148 0.983544 0.768948
Si Si3 0.602045 0.014226 0.106640
Si Si4 0.746992 0.130395 0.408784
Si Si5 0.874315 0.392762 0.149679
Si Si6 0.282858 0.268611 0.237168
Si Si7 0.818143 0.359336 0.519405
O O1 0.940519 0.550600 0.151781
O O2 0.865348 0.553498 0.395842
O O3 0.980914 0.924454 0.257937
O O4 0.479770 0.950113 0.882707
O O5 0.601155 0.776992 0.656454
O O6 0.639483 0.899157 0.798181
O O7 0.589398 0.277469 0.712234
O O8 0.685884 0.115278 0.973223
O O9 0.832405 0.177015 0.264861
O O10 0.776640 0.118882 0.495862
O O11 0.700904 0.918594 0.383852
O O12 0.798559 0.589534 0.198029
O O13 0.886952 0.244861 0.031667
O O14 0.252540 0.488604 0.348875
#
# Coordination Sequence:
#
# PCOD9246133 Si02
#       7
#     4   4   4   4   4   4   4
#     4  11  28  47  70 102 137 167 217 270 333 401
#     4  10  22  39  64  95 130 182 220 273 328 389
#     4  10  21  40  63  92 136 177 224 270 334 378
#     4  10  22  39  64  97 132 174 225 277 324 385
#     4  10  25  42  69 100 128 175 223 264 330 398
#     4  11  23  39  68  97 131 175 229 269 326 395
#     4  10  23  44  69  93 135 175 218 273 329 389
#
# _framework density 26.210011000000002
#
# number of rings (size 3 to 8) (size 9 to 14) (size 15 to 20)
#    0.000    1.714    1.429    0.857   12.000    2.857 
#    0.000    0.714    0.000    0.000    0.000    0.000 
#    0.000    0.000    0.000    0.000    0.000    0.000 
#
# Total GULP energy -156802.328886 kJ/mol
# GULP energy per Si atom -5600.083175 kJ/mol
# Density = 2.615036 g / cm^3
# Si number density = 26.210011 Si / 1000 Ang^3
#
#
#
# Elastic Constant Matrix: (Units=GPa)
#
#
# Indices 1 2 3 4 5 6 
#
# 1 167.9506 7.8792 24.0715 0.0000 16.7773 0.0000
# 2 7.8792 54.2524 18.4398 0.0000 9.0206 0.0000
# 3 24.0715 18.4398 90.1635 0.0000 15.2895 0.0000
# 4 0.0000 0.0000 0.0000 34.3846 0.0000 -0.1680
# 5 16.7773 9.0206 15.2895 0.0000 44.9714 0.0000
# 6 0.0000 0.0000 0.0000 -0.1680 0.0000 46.4287
#
#
#
# Elastic Compliance Matrix: (Units=1/GPa)
#
#
# Indices 1 2 3 4 5 6 
#
# 1 0.006341 -0.000152 -0.001343 0.000000 -0.001879 0.000000
# 2 -0.000152 0.020140 -0.003611 0.000000 -0.002755 0.000000
# 3 -0.001343 -0.003611 0.012713 0.000000 -0.003097 0.000000
# 4 0.000000 0.000000 0.000000 0.029083 0.000000 0.000105
# 5 -0.001879 -0.002755 -0.003097 0.000000 0.024543 0.000000
# 6 0.000000 0.000000 0.000000 0.000105 0.000000 0.021539
#
#
# Mechanical properties :
#
#
# Convention : Reuss Voigt Hill
#
# Bulk Modulus (GPa) = 34.50457 45.90529 40.20493
# Shear Modulus (GPa) = 37.24867 42.62202 39.93535
#
# Velocity S-wave (km/s) = 3.77392 4.03696 3.90765
# Velocity P-wave (km/s) = 5.67302 6.26752 5.97767
#
# Compressibility (1/GPa) = 0.02898167
#
# Stress axis : x y z
#
# Youngs Moduli (GPa) = 157.69236 49.65259 78.65798
#
# Poissons Ratio (x) = 0.00755 0.10567
# Poissons Ratio (y) = 0.02398 0.28404
# Poissons Ratio (z) = 0.21184 0.17930
#
# Static dielectric constant tensor:
#      x y z
#    x 2.067130 0.000000 0.019440 
#    y 0.000000 2.061630 0.000000 
#    z 0.019440 0.000000 2.071180 
# 
# From -- ./inp_files/34673.got.cif
#   From: 2010.05.17/outbox.cif.g08.bks.cpg/sg14_18_cif.got.tgz:34673.got - 2010.06.03 17:49:19.
