data_PCOD9246525
_publ_section_title
;
Structure prediction by ZEFSAII (Michael W. Deem and Ramdas Pophale) SiO2 
 PCOD9246525
Probable space group: P 21/C
;
_chemical_formula_sum "Si O2"
_cell_formula_units_Z 20
_cell_length_a 6.643117
_cell_length_b 4.832655
_cell_length_c 22.319782
_cell_angle_alpha 90.000000
_cell_angle_beta 104.797850
_cell_angle_gamma 90.000000
_cell_volume 692.785988
_symmetry_space_group_name_H-M "P 21/C"
_symmetry_group_IT_number 14
_symmetry_cell_setting 'monoclinic'
loop_
_space_group_symop_operation_xyz
x,y,z
-x,1/2+y,1/2-z
-x,-y,-z
x,1/2-y,1/2+z
loop_
_atom_site_type_symbol
_atom_site_label
_atom_site_fract_x
_atom_site_fract_y
_atom_site_fract_z
Si Si1 0.913840 0.549328 0.171776
Si Si2 0.370774 0.198008 0.123528
Si Si3 0.064197 0.682254 0.947655
Si Si4 0.281917 0.951583 0.775557
Si Si5 0.569164 0.219622 0.453941
O O1 0.865913 0.535615 0.098212
O O2 0.777641 0.753308 0.201660
O O3 0.159541 0.588553 0.203871
O O4 0.847576 0.251766 0.190851
O O5 0.391056 0.504705 0.097977
O O6 0.123621 0.149263 0.097534
O O7 0.480506 0.142244 0.195835
O O8 0.495384 0.989434 0.088876
O O9 0.242926 0.860527 0.992165
O O10 0.000000 0.500000 0.000000
O O11 0.500000 0.000000 0.500000
#
# Coordination Sequence:
#
# PCOD9246525 Si02
#       5
#     4   4   4   4   4
#     4  10  22  41  64  87 119 161 209 255 303 371
#     4  11  22  37  58  88 121 153 198 252 307 361
#     4  10  23  40  59  90 127 160 196 252 317 372
#     4  10  21  41  65  88 115 160 213 256 300 365
#     4  11  22  37  60  85 119 162 203 243 294 367
#
# _framework density 28.868948
#
# number of rings (size 3 to 8) (size 9 to 14) (size 15 to 20)
#    0.000    1.600    0.000    4.800    0.000    8.000 
#    0.000   10.000    0.000    0.000    0.000    0.000 
#    0.000    0.000    0.000    0.000    0.000    0.000 
#
# Total GULP energy -111755.221559 kJ/mol
# GULP energy per Si atom -5587.761078 kJ/mol
# Density = 2.880324 g / cm^3
# Si number density = 28.868948 Si / 1000 Ang^3
#
#
#
# Elastic Constant Matrix: (Units=GPa)
#
#
# Indices 1 2 3 4 5 6 
#
# 1 42.0935 5.8406 21.9336 0.0000 12.7479 0.0000
# 2 5.8406 93.2434 26.2016 0.0000 -8.7010 0.0000
# 3 21.9336 26.2016 199.6948 0.0000 39.6220 0.0000
# 4 0.0000 0.0000 0.0000 39.5811 0.0000 5.8218
# 5 12.7479 -8.7010 39.6220 0.0000 83.2807 0.0000
# 6 0.0000 0.0000 0.0000 5.8218 0.0000 30.5286
#
#
#
# Elastic Compliance Matrix: (Units=1/GPa)
#
#
# Indices 1 2 3 4 5 6 
#
# 1 0.025963 -0.001342 -0.002053 0.000000 -0.003138 0.000000
# 2 -0.001342 0.011532 -0.001817 0.000000 0.002275 0.000000
# 3 -0.002053 -0.001817 0.006015 0.000000 -0.002737 0.000000
# 4 0.000000 0.000000 0.000000 0.025994 0.000000 -0.004957
# 5 -0.003138 0.002275 -0.002737 0.000000 0.014028 0.000000
# 6 0.000000 0.000000 0.000000 -0.004957 0.000000 0.033702
#
#
# Mechanical properties :
#
#
# Convention : Reuss Voigt Hill
#
# Bulk Modulus (GPa) = 30.22538 49.22038 39.72288
# Shear Modulus (GPa) = 36.05310 49.41514 42.73412
#
# Velocity S-wave (km/s) = 3.53775 4.14177 3.85161
# Velocity P-wave (km/s) = 5.21346 6.32130 5.79392
#
# Compressibility (1/GPa) = 0.03308478
#
# Stress axis : x y z
#
# Youngs Moduli (GPa) = 38.51658 86.71893 166.26186
#
# Poissons Ratio (x) = 0.11639 0.34134
# Poissons Ratio (y) = 0.05170 0.30209
# Poissons Ratio (z) = 0.07907 0.15756
#
# Static dielectric constant tensor:
#      x y z
#    x 2.632700 0.000000 0.120150 
#    y 0.000000 2.128220 0.000000 
#    z 0.120150 0.000000 2.223170 
# 
# From -- ./inp_files/75899.got.cif
#   From: 2010.05.17/outbox.cif.g08.bks.cpg/sg14_38_cif.got.tgz:75899.got - 2010.06.03 17:49:19.
