data_PCOD9246432
_publ_section_title
;
Structure prediction by ZEFSAII (Michael W. Deem and Ramdas Pophale) SiO2 
 PCOD9246432
Probable space group: P 21/C
;
_chemical_formula_sum "Si O2"
_cell_formula_units_Z 24
_cell_length_a 11.654556
_cell_length_b 15.418810
_cell_length_c 11.861729
_cell_angle_alpha 90.000000
_cell_angle_beta 35.020189
_cell_angle_gamma 90.000000
_cell_volume 1223.219389
_symmetry_space_group_name_H-M "P 21/C"
_symmetry_group_IT_number 14
_symmetry_cell_setting 'monoclinic'
loop_
_space_group_symop_operation_xyz
x,y,z
-x,1/2+y,1/2-z
-x,-y,-z
x,1/2-y,1/2+z
loop_
_atom_site_type_symbol
_atom_site_label
_atom_site_fract_x
_atom_site_fract_y
_atom_site_fract_z
Si Si1 0.220405 0.927284 0.426155
Si Si2 0.757521 0.925753 0.779248
Si Si3 0.781944 0.077695 0.933573
Si Si4 0.784195 0.986199 0.340659
Si Si5 0.382928 0.612219 0.192310
Si Si6 0.388889 0.807654 0.113090
O O1 0.271614 0.949504 0.511855
O O2 0.348989 0.853969 0.264396
O O3 0.987934 0.899622 0.608033
O O4 0.245379 0.014348 0.330304
O O5 0.710936 0.992065 0.920786
O O6 0.603128 0.846555 0.901096
O O7 0.767575 0.152993 0.851362
O O8 0.652195 0.105065 0.145568
O O9 0.004821 0.056267 0.797148
O O10 0.771407 0.044201 0.239571
O O11 0.606038 0.917557 0.481243
O O12 0.361154 0.707005 0.157063
#
# Coordination Sequence:
#
# PCOD9246432 Si02
#       6
#     4   4   4   4   4   4
#     4   9  18  36  64  84 115 153 192 235 291 348
#     4   9  18  36  63  89 112 152 193 240 292 342
#     4  10  21  41  62  82 118 157 194 235 290 351
#     4  10  22  42  60  80 119 165 188 225 297 365
#     4  11  24  38  58  86 122 155 191 238 291 348
#     4  11  22  35  61  94 116 145 198 256 283 332
#
# _framework density 19.620356000000001
#
# number of rings (size 3 to 8) (size 9 to 14) (size 15 to 20)
#    0.000    2.000    0.000    5.500    2.333    1.333 
#    3.000    0.000    0.000    0.000    0.000    0.000 
#    0.000    0.000    0.000    0.000    0.000    0.000 
#
# Total GULP energy -133951.165230 kJ/mol
# GULP energy per Si atom -5581.298551 kJ/mol
# Density = 1.957570 g / cm^3
# Si number density = 19.620356 Si / 1000 Ang^3
#
#
#
# Elastic Constant Matrix: (Units=GPa)
#
#
# Indices 1 2 3 4 5 6 
#
# 1 70.5335 17.2420 12.0987 0.0000 2.8996 0.0000
# 2 17.2420 65.3024 32.9331 0.0000 -0.0123 0.0000
# 3 12.0987 32.9331 62.2936 0.0000 2.6946 0.0000
# 4 0.0000 0.0000 0.0000 6.5567 0.0000 3.1501
# 5 2.8996 -0.0123 2.6946 0.0000 36.0491 0.0000
# 6 0.0000 0.0000 0.0000 3.1501 0.0000 7.9558
#
#
#
# Elastic Compliance Matrix: (Units=1/GPa)
#
#
# Indices 1 2 3 4 5 6 
#
# 1 0.015262 -0.003491 -0.001069 0.000000 -0.001149 0.000000
# 2 -0.003491 0.021704 -0.010844 0.000000 0.001099 0.000000
# 3 -0.001069 -0.010844 0.022061 0.000000 -0.001567 0.000000
# 4 0.000000 0.000000 0.000000 0.188346 0.000000 -0.074576
# 5 -0.001149 0.001099 -0.001567 0.000000 0.027950 0.000000
# 6 0.000000 0.000000 0.000000 -0.074576 0.000000 0.155222
#
#
# Mechanical properties :
#
#
# Convention : Reuss Voigt Hill
#
# Bulk Modulus (GPa) = 35.43623 35.85301 35.64462
# Shear Modulus (GPa) = 10.62116 19.16938 14.89527
#
# Velocity S-wave (km/s) = 2.32918 3.12911 2.75830
# Velocity P-wave (km/s) = 5.03325 5.60073 5.32456
#
# Compressibility (1/GPa) = 0.02821971
#
# Stress axis : x y z
#
# Youngs Moduli (GPa) = 65.52415 46.07434 45.32811
#
# Poissons Ratio (x) = 0.16083 0.04845
# Poissons Ratio (y) = 0.22872 0.49154
# Poissons Ratio (z) = 0.07004 0.49963
#
# Static dielectric constant tensor:
#      x y z
#    x 1.689570 0.000000 -0.016170 
#    y 0.000000 1.678430 0.000000 
#    z -0.016170 0.000000 1.704870 
# 
# From -- ./inp_files/29714.got.cif
#   From: 2010.05.17/outbox.cif.g08.bks.cpg/sg14_15_cif.got.tgz:29714.got - 2010.06.03 17:49:19.
