data_PCOD9246738
_publ_section_title
;
Structure prediction by ZEFSAII (Michael W. Deem and Ramdas Pophale) SiO2 
 PCOD9246738
Probable space group: P 21/C
;
_chemical_formula_sum "Si O2"
_cell_formula_units_Z 28
_cell_length_a 6.685819
_cell_length_b 12.125506
_cell_length_c 17.928077
_cell_angle_alpha 90.000000
_cell_angle_beta 64.674292
_cell_angle_gamma 90.000000
_cell_volume 1313.723947
_symmetry_space_group_name_H-M "P 21/C"
_symmetry_group_IT_number 14
_symmetry_cell_setting 'monoclinic'
loop_
_space_group_symop_operation_xyz
x,y,z
-x,1/2+y,1/2-z
-x,-y,-z
x,1/2-y,1/2+z
loop_
_atom_site_type_symbol
_atom_site_label
_atom_site_fract_x
_atom_site_fract_y
_atom_site_fract_z
Si Si1 0.266282 0.147395 0.531378
Si Si2 0.064992 0.680732 0.477093
Si Si3 0.919710 0.972817 0.131088
Si Si4 0.477189 0.562585 0.782681
Si Si5 0.440647 0.271957 0.642408
Si Si6 0.326271 0.569399 0.108467
Si Si7 0.882310 0.542548 0.249230
O O1 0.069383 0.207585 0.519342
O O2 0.291765 0.208507 0.606031
O O3 0.500537 0.157135 0.450530
O O4 0.258372 0.017775 0.554068
O O5 0.989202 0.626623 0.566585
O O6 0.020210 0.586627 0.421148
O O7 0.327088 0.698396 0.432568
O O8 0.659526 0.967384 0.191335
O O9 0.036866 0.972923 0.192620
O O10 0.502045 0.689770 0.799533
O O11 0.541720 0.495258 0.847048
O O12 0.234085 0.533344 0.793608
O O13 0.302251 0.373167 0.694445
O O14 0.095810 0.604846 0.181877
#
# Coordination Sequence:
#
# PCOD9246738 Si02
#       7
#     4   4   4   4   4   4   4
#     4  10  21  42  62  94 126 165 213 265 312 384
#     4  11  22  40  62  91 126 166 210 263 312 387
#     4  10  23  40  61  90 128 164 211 261 320 374
#     4  10  22  41  61  94 125 164 212 266 316 382
#     4  11  23  37  66  92 122 172 213 253 326 375
#     4   9  22  40  66  90 127 165 211 267 320 369
#     4  11  21  42  64  89 129 167 210 269 316 380
#
# _framework density 21.313457
#
# number of rings (size 3 to 8) (size 9 to 14) (size 15 to 20)
#    0.000    1.714    2.857    0.857    0.000    5.143 
#    0.000    4.286    0.000    0.000    0.000    0.000 
#    0.000    0.000    0.000    0.000    0.000    0.000 
#
# Total GULP energy -156441.557006 kJ/mol
# GULP energy per Si atom -5587.198465 kJ/mol
# Density = 2.126495 g / cm^3
# Si number density = 21.313457 Si / 1000 Ang^3
#
#
#
# Elastic Constant Matrix: (Units=GPa)
#
#
# Indices 1 2 3 4 5 6 
#
# 1 59.5857 -6.3504 13.6970 0.0000 -10.6531 0.0000
# 2 -6.3504 17.0135 3.5920 0.0000 -1.0032 0.0000
# 3 13.6970 3.5920 89.7030 0.0000 -17.0534 0.0000
# 4 0.0000 0.0000 0.0000 30.4155 0.0000 -4.0619
# 5 -10.6531 -1.0032 -17.0534 0.0000 25.8209 0.0000
# 6 0.0000 0.0000 0.0000 -4.0619 0.0000 28.6320
#
#
#
# Elastic Compliance Matrix: (Units=1/GPa)
#
#
# Indices 1 2 3 4 5 6 
#
# 1 0.019339 0.008042 -0.001943 0.000000 0.007008 0.000000
# 2 0.008042 0.062638 -0.003022 0.000000 0.003755 0.000000
# 3 -0.001943 -0.003022 0.013026 0.000000 0.007684 0.000000
# 4 0.000000 0.000000 0.000000 0.033513 0.000000 0.004754
# 5 0.007008 0.003755 0.007684 0.000000 0.046841 0.000000
# 6 0.000000 0.000000 0.000000 0.004754 0.000000 0.035600
#
#
# Mechanical properties :
#
#
# Convention : Reuss Voigt Hill
#
# Bulk Modulus (GPa) = 9.88558 20.90883 15.39721
# Shear Modulus (GPa) = 20.96234 27.33125 24.14680
#
# Velocity S-wave (km/s) = 3.13952 3.58487 3.36956
# Velocity P-wave (km/s) = 4.21787 5.19293 4.73059
#
# Compressibility (1/GPa) = 0.10115746
#
# Stress axis : x y z
#
# Youngs Moduli (GPa) = 51.70859 15.96476 76.76711
#
# Poissons Ratio (x) = -0.12839 0.14913
# Poissons Ratio (y) = -0.41583 0.23201
# Poissons Ratio (z) = 0.10045 0.04825
#
# Static dielectric constant tensor:
#      x y z
#    x 1.766200 0.000000 -0.008920 
#    y 0.000000 1.783740 0.000000 
#    z -0.008920 0.000000 1.770880 
# 
# From -- ./inp_files/53286.got.cif
#   From: 2010.05.17/outbox.cif.g08.bks.cpg/sg14_27_cif.got.tgz:53286.got - 2010.06.03 17:49:19.
