data_PCOD9246939
_publ_section_title
;
Structure prediction by ZEFSAII (Michael W. Deem and Ramdas Pophale) SiO2 
 PCOD9246939
Probable space group: P 21/C
;
_chemical_formula_sum "Si O2"
_cell_formula_units_Z 24
_cell_length_a 14.284486
_cell_length_b 7.423289
_cell_length_c 19.705592
_cell_angle_alpha 90.000000
_cell_angle_beta 152.040208
_cell_angle_gamma 90.000000
_cell_volume 979.684161
_symmetry_space_group_name_H-M "P 21/C"
_symmetry_group_IT_number 14
_symmetry_cell_setting 'monoclinic'
loop_
_space_group_symop_operation_xyz
x,y,z
-x,1/2+y,1/2-z
-x,-y,-z
x,1/2-y,1/2+z
loop_
_atom_site_type_symbol
_atom_site_label
_atom_site_fract_x
_atom_site_fract_y
_atom_site_fract_z
Si Si1 0.391619 0.817809 0.353670
Si Si2 0.844851 0.625710 0.860962
Si Si3 0.073078 0.855740 0.373856
Si Si4 0.040146 0.365957 0.464354
Si Si5 0.479033 0.764649 0.564189
Si Si6 0.181940 0.230477 0.921442
O O1 0.176561 0.773931 0.185908
O O2 0.405540 0.749128 0.439786
O O3 0.582010 0.745849 0.435481
O O4 0.413138 0.037545 0.366517
O O5 0.634946 0.612455 0.687215
O O6 0.984228 0.701181 0.889070
O O7 0.000000 0.500000 0.000000
O O8 0.788295 0.748492 0.889912
O O9 0.285656 0.775292 0.487893
O O10 0.916392 0.812260 0.213794
O O11 0.103993 0.072144 0.393960
O O12 0.000000 0.500000 0.500000
O O13 0.110700 0.407223 0.433689
#
# Coordination Sequence:
#
# PCOD9246939 Si02
#       6
#     4   4   4   4   4   4
#     4  10  21  42  71  98 133 183 244 283 348 445
#     4  12  25  46  66 103 149 183 234 313 365 424
#     4  11  24  44  72  99 140 187 247 295 365 442
#     4  12  25  44  70 102 147 188 239 298 370 433
#     4  10  21  42  72  96 133 192 233 285 358 431
#     4  11  24  44  71 103 136 191 245 298 360 444
#
# _framework density 24.497691
#
# number of rings (size 3 to 8) (size 9 to 14) (size 15 to 20)
#    0.000    1.000    6.667    0.000    2.333    1.333 
#    3.000    2.500    0.000    0.000    0.000    0.000 
#    0.000    0.000    0.000    0.000    0.000    0.000 
#
# Total GULP energy -134035.894649 kJ/mol
# GULP energy per Si atom -5584.828944 kJ/mol
# Density = 2.444193 g / cm^3
# Si number density = 24.497691 Si / 1000 Ang^3
#
#
#
# Elastic Constant Matrix: (Units=GPa)
#
#
# Indices 1 2 3 4 5 6 
#
# 1 162.3585 30.2688 78.6386 0.0000 -4.3289 0.0000
# 2 30.2688 62.0369 44.9179 0.0000 0.6414 0.0000
# 3 78.6386 44.9179 179.2837 0.0000 -14.3186 0.0000
# 4 0.0000 0.0000 0.0000 49.6945 0.0000 -7.8600
# 5 -4.3289 0.6414 -14.3186 0.0000 48.8513 0.0000
# 6 0.0000 0.0000 0.0000 -7.8600 0.0000 30.7882
#
#
#
# Elastic Compliance Matrix: (Units=1/GPa)
#
#
# Indices 1 2 3 4 5 6 
#
# 1 0.007959 -0.001641 -0.003094 0.000000 -0.000180 0.000000
# 2 -0.001641 0.020176 -0.004473 0.000000 -0.001721 0.000000
# 3 -0.003094 -0.004473 0.008231 0.000000 0.002197 0.000000
# 4 0.000000 0.000000 0.000000 0.020970 0.000000 0.005353
# 5 -0.000180 -0.001721 0.002197 0.000000 0.021121 0.000000
# 6 0.000000 0.000000 0.000000 0.005353 0.000000 0.033847
#
#
# Mechanical properties :
#
#
# Convention : Reuss Voigt Hill
#
# Bulk Modulus (GPa) = 55.70889 79.03662 67.37275
# Shear Modulus (GPa) = 36.57557 42.52373 39.54965
#
# Velocity S-wave (km/s) = 3.86816 4.17084 4.02235
# Velocity P-wave (km/s) = 6.53758 7.45168 7.00955
#
# Compressibility (1/GPa) = 0.01795046
#
# Stress axis : x y z
#
# Youngs Moduli (GPa) = 125.64262 49.56288 121.49123
#
# Poissons Ratio (x) = 0.08134 0.37593
# Poissons Ratio (y) = 0.20619 0.54339
# Poissons Ratio (z) = 0.38877 0.22168
#
# Static dielectric constant tensor:
#      x y z
#    x 1.886820 0.000000 0.021500 
#    y 0.000000 2.450160 0.000000 
#    z 0.021500 0.000000 1.848470 
# 
# From -- ./inp_files/59129.got.cif
#   From: 2010.05.17/outbox.cif.g08.bks.cpg/sg14_30_cif.got.tgz:59129.got - 2010.06.03 17:49:19.
