data_PCOD9246894
_publ_section_title
;
Structure prediction by ZEFSAII (Michael W. Deem and Ramdas Pophale) SiO2 
 PCOD9246894
Probable space group: P 21/C
;
_chemical_formula_sum "Si O2"
_cell_formula_units_Z 20
_cell_length_a 14.262727
_cell_length_b 12.708870
_cell_length_c 12.319752
_cell_angle_alpha 90.000000
_cell_angle_beta 160.554711
_cell_angle_gamma 90.000000
_cell_volume 743.419358
_symmetry_space_group_name_H-M "P 21/C"
_symmetry_group_IT_number 14
_symmetry_cell_setting 'monoclinic'
loop_
_space_group_symop_operation_xyz
x,y,z
-x,1/2+y,1/2-z
-x,-y,-z
x,1/2-y,1/2+z
loop_
_atom_site_type_symbol
_atom_site_label
_atom_site_fract_x
_atom_site_fract_y
_atom_site_fract_z
Si Si1 0.683634 0.598943 0.297396
Si Si2 0.392697 0.121123 0.513715
Si Si3 0.313550 0.730774 0.306356
Si Si4 0.657248 0.553025 0.805768
Si Si5 0.141144 0.095272 0.782439
O O1 0.601428 0.478504 0.227457
O O2 0.859502 0.633544 0.592869
O O3 0.805621 0.609622 0.308855
O O4 0.404079 0.671490 0.981884
O O5 0.570992 0.225802 0.683614
O O6 0.272705 0.106232 0.501871
O O7 0.497881 0.637357 0.558838
O O8 0.003886 0.684678 0.948851
O O9 0.445396 0.454838 0.592734
O O10 0.932242 0.505143 0.051875
#
# Coordination Sequence:
#
# PCOD9246894 Si02
#       5
#     4   4   4   4   4
#     4   8  19  42  65  96 134 175 223 277 335 399
#     4   8  19  42  65  96 134 175 223 277 335 399
#     4  10  21  42  69 102 132 178 231 278 335 408
#     4  11  24  44  69  99 141 180 222 281 344 403
#     4  11  24  44  69  99 141 180 222 281 344 403
#
# _framework density 26.902716999999999
#
# number of rings (size 3 to 8) (size 9 to 14) (size 15 to 20)
#    1.200    1.200    0.000    1.200    0.000    7.200 
#    0.000    8.000    0.000    0.000    0.000    0.000 
#    0.000    0.000    0.000    0.000    0.000    0.000 
#
# Total GULP energy -111872.801532 kJ/mol
# GULP energy per Si atom -5593.640077 kJ/mol
# Density = 2.684148 g / cm^3
# Si number density = 26.902717 Si / 1000 Ang^3
#
#
#
# Elastic Constant Matrix: (Units=GPa)
#
#
# Indices 1 2 3 4 5 6 
#
# 1 112.9921 43.1892 34.0808 0.0000 -23.6373 0.0000
# 2 43.1892 154.4419 44.4793 0.0000 -11.9897 0.0000
# 3 34.0808 44.4793 134.7825 0.0000 -18.2951 0.0000
# 4 0.0000 0.0000 0.0000 26.7782 0.0000 1.8057
# 5 -23.6373 -11.9897 -18.2951 0.0000 44.4532 0.0000
# 6 0.0000 0.0000 0.0000 1.8057 0.0000 24.5887
#
#
#
# Elastic Compliance Matrix: (Units=1/GPa)
#
#
# Indices 1 2 3 4 5 6 
#
# 1 0.011160 -0.002349 -0.001406 0.000000 0.004722 0.000000
# 2 -0.002349 0.007693 -0.001941 0.000000 0.000027 0.000000
# 3 -0.001406 -0.001941 0.008731 0.000000 0.002322 0.000000
# 4 0.000000 0.000000 0.000000 0.037530 0.000000 -0.002756
# 5 0.004722 0.000027 0.002322 0.000000 0.025969 0.000000
# 6 0.000000 0.000000 0.000000 -0.002756 0.000000 0.040872
#
#
# Mechanical properties :
#
#
# Convention : Reuss Voigt Hill
#
# Bulk Modulus (GPa) = 61.76133 71.74611 66.75372
# Shear Modulus (GPa) = 33.61492 37.86183 35.73837
#
# Velocity S-wave (km/s) = 3.53866 3.75555 3.64872
# Velocity P-wave (km/s) = 6.30105 6.74775 6.52822
#
# Compressibility (1/GPa) = 0.01619136
#
# Stress axis : x y z
#
# Youngs Moduli (GPa) = 89.60585 129.98744 114.54034
#
# Poissons Ratio (x) = 0.30540 0.16100
# Poissons Ratio (y) = 0.21053 0.22233
# Poissons Ratio (z) = 0.12595 0.25231
#
# Static dielectric constant tensor:
#      x y z
#    x 2.172010 0.000000 -0.009290 
#    y 0.000000 2.093350 0.000000 
#    z -0.009290 0.000000 2.045860 
# 
# From -- ./inp_files/48835.got.cif
#   From: 2010.05.17/outbox.cif.g08.bks.cpg/sg14_25_cif.got.tgz:48835.got - 2010.06.03 17:49:19.
