data_PCOD9246522
_publ_section_title
;
Structure prediction by ZEFSAII (Michael W. Deem and Ramdas Pophale) SiO2 
 PCOD9246522
Probable space group: P 21/C
;
_chemical_formula_sum "Si O2"
_cell_formula_units_Z 28
_cell_length_a 5.686786
_cell_length_b 22.462373
_cell_length_c 10.388693
_cell_angle_alpha 90.000000
_cell_angle_beta 73.008492
_cell_angle_gamma 90.000000
_cell_volume 1269.110457
_symmetry_space_group_name_H-M "P 21/C"
_symmetry_group_IT_number 14
_symmetry_cell_setting 'monoclinic'
loop_
_space_group_symop_operation_xyz
x,y,z
-x,1/2+y,1/2-z
-x,-y,-z
x,1/2-y,1/2+z
loop_
_atom_site_type_symbol
_atom_site_label
_atom_site_fract_x
_atom_site_fract_y
_atom_site_fract_z
Si Si1 0.262695 0.877443 0.388516
Si Si2 0.364615 0.685311 0.619327
Si Si3 0.899223 0.878149 0.074915
Si Si4 0.378514 0.673357 0.130136
Si Si5 0.951734 0.425447 0.713271
Si Si6 0.668827 0.538153 0.826019
Si Si7 0.765094 0.917914 0.593056
O O1 0.251445 0.834678 0.272162
O O2 0.418255 0.847163 0.476513
O O3 0.401354 0.937788 0.330966
O O4 0.007661 0.889788 0.493095
O O5 0.152786 0.660336 0.555103
O O6 0.378145 0.756361 0.623879
O O7 0.645508 0.657899 0.577090
O O8 0.842029 0.916564 0.214161
O O9 0.951968 0.921532 0.946180
O O10 0.141713 0.640493 0.229594
O O11 0.597553 0.637717 0.162429
O O12 0.729386 0.471953 0.769457
O O13 0.147225 0.447361 0.788234
O O14 0.687418 0.543994 0.978915
#
# Coordination Sequence:
#
# PCOD9246522 Si02
#       7
#     4   4   4   4   4   4   4
#     4   9  21  42  65  93 127 179 223 268 342 394
#     4  11  25  45  69  94 136 180 227 278 330 413
#     4  11  26  46  69 100 134 182 225 273 349 391
#     4  10  25  39  65  97 133 173 228 279 337 393
#     4  11  25  40  67 103 134 171 228 283 337 395
#     4  10  21  45  67  96 136 177 223 278 336 414
#     4  10  21  41  64  98 129 176 221 272 341 396
#
# _framework density 22.062697
#
# number of rings (size 3 to 8) (size 9 to 14) (size 15 to 20)
#    0.000    1.714    1.429    0.857    8.000    6.286 
#    0.000    2.143    0.000    0.000    0.000    0.000 
#    0.000    0.000    0.000    0.000    0.000    0.000 
#
# Total GULP energy -156031.071173 kJ/mol
# GULP energy per Si atom -5572.538256 kJ/mol
# Density = 2.201248 g / cm^3
# Si number density = 22.062697 Si / 1000 Ang^3
#
#
#
# Elastic Constant Matrix: (Units=GPa)
#
#
# Indices 1 2 3 4 5 6 
#
# 1 81.6392 33.4676 15.4124 0.0000 -1.2727 0.0000
# 2 33.4676 128.4273 26.4689 0.0000 8.3792 0.0000
# 3 15.4124 26.4689 85.9349 0.0000 13.1876 0.0000
# 4 0.0000 0.0000 0.0000 17.3296 0.0000 -2.7511
# 5 -1.2727 8.3792 13.1876 0.0000 13.5090 0.0000
# 6 0.0000 0.0000 0.0000 -2.7511 0.0000 19.4507
#
#
#
# Elastic Compliance Matrix: (Units=1/GPa)
#
#
# Indices 1 2 3 4 5 6 
#
# 1 0.014267 -0.003618 -0.002347 0.000000 0.005879 0.000000
# 2 -0.003618 0.009345 -0.001515 0.000000 -0.004659 0.000000
# 3 -0.002347 -0.001515 0.014601 0.000000 -0.013535 0.000000
# 4 0.000000 0.000000 0.000000 0.059030 0.000000 0.008349
# 5 0.005879 -0.004659 -0.013535 0.000000 0.090681 0.000000
# 6 0.000000 0.000000 0.000000 0.008349 0.000000 0.052593
#
#
# Mechanical properties :
#
#
# Convention : Reuss Voigt Hill
#
# Bulk Modulus (GPa) = 43.00095 49.63324 46.31709
# Shear Modulus (GPa) = 18.99496 24.76804 21.88150
#
# Velocity S-wave (km/s) = 2.93738 3.35419 3.15268
# Velocity P-wave (km/s) = 5.57108 6.12748 5.85590
#
# Compressibility (1/GPa) = 0.02325530
#
# Stress axis : x y z
#
# Youngs Moduli (GPa) = 70.09300 107.00419 68.48736
#
# Poissons Ratio (x) = 0.38712 0.16071
# Poissons Ratio (y) = 0.25358 0.10374
# Poissons Ratio (z) = 0.16448 0.16208
#
# Static dielectric constant tensor:
#      x y z
#    x 1.976830 0.000000 0.025180 
#    y 0.000000 1.874760 0.000000 
#    z 0.025180 0.000000 1.784740 
# 
# From -- ./inp_files/21517.got.cif
#   From: 2010.05.17/outbox.cif.g08.bks.cpg/sg14_11_cif.got.tgz:21517.got - 2010.06.03 17:49:19.
