data_PCOD9246325
_publ_section_title
;
Structure prediction by ZEFSAII (Michael W. Deem and Ramdas Pophale) SiO2 
 PCOD9246325
Probable space group: P 21/C
;
_chemical_formula_sum "Si O2"
_cell_formula_units_Z 24
_cell_length_a 24.293336
_cell_length_b 9.273603
_cell_length_c 9.833603
_cell_angle_alpha 90.000000
_cell_angle_beta 150.035152
_cell_angle_gamma 90.000000
_cell_volume 1106.512959
_symmetry_space_group_name_H-M "P 21/C"
_symmetry_group_IT_number 14
_symmetry_cell_setting 'monoclinic'
loop_
_space_group_symop_operation_xyz
x,y,z
-x,1/2+y,1/2-z
-x,-y,-z
x,1/2-y,1/2+z
loop_
_atom_site_type_symbol
_atom_site_label
_atom_site_fract_x
_atom_site_fract_y
_atom_site_fract_z
Si Si1 0.420853 0.145540 0.663366
Si Si2 0.990104 0.401761 0.825346
Si Si3 0.195023 0.992220 0.888101
Si Si4 0.045077 0.147618 0.151510
Si Si5 0.426709 0.903414 0.448761
Si Si6 0.291079 0.200910 0.647009
O O1 0.525665 0.243637 0.927145
O O2 0.356847 0.121261 0.668411
O O3 0.357135 0.253036 0.422344
O O4 0.431500 0.998882 0.598445
O O5 0.876294 0.477471 0.624879
O O6 0.991630 0.331729 0.683056
O O7 0.096216 0.507808 0.067202
O O8 0.013483 0.276335 0.983856
O O9 0.253354 0.146665 0.001327
O O10 0.301127 0.890815 0.124636
O O11 0.176342 0.131300 0.442836
O O12 0.000000 0.000000 0.000000
O O13 0.500000 0.000000 0.500000
#
# Coordination Sequence:
#
# PCOD9246325 Si02
#       6
#     4   4   4   4   4   4
#     4  11  22  43  70  95 129 178 224 267 338 394
#     4  10  23  42  64  98 128 176 212 280 333 394
#     4   9  20  41  70  83 134 171 217 264 338 384
#     4  11  25  39  66  98 130 166 232 263 337 397
#     4  11  23  44  66 100 131 175 223 277 328 390
#     4  10  21  40  68  90 126 181 214 267 324 408
#
# _framework density 21.689758999999999
#
# number of rings (size 3 to 8) (size 9 to 14) (size 15 to 20)
#    0.000    1.667    3.333    2.000   11.667    0.667 
#    6.000    0.000    0.000    0.000    0.000    0.000 
#    0.000    0.000    0.000    0.000    0.000    0.000 
#
# Total GULP energy -133880.311151 kJ/mol
# GULP energy per Si atom -5578.346298 kJ/mol
# Density = 2.164039 g / cm^3
# Si number density = 21.689759 Si / 1000 Ang^3
#
#
#
# Elastic Constant Matrix: (Units=GPa)
#
#
# Indices 1 2 3 4 5 6 
#
# 1 111.5043 11.8245 -3.9268 0.0000 -15.4275 0.0000
# 2 11.8245 50.8524 6.5950 0.0000 1.0073 0.0000
# 3 -3.9268 6.5950 36.1102 0.0000 10.2060 0.0000
# 4 0.0000 0.0000 0.0000 12.6679 0.0000 -5.9072
# 5 -15.4275 1.0073 10.2060 0.0000 40.4796 0.0000
# 6 0.0000 0.0000 0.0000 -5.9072 0.0000 37.1069
#
#
#
# Elastic Compliance Matrix: (Units=1/GPa)
#
#
# Indices 1 2 3 4 5 6 
#
# 1 0.009745 -0.002399 0.000464 0.000000 0.003657 0.000000
# 2 -0.002399 0.020740 -0.003924 0.000000 -0.000441 0.000000
# 3 0.000464 -0.003924 0.030560 0.000000 -0.007431 0.000000
# 4 0.000000 0.000000 0.000000 0.085270 0.000000 0.013575
# 5 0.003657 -0.000441 -0.007431 0.000000 0.027982 0.000000
# 6 0.000000 0.000000 0.000000 0.013575 0.000000 0.029110
#
#
# Mechanical properties :
#
#
# Convention : Reuss Voigt Hill
#
# Bulk Modulus (GPa) = 20.27225 25.27249 22.77237
# Shear Modulus (GPa) = 21.59204 30.31582 25.95393
#
# Velocity S-wave (km/s) = 3.15857 3.74264 3.46294
# Velocity P-wave (km/s) = 4.76118 5.50941 5.14890
#
# Compressibility (1/GPa) = 0.04932851
#
# Stress axis : x y z
#
# Youngs Moduli (GPa) = 102.61789 48.21572 32.72217
#
# Poissons Ratio (x) = 0.11565 -0.01519
# Poissons Ratio (y) = 0.24614 0.12841
# Poissons Ratio (z) = -0.04764 0.18920
#
# Static dielectric constant tensor:
#      x y z
#    x 1.836330 0.000000 0.042450 
#    y 0.000000 1.784090 0.000000 
#    z 0.042450 0.000000 1.869980 
# 
# From -- ./inp_files/19499.got.cif
#   From: 2010.05.17/outbox.cif.g08.bks.cpg/sg14_10_cif.got.tgz:19499.got - 2010.06.03 17:49:19.
