data_PCOD9246351
_publ_section_title
;
Structure prediction by ZEFSAII (Michael W. Deem and Ramdas Pophale) SiO2 
 PCOD9246351
Probable space group: P 21/C
;
_chemical_formula_sum "Si O2"
_cell_formula_units_Z 32
_cell_length_a 10.842955
_cell_length_b 15.939193
_cell_length_c 17.544124
_cell_angle_alpha 90.000000
_cell_angle_beta 28.838332
_cell_angle_gamma 90.000000
_cell_volume 1462.509855
_symmetry_space_group_name_H-M "P 21/C"
_symmetry_group_IT_number 14
_symmetry_cell_setting 'monoclinic'
loop_
_space_group_symop_operation_xyz
x,y,z
-x,1/2+y,1/2-z
-x,-y,-z
x,1/2-y,1/2+z
loop_
_atom_site_type_symbol
_atom_site_label
_atom_site_fract_x
_atom_site_fract_y
_atom_site_fract_z
Si Si1 0.613476 0.375394 0.400629
Si Si2 0.559178 0.535307 0.360910
Si Si3 0.074434 0.732878 0.212420
Si Si4 0.608627 0.085588 0.407338
Si Si5 0.000098 0.006821 0.907263
Si Si6 0.518521 0.804363 0.782245
Si Si7 0.658281 0.724624 0.035882
Si Si8 0.079382 0.198534 0.850311
O O1 0.719017 0.450019 0.289855
O O2 0.432226 0.421577 0.559925
O O3 0.779510 0.321316 0.369530
O O4 0.503886 0.303414 0.406137
O O5 0.279240 0.501923 0.482468
O O6 0.609586 0.608831 0.272986
O O7 0.240613 0.649364 0.118118
O O8 0.887151 0.744420 0.243184
O O9 0.940789 0.740748 0.367067
O O10 0.388414 0.144383 0.492424
O O11 0.500000 0.000000 0.500000
O O12 0.810465 0.060288 0.232438
O O13 0.103945 0.098950 0.828863
O O14 0.000000 0.000000 0.000000
O O15 0.575477 0.804654 0.662586
O O16 0.697619 0.730503 0.716189
O O17 0.215759 0.789928 0.961536
#
# Coordination Sequence:
#
# PCOD9246351 Si02
#       8
#     4   4   4   4   4   4   4   4
#     4  10  21  40  69  92 126 176 229 273 348 416
#     4  10  21  42  67  97 129 177 235 283 338 422
#     4  11  23  43  67  95 135 181 227 284 350 428
#     4  11  25  41  68 103 135 174 238 298 342 412
#     4  11  23  40  67  97 135 176 233 289 352 421
#     4  11  25  44  68 101 137 181 231 289 349 428
#     4  11  25  43  68  96 141 178 229 285 364 419
#     4  11  25  45  70  96 139 184 232 282 361 422
#
# _framework density 21.880195000000001
#
# number of rings (size 3 to 8) (size 9 to 14) (size 15 to 20)
#    0.000    1.250    2.500    3.750   10.500    1.000 
#    0.000    0.625    0.000    0.000    0.000    0.000 
#    0.000    0.000    0.000    0.000    0.000    0.000 
#
# Total GULP energy -178399.075280 kJ/mol
# GULP energy per Si atom -5574.971103 kJ/mol
# Density = 2.183039 g / cm^3
# Si number density = 21.880195 Si / 1000 Ang^3
#
#
#
# Elastic Constant Matrix: (Units=GPa)
#
#
# Indices 1 2 3 4 5 6 
#
# 1 61.2620 45.5219 6.7367 0.0000 17.8392 0.0000
# 2 45.5219 124.9915 32.8439 0.0000 6.5815 0.0000
# 3 6.7367 32.8439 56.5182 0.0000 16.7117 0.0000
# 4 0.0000 0.0000 0.0000 28.0789 0.0000 -2.4594
# 5 17.8392 6.5815 16.7117 0.0000 35.5790 0.0000
# 6 0.0000 0.0000 0.0000 -2.4594 0.0000 25.6987
#
#
#
# Elastic Compliance Matrix: (Units=1/GPa)
#
#
# Indices 1 2 3 4 5 6 
#
# 1 0.028931 -0.011844 0.008217 0.000000 -0.016174 0.000000
# 2 -0.011844 0.014320 -0.009154 0.000000 0.007589 0.000000
# 3 0.008217 -0.009154 0.026420 0.000000 -0.014837 0.000000
# 4 0.000000 0.000000 0.000000 0.035915 0.000000 0.003437
# 5 -0.016174 0.007589 -0.014837 0.000000 0.041781 0.000000
# 6 0.000000 0.000000 0.000000 0.003437 0.000000 0.039241
#
#
# Mechanical properties :
#
#
# Convention : Reuss Voigt Hill
#
# Bulk Modulus (GPa) = 22.67109 45.88631 34.27870
# Shear Modulus (GPa) = 22.03873 28.38260 25.21066
#
# Velocity S-wave (km/s) = 3.17716 3.60555 3.39811
# Velocity P-wave (km/s) = 4.88293 6.19277 5.57645
#
# Compressibility (1/GPa) = 0.04410904
#
# Stress axis : x y z
#
# Youngs Moduli (GPa) = 34.56554 69.83306 37.84943
#
# Poissons Ratio (x) = 0.82710 -0.31101
# Poissons Ratio (y) = 0.40939 0.34647
# Poissons Ratio (z) = -0.28402 0.63924
#
# Static dielectric constant tensor:
#      x y z
#    x 2.010350 0.000000 -0.005920 
#    y 0.000000 1.806600 0.000000 
#    z -0.005920 0.000000 1.884980 
# 
# From -- ./inp_files/57990.got.cif
#   From: 2010.05.17/outbox.cif.g08.bks.cpg/sg14_29_cif.got.tgz:57990.got - 2010.06.03 17:49:19.
