data_PCOD9246732
_publ_section_title
;
Structure prediction by ZEFSAII (Michael W. Deem and Ramdas Pophale) SiO2 
 PCOD9246732
Probable space group: P 21/C
;
_chemical_formula_sum "Si O2"
_cell_formula_units_Z 28
_cell_length_a 17.802440
_cell_length_b 12.093729
_cell_length_c 15.519696
_cell_angle_alpha 90.000000
_cell_angle_beta 157.496122
_cell_angle_gamma 90.000000
_cell_volume 1278.891180
_symmetry_space_group_name_H-M "P 21/C"
_symmetry_group_IT_number 14
_symmetry_cell_setting 'monoclinic'
loop_
_space_group_symop_operation_xyz
x,y,z
-x,1/2+y,1/2-z
-x,-y,-z
x,1/2-y,1/2+z
loop_
_atom_site_type_symbol
_atom_site_label
_atom_site_fract_x
_atom_site_fract_y
_atom_site_fract_z
Si Si1 0.949321 0.045046 0.313525
Si Si2 0.463724 0.252098 0.604314
Si Si3 0.698296 0.935198 0.193424
Si Si4 0.673253 0.967024 0.615870
Si Si5 0.840822 0.825397 0.104109
Si Si6 0.035291 0.425092 0.433502
Si Si7 0.863862 0.154680 0.051171
O O1 0.160951 0.080696 0.574584
O O2 0.816810 0.016481 0.254885
O O3 0.950465 0.928685 0.263988
O O4 0.848949 0.124172 0.136696
O O5 0.363095 0.322804 0.421230
O O6 0.384791 0.314763 0.606162
O O7 0.697653 0.241356 0.847996
O O8 0.412255 0.121921 0.540786
O O9 0.500000 0.000000 0.000000
O O10 0.802647 0.062386 0.705908
O O11 0.500000 0.000000 0.500000
O O12 0.845367 0.907687 0.852901
O O13 0.895311 0.836591 0.062624
O O14 0.931256 0.716113 0.240310
O O15 0.119217 0.541904 0.484627
#
# Coordination Sequence:
#
# PCOD9246732 Si02
#       7
#     4   4   4   4   4   4   4
#     4   9  22  40  61  89 127 158 209 261 316 373
#     4  11  23  39  66  91 128 164 212 263 316 388
#     4  10  21  42  62  90 124 168 206 261 314 381
#     4  11  22  42  64  93 128 165 213 265 323 387
#     4  10  22  41  63  89 125 165 211 262 318 379
#     4  10  23  41  64  90 126 169 208 267 326 379
#     4  11  21  40  61  94 123 167 208 262 319 380
#
# _framework density 21.893965999999999
#
# number of rings (size 3 to 8) (size 9 to 14) (size 15 to 20)
#    0.000    1.714    2.857    0.857    2.000    2.286 
#    5.143    0.000    0.000    0.000    0.000    0.000 
#    0.000    0.000    0.000    0.000    0.000    0.000 
#
# Total GULP energy -156045.827670 kJ/mol
# GULP energy per Si atom -5573.065274 kJ/mol
# Density = 2.184413 g / cm^3
# Si number density = 21.893966 Si / 1000 Ang^3
#
#
#
# Elastic Constant Matrix: (Units=GPa)
#
#
# Indices 1 2 3 4 5 6 
#
# 1 79.6609 1.1609 19.1664 0.0000 8.9989 0.0000
# 2 1.1609 50.0509 0.0885 0.0000 7.6445 0.0000
# 3 19.1664 0.0885 67.6359 0.0000 13.2916 0.0000
# 4 0.0000 0.0000 0.0000 35.1626 0.0000 4.3687
# 5 8.9989 7.6445 13.2916 0.0000 33.1587 0.0000
# 6 0.0000 0.0000 0.0000 4.3687 0.0000 26.1968
#
#
#
# Elastic Compliance Matrix: (Units=1/GPa)
#
#
# Indices 1 2 3 4 5 6 
#
# 1 0.013636 0.000048 -0.003403 0.000000 -0.002348 0.000000
# 2 0.000048 0.020770 0.000980 0.000000 -0.005194 0.000000
# 3 -0.003403 0.000980 0.016946 0.000000 -0.006095 0.000000
# 4 0.000000 0.000000 0.000000 0.029041 0.000000 -0.004843
# 5 -0.002348 -0.005194 -0.006095 0.000000 0.034436 0.000000
# 6 0.000000 0.000000 0.000000 -0.004843 0.000000 0.038980
#
#
# Mechanical properties :
#
#
# Convention : Reuss Voigt Hill
#
# Bulk Modulus (GPa) = 21.45779 26.46436 23.96108
# Shear Modulus (GPa) = 28.72022 30.69909 29.70965
#
# Velocity S-wave (km/s) = 3.62579 3.74862 3.68772
# Velocity P-wave (km/s) = 5.22977 5.55427 5.39446
#
# Compressibility (1/GPa) = 0.04660312
#
# Stress axis : x y z
#
# Youngs Moduli (GPa) = 73.33275 48.14605 59.01144
#
# Poissons Ratio (x) = -0.00233 0.20081
# Poissons Ratio (y) = -0.00354 -0.05782
# Poissons Ratio (z) = 0.24954 -0.04718
#
# Static dielectric constant tensor:
#      x y z
#    x 1.870590 0.000000 0.006750 
#    y 0.000000 1.808190 0.000000 
#    z 0.006750 0.000000 1.805550 
# 
# From -- ./inp_files/61328.got.cif
#   From: 2010.05.17/outbox.cif.g08.bks.cpg/sg14_31_cif.got.tgz:61328.got - 2010.06.03 17:49:19.
