data_PCOD9246610
_publ_section_title
;
Structure prediction by ZEFSAII (Michael W. Deem and Ramdas Pophale) SiO2 
 PCOD9246610
Probable space group: P 21/C
;
_chemical_formula_sum "Si O2"
_cell_formula_units_Z 28
_cell_length_a 8.220429
_cell_length_b 5.219071
_cell_length_c 29.771159
_cell_angle_alpha 90.000000
_cell_angle_beta 62.903423
_cell_angle_gamma 90.000000
_cell_volume 1137.078749
_symmetry_space_group_name_H-M "P 21/C"
_symmetry_group_IT_number 14
_symmetry_cell_setting 'monoclinic'
loop_
_space_group_symop_operation_xyz
x,y,z
-x,1/2+y,1/2-z
-x,-y,-z
x,1/2-y,1/2+z
loop_
_atom_site_type_symbol
_atom_site_label
_atom_site_fract_x
_atom_site_fract_y
_atom_site_fract_z
Si Si1 0.366284 0.219055 0.209757
Si Si2 0.574676 0.246172 0.017356
Si Si3 0.651169 0.936680 0.377874
Si Si4 0.704740 0.024094 0.696778
Si Si5 0.014038 0.747307 0.556375
Si Si6 0.982953 0.758983 0.392406
Si Si7 0.625804 0.840482 0.122393
O O1 0.243887 0.068311 0.260140
O O2 0.514697 0.060412 0.162060
O O3 0.274371 0.369996 0.181021
O O4 0.493499 0.392993 0.225340
O O5 0.488046 0.250724 0.077832
O O6 0.500000 0.500000 0.000000
O O7 0.793474 0.251267 0.993428
O O8 0.500000 0.000000 0.000000
O O9 0.823968 0.919386 0.388161
O O10 0.527409 0.184797 0.385626
O O11 0.844777 0.237748 0.662324
O O12 0.701104 0.824396 0.655951
O O13 0.062550 0.530063 0.588488
O O14 0.811469 0.638238 0.569607
O O15 0.980019 0.049579 0.570739
#
# Coordination Sequence:
#
# PCOD9246610 Si02
#       7
#     4   4   4   4   4   4   4
#     4  11  21  41  65  95 134 172 229 272 341 403
#     4  12  24  44  72  97 135 185 228 276 358 415
#     4  11  26  41  65 103 134 175 225 300 332 402
#     4  10  21  41  67  93 126 187 219 268 339 421
#     4  11  22  44  70  98 129 186 227 273 336 429
#     4  11  23  43  69  97 135 176 231 276 342 407
#     4  10  23  40  67  94 138 170 227 280 339 396
#
# _framework density 24.624506
#
# number of rings (size 3 to 8) (size 9 to 14) (size 15 to 20)
#    0.000    1.143    5.714    0.000    4.000    0.571 
#    2.571    0.714    0.000    0.000    0.000    0.000 
#    0.000    0.000    0.000    0.000    0.000    0.000 
#
# Total GULP energy -156092.584837 kJ/mol
# GULP energy per Si atom -5574.735173 kJ/mol
# Density = 2.456846 g / cm^3
# Si number density = 24.624506 Si / 1000 Ang^3
#
#
#
# Elastic Constant Matrix: (Units=GPa)
#
#
# Indices 1 2 3 4 5 6 
#
# 1 63.9248 11.2667 -5.4359 0.0000 -7.4955 0.0000
# 2 11.2667 96.0826 15.7420 0.0000 11.0547 0.0000
# 3 -5.4359 15.7420 85.3256 0.0000 -0.0355 0.0000
# 4 0.0000 0.0000 0.0000 32.1367 0.0000 4.3868
# 5 -7.4955 11.0547 -0.0355 0.0000 26.5663 0.0000
# 6 0.0000 0.0000 0.0000 4.3868 0.0000 31.6395
#
#
#
# Elastic Compliance Matrix: (Units=1/GPa)
#
#
# Indices 1 2 3 4 5 6 
#
# 1 0.017010 -0.002956 0.001632 0.000000 0.006032 0.000000
# 2 -0.002956 0.011804 -0.002368 0.000000 -0.005749 0.000000
# 3 0.001632 -0.002368 0.012261 0.000000 0.001462 0.000000
# 4 0.000000 0.000000 0.000000 0.031717 0.000000 -0.004398
# 5 0.006032 -0.005749 0.001462 0.000000 0.041738 0.000000
# 6 0.000000 0.000000 0.000000 -0.004398 0.000000 0.032216
#
#
# Mechanical properties :
#
#
# Convention : Reuss Voigt Hill
#
# Bulk Modulus (GPa) = 29.68254 32.05321 30.86787
# Shear Modulus (GPa) = 30.23674 32.98584 31.61129
#
# Velocity S-wave (km/s) = 3.50796 3.66396 3.58681
# Velocity P-wave (km/s) = 5.33741 5.56278 5.45126
#
# Compressibility (1/GPa) = 0.03368984
#
# Stress axis : x y z
#
# Youngs Moduli (GPa) = 58.78782 84.71849 81.55726
#
# Poissons Ratio (x) = 0.25042 -0.13306
# Poissons Ratio (y) = 0.17377 0.19316
# Poissons Ratio (z) = -0.09591 0.20065
#
# Static dielectric constant tensor:
#      x y z
#    x 2.044650 0.000000 0.114360 
#    y 0.000000 2.085220 0.000000 
#    z 0.114360 0.000000 2.131190 
# 
# From -- ./inp_files/79074.got.cif
#   From: 2010.05.17/outbox.cif.g08.bks.cpg/sg14_40_cif.got.tgz:79074.got - 2010.06.03 17:49:19.
