data_PCOD9246093
_publ_section_title
;
Structure prediction by ZEFSAII (Michael W. Deem and Ramdas Pophale) SiO2 
 PCOD9246093
Probable space group: P 21/C
;
_chemical_formula_sum "Si O2"
_cell_formula_units_Z 28
_cell_length_a 8.144530
_cell_length_b 11.692359
_cell_length_c 13.690927
_cell_angle_alpha 90.000000
_cell_angle_beta 75.726023
_cell_angle_gamma 90.000000
_cell_volume 1263.519888
_symmetry_space_group_name_H-M "P 21/C"
_symmetry_group_IT_number 14
_symmetry_cell_setting 'monoclinic'
loop_
_space_group_symop_operation_xyz
x,y,z
-x,1/2+y,1/2-z
-x,-y,-z
x,1/2-y,1/2+z
loop_
_atom_site_type_symbol
_atom_site_label
_atom_site_fract_x
_atom_site_fract_y
_atom_site_fract_z
Si Si1 0.890773 0.333276 0.556036
Si Si2 0.451853 0.049425 0.644033
Si Si3 0.990863 0.368366 0.907074
Si Si4 0.246069 0.446693 0.540773
Si Si5 0.244185 0.681487 0.214507
Si Si6 0.551005 0.093909 0.850880
Si Si7 0.753943 0.565743 0.994312
O O1 0.895002 0.218424 0.493027
O O2 0.820528 0.436409 0.500750
O O3 0.774603 0.317754 0.667188
O O4 0.080924 0.366506 0.563896
O O5 0.351103 0.929210 0.667333
O O6 0.623992 0.023534 0.561264
O O7 0.485172 0.086655 0.749308
O O8 0.338532 0.123196 0.584563
O O9 0.941758 0.328388 0.806929
O O10 0.178958 0.364494 0.922559
O O11 0.914997 0.496273 0.928124
O O12 0.332973 0.486815 0.629643
O O13 0.394537 0.400322 0.448802
O O14 0.335588 0.793326 0.162086
#
# Coordination Sequence:
#
# PCOD9246093 Si02
#       7
#     4   4   4   4   4   4   4
#     4  11  22  44  60  96 123 169 212 263 310 386
#     4  10  21  40  62  91 125 159 209 260 314 384
#     4  10  21  41  62  89 125 161 206 261 315 376
#     4  10  24  42  66  87 136 166 208 261 325 370
#     4  11  23  39  67  89 122 165 215 254 313 382
#     4  11  22  44  64  94 123 174 204 266 318 382
#     4   9  21  40  61  92 126 158 198 272 323 361
#
# _framework density 22.160316999999999
#
# number of rings (size 3 to 8) (size 9 to 14) (size 15 to 20)
#    0.000    1.714    2.857    0.857    4.000    0.000 
#    7.714    0.000    0.000    0.000    0.000    0.000 
#    0.000    0.000    0.000    0.000    0.000    0.000 
#
# Total GULP energy -156259.538601 kJ/mol
# GULP energy per Si atom -5580.697807 kJ/mol
# Density = 2.210988 g / cm^3
# Si number density = 22.160317 Si / 1000 Ang^3
#
#
#
# Elastic Constant Matrix: (Units=GPa)
#
#
# Indices 1 2 3 4 5 6 
#
# 1 91.0949 9.0849 30.6171 0.0000 34.6740 0.0000
# 2 9.0849 25.8787 -2.3117 0.0000 8.6926 0.0000
# 3 30.6171 -2.3117 53.8045 0.0000 24.3884 0.0000
# 4 0.0000 0.0000 0.0000 18.4552 0.0000 -1.2180
# 5 34.6740 8.6926 24.3884 0.0000 44.1986 0.0000
# 6 0.0000 0.0000 0.0000 -1.2180 0.0000 26.6377
#
#
#
# Elastic Compliance Matrix: (Units=1/GPa)
#
#
# Indices 1 2 3 4 5 6 
#
# 1 0.016716 -0.003128 -0.005309 0.000000 -0.009569 0.000000
# 2 -0.003128 0.044222 0.008681 0.000000 -0.011033 0.000000
# 3 -0.005309 0.008681 0.027826 0.000000 -0.012896 0.000000
# 4 0.000000 0.000000 0.000000 0.054349 0.000000 0.002485
# 5 -0.009569 -0.011033 -0.012896 0.000000 0.039418 0.000000
# 6 0.000000 0.000000 0.000000 0.002485 0.000000 0.037654
#
#
# Mechanical properties :
#
#
# Convention : Reuss Voigt Hill
#
# Bulk Modulus (GPa) = 11.20442 27.28432 19.24437
# Shear Modulus (GPa) = 20.04423 26.75082 23.39752
#
# Velocity S-wave (km/s) = 3.01077 3.47817 3.25288
# Velocity P-wave (km/s) = 4.14166 5.33566 4.77612
#
# Compressibility (1/GPa) = 0.08925051
#
# Stress axis : x y z
#
# Youngs Moduli (GPa) = 59.82153 22.61343 35.93819
#
# Poissons Ratio (x) = 0.07075 0.19081
# Poissons Ratio (y) = 0.18715 -0.31199
# Poissons Ratio (z) = 0.31761 -0.19631
#
# Static dielectric constant tensor:
#      x y z
#    x 1.887150 0.000000 0.050140 
#    y 0.000000 1.811310 0.000000 
#    z 0.050140 0.000000 1.776390 
# 
# From -- ./inp_files/25211.got.cif
#   From: 2010.05.17/outbox.cif.g08.bks.cpg/sg14_13_cif.got.tgz:25211.got - 2010.06.03 17:49:19.
