data_PCOD9246132
_publ_section_title
;
Structure prediction by ZEFSAII (Michael W. Deem and Ramdas Pophale) SiO2 
 PCOD9246132
Probable space group: P 21/C
;
_chemical_formula_sum "Si O2"
_cell_formula_units_Z 26
_cell_length_a 12.374667
_cell_length_b 8.445223
_cell_length_c 14.475230
_cell_angle_alpha 90.000000
_cell_angle_beta 137.675391
_cell_angle_gamma 90.000000
_cell_volume 1018.587081
_symmetry_space_group_name_H-M "P 21/C"
_symmetry_group_IT_number 14
_symmetry_cell_setting 'monoclinic'
loop_
_space_group_symop_operation_xyz
x,y,z
-x,1/2+y,1/2-z
-x,-y,-z
x,1/2-y,1/2+z
loop_
_atom_site_type_symbol
_atom_site_label
_atom_site_fract_x
_atom_site_fract_y
_atom_site_fract_z
Si Si1 0.500000 0.000000 0.500000
Si Si2 0.420075 0.226749 0.086869
Si Si3 0.955911 0.244008 0.444171
Si Si4 0.826664 0.306034 0.056944
Si Si5 0.087678 0.145750 0.342532
Si Si6 0.238004 0.055302 0.189114
Si Si7 0.552060 0.403537 0.340453
O O1 0.507288 0.152232 0.574409
O O2 0.363971 0.089412 0.348111
O O3 0.436671 0.310851 0.198302
O O4 0.503993 0.055378 0.138213
O O5 0.231314 0.227629 0.942404
O O6 0.987168 0.140226 0.374219
O O7 0.124704 0.297099 0.594741
O O8 0.852214 0.175015 0.463015
O O9 0.876427 0.406934 0.358171
O O10 0.829639 0.473726 0.110364
O O11 0.966204 0.195825 0.186089
O O12 0.655993 0.222790 0.962438
O O13 0.322863 0.992781 0.149487
#
# Coordination Sequence:
#
# PCOD9246132 Si02
#       7
#     2   4   4   4   4   4   4
#     4  10  22  36  66 100 128 180 226 276 332 408
#     4  11  22  40  66  93 131 174 234 269 346 401
#     4  10  21  40  63  92 136 174 220 275 342 403
#     4  11  25  40  65  98 134 173 229 282 344 406
#     4  12  24  40  67  97 131 180 227 284 339 410
#     4   9  19  37  64  91 128 172 218 271 339 397
#     4  10  21  42  63  93 127 176 218 282 334 411
#
# _framework density 25.525554
#
# number of rings (size 3 to 8) (size 9 to 14) (size 15 to 20)
#    0.000    1.538    1.538    3.231    6.462    0.000 
#    0.000    0.000    0.000    4.615    0.000    0.000 
#    0.000    0.000    0.000    0.000    0.000    0.000 
#
# Total GULP energy -145189.488765 kJ/mol
# GULP energy per Si atom -5584.211106 kJ/mol
# Density = 2.546746 g / cm^3
# Si number density = 25.525554 Si / 1000 Ang^3
#
#
#
# Elastic Constant Matrix: (Units=GPa)
#
#
# Indices 1 2 3 4 5 6 
#
# 1 50.4131 21.0575 13.2354 0.0000 -8.7801 0.0000
# 2 21.0575 104.4846 20.4230 0.0000 -12.5846 0.0000
# 3 13.2354 20.4230 154.2767 0.0000 -1.2566 0.0000
# 4 0.0000 0.0000 0.0000 32.8484 0.0000 9.5369
# 5 -8.7801 -12.5846 -1.2566 0.0000 32.6511 0.0000
# 6 0.0000 0.0000 0.0000 9.5369 0.0000 32.8786
#
#
#
# Elastic Compliance Matrix: (Units=1/GPa)
#
#
# Indices 1 2 3 4 5 6 
#
# 1 0.022556 -0.003720 -0.001405 0.000000 0.004578 0.000000
# 2 -0.003720 0.010917 -0.001100 0.000000 0.003165 0.000000
# 3 -0.001405 -0.001100 0.006744 0.000000 -0.000542 0.000000
# 4 0.000000 0.000000 0.000000 0.033242 0.000000 -0.009642
# 5 0.004578 0.003165 -0.000542 0.000000 0.033057 0.000000
# 6 0.000000 0.000000 0.000000 -0.009642 0.000000 0.033212
#
#
# Mechanical properties :
#
#
# Convention : Reuss Voigt Hill
#
# Bulk Modulus (GPa) = 36.01577 46.51179 41.26378
# Shear Modulus (GPa) = 30.97247 36.63951 33.80599
#
# Velocity S-wave (km/s) = 3.48715 3.79278 3.64318
# Velocity P-wave (km/s) = 5.50945 6.11895 5.82218
#
# Compressibility (1/GPa) = 0.02776562
#
# Stress axis : x y z
#
# Youngs Moduli (GPa) = 44.33385 91.60249 148.28744
#
# Poissons Ratio (x) = 0.34075 0.20840
# Poissons Ratio (y) = 0.16491 0.16315
# Poissons Ratio (z) = 0.06231 0.10079
#
# Static dielectric constant tensor:
#      x y z
#    x 2.438030 0.000000 -0.163710 
#    y 0.000000 2.005670 0.000000 
#    z -0.163710 0.000000 2.090950 
# 
# From -- ./inp_files/46666.got.cif
#   From: 2010.05.17/outbox.cif.g08.bks.cpg/sg14_24_cif.got.tgz:46666.got - 2010.06.03 17:49:19.
