data_PCOD9246063
_publ_section_title
;
Structure prediction by ZEFSAII (Michael W. Deem and Ramdas Pophale) SiO2 
 PCOD9246063
Probable space group: P 21/C
;
_chemical_formula_sum "Si O2"
_cell_formula_units_Z 20
_cell_length_a 21.177463
_cell_length_b 6.844126
_cell_length_c 5.337511
_cell_angle_alpha 90.000000
_cell_angle_beta 90.415282
_cell_angle_gamma 90.000000
_cell_volume 773.605063
_symmetry_space_group_name_H-M "P 21/C"
_symmetry_group_IT_number 14
_symmetry_cell_setting 'monoclinic'
loop_
_space_group_symop_operation_xyz
x,y,z
-x,1/2+y,1/2-z
-x,-y,-z
x,1/2-y,1/2+z
loop_
_atom_site_type_symbol
_atom_site_label
_atom_site_fract_x
_atom_site_fract_y
_atom_site_fract_z
Si Si1 0.882883 0.029647 0.608867
Si Si2 0.069237 0.525191 0.389611
Si Si3 0.435507 0.620342 0.476723
Si Si4 0.694906 0.537960 0.386103
Si Si5 0.743851 0.980665 0.386464
O O1 0.927264 0.942625 0.391489
O O2 0.908085 0.250822 0.647358
O O3 0.813449 0.012539 0.493816
O O4 0.885106 0.945668 0.889712
O O5 0.000000 0.500000 0.500000
O O6 0.500000 0.500000 0.500000
O O7 0.432856 0.726606 0.207656
O O8 0.375711 0.476688 0.512254
O O9 0.723235 0.754401 0.349977
O O10 0.737350 0.440522 0.604542
O O11 0.697900 0.449113 0.107875
#
# Coordination Sequence:
#
# PCOD9246063 Si02
#       5
#     4   4   4   4   4
#     4  10  21  40  61  96 125 179 234 281 361 430
#     4  10  21  40  62  92 133 174 226 297 352 428
#     4  12  28  49  78 114 153 201 252 307 366 444
#     4  10  23  43  68 103 138 187 236 294 365 418
#     4  10  21  42  72  96 139 187 234 300 353 445
#
# _framework density 25.852988
#
# number of rings (size 3 to 8) (size 9 to 14) (size 15 to 20)
#    0.000    1.600    0.000    3.600    5.600    0.000 
#   21.600   24.000    0.000    0.000    0.000    0.000 
#    0.000    0.000    0.000    0.000    0.000    0.000 
#
# Total GULP energy -111862.621409 kJ/mol
# GULP energy per Si atom -5593.131070 kJ/mol
# Density = 2.579415 g / cm^3
# Si number density = 25.852988 Si / 1000 Ang^3
#
#
#
# Elastic Constant Matrix: (Units=GPa)
#
#
# Indices 1 2 3 4 5 6 
#
# 1 136.5663 3.0358 -17.1731 0.0000 2.5007 0.0000
# 2 3.0358 138.4657 -27.2831 0.0000 3.0507 0.0000
# 3 -17.1731 -27.2831 194.9017 0.0000 -10.4610 0.0000
# 4 0.0000 0.0000 0.0000 3.2025 0.0000 8.9581
# 5 2.5007 3.0507 -10.4610 0.0000 52.4703 0.0000
# 6 0.0000 0.0000 0.0000 8.9581 0.0000 41.1179
#
#
#
# Elastic Compliance Matrix: (Units=1/GPa)
#
#
# Indices 1 2 3 4 5 6 
#
# 1 0.007407 -0.000032 0.000636 0.000000 -0.000224 0.000000
# 2 -0.000032 0.007430 0.001025 0.000000 -0.000226 0.000000
# 3 0.000636 0.001025 0.005383 0.000000 0.000983 0.000000
# 4 0.000000 0.000000 0.000000 0.799463 0.000000 -0.174174
# 5 -0.000224 -0.000226 0.000983 0.000000 0.019278 0.000000
# 6 0.000000 0.000000 0.000000 -0.174174 0.000000 0.062266
#
#
# Mechanical properties :
#
#
# Convention : Reuss Voigt Hill
#
# Bulk Modulus (GPa) = 42.59267 43.01031 42.80149
# Shear Modulus (GPa) = 5.52001 53.44843 29.48422
#
# Velocity S-wave (km/s) = 1.46280 4.55180 3.38073
# Velocity P-wave (km/s) = 4.40043 6.65566 5.64188
#
# Compressibility (1/GPa) = 0.02347822
#
# Stress axis : x y z
#
# Youngs Moduli (GPa) = 135.00264 134.59551 185.76611
#
# Poissons Ratio (x) = 0.00432 -0.11817
# Poissons Ratio (y) = 0.00434 -0.19042
# Poissons Ratio (z) = -0.08588 -0.13797
#
# Static dielectric constant tensor:
#      x y z
#    x 1.987170 0.000000 -0.017360 
#    y 0.000000 3.148090 0.000000 
#    z -0.017360 0.000000 2.152960 
# 
# From -- ./inp_files/4042.got.cif
#   From: 2010.05.17/outbox.cif.g08.bks.cpg/sg14_3_cif.got.tgz:4042.got - 2010.06.03 17:49:19.
