data_PCOD9246163
_publ_section_title
;
Structure prediction by ZEFSAII (Michael W. Deem and Ramdas Pophale) SiO2 
 PCOD9246163
Probable space group: P 21/C
;
_chemical_formula_sum "Si O2"
_cell_formula_units_Z 28
_cell_length_a 6.954270
_cell_length_b 28.511809
_cell_length_c 7.774993
_cell_angle_alpha 90.000000
_cell_angle_beta 41.286785
_cell_angle_gamma 90.000000
_cell_volume 1017.202258
_symmetry_space_group_name_H-M "P 21/C"
_symmetry_group_IT_number 14
_symmetry_cell_setting 'monoclinic'
loop_
_space_group_symop_operation_xyz
x,y,z
-x,1/2+y,1/2-z
-x,-y,-z
x,1/2-y,1/2+z
loop_
_atom_site_type_symbol
_atom_site_label
_atom_site_fract_x
_atom_site_fract_y
_atom_site_fract_z
Si Si1 0.873166 0.854845 0.423605
Si Si2 0.151935 0.968019 0.646974
Si Si3 0.416592 0.618823 0.810672
Si Si4 0.981720 0.061259 0.872732
Si Si5 0.822669 0.759591 0.612812
Si Si6 0.759718 0.206547 0.386271
Si Si7 0.378102 0.418760 0.641704
O O1 0.813540 0.799506 0.468189
O O2 0.633401 0.883181 0.691559
O O3 0.156945 0.865666 0.352737
O O4 0.923742 0.884895 0.217966
O O5 0.875546 0.956226 0.711416
O O6 0.386308 0.933291 0.406499
O O7 0.197374 0.023410 0.638420
O O8 0.080836 0.951703 0.889439
O O9 0.380202 0.655894 0.987570
O O10 0.664197 0.613779 0.500671
O O11 0.684494 0.055998 0.962166
O O12 0.504614 0.740583 0.874405
O O13 0.963104 0.787635 0.674717
O O14 0.073693 0.721525 0.398351
#
# Coordination Sequence:
#
# PCOD9246163 Si02
#       7
#     4   4   4   4   4   4   4
#     4   9  22  40  65  88 132 174 223 275 341 410
#     4  10  22  40  63  95 130 169 222 276 336 407
#     4   9  22  40  65  88 132 174 223 275 341 410
#     4  10  22  40  63  95 130 169 222 276 336 407
#     4  11  25  44  69 101 138 181 231 288 350 414
#     4  11  25  44  69 101 138 181 231 288 350 414
#     4  10  21  40  64  90 128 174 216 274 339 404
#
# _framework density 27.526482000000001
#
# number of rings (size 3 to 8) (size 9 to 14) (size 15 to 20)
#    0.000    2.000    0.000    1.286   12.000    8.571 
#    5.143    2.857    0.000    0.000    0.000    0.000 
#    0.000    0.000    0.000    0.000    0.000    0.000 
#
# Total GULP energy -156591.557363 kJ/mol
# GULP energy per Si atom -5592.555620 kJ/mol
# Density = 2.746383 g / cm^3
# Si number density = 27.526482 Si / 1000 Ang^3
#
#
#
# Elastic Constant Matrix: (Units=GPa)
#
#
# Indices 1 2 3 4 5 6 
#
# 1 78.6999 28.1267 3.7051 0.0000 2.0635 0.0000
# 2 28.1267 98.9403 16.1991 0.0000 -10.9861 0.0000
# 3 3.7051 16.1991 88.6716 0.0000 4.7672 0.0000
# 4 0.0000 0.0000 0.0000 36.5971 0.0000 -1.0473
# 5 2.0635 -10.9861 4.7672 0.0000 45.3178 0.0000
# 6 0.0000 0.0000 0.0000 -1.0473 0.0000 40.2218
#
#
#
# Elastic Compliance Matrix: (Units=1/GPa)
#
#
# Indices 1 2 3 4 5 6 
#
# 1 0.014273 -0.004295 0.000281 0.000000 -0.001721 0.000000
# 2 -0.004295 0.012061 -0.002204 0.000000 0.003351 0.000000
# 3 0.000281 -0.002204 0.011764 0.000000 -0.001785 0.000000
# 4 0.000000 0.000000 0.000000 0.027345 0.000000 0.000712
# 5 -0.001721 0.003351 -0.001785 0.000000 0.023145 0.000000
# 6 0.000000 0.000000 0.000000 0.000712 0.000000 0.024881
#
#
# Mechanical properties :
#
#
# Convention : Reuss Voigt Hill
#
# Bulk Modulus (GPa) = 38.96724 40.26375 39.61550
# Shear Modulus (GPa) = 37.18595 38.97940 38.08268
#
# Velocity S-wave (km/s) = 3.67947 3.76715 3.72357
# Velocity P-wave (km/s) = 5.67788 5.79491 5.73669
#
# Compressibility (1/GPa) = 0.02566258
#
# Stress axis : x y z
#
# Youngs Moduli (GPa) = 70.06118 82.91220 85.00192
#
# Poissons Ratio (x) = 0.35607 -0.02386
# Poissons Ratio (y) = 0.30088 0.18735
# Poissons Ratio (z) = -0.01966 0.18275
#
# Static dielectric constant tensor:
#      x y z
#    x 2.204630 0.000000 0.026180 
#    y 0.000000 2.151410 0.000000 
#    z 0.026180 0.000000 2.209070 
# 
# From -- ./inp_files/11014.got.cif
#   From: 2010.05.17/outbox.cif.g08.bks.cpg/sg14_6_cif.got.tgz:11014.got - 2010.06.03 17:49:19.
