data_PCOD9246011
_publ_section_title
;
Structure prediction by ZEFSAII (Michael W. Deem and Ramdas Pophale) SiO2 
 PCOD9246011
Probable space group: P 21/C
;
_chemical_formula_sum "Si O2"
_cell_formula_units_Z 30
_cell_length_a 5.053492
_cell_length_b 20.847367
_cell_length_c 10.691987
_cell_angle_alpha 90.000000
_cell_angle_beta 92.420268
_cell_angle_gamma 90.000000
_cell_volume 1125.417420
_symmetry_space_group_name_H-M "P 21/C"
_symmetry_group_IT_number 14
_symmetry_cell_setting 'monoclinic'
loop_
_space_group_symop_operation_xyz
x,y,z
-x,1/2+y,1/2-z
-x,-y,-z
x,1/2-y,1/2+z
loop_
_atom_site_type_symbol
_atom_site_label
_atom_site_fract_x
_atom_site_fract_y
_atom_site_fract_z
Si Si1 0.879157 0.070810 0.140410
Si Si2 0.146028 0.570809 0.639937
Si Si3 0.144650 0.400791 0.127195
Si Si4 0.232883 0.176536 0.273764
Si Si5 0.266689 0.772353 0.605331
Si Si6 0.508571 0.217493 0.650951
Si Si7 0.507862 0.507211 0.198382
Si Si8 0.000000 0.000000 0.500000
O O1 0.081900 0.116758 0.213317
O O2 0.003073 0.999402 0.131536
O O3 0.611271 0.060808 0.213549
O O4 0.831014 0.095578 0.999119
O O5 0.987170 0.609113 0.741781
O O6 0.423898 0.551757 0.706916
O O7 0.363160 0.348317 0.115123
O O8 0.250414 0.477254 0.120195
O O9 0.938345 0.418270 0.015696
O O10 0.028262 0.209741 0.364262
O O11 0.514586 0.174119 0.349500
O O12 0.294046 0.226243 0.162882
O O13 0.357218 0.717416 0.707984
O O14 0.302308 0.762702 0.458926
O O15 0.753096 0.515327 0.112112
#
# Coordination Sequence:
#
# PCOD9246011 Si02
#       8
#     4   4   4   4   4   4   4   2
#     4  10  22  40  63 100 140 171 249 289 356 432
#     4  10  21  39  69  96 134 189 229 297 358 422
#     4   9  21  41  61  99 131 178 225 291 343 435
#     4  10  26  45  70 106 138 190 229 306 356 430
#     4  10  26  45  71 102 137 186 238 290 371 421
#     4  10  25  45  73 100 142 184 243 296 359 432
#     4   9  20  38  60  96 131 181 221 284 357 416
#     4   8  20  38  54  92 132 164 230 268 354 416
#
# _framework density 26.656775
#
# number of rings (size 3 to 8) (size 9 to 14) (size 15 to 20)
#    1.600    0.800    0.000    0.400    7.467    1.600 
#    2.400    0.000    0.000    0.000    0.000    0.000 
#    0.000    0.000    0.000    0.000    0.000    0.000 
#
# Total GULP energy -167452.128666 kJ/mol
# GULP energy per Si atom -5581.737622 kJ/mol
# Density = 2.659610 g / cm^3
# Si number density = 26.656775 Si / 1000 Ang^3
#
#
#
# Elastic Constant Matrix: (Units=GPa)
#
#
# Indices 1 2 3 4 5 6 
#
# 1 132.7518 20.2885 45.2345 0.0000 -23.7860 0.0000
# 2 20.2885 59.9041 31.4660 0.0000 -20.2996 0.0000
# 3 45.2345 31.4660 168.6991 0.0000 -15.2617 0.0000
# 4 0.0000 0.0000 0.0000 24.1995 0.0000 -6.0209
# 5 -23.7860 -20.2996 -15.2617 0.0000 48.5176 0.0000
# 6 0.0000 0.0000 0.0000 -6.0209 0.0000 42.0287
#
#
#
# Elastic Compliance Matrix: (Units=1/GPa)
#
#
# Indices 1 2 3 4 5 6 
#
# 1 0.008932 -0.000856 -0.001926 0.000000 0.003415 0.000000
# 2 -0.000856 0.021102 -0.003032 0.000000 0.007456 0.000000
# 3 -0.001926 -0.003032 0.007009 0.000000 -0.000008 0.000000
# 4 0.000000 0.000000 0.000000 0.042850 0.000000 0.006139
# 5 0.003415 0.007456 -0.000008 0.000000 0.025402 0.000000
# 6 0.000000 0.000000 0.000000 0.006139 0.000000 0.024673
#
#
# Mechanical properties :
#
#
# Convention : Reuss Voigt Hill
#
# Bulk Modulus (GPa) = 39.34760 61.70366 50.52563
# Shear Modulus (GPa) = 33.31799 40.57355 36.94577
#
# Velocity S-wave (km/s) = 3.53921 3.90561 3.72691
# Velocity P-wave (km/s) = 5.61197 6.59819 6.12496
#
# Compressibility (1/GPa) = 0.02541451
#
# Stress axis : x y z
#
# Youngs Moduli (GPa) = 111.95773 47.38786 142.67279
#
# Poissons Ratio (x) = 0.04057 0.27484
# Poissons Ratio (y) = 0.09584 0.43259
# Poissons Ratio (z) = 0.21567 0.14368
#
# Static dielectric constant tensor:
#      x y z
#    x 2.148740 0.000000 0.093330 
#    y 0.000000 2.248050 0.000000 
#    z 0.093330 0.000000 2.110950 
# 
# From -- ./inp_files/22094.got.cif
#   From: 2010.05.17/outbox.cif.g08.bks.cpg/sg14_12_cif.got.tgz:22094.got - 2010.06.03 17:49:19.
