data_PCOD9246810
_publ_section_title
;
Structure prediction by ZEFSAII (Michael W. Deem and Ramdas Pophale) SiO2 
 PCOD9246810
Probable space group: P 21/C
;
_chemical_formula_sum "Si O2"
_cell_formula_units_Z 32
_cell_length_a 5.319640
_cell_length_b 17.365189
_cell_length_c 12.185947
_cell_angle_alpha 90.000000
_cell_angle_beta 103.714073
_cell_angle_gamma 90.000000
_cell_volume 1093.603238
_symmetry_space_group_name_H-M "P 21/C"
_symmetry_group_IT_number 14
_symmetry_cell_setting 'monoclinic'
loop_
_space_group_symop_operation_xyz
x,y,z
-x,1/2+y,1/2-z
-x,-y,-z
x,1/2-y,1/2+z
loop_
_atom_site_type_symbol
_atom_site_label
_atom_site_fract_x
_atom_site_fract_y
_atom_site_fract_z
Si Si1 0.592552 0.811859 0.367015
Si Si2 0.371355 0.073773 0.206578
Si Si3 0.835078 0.803460 0.610786
Si Si4 0.664247 0.061651 0.451565
Si Si5 0.915060 0.452926 0.769708
Si Si6 0.017696 0.090199 0.977575
Si Si7 0.867940 0.217425 0.559439
Si Si8 0.546828 0.648381 0.631312
O O1 0.796749 0.617554 0.401387
O O2 0.698042 0.846913 0.492438
O O3 0.859908 0.774871 0.351723
O O4 0.363128 0.756082 0.384754
O O5 0.497297 0.104589 0.334758
O O6 0.638296 0.043866 0.181779
O O7 0.276438 0.878609 0.050333
O O8 0.057254 0.760055 0.558437
O O9 0.628551 0.738368 0.622848
O O10 0.988628 0.863506 0.702461
O O11 0.861987 0.019393 0.387191
O O12 0.202400 0.873363 0.461660
O O13 0.500000 0.000000 0.500000
O O14 0.163057 0.486484 0.734772
O O15 0.198813 0.107959 0.892087
O O16 0.000000 0.000000 0.000000
O O17 0.490136 0.136485 0.742270
#
# Coordination Sequence:
#
# PCOD9246810 Si02
#       8
#     4   4   4   4   4   4   4   4
#     4  10  21  42  66 103 144 180 232 292 382 425
#     4  10  21  42  66  96 138 198 231 295 379 409
#     4   9  23  41  73 107 150 173 231 313 377 453
#     4   9  20  35  64 105 138 184 238 283 362 444
#     4   9  20  39  67 102 145 175 227 299 373 439
#     4  12  29  52  67 100 148 199 269 323 347 436
#     4   9  20  40  64  97 154 176 217 303 374 424
#     4  12  27  45  78 103 137 204 261 294 391 455
#
# _framework density 29.261071999999999
#
# number of rings (size 3 to 8) (size 9 to 14) (size 15 to 20)
#    1.500    0.500    0.000    2.625    1.750    3.500 
#    2.250    2.500    0.000    0.000    0.000    0.000 
#    0.000    0.000    0.000    0.000    0.000    0.000 
#
# Total GULP energy -178460.883877 kJ/mol
# GULP energy per Si atom -5576.902621 kJ/mol
# Density = 2.919447 g / cm^3
# Si number density = 29.261072 Si / 1000 Ang^3
#
#
#
# Elastic Constant Matrix: (Units=GPa)
#
#
# Indices 1 2 3 4 5 6 
#
# 1 274.9555 62.4638 44.9569 0.0000 -35.2126 0.0000
# 2 62.4638 143.1989 27.3245 0.0000 3.6257 0.0000
# 3 44.9569 27.3245 149.6854 0.0000 3.9969 0.0000
# 4 0.0000 0.0000 0.0000 28.6016 0.0000 -14.2607
# 5 -35.2126 3.6257 3.9969 0.0000 48.7354 0.0000
# 6 0.0000 0.0000 0.0000 -14.2607 0.0000 48.1142
#
#
#
# Elastic Compliance Matrix: (Units=1/GPa)
#
#
# Indices 1 2 3 4 5 6 
#
# 1 0.004737 -0.001936 -0.001167 0.000000 0.003662 0.000000
# 2 -0.001936 0.008036 -0.000834 0.000000 -0.001928 0.000000
# 3 -0.001167 -0.000834 0.007220 0.000000 -0.001373 0.000000
# 4 0.000000 0.000000 0.000000 0.041026 0.000000 0.012160
# 5 0.003662 -0.001928 -0.001373 0.000000 0.023421 0.000000
# 6 0.000000 0.000000 0.000000 0.012160 0.000000 0.024388
#
#
# Mechanical properties :
#
#
# Convention : Reuss Voigt Hill
#
# Bulk Modulus (GPa) = 82.51896 93.03669 87.77783
# Shear Modulus (GPa) = 41.41101 53.96320 47.68711
#
# Velocity S-wave (km/s) = 3.76603 4.29907 4.04135
# Velocity P-wave (km/s) = 6.86825 7.51712 7.20000
#
# Compressibility (1/GPa) = 0.01211843
#
# Stress axis : x y z
#
# Youngs Moduli (GPa) = 211.12211 124.44306 138.50316
#
# Poissons Ratio (x) = 0.24094 0.16163
# Poissons Ratio (y) = 0.40877 0.11550
# Poissons Ratio (z) = 0.24637 0.10377
#
# Static dielectric constant tensor:
#      x y z
#    x 2.572290 0.000000 -0.114140 
#    y 0.000000 2.367820 0.000000 
#    z -0.114140 0.000000 2.450170 
# 
# From -- ./inp_files/37844.got.cif
#   From: 2010.05.17/outbox.cif.g08.bks.cpg/sg14_19_cif.got.tgz:37844.got - 2010.06.03 17:49:19.
