data_PCOD9246395
_publ_section_title
;
Structure prediction by ZEFSAII (Michael W. Deem and Ramdas Pophale) SiO2 
 PCOD9246395
Probable space group: P 21/C
;
_chemical_formula_sum "Si O2"
_cell_formula_units_Z 32
_cell_length_a 8.227474
_cell_length_b 27.551479
_cell_length_c 11.235494
_cell_angle_alpha 90.000000
_cell_angle_beta 32.166736
_cell_angle_gamma 90.000000
_cell_volume 1355.905272
_symmetry_space_group_name_H-M "P 21/C"
_symmetry_group_IT_number 14
_symmetry_cell_setting 'monoclinic'
loop_
_space_group_symop_operation_xyz
x,y,z
-x,1/2+y,1/2-z
-x,-y,-z
x,1/2-y,1/2+z
loop_
_atom_site_type_symbol
_atom_site_label
_atom_site_fract_x
_atom_site_fract_y
_atom_site_fract_z
Si Si1 0.530748 0.374623 0.456950
Si Si2 0.332003 0.561651 0.821340
Si Si3 0.173332 0.768508 0.552194
Si Si4 0.673870 0.542192 0.247436
Si Si5 0.418630 0.107149 0.406143
Si Si6 0.277723 0.182084 0.680656
Si Si7 0.884692 0.621483 0.500244
Si Si8 0.635221 0.807476 0.748366
O O1 0.751746 0.394255 0.217549
O O2 0.511866 0.418669 0.562502
O O3 0.225540 0.368708 0.566139
O O4 0.550757 0.326238 0.519731
O O5 0.426609 0.513433 0.689991
O O6 0.627309 0.582554 0.703612
O O7 0.022167 0.547248 0.077853
O O8 0.367415 0.800732 0.525790
O O9 0.454150 0.739481 0.318168
O O10 0.918071 0.727897 0.746614
O O11 0.978703 0.799070 0.578486
O O12 0.675595 0.559251 0.107857
O O13 0.252688 0.132255 0.620957
O O14 0.392187 0.151098 0.329522
O O15 0.776792 0.101522 0.211109
O O16 0.150760 0.167127 0.889704
#
# Coordination Sequence:
#
# PCOD9246395 Si02
#       8
#     4   4   4   4   4   4   4   4
#     4   9  21  38  67  85 124 162 197 249 300 364
#     4   9  22  38  66  92 120 164 203 249 300 371
#     4  10  23  42  62  83 124 158 209 251 295 369
#     4  10  21  41  64  97 119 158 212 245 305 364
#     4  11  24  38  64  88 127 156 198 256 306 362
#     4  11  24  44  59  92 124 162 205 252 305 362
#     4  10  23  39  62  90 124 164 195 244 311 359
#     4  10  21  41  58  93 114 157 204 247 307 351
#
# _framework density 23.600470000000001
#
# number of rings (size 3 to 8) (size 9 to 14) (size 15 to 20)
#    0.750    1.250    1.250    1.125    7.000    1.500 
#    9.000    0.625    0.000    0.000    0.000    0.000 
#    0.000    0.000    0.000    0.000    0.000    0.000 
#
# Total GULP energy -178309.536150 kJ/mol
# GULP energy per Si atom -5572.173005 kJ/mol
# Density = 2.354675 g / cm^3
# Si number density = 23.600470 Si / 1000 Ang^3
#
#
#
# Elastic Constant Matrix: (Units=GPa)
#
#
# Indices 1 2 3 4 5 6 
#
# 1 74.6003 8.6763 15.9034 0.0000 -10.6870 0.0000
# 2 8.6763 66.9627 8.0294 0.0000 4.1527 0.0000
# 3 15.9034 8.0294 31.9873 0.0000 -20.2104 0.0000
# 4 0.0000 0.0000 0.0000 27.8397 0.0000 -8.0963
# 5 -10.6870 4.1527 -20.2104 0.0000 34.6855 0.0000
# 6 0.0000 0.0000 0.0000 -8.0963 0.0000 30.7749
#
#
#
# Elastic Compliance Matrix: (Units=1/GPa)
#
#
# Indices 1 2 3 4 5 6 
#
# 1 0.015089 -0.001224 -0.006591 0.000000 0.000955 0.000000
# 2 -0.001224 0.016476 -0.007932 0.000000 -0.006971 0.000000
# 3 -0.006591 -0.007932 0.056734 0.000000 0.031976 0.000000
# 4 0.000000 0.000000 0.000000 0.038896 0.000000 0.010233
# 5 0.000955 -0.006971 0.031976 0.000000 0.048591 0.000000
# 6 0.000000 0.000000 0.000000 0.010233 0.000000 0.035186
#
#
# Mechanical properties :
#
#
# Convention : Reuss Voigt Hill
#
# Bulk Modulus (GPa) = 17.60422 26.52981 22.06702
# Shear Modulus (GPa) = 19.12769 28.05609 23.59189
#
# Velocity S-wave (km/s) = 2.84998 3.45163 3.16513
# Velocity P-wave (km/s) = 4.27847 5.21063 4.76739
#
# Compressibility (1/GPa) = 0.05680456
#
# Stress axis : x y z
#
# Youngs Moduli (GPa) = 66.27305 60.69542 17.62610
#
# Poissons Ratio (x) = 0.07429 0.11618
# Poissons Ratio (y) = 0.08111 0.13981
# Poissons Ratio (z) = 0.43683 0.48143
#
# Static dielectric constant tensor:
#      x y z
#    x 1.945040 0.000000 0.005990 
#    y 0.000000 1.920490 0.000000 
#    z 0.005990 0.000000 1.978850 
# 
# From -- ./inp_files/27176.got.cif
#   From: 2010.05.17/outbox.cif.g08.bks.cpg/sg14_14_cif.got.tgz:27176.got - 2010.06.03 17:49:19.
