data_PCOD9246586
_publ_section_title
;
Structure prediction by ZEFSAII (Michael W. Deem and Ramdas Pophale) SiO2 
 PCOD9246586
Probable space group: P 21/C
;
_chemical_formula_sum "Si O2"
_cell_formula_units_Z 32
_cell_length_a 8.396120
_cell_length_b 12.303935
_cell_length_c 22.351679
_cell_angle_alpha 90.000000
_cell_angle_beta 143.103172
_cell_angle_gamma 90.000000
_cell_volume 1386.296432
_symmetry_space_group_name_H-M "P 21/C"
_symmetry_group_IT_number 14
_symmetry_cell_setting 'monoclinic'
loop_
_space_group_symop_operation_xyz
x,y,z
-x,1/2+y,1/2-z
-x,-y,-z
x,1/2-y,1/2+z
loop_
_atom_site_type_symbol
_atom_site_label
_atom_site_fract_x
_atom_site_fract_y
_atom_site_fract_z
Si Si1 0.619942 0.219478 0.392905
Si Si2 0.887015 0.685653 0.629369
Si Si3 0.500082 0.505666 0.205248
Si Si4 0.972319 0.016929 0.213139
Si Si5 0.775868 0.567357 0.083391
Si Si6 0.993257 0.753569 0.781875
Si Si7 0.030408 0.381235 0.103671
Si Si8 0.847297 0.431780 0.404818
O O1 0.317344 0.219902 0.323810
O O2 0.683678 0.334845 0.384880
O O3 0.830663 0.191643 0.506578
O O4 0.634742 0.118977 0.351665
O O5 0.753685 0.801749 0.571696
O O6 0.091713 0.720470 0.745296
O O7 0.777972 0.580110 0.634314
O O8 0.986460 0.629138 0.598015
O O9 0.739433 0.492562 0.229922
O O10 0.312088 0.400704 0.156377
O O11 0.648059 0.514454 0.312688
O O12 0.046382 0.038773 0.304470
O O13 0.875583 0.133220 0.159508
O O14 0.924972 0.505056 0.075125
O O15 0.500000 0.500000 0.000000
O O16 0.980229 0.670855 0.833117
O O17 0.000000 0.500000 0.500000
#
# Coordination Sequence:
#
# PCOD9246586 Si02
#       8
#     4   4   4   4   4   4   4   4
#     4  11  24  41  65  96 134 172 225 287 344 405
#     4  10  21  42  66  92 134 173 224 273 344 406
#     4  10  22  41  64  96 133 178 224 281 340 413
#     4   9  20  38  64  90 130 171 218 268 345 387
#     4  11  22  40  66  97 130 170 228 285 338 411
#     4  10  21  41  66  96 131 179 216 283 336 414
#     4  12  22  39  68  98 129 175 233 273 346 418
#     4  11  25  42  68  99 138 181 228 286 350 416
#
# _framework density 23.083086999999999
#
# number of rings (size 3 to 8) (size 9 to 14) (size 15 to 20)
#    0.000    1.500    2.500    3.375    5.250    1.000 
#    0.000    3.125    5.500    0.000    0.000    0.000 
#    0.000    0.000    0.000    0.000    0.000    0.000 
#
# Total GULP energy -178172.453759 kJ/mol
# GULP energy per Si atom -5567.889180 kJ/mol
# Density = 2.303055 g / cm^3
# Si number density = 23.083087 Si / 1000 Ang^3
#
#
#
# Elastic Constant Matrix: (Units=GPa)
#
#
# Indices 1 2 3 4 5 6 
#
# 1 46.5529 22.0799 4.6723 0.0000 -11.5898 0.0000
# 2 22.0799 140.0065 -3.9659 0.0000 -8.1866 0.0000
# 3 4.6723 -3.9659 57.6093 0.0000 -14.3408 0.0000
# 4 0.0000 0.0000 0.0000 40.5319 0.0000 -3.8186
# 5 -11.5898 -8.1866 -14.3408 0.0000 17.2626 0.0000
# 6 0.0000 0.0000 0.0000 -3.8186 0.0000 29.1626
#
#
#
# Elastic Compliance Matrix: (Units=1/GPa)
#
#
# Indices 1 2 3 4 5 6 
#
# 1 0.027431 -0.003166 0.002229 0.000000 0.018767 0.000000
# 2 -0.003166 0.007851 0.001507 0.000000 0.002850 0.000000
# 3 0.002229 0.001507 0.022481 0.000000 0.020887 0.000000
# 4 0.000000 0.000000 0.000000 0.024980 0.000000 0.003271
# 5 0.018767 0.002850 0.020887 0.000000 0.089231 0.000000
# 6 0.000000 0.000000 0.000000 0.003271 0.000000 0.034719
#
#
# Mechanical properties :
#
#
# Convention : Reuss Voigt Hill
#
# Bulk Modulus (GPa) = 16.97713 32.19348 24.58530
# Shear Modulus (GPa) = 22.20380 32.15024 27.17702
#
# Velocity S-wave (km/s) = 3.10483 3.73608 3.43499
# Velocity P-wave (km/s) = 4.49711 5.70860 5.13868
#
# Compressibility (1/GPa) = 0.05890278
#
# Stress axis : x y z
#
# Youngs Moduli (GPa) = 36.45519 127.37160 44.48289
#
# Poissons Ratio (x) = 0.40320 -0.09916
# Poissons Ratio (y) = 0.11540 -0.06702
# Poissons Ratio (z) = -0.08126 -0.19189
#
# Static dielectric constant tensor:
#      x y z
#    x 1.990680 0.000000 0.045890 
#    y 0.000000 1.983120 0.000000 
#    z 0.045890 0.000000 1.938070 
# 
# From -- ./inp_files/72367.got.cif
#   From: 2010.05.17/outbox.cif.g08.bks.cpg/sg14_37_cif.got.tgz:72367.got - 2010.06.03 17:49:19.
