data_PCOD9246195
_publ_section_title
;
Structure prediction by ZEFSAII (Michael W. Deem and Ramdas Pophale) SiO2 
 PCOD9246195
Probable space group: P 21/C
;
_chemical_formula_sum "Si O2"
_cell_formula_units_Z 20
_cell_length_a 5.356586
_cell_length_b 8.568035
_cell_length_c 18.925519
_cell_angle_alpha 90.000000
_cell_angle_beta 106.070829
_cell_angle_gamma 90.000000
_cell_volume 834.650088
_symmetry_space_group_name_H-M "P 21/C"
_symmetry_group_IT_number 14
_symmetry_cell_setting 'monoclinic'
loop_
_space_group_symop_operation_xyz
x,y,z
-x,1/2+y,1/2-z
-x,-y,-z
x,1/2-y,1/2+z
loop_
_atom_site_type_symbol
_atom_site_label
_atom_site_fract_x
_atom_site_fract_y
_atom_site_fract_z
Si Si1 0.074312 0.339903 0.325626
Si Si2 0.349662 0.771994 0.300048
Si Si3 0.825978 0.155393 0.564845
Si Si4 0.299817 0.410768 0.748266
Si Si5 0.766697 0.705469 0.022783
O O1 0.275727 0.241696 0.294835
O O2 0.152754 0.331325 0.412356
O O3 0.809880 0.247210 0.285221
O O4 0.978497 0.505887 0.288832
O O5 0.169030 0.789488 0.354018
O O6 0.566440 0.640895 0.314094
O O7 0.454918 0.949715 0.299413
O O8 0.539817 0.208608 0.516352
O O9 0.055428 0.215692 0.532850
O O10 0.826944 0.966578 0.560230
#
# Coordination Sequence:
#
# PCOD9246195 Si02
#       5
#     4   4   4   4   4
#     4  10  23  42  66  99 128 184 228 293 330 429
#     4  10  24  41  65 100 130 185 221 299 331 428
#     4  10  22  39  66  97 140 177 233 280 348 409
#     4  10  24  38  70  93 136 170 241 276 355 399
#     4  10  21  40  65 100 133 184 229 285 338 419
#
# _framework density 23.962136000000001
#
# number of rings (size 3 to 8) (size 9 to 14) (size 15 to 20)
#    1.200    0.800    2.000    0.000    8.400    1.600 
#    0.000    2.000    0.000    0.000    0.000    0.000 
#    0.000    0.000    0.000    0.000    0.000    0.000 
#
# Total GULP energy -111523.035887 kJ/mol
# GULP energy per Si atom -5576.151794 kJ/mol
# Density = 2.390760 g / cm^3
# Si number density = 23.962136 Si / 1000 Ang^3
#
#
#
# Elastic Constant Matrix: (Units=GPa)
#
#
# Indices 1 2 3 4 5 6 
#
# 1 94.6832 22.5604 22.2185 0.0000 -26.8678 0.0000
# 2 22.5604 70.5134 30.9078 0.0000 -16.6307 0.0000
# 3 22.2185 30.9078 81.7640 0.0000 -15.2114 0.0000
# 4 0.0000 0.0000 0.0000 29.1230 0.0000 -1.7444
# 5 -26.8678 -16.6307 -15.2114 0.0000 42.4136 0.0000
# 6 0.0000 0.0000 0.0000 -1.7444 0.0000 36.3930
#
#
#
# Elastic Compliance Matrix: (Units=1/GPa)
#
#
# Indices 1 2 3 4 5 6 
#
# 1 0.013429 -0.001903 -0.001592 0.000000 0.007190 0.000000
# 2 -0.001903 0.018178 -0.005628 0.000000 0.003904 0.000000
# 3 -0.001592 -0.005628 0.015207 0.000000 0.002238 0.000000
# 4 0.000000 0.000000 0.000000 0.034436 0.000000 0.001651
# 5 0.007190 0.003904 0.002238 0.000000 0.030465 0.000000
# 6 0.000000 0.000000 0.000000 0.001651 0.000000 0.027557
#
#
# Mechanical properties :
#
#
# Convention : Reuss Voigt Hill
#
# Bulk Modulus (GPa) = 35.00518 44.25933 39.63225
# Shear Modulus (GPa) = 29.93273 33.00418 31.46845
#
# Velocity S-wave (km/s) = 3.53819 3.71529 3.62782
# Velocity P-wave (km/s) = 5.59750 6.07578 5.84154
#
# Compressibility (1/GPa) = 0.02856720
#
# Stress axis : x y z
#
# Youngs Moduli (GPa) = 74.46730 55.01075 65.75930
#
# Poissons Ratio (x) = 0.10468 0.10471
# Poissons Ratio (y) = 0.14170 0.37011
# Poissons Ratio (z) = 0.11857 0.30961
#
# Static dielectric constant tensor:
#      x y z
#    x 1.972240 0.000000 0.029480 
#    y 0.000000 1.996640 0.000000 
#    z 0.029480 0.000000 1.893580 
# 
# From -- ./inp_files/62935.got.cif
#   From: 2010.05.17/outbox.cif.g08.bks.cpg/sg14_32_cif.got.tgz:62935.got - 2010.06.03 17:49:19.
