data_PCOD9246104
_publ_section_title
;
Structure prediction by ZEFSAII (Michael W. Deem and Ramdas Pophale) SiO2 
 PCOD9246104
Probable space group: P 21/C
;
_chemical_formula_sum "Si O2"
_cell_formula_units_Z 30
_cell_length_a 11.419354
_cell_length_b 19.670844
_cell_length_c 5.235599
_cell_angle_alpha 90.000000
_cell_angle_beta 96.705185
_cell_angle_gamma 90.000000
_cell_volume 1168.019692
_symmetry_space_group_name_H-M "P 21/C"
_symmetry_group_IT_number 14
_symmetry_cell_setting 'monoclinic'
loop_
_space_group_symop_operation_xyz
x,y,z
-x,1/2+y,1/2-z
-x,-y,-z
x,1/2-y,1/2+z
loop_
_atom_site_type_symbol
_atom_site_label
_atom_site_fract_x
_atom_site_fract_y
_atom_site_fract_z
Si Si1 0.653305 0.587675 0.903893
Si Si2 0.844360 0.003480 0.709288
Si Si3 0.500000 0.000000 0.000000
Si Si4 0.471931 0.645246 0.267984
Si Si5 0.019048 0.729130 0.350773
Si Si6 0.905882 0.074558 0.217418
Si Si7 0.679507 0.710959 0.560748
Si Si8 0.276567 0.783191 0.432437
O O1 0.586840 0.525860 0.753600
O O2 0.707638 0.637878 0.700771
O O3 0.748047 0.552765 0.115079
O O4 0.562880 0.628594 0.059845
O O5 0.853721 0.057171 0.480512
O O6 0.827301 0.042319 0.971523
O O7 0.968998 0.964690 0.755975
O O8 0.534572 0.079069 0.062753
O O9 0.537935 0.702009 0.459442
O O10 0.348702 0.660742 0.101114
O O11 0.951450 0.742360 0.592256
O O12 0.063259 0.652580 0.332263
O O13 0.134624 0.778557 0.399088
O O14 0.715489 0.735310 0.287799
O O15 0.306286 0.778358 0.141518
#
# Coordination Sequence:
#
# PCOD9246104 Si02
#       8
#     4   4   2   4   4   4   4   4
#     4  11  25  43  65  95 137 177 233 286 339 416
#     4  10  24  44  72 102 129 184 226 287 359 409
#     4  10  26  40  60  94 132 182 228 280 328 404
#     4  11  23  41  60  88 133 175 226 282 327 410
#     4  10  21  40  63 100 132 168 215 277 345 410
#     4  10  22  45  73 100 138 170 231 293 346 427
#     4  11  22  39  62  86 120 170 224 271 326 398
#     4  10  23  37  59  90 122 171 216 263 332 399
#
# _framework density 25.684498999999999
#
# number of rings (size 3 to 8) (size 9 to 14) (size 15 to 20)
#    0.000    1.600    1.333    2.000    7.467    4.267 
#    2.400    1.333    0.000    0.000    0.000    0.000 
#    0.000    0.000    0.000    0.000    0.000    0.000 
#
# Total GULP energy -167198.731105 kJ/mol
# GULP energy per Si atom -5573.291037 kJ/mol
# Density = 2.562604 g / cm^3
# Si number density = 25.684499 Si / 1000 Ang^3
#
#
#
# Elastic Constant Matrix: (Units=GPa)
#
#
# Indices 1 2 3 4 5 6 
#
# 1 67.5554 21.5417 39.7372 0.0000 13.4191 0.0000
# 2 21.5417 94.1602 37.6845 0.0000 9.7177 0.0000
# 3 39.7372 37.6845 181.2505 0.0000 15.2322 0.0000
# 4 0.0000 0.0000 0.0000 32.4280 0.0000 -2.1006
# 5 13.4191 9.7177 15.2322 0.0000 28.5887 0.0000
# 6 0.0000 0.0000 0.0000 -2.1006 0.0000 8.4492
#
#
#
# Elastic Compliance Matrix: (Units=1/GPa)
#
#
# Indices 1 2 3 4 5 6 
#
# 1 0.018611 -0.002385 -0.003055 0.000000 -0.006297 0.000000
# 2 -0.002385 0.012105 -0.001824 0.000000 -0.002023 0.000000
# 3 -0.003055 -0.001824 0.006693 0.000000 -0.001512 0.000000
# 4 0.000000 0.000000 0.000000 0.031342 0.000000 0.007792
# 5 -0.006297 -0.002023 -0.001512 0.000000 0.039428 0.000000
# 6 0.000000 0.000000 0.000000 0.007792 0.000000 0.120291
#
#
# Mechanical properties :
#
#
# Convention : Reuss Voigt Hill
#
# Bulk Modulus (GPa) = 43.70461 60.09920 51.90191
# Shear Modulus (GPa) = 19.95005 30.16004 25.05504
#
# Velocity S-wave (km/s) = 2.79002 3.43045 3.12668
# Velocity P-wave (km/s) = 5.23754 6.25624 5.76942
#
# Compressibility (1/GPa) = 0.02288088
#
# Stress axis : x y z
#
# Youngs Moduli (GPa) = 53.73102 82.61340 149.40284
#
# Poissons Ratio (x) = 0.19705 0.45645
# Poissons Ratio (y) = 0.12816 0.27247
# Poissons Ratio (z) = 0.16416 0.15067
#
# Static dielectric constant tensor:
#      x y z
#    x 2.062870 0.000000 -0.057420 
#    y 0.000000 2.007720 0.000000 
#    z -0.057420 0.000000 2.094740 
# 
# From -- ./inp_files/3746.got.cif
#   From: 2010.05.17/outbox.cif.g08.bks.cpg/sg14_2_cif.got.tgz:3746.got - 2010.06.03 17:49:19.
