data_PCOD9246116
_publ_section_title
;
Structure prediction by ZEFSAII (Michael W. Deem and Ramdas Pophale) SiO2 
 PCOD9246116
Probable space group: P 21/C
;
_chemical_formula_sum "Si O2"
_cell_formula_units_Z 32
_cell_length_a 8.070035
_cell_length_b 17.852800
_cell_length_c 10.235716
_cell_angle_alpha 90.000000
_cell_angle_beta 63.142572
_cell_angle_gamma 90.000000
_cell_volume 1315.618009
_symmetry_space_group_name_H-M "P 21/C"
_symmetry_group_IT_number 14
_symmetry_cell_setting 'monoclinic'
loop_
_space_group_symop_operation_xyz
x,y,z
-x,1/2+y,1/2-z
-x,-y,-z
x,1/2-y,1/2+z
loop_
_atom_site_type_symbol
_atom_site_label
_atom_site_fract_x
_atom_site_fract_y
_atom_site_fract_z
Si Si1 0.696163 0.317406 0.105046
Si Si2 0.784649 0.525801 0.084688
Si Si3 0.375452 0.220619 0.907131
Si Si4 0.744117 0.357071 0.581454
Si Si5 0.083812 0.183366 0.388839
Si Si6 0.910614 0.879283 0.869961
Si Si7 0.507313 0.116527 0.429056
Si Si8 0.300280 0.526063 0.620312
O O1 0.550147 0.315072 0.273845
O O2 0.693292 0.228581 0.068163
O O3 0.634795 0.375282 0.012890
O O4 0.917049 0.325242 0.051274
O O5 0.793444 0.608800 0.145488
O O6 0.647534 0.549899 0.015085
O O7 0.697723 0.471550 0.223782
O O8 0.000000 0.500000 0.000000
O O9 0.214626 0.245974 0.861566
O O10 0.417494 0.299972 0.959769
O O11 0.283923 0.161330 0.034817
O O12 0.620032 0.386437 0.750121
O O13 0.733131 0.400873 0.451077
O O14 0.951589 0.369915 0.559616
O O15 0.997930 0.171599 0.276812
O O16 0.861378 0.965261 0.857569
O O17 0.500000 0.500000 0.500000
#
# Coordination Sequence:
#
# PCOD9246116 Si02
#       8
#     4   4   4   4   4   4   4   4
#     4  11  22  39  65  95 128 164 211 270 325 385
#     4  10  23  44  64  89 127 168 208 266 320 380
#     4  10  22  37  60  97 124 161 214 262 318 386
#     4  11  22  41  63  93 125 169 217 260 323 384
#     4  10  21  41  62  90 128 166 207 262 333 379
#     4  11  22  40  64  88 132 169 211 271 321 379
#     4  10  21  40  63  89 130 163 201 265 327 370
#     4  11  24  41  65  89 123 173 218 257 312 393
#
# _framework density 24.323170000000001
#
# number of rings (size 3 to 8) (size 9 to 14) (size 15 to 20)
#    0.000    1.500    3.750    1.125    3.500    2.000 
#    6.750    0.625    0.000    0.000    0.000    0.000 
#    0.000    0.000    0.000    0.000    0.000    0.000 
#
# Total GULP energy -178628.030752 kJ/mol
# GULP energy per Si atom -5582.125961 kJ/mol
# Density = 2.426781 g / cm^3
# Si number density = 24.323170 Si / 1000 Ang^3
#
#
#
# Elastic Constant Matrix: (Units=GPa)
#
#
# Indices 1 2 3 4 5 6 
#
# 1 98.2857 13.1932 25.5426 0.0000 -1.3269 0.0000
# 2 13.1932 88.8937 19.1731 0.0000 2.9589 0.0000
# 3 25.5426 19.1731 88.4839 0.0000 -18.7589 0.0000
# 4 0.0000 0.0000 0.0000 31.0270 0.0000 -2.1708
# 5 -1.3269 2.9589 -18.7589 0.0000 41.3708 0.0000
# 6 0.0000 0.0000 0.0000 -2.1708 0.0000 48.8238
#
#
#
# Elastic Compliance Matrix: (Units=1/GPa)
#
#
# Indices 1 2 3 4 5 6 
#
# 1 0.011124 -0.000919 -0.003233 0.000000 -0.001044 0.000000
# 2 -0.000919 0.012063 -0.002808 0.000000 -0.002165 0.000000
# 3 -0.003233 -0.002808 0.014232 0.000000 0.006550 0.000000
# 4 0.000000 0.000000 0.000000 0.032331 0.000000 0.001438
# 5 -0.001044 -0.002165 0.006550 0.000000 0.027263 0.000000
# 6 0.000000 0.000000 0.000000 0.001438 0.000000 0.020546
#
#
# Mechanical properties :
#
#
# Convention : Reuss Voigt Hill
#
# Bulk Modulus (GPa) = 42.55418 43.49792 43.02605
# Shear Modulus (GPa) = 35.89071 38.76128 37.32599
#
# Velocity S-wave (km/s) = 3.84549 3.99632 3.92163
# Velocity P-wave (km/s) = 6.10331 6.26228 6.18331
#
# Compressibility (1/GPa) = 0.02349946
#
# Stress axis : x y z
#
# Youngs Moduli (GPa) = 89.89620 82.89512 70.26452
#
# Poissons Ratio (x) = 0.07617 0.22719
# Poissons Ratio (y) = 0.08260 0.19729
# Poissons Ratio (z) = 0.29066 0.23275
#
# Static dielectric constant tensor:
#      x y z
#    x 2.062620 0.000000 0.080730 
#    y 0.000000 1.949840 0.000000 
#    z 0.080730 0.000000 2.015760 
# 
# From -- ./inp_files/26237.got.cif
#   From: 2010.05.17/outbox.cif.g08.bks.cpg/sg14_14_cif.got.tgz:26237.got - 2010.06.03 17:49:19.
