data_PCOD9246292
_publ_section_title
;
Structure prediction by ZEFSAII (Michael W. Deem and Ramdas Pophale) SiO2 
 PCOD9246292
Probable space group: P 21/C
;
_chemical_formula_sum "Si O2"
_cell_formula_units_Z 20
_cell_length_a 6.553238
_cell_length_b 12.109058
_cell_length_c 9.757433
_cell_angle_alpha 90.000000
_cell_angle_beta 111.860868
_cell_angle_gamma 90.000000
_cell_volume 718.608479
_symmetry_space_group_name_H-M "P 21/C"
_symmetry_group_IT_number 14
_symmetry_cell_setting 'monoclinic'
loop_
_space_group_symop_operation_xyz
x,y,z
-x,1/2+y,1/2-z
-x,-y,-z
x,1/2-y,1/2+z
loop_
_atom_site_type_symbol
_atom_site_label
_atom_site_fract_x
_atom_site_fract_y
_atom_site_fract_z
Si Si1 0.135128 0.140899 0.951568
Si Si2 0.214654 0.263727 0.732423
Si Si3 0.754950 0.411423 0.163682
Si Si4 0.269099 0.479175 0.130526
Si Si5 0.601004 0.166365 0.161339
O O1 0.148289 0.258011 0.872140
O O2 0.939556 0.079851 0.827413
O O3 0.080458 0.160283 0.095684
O O4 0.398313 0.116821 0.019732
O O5 0.466014 0.294720 0.764676
O O6 0.194159 0.139209 0.669407
O O7 0.530442 0.461750 0.166689
O O8 0.704015 0.279777 0.130186
O O9 0.810134 0.474248 0.036023
O O10 0.248040 0.570193 0.244309
#
# Coordination Sequence:
#
# PCOD9246292 Si02
#       5
#     4   4   4   4   4
#     4  10  22  41  61  92 131 166 214 264 317 364
#     4   9  22  41  62  93 130 167 214 261 312 382
#     4  10  22  39  64  94 125 175 203 267 322 376
#     4  10  21  40  67  89 130 170 213 255 330 376
#     4   9  21  39  63  92 128 164 213 263 305 385
#
# _framework density 27.831565999999999
#
# number of rings (size 3 to 8) (size 9 to 14) (size 15 to 20)
#    1.200    1.200    0.000    1.200    5.600    2.400 
#    0.000    0.000    0.000    0.000    0.000    0.000 
#    0.000    0.000    0.000    0.000    0.000    0.000 
#
# Total GULP energy -111774.008067 kJ/mol
# GULP energy per Si atom -5588.700403 kJ/mol
# Density = 2.776822 g / cm^3
# Si number density = 27.831566 Si / 1000 Ang^3
#
#
#
# Elastic Constant Matrix: (Units=GPa)
#
#
# Indices 1 2 3 4 5 6 
#
# 1 49.3610 29.5155 5.6571 0.0000 4.1484 0.0000
# 2 29.5155 174.3442 63.0265 0.0000 27.6753 0.0000
# 3 5.6571 63.0265 153.9085 0.0000 28.4517 0.0000
# 4 0.0000 0.0000 0.0000 43.0455 0.0000 12.8702
# 5 4.1484 27.6753 28.4517 0.0000 46.1771 0.0000
# 6 0.0000 0.0000 0.0000 12.8702 0.0000 37.4611
#
#
#
# Elastic Compliance Matrix: (Units=1/GPa)
#
#
# Indices 1 2 3 4 5 6 
#
# 1 0.022639 -0.004135 0.000879 0.000000 -0.000097 0.000000
# 2 -0.004135 0.007785 -0.002530 0.000000 -0.002735 0.000000
# 3 0.000879 -0.002530 0.008166 0.000000 -0.003594 0.000000
# 4 0.000000 0.000000 0.000000 0.025891 0.000000 -0.008895
# 5 -0.000097 -0.002735 -0.003594 0.000000 0.025518 0.000000
# 6 0.000000 0.000000 0.000000 -0.008895 0.000000 0.029750
#
#
# Mechanical properties :
#
#
# Convention : Reuss Voigt Hill
#
# Bulk Modulus (GPa) = 37.01391 63.77908 50.39650
# Shear Modulus (GPa) = 35.63129 43.96436 39.79783
#
# Velocity S-wave (km/s) = 3.58194 3.97880 3.78557
# Velocity P-wave (km/s) = 5.51681 6.63880 6.10364
#
# Compressibility (1/GPa) = 0.02701687
#
# Stress axis : x y z
#
# Youngs Moduli (GPa) = 44.17180 128.45718 122.46581
#
# Poissons Ratio (x) = 0.53117 -0.10767
# Poissons Ratio (y) = 0.18265 0.30987
# Poissons Ratio (z) = -0.03883 0.32503
#
# Static dielectric constant tensor:
#      x y z
#    x 2.270940 0.000000 0.063860 
#    y 0.000000 2.132360 0.000000 
#    z 0.063860 0.000000 2.164550 
# 
# From -- ./inp_files/23955.got.cif
#   From: 2010.05.17/outbox.cif.g08.bks.cpg/sg14_12_cif.got.tgz:23955.got - 2010.06.03 17:49:19.
