data_PCOD9246821
_publ_section_title
;
Structure prediction by ZEFSAII (Michael W. Deem and Ramdas Pophale) SiO2 
 PCOD9246821
Probable space group: P 21/C
;
_chemical_formula_sum "Si O2"
_cell_formula_units_Z 30
_cell_length_a 6.218841
_cell_length_b 8.361152
_cell_length_c 27.267948
_cell_angle_alpha 90.000000
_cell_angle_beta 59.088641
_cell_angle_gamma 90.000000
_cell_volume 1216.456624
_symmetry_space_group_name_H-M "P 21/C"
_symmetry_group_IT_number 14
_symmetry_cell_setting 'monoclinic'
loop_
_space_group_symop_operation_xyz
x,y,z
-x,1/2+y,1/2-z
-x,-y,-z
x,1/2-y,1/2+z
loop_
_atom_site_type_symbol
_atom_site_label
_atom_site_fract_x
_atom_site_fract_y
_atom_site_fract_z
Si Si1 0.787378 0.261763 0.740640
Si Si2 0.536121 0.234534 0.176058
Si Si3 0.246338 0.445758 0.634304
Si Si4 0.853154 0.996834 0.311368
Si Si5 0.000000 0.000000 0.000000
Si Si6 0.008717 0.042938 0.596732
Si Si7 0.634108 0.724281 0.483417
Si Si8 0.074218 0.702182 0.582947
O O1 0.555408 0.292256 0.732024
O O2 0.788686 0.337496 0.793763
O O3 0.005411 0.359912 0.686449
O O4 0.870755 0.076855 0.731545
O O5 0.461437 0.086851 0.149805
O O6 0.328341 0.368631 0.191825
O O7 0.792760 0.324245 0.129204
O O8 0.333495 0.349008 0.575235
O O9 0.145823 0.614299 0.625246
O O10 0.833683 0.985268 0.371771
O O11 0.959851 0.925528 0.059524
O O12 0.243573 0.101779 0.992908
O O13 0.196768 0.116572 0.535141
O O14 0.911277 0.863667 0.600454
O O15 0.343871 0.749764 0.527997
#
# Coordination Sequence:
#
# PCOD9246821 Si02
#       8
#     4   4   4   4   2   4   4   4
#     4  10  22  41  68  93 127 169 211 265 324 378
#     4  10  21  42  68  92 130 173 216 262 334 383
#     4  10  21  42  66  92 129 172 210 271 324 386
#     4  10  23  43  67  93 131 168 211 267 320 389
#     4  10  24  40  64  94 120 166 222 264 314 388
#     4  11  24  43  65  94 136 170 211 272 329 383
#     4  11  22  42  67  91 130 172 214 267 330 377
#     4  11  26  40  66  98 129 171 219 270 322 389
#
# _framework density 24.661791999999998
#
# number of rings (size 3 to 8) (size 9 to 14) (size 15 to 20)
#    0.000    1.600    4.000    2.000    5.600    5.867 
#    0.000    0.000    0.000    0.000    0.000    0.000 
#    0.000    0.000    0.000    0.000    0.000    0.000 
#
# Total GULP energy -167096.656848 kJ/mol
# GULP energy per Si atom -5569.888562 kJ/mol
# Density = 2.460566 g / cm^3
# Si number density = 24.661792 Si / 1000 Ang^3
#
#
#
# Elastic Constant Matrix: (Units=GPa)
#
#
# Indices 1 2 3 4 5 6 
#
# 1 87.0780 -3.9504 30.0138 0.0000 29.7761 0.0000
# 2 -3.9504 59.9700 12.4156 0.0000 6.7967 0.0000
# 3 30.0138 12.4156 51.0624 0.0000 16.6981 0.0000
# 4 0.0000 0.0000 0.0000 26.3270 0.0000 3.1821
# 5 29.7761 6.7967 16.6981 0.0000 38.2926 0.0000
# 6 0.0000 0.0000 0.0000 3.1821 0.0000 31.9333
#
#
#
# Elastic Compliance Matrix: (Units=1/GPa)
#
#
# Indices 1 2 3 4 5 6 
#
# 1 0.018395 0.004187 -0.008059 0.000000 -0.011533 0.000000
# 2 0.004187 0.018583 -0.005641 0.000000 -0.004095 0.000000
# 3 -0.008059 -0.005641 0.027194 0.000000 -0.004590 0.000000
# 4 0.000000 0.000000 0.000000 0.038447 0.000000 -0.003831
# 5 -0.011533 -0.004095 -0.004590 0.000000 0.037811 0.000000
# 6 0.000000 0.000000 0.000000 -0.003831 0.000000 0.031697
#
#
# Mechanical properties :
#
#
# Convention : Reuss Voigt Hill
#
# Bulk Modulus (GPa) = 22.14996 30.56315 26.35655
# Shear Modulus (GPa) = 24.24825 29.95268 27.10047
#
# Velocity S-wave (km/s) = 3.13905 3.48880 3.31854
# Velocity P-wave (km/s) = 4.70523 5.35246 5.03925
#
# Compressibility (1/GPa) = 0.04514681
#
# Stress axis : x y z
#
# Youngs Moduli (GPa) = 54.36123 53.81355 36.77348
#
# Poissons Ratio (x) = -0.22534 0.29637
# Poissons Ratio (y) = -0.22763 0.20742
# Poissons Ratio (z) = 0.43811 0.30354
#
# Static dielectric constant tensor:
#      x y z
#    x 1.963740 0.000000 -0.044970 
#    y 0.000000 1.978030 0.000000 
#    z -0.044970 0.000000 1.952820 
# 
# From -- ./inp_files/78682.got.cif
#   From: 2010.05.17/outbox.cif.g08.bks.cpg/sg14_40_cif.got.tgz:78682.got - 2010.06.03 17:49:19.
