data_PCOD9246383
_publ_section_title
;
Structure prediction by ZEFSAII (Michael W. Deem and Ramdas Pophale) SiO2 
 PCOD9246383
Probable space group: P 21/C
;
_chemical_formula_sum "Si O2"
_cell_formula_units_Z 28
_cell_length_a 16.859592
_cell_length_b 13.721380
_cell_length_c 8.080640
_cell_angle_alpha 90.000000
_cell_angle_beta 145.485922
_cell_angle_gamma 90.000000
_cell_volume 1059.189972
_symmetry_space_group_name_H-M "P 21/C"
_symmetry_group_IT_number 14
_symmetry_cell_setting 'monoclinic'
loop_
_space_group_symop_operation_xyz
x,y,z
-x,1/2+y,1/2-z
-x,-y,-z
x,1/2-y,1/2+z
loop_
_atom_site_type_symbol
_atom_site_label
_atom_site_fract_x
_atom_site_fract_y
_atom_site_fract_z
Si Si1 0.967032 0.109668 0.323414
Si Si2 0.859155 0.266884 0.368602
Si Si3 0.704214 0.836644 0.409251
Si Si4 0.672370 0.467636 0.264889
Si Si5 0.264112 0.134377 0.907687
Si Si6 0.272318 0.548769 0.998653
Si Si7 0.400001 0.853346 0.030690
O O1 0.911463 0.165331 0.387997
O O2 0.842057 0.043071 0.043252
O O3 0.122395 0.073998 0.618968
O O4 0.966691 0.195850 0.188795
O O5 0.832229 0.359565 0.202646
O O6 0.703339 0.239560 0.166829
O O7 0.779424 0.736822 0.586337
O O8 0.669341 0.842700 0.154962
O O9 0.782163 0.937660 0.587140
O O10 0.559370 0.831754 0.261584
O O11 0.650031 0.572411 0.311345
O O12 0.631808 0.453547 0.003946
O O13 0.622178 0.393519 0.321396
O O14 0.352204 0.569940 0.307217
#
# Coordination Sequence:
#
# PCOD9246383 Si02
#       7
#     4   4   4   4   4   4   4
#     4  10  21  41  69  98 133 180 223 289 337 404
#     4  10  21  40  72  98 127 175 234 285 338 405
#     4  12  28  42  67  99 146 186 224 286 344 417
#     4  10  24  44  74 101 132 181 231 287 344 403
#     4  12  25  46  64 101 144 184 228 279 349 411
#     4  11  23  45  68 104 136 175 230 283 347 403
#     4  11  24  46  69 103 134 176 235 284 341 413
#
# _framework density 26.435296000000001
#
# number of rings (size 3 to 8) (size 9 to 14) (size 15 to 20)
#    0.000    1.143    2.857    2.571    2.000    0.571 
#    0.000    7.857    0.000    0.000    0.000    0.000 
#    0.000    0.000    0.000    0.000    0.000    0.000 
#
# Total GULP energy -156582.493031 kJ/mol
# GULP energy per Si atom -5592.231894 kJ/mol
# Density = 2.637513 g / cm^3
# Si number density = 26.435296 Si / 1000 Ang^3
#
#
#
# Elastic Constant Matrix: (Units=GPa)
#
#
# Indices 1 2 3 4 5 6 
#
# 1 122.6406 10.1489 17.7666 0.0000 -25.8836 0.0000
# 2 10.1489 75.3683 -20.3589 0.0000 -20.5710 0.0000
# 3 17.7666 -20.3589 60.0829 0.0000 -16.6002 0.0000
# 4 0.0000 0.0000 0.0000 19.7266 0.0000 3.9682
# 5 -25.8836 -20.5710 -16.6002 0.0000 50.9095 0.0000
# 6 0.0000 0.0000 0.0000 3.9682 0.0000 21.0217
#
#
#
# Elastic Compliance Matrix: (Units=1/GPa)
#
#
# Indices 1 2 3 4 5 6 
#
# 1 0.009299 -0.000747 -0.001956 0.000000 0.003788 0.000000
# 2 -0.000747 0.018697 0.009384 0.000000 0.010235 0.000000
# 3 -0.001956 0.009384 0.023271 0.000000 0.010386 0.000000
# 4 0.000000 0.000000 0.000000 0.052694 0.000000 -0.009947
# 5 0.003788 0.010235 0.010386 0.000000 0.029091 0.000000
# 6 0.000000 0.000000 0.000000 -0.009947 0.000000 0.049447
#
#
# Mechanical properties :
#
#
# Convention : Reuss Voigt Hill
#
# Bulk Modulus (GPa) = 15.47257 30.35612 22.91434
# Shear Modulus (GPa) = 26.22203 35.03391 30.62797
#
# Velocity S-wave (km/s) = 3.15291 3.64438 3.40752
# Velocity P-wave (km/s) = 4.37266 5.40525 4.91614
#
# Compressibility (1/GPa) = 0.06463050
#
# Stress axis : x y z
#
# Youngs Moduli (GPa) = 107.54383 53.48378 42.97146
#
# Poissons Ratio (x) = 0.03993 0.08405
# Poissons Ratio (y) = 0.08028 -0.40325
# Poissons Ratio (z) = 0.21035 -0.50190
#
# Static dielectric constant tensor:
#      x y z
#    x 2.132150 0.000000 0.016820 
#    y 0.000000 2.100170 0.000000 
#    z 0.016820 0.000000 2.064540 
# 
# From -- ./inp_files/18009.got.cif
#   From: 2010.05.17/outbox.cif.g08.bks.cpg/sg14_10_cif.got.tgz:18009.got - 2010.06.03 17:49:19.
