data_PCOD9246327
_publ_section_title
;
Structure prediction by ZEFSAII (Michael W. Deem and Ramdas Pophale) SiO2 
 PCOD9246327
Probable space group: P 21/C
;
_chemical_formula_sum "Si O2"
_cell_formula_units_Z 24
_cell_length_a 11.704739
_cell_length_b 14.586000
_cell_length_c 11.193890
_cell_angle_alpha 90.000000
_cell_angle_beta 37.291980
_cell_angle_gamma 90.000000
_cell_volume 1157.879803
_symmetry_space_group_name_H-M "P 21/C"
_symmetry_group_IT_number 14
_symmetry_cell_setting 'monoclinic'
loop_
_space_group_symop_operation_xyz
x,y,z
-x,1/2+y,1/2-z
-x,-y,-z
x,1/2-y,1/2+z
loop_
_atom_site_type_symbol
_atom_site_label
_atom_site_fract_x
_atom_site_fract_y
_atom_site_fract_z
Si Si1 0.301710 0.033826 0.301985
Si Si2 0.621858 0.161953 0.115041
Si Si3 0.905201 0.032163 0.761285
Si Si4 0.543428 0.131149 0.671649
Si Si5 0.867198 0.906464 0.024322
Si Si6 0.264476 0.583408 0.235165
O O1 0.441695 0.119980 0.195618
O O2 0.112125 0.048593 0.536919
O O3 0.227277 0.010034 0.232079
O O4 0.409236 0.945430 0.268825
O O5 0.633035 0.270212 0.118351
O O6 0.617396 0.117931 0.250664
O O7 0.804183 0.122184 0.896045
O O8 0.913746 0.962492 0.864945
O O9 0.320090 0.149358 0.846931
O O10 0.624311 0.093226 0.479389
O O11 0.800207 0.980028 0.179977
O O12 0.064600 0.862133 0.897263
#
# Coordination Sequence:
#
# PCOD9246327 Si02
#       6
#     4   4   4   4   4   4
#     4  11  23  43  66  91 128 172 209 262 314 375
#     4  11  26  40  65  95 129 169 210 264 312 380
#     4  10  22  43  67  89 127 167 216 256 317 369
#     4  12  24  39  65  96 126 169 212 258 318 371
#     4  10  21  40  68  91 119 171 204 266 316 370
#     4  10  22  41  63  91 127 160 213 260 316 374
#
# _framework density 20.727542
#
# number of rings (size 3 to 8) (size 9 to 14) (size 15 to 20)
#    0.000    1.333    5.000    1.000    2.333    1.333 
#    3.000    0.000    0.000    0.000    0.000    0.000 
#    0.000    0.000    0.000    0.000    0.000    0.000 
#
# Total GULP energy -134093.879894 kJ/mol
# GULP energy per Si atom -5587.244996 kJ/mol
# Density = 2.068036 g / cm^3
# Si number density = 20.727542 Si / 1000 Ang^3
#
#
#
# Elastic Constant Matrix: (Units=GPa)
#
#
# Indices 1 2 3 4 5 6 
#
# 1 74.6987 -4.0537 5.1227 0.0000 -4.6898 0.0000
# 2 -4.0537 48.2595 -0.4932 0.0000 5.7780 0.0000
# 3 5.1227 -0.4932 70.1324 0.0000 -0.0165 0.0000
# 4 0.0000 0.0000 0.0000 13.4535 0.0000 -3.8785
# 5 -4.6898 5.7780 -0.0165 0.0000 31.8910 0.0000
# 6 0.0000 0.0000 0.0000 -3.8785 0.0000 6.9908
#
#
#
# Elastic Compliance Matrix: (Units=1/GPa)
#
#
# Indices 1 2 3 4 5 6 
#
# 1 0.013620 0.000914 -0.000988 0.000000 0.001837 0.000000
# 2 0.000914 0.021244 0.000082 0.000000 -0.003714 0.000000
# 3 -0.000988 0.000082 0.014331 0.000000 -0.000153 0.000000
# 4 0.000000 0.000000 0.000000 0.088482 0.000000 0.049089
# 5 0.001837 -0.003714 -0.000153 0.000000 0.032300 0.000000
# 6 0.000000 0.000000 0.000000 0.049089 0.000000 0.170280
#
#
# Mechanical properties :
#
#
# Convention : Reuss Voigt Hill
#
# Bulk Modulus (GPa) = 20.32086 21.58246 20.95166
# Shear Modulus (GPa) = 14.01958 23.30137 18.66048
#
# Velocity S-wave (km/s) = 2.60354 3.35651 3.00371
# Velocity P-wave (km/s) = 4.34315 5.04545 4.70742
#
# Compressibility (1/GPa) = 0.04921051
#
# Stress axis : x y z
#
# Youngs Moduli (GPa) = 73.42253 47.07285 69.77661
#
# Poissons Ratio (x) = -0.04303 0.06894
# Poissons Ratio (y) = -0.06711 -0.00570
# Poissons Ratio (z) = 0.07254 -0.00385
#
# Static dielectric constant tensor:
#      x y z
#    x 1.781320 0.000000 -0.042470 
#    y 0.000000 1.742670 0.000000 
#    z -0.042470 0.000000 1.747100 
# 
# From -- ./inp_files/29728.got.cif
#   From: 2010.05.17/outbox.cif.g08.bks.cpg/sg14_15_cif.got.tgz:29728.got - 2010.06.03 17:49:19.
