data_PCOD9246270
_publ_section_title
;
Structure prediction by ZEFSAII (Michael W. Deem and Ramdas Pophale) SiO2 
 PCOD9246270
Probable space group: P 21/C
;
_chemical_formula_sum "Si O2"
_cell_formula_units_Z 30
_cell_length_a 5.008942
_cell_length_b 31.766255
_cell_length_c 8.778735
_cell_angle_alpha 90.000000
_cell_angle_beta 111.448802
_cell_angle_gamma 90.000000
_cell_volume 1300.093325
_symmetry_space_group_name_H-M "P 21/C"
_symmetry_group_IT_number 14
_symmetry_cell_setting 'monoclinic'
loop_
_space_group_symop_operation_xyz
x,y,z
-x,1/2+y,1/2-z
-x,-y,-z
x,1/2-y,1/2+z
loop_
_atom_site_type_symbol
_atom_site_label
_atom_site_fract_x
_atom_site_fract_y
_atom_site_fract_z
Si Si1 0.000000 0.500000 0.000000
Si Si2 0.826010 0.631970 0.726531
Si Si3 0.874215 0.725297 0.803789
Si Si4 0.425267 0.930255 0.974589
Si Si5 0.451971 0.621923 0.953439
Si Si6 0.086368 0.435972 0.830362
Si Si7 0.381734 0.997513 0.217588
Si Si8 0.504958 0.784806 0.523442
O O1 0.330180 0.489488 0.130878
O O2 0.054587 0.551261 0.040900
O O3 0.859938 0.682021 0.702507
O O4 0.642375 0.605953 0.566894
O O5 0.656594 0.627764 0.849728
O O6 0.142397 0.613796 0.817071
O O7 0.669578 0.760346 0.689301
O O8 0.733988 0.715298 0.935978
O O9 0.207178 0.736002 0.903593
O O10 0.324248 0.957347 0.100680
O O11 0.575783 0.963826 0.891839
O O12 0.140312 0.915400 0.828423
O O13 0.428373 0.666397 0.037689
O O14 0.624128 0.589059 0.092390
O O15 0.144176 0.485640 0.789249
#
# Coordination Sequence:
#
# PCOD9246270 Si02
#       8
#     2   4   4   4   4   4   4   4
#     4  10  22  38  58  86 110 156 210 246 314 372
#     4  10  23  43  63  92 124 172 202 261 310 383
#     4  10  21  40  66  95 133 164 218 248 324 374
#     4  10  23  39  58  86 121 154 208 258 321 358
#     4  10  24  41  65  88 131 160 216 250 315 371
#     4  11  23  39  61  88 117 164 209 265 313 376
#     4  10  22  39  58  84 119 155 208 262 315 372
#     4  10  21  41  63  99 127 173 201 269 304 387
#
# _framework density 23.075268999999999
#
# number of rings (size 3 to 8) (size 9 to 14) (size 15 to 20)
#    0.000    1.867    0.000    2.400    7.467    1.067 
#    4.800    0.000    0.000    0.000    0.000    0.000 
#    0.000    0.000    0.000    0.000    0.000    0.000 
#
# Total GULP energy -167285.684687 kJ/mol
# GULP energy per Si atom -5576.189490 kJ/mol
# Density = 2.302275 g / cm^3
# Si number density = 23.075269 Si / 1000 Ang^3
#
#
#
# Elastic Constant Matrix: (Units=GPa)
#
#
# Indices 1 2 3 4 5 6 
#
# 1 102.2700 8.1518 27.0957 0.0000 41.9786 0.0000
# 2 8.1518 32.6619 25.0050 0.0000 15.7928 0.0000
# 3 27.0957 25.0050 52.4785 0.0000 38.1601 0.0000
# 4 0.0000 0.0000 0.0000 -2.9671 0.0000 16.5866
# 5 41.9786 15.7928 38.1601 0.0000 46.4801 0.0000
# 6 0.0000 0.0000 0.0000 16.5866 0.0000 28.1518
#
#
#
# Elastic Compliance Matrix: (Units=1/GPa)
#
#
# Indices 1 2 3 4 5 6 
#
# 1 0.016231 0.001522 0.004789 0.000000 -0.019108 0.000000
# 2 0.001522 0.049060 -0.027397 0.000000 0.004449 0.000000
# 3 0.004789 -0.027397 0.064548 0.000000 -0.048010 0.000000
# 4 0.000000 0.000000 0.000000 -0.078495 0.000000 0.046248
# 5 -0.019108 0.004449 -0.048010 0.000000 0.076676 0.000000
# 6 0.000000 0.000000 0.000000 0.046248 0.000000 0.008273
#
#
# Mechanical properties :
#
#
# Convention : Reuss Voigt Hill
#
# Bulk Modulus (GPa) = 11.40691 34.21285 22.80988
# Shear Modulus (GPa) = 24.07445 22.81015 23.44230
#
# Velocity S-wave (km/s) = 3.23352 3.14747 3.19079
# Velocity P-wave (km/s) = 4.34683 5.29788 4.84575
#
# Compressibility (1/GPa) = 0.08766618
#
# Stress axis : x y z
#
# Youngs Moduli (GPa) = 61.60987 20.38308 15.49235
#
# Poissons Ratio (x) = -0.03102 -0.07419
# Poissons Ratio (y) = -0.09377 0.42445
# Poissons Ratio (z) = -0.29504 0.55844
#
# Static dielectric constant tensor:
#      x y z
#    x 1.706330 0.000000 0.107750 
#    y 0.000000 1.892390 0.000000 
#    z 0.107750 0.000000 1.722060 
# 
# From -- ./inp_files/7036.got.cif
#   From: 2010.05.17/outbox.cif.g08.bks.cpg/sg14_4_cif.got.tgz:7036.got - 2010.06.03 17:49:19.
