data_PCOD9246507
_publ_section_title
;
Structure prediction by ZEFSAII (Michael W. Deem and Ramdas Pophale) SiO2 
 PCOD9246507
Probable space group: P 21/C
;
_chemical_formula_sum "Si O2"
_cell_formula_units_Z 16
_cell_length_a 25.015148
_cell_length_b 5.295172
_cell_length_c 14.129005
_cell_angle_alpha 90.000000
_cell_angle_beta 21.076091
_cell_angle_gamma 90.000000
_cell_volume 673.012955
_symmetry_space_group_name_H-M "P 21/C"
_symmetry_group_IT_number 14
_symmetry_cell_setting 'monoclinic'
loop_
_space_group_symop_operation_xyz
x,y,z
-x,1/2+y,1/2-z
-x,-y,-z
x,1/2-y,1/2+z
loop_
_atom_site_type_symbol
_atom_site_label
_atom_site_fract_x
_atom_site_fract_y
_atom_site_fract_z
Si Si1 0.800580 0.766840 0.598745
Si Si2 0.362868 0.728758 0.167750
Si Si3 0.068133 0.249698 0.932988
Si Si4 0.699744 0.629008 0.579769
O O1 0.693170 0.525075 0.792475
O O2 0.936587 0.747876 0.445494
O O3 0.823798 0.736258 0.447859
O O4 0.719162 0.033502 0.739465
O O5 0.320797 0.658395 0.347236
O O6 0.539775 0.748959 0.866553
O O7 0.241733 0.294876 0.618547
O O8 0.000000 0.500000 0.000000
O O9 0.000000 0.000000 0.000000
#
# Coordination Sequence:
#
# PCOD9246507 Si02
#       4
#     4   4   4   4
#     4  10  21  41  64  93 123 160 212 257 326 361
#     4   9  20  40  68  96 115 160 203 270 329 357
#     4  12  28  41  60  93 129 176 214 250 307 386
#     4   9  23  40  68  90 132 151 214 263 317 383
#
# _framework density 23.773686999999999
#
# number of rings (size 3 to 8) (size 9 to 14) (size 15 to 20)
#    1.500    0.500    0.000    2.250    3.500    4.000 
#    0.000    0.000    0.000    0.000    0.000    0.000 
#    0.000    0.000    0.000    0.000    0.000    0.000 
#
# Total GULP energy -89164.579862 kJ/mol
# GULP energy per Si atom -5572.786241 kJ/mol
# Density = 2.371958 g / cm^3
# Si number density = 23.773687 Si / 1000 Ang^3
#
#
#
# Elastic Constant Matrix: (Units=GPa)
#
#
# Indices 1 2 3 4 5 6 
#
# 1 77.1280 33.9980 0.2395 0.0000 -17.1594 0.0000
# 2 33.9980 182.4105 32.1876 0.0000 -13.6959 0.0000
# 3 0.2395 32.1876 60.0416 0.0000 8.2883 0.0000
# 4 0.0000 0.0000 0.0000 31.3145 0.0000 -13.1862
# 5 -17.1594 -13.6959 8.2883 0.0000 29.0709 0.0000
# 6 0.0000 0.0000 0.0000 -13.1862 0.0000 34.3205
#
#
#
# Elastic Compliance Matrix: (Units=1/GPa)
#
#
# Indices 1 2 3 4 5 6 
#
# 1 0.015827 -0.002343 0.000058 0.000000 0.008222 0.000000
# 2 -0.002343 0.006867 -0.004088 0.000000 0.003018 0.000000
# 3 0.000058 -0.004088 0.019891 0.000000 -0.007563 0.000000
# 4 0.000000 0.000000 0.000000 0.038098 0.000000 0.014637
# 5 0.008222 0.003018 -0.007563 0.000000 0.042830 0.000000
# 6 0.000000 0.000000 0.000000 0.014637 0.000000 0.034761
#
#
# Mechanical properties :
#
#
# Convention : Reuss Voigt Hill
#
# Bulk Modulus (GPa) = 33.51450 50.27004 41.89227
# Shear Modulus (GPa) = 27.62951 35.81819 31.72385
#
# Velocity S-wave (km/s) = 3.41279 3.88575 3.65692
# Velocity P-wave (km/s) = 5.44586 6.42831 5.95737
#
# Compressibility (1/GPa) = 0.02983783
#
# Stress axis : x y z
#
# Youngs Moduli (GPa) = 63.18238 145.62774 50.27478
#
# Poissons Ratio (x) = 0.34117 -0.00291
# Poissons Ratio (y) = 0.14802 0.20555
# Poissons Ratio (z) = -0.00365 0.59540
#
# Static dielectric constant tensor:
#      x y z
#    x 1.929630 0.000000 0.010900 
#    y 0.000000 1.921940 0.000000 
#    z 0.010900 0.000000 1.993250 
# 
# From -- ./inp_files/50942.got.cif
#   From: 2010.05.17/outbox.cif.g08.bks.cpg/sg14_26_cif.got.tgz:50942.got - 2010.06.03 17:49:19.
