data_PCOD9246502
_publ_section_title
;
Structure prediction by ZEFSAII (Michael W. Deem and Ramdas Pophale) SiO2 
 PCOD9246502
Probable space group: P 21/C
;
_chemical_formula_sum "Si O2"
_cell_formula_units_Z 28
_cell_length_a 14.505382
_cell_length_b 8.023558
_cell_length_c 12.961808
_cell_angle_alpha 90.000000
_cell_angle_beta 121.459834
_cell_angle_gamma 90.000000
_cell_volume 1286.808615
_symmetry_space_group_name_H-M "P 21/C"
_symmetry_group_IT_number 14
_symmetry_cell_setting 'monoclinic'
loop_
_space_group_symop_operation_xyz
x,y,z
-x,1/2+y,1/2-z
-x,-y,-z
x,1/2-y,1/2+z
loop_
_atom_site_type_symbol
_atom_site_label
_atom_site_fract_x
_atom_site_fract_y
_atom_site_fract_z
Si Si1 0.415449 0.634789 0.104632
Si Si2 0.895472 0.020319 0.283050
Si Si3 0.222875 0.767656 0.624567
Si Si4 0.717298 0.481922 0.157091
Si Si5 0.905248 0.197958 0.637137
Si Si6 0.483823 0.011906 0.141647
Si Si7 0.669763 0.635189 0.612059
O O1 0.314188 0.625235 0.121905
O O2 0.432853 0.830245 0.102263
O O3 0.506130 0.556585 0.231653
O O4 0.384315 0.566389 0.975121
O O5 0.854317 0.103007 0.363216
O O6 0.941298 0.170983 0.242881
O O7 0.785659 0.951332 0.166395
O O8 0.989616 0.888405 0.346991
O O9 0.268220 0.632842 0.732549
O O10 0.156062 0.700232 0.488440
O O11 0.821699 0.429287 0.146789
O O12 0.698446 0.677946 0.166841
O O13 0.596687 0.979540 0.146032
O O14 0.405590 0.138181 0.034435
#
# Coordination Sequence:
#
# PCOD9246502 Si02
#       7
#     4   4   4   4   4   4   4
#     4  11  23  41  62  93 126 171 216 266 323 375
#     4  11  21  43  64  92 129 166 213 269 325 387
#     4  10  21  41  64  92 127 164 210 269 321 383
#     4  10  23  41  64  94 129 169 213 272 322 392
#     4  10  22  40  69  96 127 171 209 267 328 392
#     4  11  24  39  63  92 127 174 222 265 321 384
#     4  11  23  41  62  91 130 171 218 269 321 382
#
# _framework density 21.759257999999999
#
# number of rings (size 3 to 8) (size 9 to 14) (size 15 to 20)
#    0.000    1.429    1.429    4.714    4.000    0.571 
#    2.571    7.857    0.000    0.000    0.000    0.000 
#    0.000    0.000    0.000    0.000    0.000    0.000 
#
# Total GULP energy -156190.296931 kJ/mol
# GULP energy per Si atom -5578.224890 kJ/mol
# Density = 2.170973 g / cm^3
# Si number density = 21.759258 Si / 1000 Ang^3
#
#
#
# Elastic Constant Matrix: (Units=GPa)
#
#
# Indices 1 2 3 4 5 6 
#
# 1 62.6196 28.0786 14.5935 0.0000 13.9281 0.0000
# 2 28.0786 70.1386 -16.3515 0.0000 18.3199 0.0000
# 3 14.5935 -16.3515 109.3803 0.0000 -8.7834 0.0000
# 4 0.0000 0.0000 0.0000 32.4207 0.0000 8.6464
# 5 13.9281 18.3199 -8.7834 0.0000 30.7367 0.0000
# 6 0.0000 0.0000 0.0000 8.6464 0.0000 23.9812
#
#
#
# Elastic Compliance Matrix: (Units=1/GPa)
#
#
# Indices 1 2 3 4 5 6 
#
# 1 0.022240 -0.008315 -0.004730 0.000000 -0.006474 0.000000
# 2 -0.008315 0.020332 0.003560 0.000000 -0.007333 0.000000
# 3 -0.004730 0.003560 0.010550 0.000000 0.003036 0.000000
# 4 0.000000 0.000000 0.000000 0.034126 0.000000 -0.012304
# 5 -0.006474 -0.007333 0.003036 0.000000 0.040706 0.000000
# 6 0.000000 0.000000 0.000000 -0.012304 0.000000 0.046135
#
#
# Mechanical properties :
#
#
# Convention : Reuss Voigt Hill
#
# Bulk Modulus (GPa) = 29.28227 32.75329 31.01778
# Shear Modulus (GPa) = 24.45665 31.81558 28.13611
#
# Velocity S-wave (km/s) = 3.35620 3.82797 3.59982
# Velocity P-wave (km/s) = 5.33904 5.88414 5.61820
#
# Compressibility (1/GPa) = 0.03415035
#
# Stress axis : x y z
#
# Youngs Moduli (GPa) = 44.96350 49.18445 94.79099
#
# Poissons Ratio (x) = 0.40899 0.44838
# Poissons Ratio (y) = 0.37389 -0.33746
# Poissons Ratio (z) = 0.21269 -0.17510
#
# Static dielectric constant tensor:
#      x y z
#    x 2.082400 0.000000 -0.022040 
#    y 0.000000 1.749140 0.000000 
#    z -0.022040 0.000000 1.855540 
# 
# From -- ./inp_files/31674.got.cif
#   From: 2010.05.17/outbox.cif.g08.bks.cpg/sg14_16_cif.got.tgz:31674.got - 2010.06.03 17:49:19.
