data_PCOD9246516
_publ_section_title
;
Structure prediction by ZEFSAII (Michael W. Deem and Ramdas Pophale) SiO2 
 PCOD9246516
Probable space group: P 21/C
;
_chemical_formula_sum "Si O2"
_cell_formula_units_Z 32
_cell_length_a 21.862720
_cell_length_b 9.395721
_cell_length_c 13.497873
_cell_angle_alpha 90.000000
_cell_angle_beta 32.225539
_cell_angle_gamma 90.000000
_cell_volume 1478.540686
_symmetry_space_group_name_H-M "P 21/C"
_symmetry_group_IT_number 14
_symmetry_cell_setting 'monoclinic'
loop_
_space_group_symop_operation_xyz
x,y,z
-x,1/2+y,1/2-z
-x,-y,-z
x,1/2-y,1/2+z
loop_
_atom_site_type_symbol
_atom_site_label
_atom_site_fract_x
_atom_site_fract_y
_atom_site_fract_z
Si Si1 0.872108 0.097594 0.122765
Si Si2 0.877144 0.917768 0.581122
Si Si3 0.876204 0.140987 0.741646
Si Si4 0.288489 0.226936 0.342436
Si Si5 0.667827 0.051402 0.289264
Si Si6 0.129438 0.328756 0.251475
Si Si7 0.500438 0.799607 0.331520
Si Si8 0.376678 0.574995 0.361599
O O1 0.867487 0.194126 0.227399
O O2 0.785229 0.132256 0.154011
O O3 0.830377 0.945862 0.223143
O O4 0.001266 0.112054 0.905913
O O5 0.771616 0.874227 0.656647
O O6 0.877211 0.815226 0.676782
O O7 0.006034 0.893442 0.362871
O O8 0.876544 0.072280 0.630497
O O9 0.760480 0.085077 0.947030
O O10 0.298693 0.387866 0.283850
O O11 0.206086 0.202112 0.550873
O O12 0.417597 0.208603 0.207386
O O13 0.588548 0.097781 0.489553
O O14 0.598903 0.102761 0.287236
O O15 0.434552 0.692544 0.350605
O O16 0.582974 0.915809 0.165863
#
# Coordination Sequence:
#
# PCOD9246516 Si02
#       8
#     4   4   4   4   4   4   4   4
#     4  10  21  43  62  95 140 165 213 283 338 387
#     4  10  21  41  64  95 136 167 216 280 328 416
#     4  10  22  41  62  95 134 169 210 280 348 386
#     4  11  23  40  71  98 125 184 231 267 331 420
#     4  11  23  44  69  97 132 180 225 281 338 400
#     4  10  22  40  67  96 128 178 218 269 336 397
#     4  11  26  44  66  98 134 178 236 286 339 395
#     4  11  24  43  68  92 127 182 226 284 337 408
#
# _framework density 21.642963000000002
#
# number of rings (size 3 to 8) (size 9 to 14) (size 15 to 20)
#    0.000    1.500    2.500    3.000    3.500    3.000 
#    4.500    1.250    0.000    0.000    0.000    0.000 
#    0.000    0.000    0.000    0.000    0.000    0.000 
#
# Total GULP energy -178341.025080 kJ/mol
# GULP energy per Si atom -5573.157034 kJ/mol
# Density = 2.159370 g / cm^3
# Si number density = 21.642963 Si / 1000 Ang^3
#
#
#
# Elastic Constant Matrix: (Units=GPa)
#
#
# Indices 1 2 3 4 5 6 
#
# 1 87.1978 18.3698 12.2349 0.0000 -12.7864 0.0000
# 2 18.3698 55.6796 12.3975 0.0000 -1.4833 0.0000
# 3 12.2349 12.3975 45.3896 0.0000 -13.2194 0.0000
# 4 0.0000 0.0000 0.0000 26.8237 0.0000 -3.3181
# 5 -12.7864 -1.4833 -13.2194 0.0000 24.3947 0.0000
# 6 0.0000 0.0000 0.0000 -3.3181 0.0000 31.0525
#
#
#
# Elastic Compliance Matrix: (Units=1/GPa)
#
#
# Indices 1 2 3 4 5 6 
#
# 1 0.013359 -0.004100 -0.000611 0.000000 0.006422 0.000000
# 2 -0.004100 0.020462 -0.005637 0.000000 -0.003960 0.000000
# 3 -0.000611 -0.005637 0.027955 0.000000 0.014486 0.000000
# 4 0.000000 0.000000 0.000000 0.037780 0.000000 0.004037
# 5 0.006422 -0.003960 0.014486 0.000000 0.051968 0.000000
# 6 0.000000 0.000000 0.000000 0.004037 0.000000 0.032635
#
#
# Mechanical properties :
#
#
# Convention : Reuss Voigt Hill
#
# Bulk Modulus (GPa) = 24.34268 30.47460 27.40864
# Shear Modulus (GPa) = 22.87825 26.13851 24.50838
#
# Velocity S-wave (km/s) = 3.25480 3.47899 3.36876
# Velocity P-wave (km/s) = 5.03952 5.49991 5.27474
#
# Compressibility (1/GPa) = 0.04108011
#
# Stress axis : x y z
#
# Youngs Moduli (GPa) = 74.85362 48.87031 35.77231
#
# Poissons Ratio (x) = 0.20039 0.02185
# Poissons Ratio (y) = 0.30693 0.20165
# Poissons Ratio (z) = 0.04572 0.27548
#
# Static dielectric constant tensor:
#      x y z
#    x 1.816020 0.000000 -0.010000 
#    y 0.000000 1.780180 0.000000 
#    z -0.010000 0.000000 1.885180 
# 
# From -- ./inp_files/51242.got.cif
#   From: 2010.05.17/outbox.cif.g08.bks.cpg/sg14_26_cif.got.tgz:51242.got - 2010.06.03 17:49:19.
