data_PCOD9246092
_publ_section_title
;
Structure prediction by ZEFSAII (Michael W. Deem and Ramdas Pophale) SiO2 
 PCOD9246092
Probable space group: P 21/C
;
_chemical_formula_sum "Si O2"
_cell_formula_units_Z 20
_cell_length_a 5.432106
_cell_length_b 5.399579
_cell_length_c 23.200444
_cell_angle_alpha 90.000000
_cell_angle_beta 90.026049
_cell_angle_gamma 90.000000
_cell_volume 680.494136
_symmetry_space_group_name_H-M "P 21/C"
_symmetry_group_IT_number 14
_symmetry_cell_setting 'monoclinic'
loop_
_space_group_symop_operation_xyz
x,y,z
-x,1/2+y,1/2-z
-x,-y,-z
x,1/2-y,1/2+z
loop_
_atom_site_type_symbol
_atom_site_label
_atom_site_fract_x
_atom_site_fract_y
_atom_site_fract_z
Si Si1 0.214128 0.893234 0.277093
Si Si2 0.420520 0.702546 0.422362
Si Si3 0.082372 0.453189 0.124056
Si Si4 0.467926 0.392339 0.323151
Si Si5 0.873254 0.248715 0.976741
O O1 0.949079 0.925005 0.307175
O O2 0.353278 0.131000 0.304982
O O3 0.268409 0.909170 0.209163
O O4 0.325961 0.630536 0.296817
O O5 0.440497 0.436915 0.391220
O O6 0.388890 0.734122 0.490701
O O7 0.166946 0.822003 0.398626
O O8 0.667823 0.829935 0.398988
O O9 0.095542 0.717552 0.091698
O O10 0.000000 0.500000 0.000000
O O11 0.000000 0.000000 0.000000
#
# Coordination Sequence:
#
# PCOD9246092 Si02
#       5
#     4   4   4   4   4
#     4   9  18  36  60  87 120 159 204 254 309 369
#     4  10  21  40  62  91 124 163 206 256 310 370
#     4  10  21  40  62  91 124 163 206 256 310 370
#     4   9  18  36  60  87 120 159 204 254 309 369
#     4  10  21  40  64  92 126 164 208 256 310 370
#
# _framework density 29.390405999999999
#
# number of rings (size 3 to 8) (size 9 to 14) (size 15 to 20)
#    0.000    2.400    0.000    1.800    0.000    0.000 
#    0.000   56.000    0.000    0.000    0.000    0.000 
#    0.000    0.000    0.000    0.000    0.000    0.000 
#
# Total GULP energy -111911.973007 kJ/mol
# GULP energy per Si atom -5595.598650 kJ/mol
# Density = 2.932351 g / cm^3
# Si number density = 29.390406 Si / 1000 Ang^3
#
#
#
# Elastic Constant Matrix: (Units=GPa)
#
#
# Indices 1 2 3 4 5 6 
#
# 1 173.5963 70.4528 65.3996 0.0000 -46.1481 0.0000
# 2 70.4528 198.6428 26.4790 0.0000 7.6201 0.0000
# 3 65.3996 26.4790 213.4177 0.0000 -55.1415 0.0000
# 4 0.0000 0.0000 0.0000 47.8092 0.0000 9.7502
# 5 -46.1481 7.6201 -55.1415 0.0000 69.9065 0.0000
# 6 0.0000 0.0000 0.0000 9.7502 0.0000 82.3343
#
#
#
# Elastic Compliance Matrix: (Units=1/GPa)
#
#
# Indices 1 2 3 4 5 6 
#
# 1 0.008877 -0.003240 -0.000895 0.000000 0.005507 0.000000
# 2 -0.003240 0.006402 -0.000671 0.000000 -0.003366 0.000000
# 3 -0.000895 -0.000671 0.006166 0.000000 0.004346 0.000000
# 4 0.000000 0.000000 0.000000 0.021434 0.000000 -0.002538
# 5 0.005507 -0.003366 0.004346 0.000000 0.021735 0.000000
# 6 0.000000 0.000000 0.000000 -0.002538 0.000000 0.012446
#
#
# Mechanical properties :
#
#
# Convention : Reuss Voigt Hill
#
# Bulk Modulus (GPa) = 84.51999 101.14661 92.83330
# Shear Modulus (GPa) = 55.17705 68.23170 61.70437
#
# Velocity S-wave (km/s) = 4.33758 4.82349 4.58697
# Velocity P-wave (km/s) = 7.34209 8.09388 7.72713
#
# Compressibility (1/GPa) = 0.01183152
#
# Stress axis : x y z
#
# Youngs Moduli (GPa) = 112.65399 156.20213 162.17586
#
# Poissons Ratio (x) = 0.50613 0.14520
# Poissons Ratio (y) = 0.36502 0.10884
# Poissons Ratio (z) = 0.10086 0.10483
#
# Static dielectric constant tensor:
#      x y z
#    x 2.347090 0.000000 0.153460 
#    y 0.000000 2.271980 0.000000 
#    z 0.153460 0.000000 2.653620 
# 
# From -- ./inp_files/78498.got.cif
#   From: 2010.05.17/outbox.cif.g08.bks.cpg/sg14_40_cif.got.tgz:78498.got - 2010.06.03 17:49:19.
