data_PCOD9246962
_publ_section_title
;
Structure prediction by ZEFSAII (Michael W. Deem and Ramdas Pophale) SiO2 
 PCOD9246962
Probable space group: P 21/C
;
_chemical_formula_sum "Si O2"
_cell_formula_units_Z 20
_cell_length_a 5.969826
_cell_length_b 12.958240
_cell_length_c 15.744318
_cell_angle_alpha 90.000000
_cell_angle_beta 50.436988
_cell_angle_gamma 90.000000
_cell_volume 938.952100
_symmetry_space_group_name_H-M "P 21/C"
_symmetry_group_IT_number 14
_symmetry_cell_setting 'monoclinic'
loop_
_space_group_symop_operation_xyz
x,y,z
-x,1/2+y,1/2-z
-x,-y,-z
x,1/2-y,1/2+z
loop_
_atom_site_type_symbol
_atom_site_label
_atom_site_fract_x
_atom_site_fract_y
_atom_site_fract_z
Si Si1 0.558529 0.710891 0.680260
Si Si2 0.442362 0.934848 0.362819
Si Si3 0.979201 0.883706 0.601735
Si Si4 0.100797 0.610837 0.259562
Si Si5 0.744057 0.947384 0.002345
O O1 0.490217 0.660941 0.788180
O O2 0.328436 0.797082 0.710784
O O3 0.563108 0.618928 0.612604
O O4 0.860182 0.773722 0.598756
O O5 0.303511 0.900843 0.486516
O O6 0.736872 0.000943 0.291962
O O7 0.210670 0.018144 0.382090
O O8 0.930959 0.876406 0.713628
O O9 0.923980 0.614122 0.388401
O O10 0.500000 0.000000 0.000000
O O11 0.000000 0.000000 0.000000
#
# Coordination Sequence:
#
# PCOD9246962 Si02
#       5
#     4   4   4   4   4
#     4  11  24  41  68 100 138 179 233 290 348 423
#     4  10  21  43  62  90 137 172 227 285 350 414
#     4  10  23  39  66  97 131 177 231 283 350 417
#     4  11  24  41  69  99 132 187 232 288 352 423
#     4  12  27  47  73 103 144 189 234 292 358 417
#
# _framework density 21.300339999999998
#
# number of rings (size 3 to 8) (size 9 to 14) (size 15 to 20)
#    0.000    1.200    2.000    3.000    5.600    3.200 
#    0.000    0.000    0.000    0.000    0.000    0.000 
#    0.000    0.000    0.000    0.000    0.000    0.000 
#
# Total GULP energy -111513.221442 kJ/mol
# GULP energy per Si atom -5575.661072 kJ/mol
# Density = 2.125186 g / cm^3
# Si number density = 21.300340 Si / 1000 Ang^3
#
#
#
# Elastic Constant Matrix: (Units=GPa)
#
#
# Indices 1 2 3 4 5 6 
#
# 1 62.8119 17.4471 -2.2926 0.0000 11.9575 0.0000
# 2 17.4471 66.3353 -2.0207 0.0000 3.5546 0.0000
# 3 -2.2926 -2.0207 86.9548 0.0000 16.2757 0.0000
# 4 0.0000 0.0000 0.0000 23.2414 0.0000 16.0976
# 5 11.9575 3.5546 16.2757 0.0000 31.3545 0.0000
# 6 0.0000 0.0000 0.0000 16.0976 0.0000 17.0271
#
#
#
# Elastic Compliance Matrix: (Units=1/GPa)
#
#
# Indices 1 2 3 4 5 6 
#
# 1 0.018658 -0.004448 0.001801 0.000000 -0.007546 0.000000
# 2 -0.004448 0.016271 0.000320 0.000000 -0.000314 0.000000
# 3 0.001801 0.000320 0.012949 0.000000 -0.007444 0.000000
# 4 0.000000 0.000000 0.000000 0.124647 0.000000 -0.117842
# 5 -0.007546 -0.000314 -0.007444 0.000000 0.038671 0.000000
# 6 0.000000 0.000000 0.000000 -0.117842 0.000000 0.170139
#
#
# Mechanical properties :
#
#
# Convention : Reuss Voigt Hill
#
# Bulk Modulus (GPa) = 23.13563 26.92997 25.03280
# Shear Modulus (GPa) = 12.48757 27.85584 20.17170
#
# Velocity S-wave (km/s) = 2.42391 3.62023 3.08070
# Velocity P-wave (km/s) = 4.32655 5.49046 4.94288
#
# Compressibility (1/GPa) = 0.04322338
#
# Stress axis : x y z
#
# Youngs Moduli (GPa) = 53.59518 61.45741 77.22873
#
# Poissons Ratio (x) = 0.27337 -0.13909
# Poissons Ratio (y) = 0.23840 -0.02469
# Poissons Ratio (z) = -0.09653 -0.01965
#
# Static dielectric constant tensor:
#      x y z
#    x 1.864580 0.000000 -0.038790 
#    y 0.000000 1.791750 0.000000 
#    z -0.038790 0.000000 1.723940 
# 
# From -- ./inp_files/20598.got.cif
#   From: 2010.05.17/outbox.cif.g08.bks.cpg/sg14_11_cif.got.tgz:20598.got - 2010.06.03 17:49:19.
