data_PCOD9246767
_publ_section_title
;
Structure prediction by ZEFSAII (Michael W. Deem and Ramdas Pophale) SiO2 
 PCOD9246767
Probable space group: P 21/C
;
_chemical_formula_sum "Si O2"
_cell_formula_units_Z 28
_cell_length_a 10.353704
_cell_length_b 15.977768
_cell_length_c 18.209579
_cell_angle_alpha 90.000000
_cell_angle_beta 26.176372
_cell_angle_gamma 90.000000
_cell_volume 1328.874791
_symmetry_space_group_name_H-M "P 21/C"
_symmetry_group_IT_number 14
_symmetry_cell_setting 'monoclinic'
loop_
_space_group_symop_operation_xyz
x,y,z
-x,1/2+y,1/2-z
-x,-y,-z
x,1/2-y,1/2+z
loop_
_atom_site_type_symbol
_atom_site_label
_atom_site_fract_x
_atom_site_fract_y
_atom_site_fract_z
Si Si1 0.016068 0.208640 0.105859
Si Si2 0.471513 0.989637 0.623868
Si Si3 0.708897 0.556809 0.159467
Si Si4 0.485492 0.821407 0.389641
Si Si5 0.969941 0.737290 0.059233
Si Si6 0.573672 0.674145 0.008328
Si Si7 0.143982 0.023320 0.005532
O O1 0.750008 0.188359 0.295115
O O2 0.902469 0.242837 0.085846
O O3 0.212853 0.276338 0.046748
O O4 0.180549 0.122291 0.001753
O O5 0.603766 0.081698 0.559579
O O6 0.554592 0.943505 0.658248
O O7 0.604198 0.926615 0.496460
O O8 0.118001 0.001099 0.804472
O O9 0.803383 0.648906 0.136146
O O10 0.462821 0.519388 0.340081
O O11 0.000000 0.500000 0.000000
O O12 0.744937 0.808166 0.199359
O O13 0.590113 0.794796 0.416702
O O14 0.216276 0.770250 0.494868
O O15 0.000000 0.000000 0.000000
#
# Coordination Sequence:
#
# PCOD9246767 Si02
#       7
#     4   4   4   4   4   4   4
#     4  11  23  41  67  93 126 170 220 259 317 390
#     4  10  21  42  64  88 127 173 214 254 327 398
#     4  11  21  38  61  96 124 159 217 273 314 378
#     4  12  26  42  64  97 133 165 212 274 328 383
#     4  12  25  39  67  97 126 165 218 273 323 373
#     4  11  24  43  65  92 130 174 211 261 328 393
#     4   9  21  36  62  94 126 161 210 271 321 369
#
# _framework density 21.070457999999999
#
# number of rings (size 3 to 8) (size 9 to 14) (size 15 to 20)
#    0.000    1.143    2.857    3.857    8.000    0.000 
#    0.000    0.000    0.000    2.571    0.000    0.000 
#    0.000    0.000    0.000    0.000    0.000    0.000 
#
# Total GULP energy -156388.635214 kJ/mol
# GULP energy per Si atom -5585.308401 kJ/mol
# Density = 2.102250 g / cm^3
# Si number density = 21.070458 Si / 1000 Ang^3
#
#
#
# Elastic Constant Matrix: (Units=GPa)
#
#
# Indices 1 2 3 4 5 6 
#
# 1 78.8550 1.0851 2.8414 0.0000 11.1914 0.0000
# 2 1.0851 66.7493 -12.4239 0.0000 -1.9316 0.0000
# 3 2.8414 -12.4239 49.3451 0.0000 4.7527 0.0000
# 4 0.0000 0.0000 0.0000 25.6567 0.0000 2.0233
# 5 11.1914 -1.9316 4.7527 0.0000 26.5504 0.0000
# 6 0.0000 0.0000 0.0000 2.0233 0.0000 19.6984
#
#
#
# Elastic Compliance Matrix: (Units=1/GPa)
#
#
# Indices 1 2 3 4 5 6 
#
# 1 0.013504 -0.000448 -0.000345 0.000000 -0.005663 0.000000
# 2 -0.000448 0.015738 0.003927 0.000000 0.000631 0.000000
# 3 -0.000345 0.003927 0.021605 0.000000 -0.003436 0.000000
# 4 0.000000 0.000000 0.000000 0.039295 0.000000 -0.004036
# 5 -0.005663 0.000631 -0.003436 0.000000 0.040712 0.000000
# 6 0.000000 0.000000 0.000000 -0.004036 0.000000 0.051180
#
#
# Mechanical properties :
#
#
# Convention : Reuss Voigt Hill
#
# Bulk Modulus (GPa) = 17.50793 19.77273 18.64033
# Shear Modulus (GPa) = 25.66702 27.94423 26.80562
#
# Velocity S-wave (km/s) = 3.49399 3.64569 3.57065
# Velocity P-wave (km/s) = 4.96030 5.20825 5.08579
#
# Compressibility (1/GPa) = 0.05711697
#
# Stress axis : x y z
#
# Youngs Moduli (GPa) = 74.05324 63.54066 46.28533
#
# Poissons Ratio (x) = 0.02844 0.01596
# Poissons Ratio (y) = 0.03314 -0.18178
# Poissons Ratio (z) = 0.02554 -0.24955
#
# Static dielectric constant tensor:
#      x y z
#    x 1.765320 0.000000 0.012790 
#    y 0.000000 1.792570 0.000000 
#    z 0.012790 0.000000 1.755060 
# 
# From -- ./inp_files/56144.got.cif
#   From: 2010.05.17/outbox.cif.g08.bks.cpg/sg14_29_cif.got.tgz:56144.got - 2010.06.03 17:49:19.
