data_PCOD9246067
_publ_section_title
;
Structure prediction by ZEFSAII (Michael W. Deem and Ramdas Pophale) SiO2 
 PCOD9246067
Probable space group: P 21/C
;
_chemical_formula_sum "Si O2"
_cell_formula_units_Z 28
_cell_length_a 9.127173
_cell_length_b 12.982354
_cell_length_c 18.989312
_cell_angle_alpha 90.000000
_cell_angle_beta 28.796521
_cell_angle_gamma 90.000000
_cell_volume 1083.867076
_symmetry_space_group_name_H-M "P 21/C"
_symmetry_group_IT_number 14
_symmetry_cell_setting 'monoclinic'
loop_
_space_group_symop_operation_xyz
x,y,z
-x,1/2+y,1/2-z
-x,-y,-z
x,1/2-y,1/2+z
loop_
_atom_site_type_symbol
_atom_site_label
_atom_site_fract_x
_atom_site_fract_y
_atom_site_fract_z
Si Si1 0.343441 0.852357 0.225275
Si Si2 0.720302 0.338539 0.843606
Si Si3 0.614009 0.722171 0.392143
Si Si4 0.764428 0.529387 0.994133
Si Si5 0.203728 0.123137 0.364960
Si Si6 0.287873 0.953370 0.955907
Si Si7 0.698028 0.659150 0.709157
O O1 0.345704 0.737875 0.194359
O O2 0.404484 0.858246 0.283727
O O3 0.014983 0.901726 0.348392
O O4 0.597045 0.929426 0.085843
O O5 0.068441 0.327467 0.717471
O O6 0.529382 0.290349 0.987219
O O7 0.572502 0.450261 0.891884
O O8 0.393012 0.625098 0.472270
O O9 0.653963 0.793776 0.305432
O O10 0.929289 0.420470 0.932390
O O11 0.765214 0.570414 0.073461
O O12 0.512639 0.094283 0.192616
O O13 0.151438 0.243866 0.394295
O O14 0.927534 0.936007 0.104444
#
# Coordination Sequence:
#
# PCOD9246067 Si02
#       7
#     4   4   4   4   4   4   4
#     4  11  24  40  71  98 133 180 238 284 334 409
#     4  12  23  44  70 100 137 188 223 278 348 417
#     4  11  25  43  67 100 142 181 223 279 356 404
#     4  10  21  40  62 100 136 166 232 283 338 398
#     4   9  21  37  65  95 129 171 219 295 327 388
#     4  10  23  43  64  98 137 177 232 283 338 409
#     4  11  22  41  67  94 131 181 227 281 344 402
#
# _framework density 25.833427
#
# number of rings (size 3 to 8) (size 9 to 14) (size 15 to 20)
#    0.000    1.429    4.286    0.429    4.000    1.714 
#    0.000    9.286    0.000    0.000    0.000    0.000 
#    0.000    0.000    0.000    0.000    0.000    0.000 
#
# Total GULP energy -156761.117589 kJ/mol
# GULP energy per Si atom -5598.611342 kJ/mol
# Density = 2.577463 g / cm^3
# Si number density = 25.833427 Si / 1000 Ang^3
#
#
#
# Elastic Constant Matrix: (Units=GPa)
#
#
# Indices 1 2 3 4 5 6 
#
# 1 81.7691 -2.1384 34.2718 0.0000 -21.9067 0.0000
# 2 -2.1384 69.2754 3.9801 0.0000 -10.2220 0.0000
# 3 34.2718 3.9801 73.1723 0.0000 -19.2873 0.0000
# 4 0.0000 0.0000 0.0000 37.3616 0.0000 -2.9236
# 5 -21.9067 -10.2220 -19.2873 0.0000 32.9247 0.0000
# 6 0.0000 0.0000 0.0000 -2.9236 0.0000 40.2397
#
#
#
# Elastic Compliance Matrix: (Units=1/GPa)
#
#
# Indices 1 2 3 4 5 6 
#
# 1 0.017025 0.002125 -0.005830 0.000000 0.008572 0.000000
# 2 0.002125 0.015408 -0.000236 0.000000 0.006059 0.000000
# 3 -0.005830 -0.000236 0.018174 0.000000 0.006694 0.000000
# 4 0.000000 0.000000 0.000000 0.026918 0.000000 0.001956
# 5 0.008572 0.006059 0.006694 0.000000 0.041879 0.000000
# 6 0.000000 0.000000 0.000000 0.001956 0.000000 0.024993
#
#
# Mechanical properties :
#
#
# Convention : Reuss Voigt Hill
#
# Bulk Modulus (GPa) = 23.40502 32.93819 28.17160
# Shear Modulus (GPa) = 30.02589 34.64542 32.33566
#
# Velocity S-wave (km/s) = 3.41293 3.66609 3.54177
# Velocity P-wave (km/s) = 4.96089 5.54059 5.25874
#
# Compressibility (1/GPa) = 0.04272588
#
# Stress axis : x y z
#
# Youngs Moduli (GPa) = 58.73579 64.89947 55.02242
#
# Poissons Ratio (x) = -0.13794 0.32079
# Poissons Ratio (y) = -0.12484 0.01301
# Poissons Ratio (z) = 0.34244 0.01534
#
# Static dielectric constant tensor:
#      x y z
#    x 2.057730 0.000000 -0.012340 
#    y 0.000000 2.036260 0.000000 
#    z -0.012340 0.000000 2.001390 
# 
# From -- ./inp_files/65892.got.cif
#   From: 2010.05.17/outbox.cif.g08.bks.cpg/sg14_33_cif.got.tgz:65892.got - 2010.06.03 17:49:19.
