data_PCOD9246131
_publ_section_title
;
Structure prediction by ZEFSAII (Michael W. Deem and Ramdas Pophale) SiO2 
 PCOD9246131
Probable space group: P 21/C
;
_chemical_formula_sum "Si O2"
_cell_formula_units_Z 26
_cell_length_a 5.062811
_cell_length_b 11.890980
_cell_length_c 18.483523
_cell_angle_alpha 90.000000
_cell_angle_beta 117.991210
_cell_angle_gamma 90.000000
_cell_volume 982.572178
_symmetry_space_group_name_H-M "P 21/C"
_symmetry_group_IT_number 14
_symmetry_cell_setting 'monoclinic'
loop_
_space_group_symop_operation_xyz
x,y,z
-x,1/2+y,1/2-z
-x,-y,-z
x,1/2-y,1/2+z
loop_
_atom_site_type_symbol
_atom_site_label
_atom_site_fract_x
_atom_site_fract_y
_atom_site_fract_z
Si Si1 0.306008 0.711016 0.658002
Si Si2 0.745222 0.664649 0.327944
Si Si3 0.352608 0.512012 0.560306
Si Si4 0.765536 0.048595 0.387338
Si Si5 0.840022 0.142052 0.603730
Si Si6 0.500000 0.000000 0.500000
Si Si7 0.810531 0.036903 0.752507
O O1 0.530701 0.758299 0.750072
O O2 0.422342 0.633241 0.607236
O O3 0.144112 0.825367 0.616656
O O4 0.108500 0.620722 0.674002
O O5 0.598702 0.585604 0.370942
O O6 0.915381 0.584877 0.291495
O O7 0.983478 0.749198 0.393295
O O8 0.500000 0.500000 0.500000
O O9 0.000000 0.500000 0.500000
O O10 0.539375 0.057876 0.424312
O O11 0.549443 0.988809 0.300604
O O12 0.064156 0.971272 0.431192
O O13 0.899638 0.100842 0.691929
O O14 0.495862 0.129669 0.542076
#
# Coordination Sequence:
#
# PCOD9246131 Si02
#       7
#     4   4   4   4   4   2   4
#     4  10  22  45  71 103 144 196 256 302 382 474
#     4  10  23  44  75 103 145 210 253 315 392 481
#     4  11  28  53  76 119 161 202 260 333 405 463
#     4  10  21  40  63  92 132 179 229 296 367 429
#     4  11  22  39  68  96 137 183 244 308 372 446
#     4  10  24  40  58  98 138 176 236 294 372 450
#     4   9  21  40  60 103 129 175 250 300 360 446
#
# _framework density 26.461158000000001
#
# number of rings (size 3 to 8) (size 9 to 14) (size 15 to 20)
#    0.000    1.846    1.538    0.462    4.308    4.923 
#    5.538    0.000    0.000    0.000    0.000    0.000 
#    0.000    0.000    0.000    0.000    0.000    0.000 
#
# Total GULP energy -144772.361312 kJ/mol
# GULP energy per Si atom -5568.167743 kJ/mol
# Density = 2.640093 g / cm^3
# Si number density = 26.461158 Si / 1000 Ang^3
#
#
#
# Elastic Constant Matrix: (Units=GPa)
#
#
# Indices 1 2 3 4 5 6 
#
# 1 101.3292 21.4754 45.8908 0.0000 -0.9334 0.0000
# 2 21.4754 159.6954 26.7467 0.0000 9.0438 0.0000
# 3 45.8908 26.7467 103.8198 0.0000 -10.5400 0.0000
# 4 0.0000 0.0000 0.0000 37.8703 0.0000 -3.4697
# 5 -0.9334 9.0438 -10.5400 0.0000 49.2148 0.0000
# 6 0.0000 0.0000 0.0000 -3.4697 0.0000 8.3395
#
#
#
# Elastic Compliance Matrix: (Units=1/GPa)
#
#
# Indices 1 2 3 4 5 6 
#
# 1 0.012462 -0.000727 -0.005401 0.000000 -0.000787 0.000000
# 2 -0.000727 0.006712 -0.001569 0.000000 -0.001583 0.000000
# 3 -0.005401 -0.001569 0.012719 0.000000 0.002910 0.000000
# 4 0.000000 0.000000 0.000000 0.027452 0.000000 0.011422
# 5 -0.000787 -0.001583 0.002910 0.000000 0.021218 0.000000
# 6 0.000000 0.000000 0.000000 0.011422 0.000000 0.124663
#
#
# Mechanical properties :
#
#
# Convention : Reuss Voigt Hill
#
# Bulk Modulus (GPa) = 60.60648 61.45226 61.02937
# Shear Modulus (GPa) = 22.11226 37.13367 29.62296
#
# Velocity S-wave (km/s) = 2.89390 3.75017 3.34951
# Velocity P-wave (km/s) = 5.84122 6.48272 6.17031
#
# Compressibility (1/GPa) = 0.01649989
#
# Stress axis : x y z
#
# Youngs Moduli (GPa) = 80.24620 148.98608 78.62244
#
# Poissons Ratio (x) = 0.10826 0.42464
# Poissons Ratio (y) = 0.05831 0.12334
# Poissons Ratio (z) = 0.43341 0.23372
#
# Static dielectric constant tensor:
#      x y z
#    x 3.050960 0.000000 0.573550 
#    y 0.000000 2.187600 0.000000 
#    z 0.573550 0.000000 2.593970 
# 
# From -- ./inp_files/63407.got.cif
#   From: 2010.05.17/outbox.cif.g08.bks.cpg/sg14_32_cif.got.tgz:63407.got - 2010.06.03 17:49:19.
