data_PCOD9246819
_publ_section_title
;
Structure prediction by ZEFSAII (Michael W. Deem and Ramdas Pophale) SiO2 
 PCOD9246819
Probable space group: P 21/C
;
_chemical_formula_sum "Si O2"
_cell_formula_units_Z 20
_cell_length_a 13.469006
_cell_length_b 9.334315
_cell_length_c 20.996045
_cell_angle_alpha 90.000000
_cell_angle_beta 18.407960
_cell_angle_gamma 90.000000
_cell_volume 833.568504
_symmetry_space_group_name_H-M "P 21/C"
_symmetry_group_IT_number 14
_symmetry_cell_setting 'monoclinic'
loop_
_space_group_symop_operation_xyz
x,y,z
-x,1/2+y,1/2-z
-x,-y,-z
x,1/2-y,1/2+z
loop_
_atom_site_type_symbol
_atom_site_label
_atom_site_fract_x
_atom_site_fract_y
_atom_site_fract_z
Si Si1 0.143717 0.009088 0.982998
Si Si2 0.669456 0.130359 0.933135
Si Si3 0.178793 0.342497 0.212331
Si Si4 0.214081 0.333314 0.921367
Si Si5 0.110887 0.397469 0.845303
O O1 0.235850 0.175335 0.935511
O O2 0.453627 0.910987 0.790469
O O3 0.000000 0.000000 0.000000
O O4 0.897199 0.958871 0.187277
O O5 0.027709 0.124789 0.736098
O O6 0.534611 0.282242 0.990360
O O7 0.487162 0.111833 0.111484
O O8 0.500000 0.000000 0.000000
O O9 0.010785 0.202121 0.347461
O O10 0.038832 0.336560 0.958943
O O11 0.012912 0.442952 0.086323
#
# Coordination Sequence:
#
# PCOD9246819 Si02
#       5
#     4   4   4   4   4
#     4  12  22  34  62  95 134 168 206 253 328 397
#     4  10  22  44  68  87 123 169 221 273 316 364
#     4  10  21  42  66  92 124 172 214 268 325 377
#     4  11  22  36  58  97 135 169 204 256 321 404
#     4   9  21  39  62  86 134 168 209 258 326 372
#
# _framework density 23.993228999999999
#
# number of rings (size 3 to 8) (size 9 to 14) (size 15 to 20)
#    1.200    0.400    4.000    1.200    5.600    0.000 
#    3.600    1.000    0.000    0.000    0.000    0.000 
#    0.000    0.000    0.000    0.000    0.000    0.000 
#
# Total GULP energy -111451.893579 kJ/mol
# GULP energy per Si atom -5572.594679 kJ/mol
# Density = 2.393862 g / cm^3
# Si number density = 23.993229 Si / 1000 Ang^3
#
#
#
# Elastic Constant Matrix: (Units=GPa)
#
#
# Indices 1 2 3 4 5 6 
#
# 1 106.1809 17.4218 2.7974 0.0000 -26.6291 0.0000
# 2 17.4218 152.8303 19.2538 0.0000 1.8867 0.0000
# 3 2.7974 19.2538 28.1501 0.0000 -15.7769 0.0000
# 4 0.0000 0.0000 0.0000 41.7506 0.0000 4.7916
# 5 -26.6291 1.8867 -15.7769 0.0000 20.0400 0.0000
# 6 0.0000 0.0000 0.0000 4.7916 0.0000 36.6936
#
#
#
# Elastic Compliance Matrix: (Units=1/GPa)
#
#
# Indices 1 2 3 4 5 6 
#
# 1 0.029030 -0.010166 0.046934 0.000000 0.076482 0.000000
# 2 -0.010166 0.011540 -0.026958 0.000000 -0.035819 0.000000
# 3 0.046934 -0.026958 0.153326 0.000000 0.185613 0.000000
# 4 0.000000 0.000000 0.000000 0.024316 0.000000 -0.003175
# 5 0.076482 -0.035819 0.185613 0.000000 0.301030 0.000000
# 6 0.000000 0.000000 0.000000 -0.003175 0.000000 0.027667
#
#
# Mechanical properties :
#
#
# Convention : Reuss Voigt Hill
#
# Bulk Modulus (GPa) = 4.68349 40.67858 22.68103
# Shear Modulus (GPa) = 8.35472 36.20939 22.28205
#
# Velocity S-wave (km/s) = 1.86807 3.88899 3.05073
# Velocity P-wave (km/s) = 2.57083 6.09563 4.67792
#
# Compressibility (1/GPa) = 0.21351615
#
# Stress axis : x y z
#
# Youngs Moduli (GPa) = 34.44658 86.65151 6.52204
#
# Poissons Ratio (x) = 0.88092 -0.30610
# Poissons Ratio (y) = 0.35019 0.17582
# Poissons Ratio (z) = -1.61670 2.33594
#
# Static dielectric constant tensor:
#      x y z
#    x 1.936130 0.000000 -0.004560 
#    y 0.000000 1.967660 0.000000 
#    z -0.004560 0.000000 2.036030 
# 
# From -- ./inp_files/35628.got.cif
#   From: 2010.05.17/outbox.cif.g08.bks.cpg/sg14_18_cif.got.tgz:35628.got - 2010.06.03 17:49:19.
