data_PCOD9246370
_publ_section_title
;
Structure prediction by ZEFSAII (Michael W. Deem and Ramdas Pophale) SiO2 
 PCOD9246370
Probable space group: P 21/C
;
_chemical_formula_sum "Si O2"
_cell_formula_units_Z 28
_cell_length_a 15.784405
_cell_length_b 12.541403
_cell_length_c 9.311645
_cell_angle_alpha 90.000000
_cell_angle_beta 139.402756
_cell_angle_gamma 90.000000
_cell_volume 1199.517847
_symmetry_space_group_name_H-M "P 21/C"
_symmetry_group_IT_number 14
_symmetry_cell_setting 'monoclinic'
loop_
_space_group_symop_operation_xyz
x,y,z
-x,1/2+y,1/2-z
-x,-y,-z
x,1/2-y,1/2+z
loop_
_atom_site_type_symbol
_atom_site_label
_atom_site_fract_x
_atom_site_fract_y
_atom_site_fract_z
Si Si1 0.747969 0.685237 0.546936
Si Si2 0.653838 0.580144 0.971638
Si Si3 0.432397 0.667828 0.891006
Si Si4 0.975943 0.240854 0.489240
Si Si5 0.883172 0.572244 0.466265
Si Si6 0.480736 0.881630 0.787372
Si Si7 0.854674 0.365094 0.580023
O O1 0.688839 0.803819 0.455282
O O2 0.790937 0.644052 0.448016
O O3 0.637058 0.613711 0.476135
O O4 0.880463 0.692194 0.807716
O O5 0.547252 0.602802 0.959455
O O6 0.590327 0.494144 0.784632
O O7 0.788188 0.538456 0.214051
O O8 0.445388 0.790219 0.855377
O O9 0.295944 0.625759 0.653944
O O10 0.438653 0.655673 0.070823
O O11 0.915202 0.270299 0.562955
O O12 0.883923 0.165038 0.279830
O O13 0.002329 0.353965 0.444703
O O14 0.922645 0.473401 0.615154
#
# Coordination Sequence:
#
# PCOD9246370 Si02
#       7
#     4   4   4   4   4   4   4
#     4  10  22  41  69  95 132 165 220 273 313 390
#     4  10  21  40  70  96 126 171 217 263 333 396
#     4  11  22  38  65  97 131 162 213 274 320 381
#     4  11  25  44  61  97 131 174 223 264 313 386
#     4  11  21  43  72  90 125 180 218 261 328 387
#     4  11  21  40  68 100 125 170 213 268 331 384
#     4  12  24  41  68  91 135 172 217 267 318 386
#
# _framework density 23.342711999999999
#
# number of rings (size 3 to 8) (size 9 to 14) (size 15 to 20)
#    0.000    1.143    4.286    2.571    0.000    0.571 
#    0.000    2.857    9.429    0.000    0.000    0.000 
#    0.000    0.000    0.000    0.000    0.000    0.000 
#
# Total GULP energy -156737.770192 kJ/mol
# GULP energy per Si atom -5597.777507 kJ/mol
# Density = 2.328958 g / cm^3
# Si number density = 23.342712 Si / 1000 Ang^3
#
#
#
# Elastic Constant Matrix: (Units=GPa)
#
#
# Indices 1 2 3 4 5 6 
#
# 1 44.4043 5.8410 3.9635 0.0000 0.8012 0.0000
# 2 5.8410 49.8565 23.6364 0.0000 1.1863 0.0000
# 3 3.9635 23.6364 92.4384 0.0000 10.1586 0.0000
# 4 0.0000 0.0000 0.0000 34.4175 0.0000 -1.2481
# 5 0.8012 1.1863 10.1586 0.0000 15.4151 0.0000
# 6 0.0000 0.0000 0.0000 -1.2481 0.0000 32.0006
#
#
#
# Elastic Compliance Matrix: (Units=1/GPa)
#
#
# Indices 1 2 3 4 5 6 
#
# 1 0.022892 -0.002549 -0.000238 0.000000 -0.000837 0.000000
# 2 -0.002549 0.023181 -0.006077 0.000000 0.002353 0.000000
# 3 -0.000238 -0.006077 0.013292 0.000000 -0.008279 0.000000
# 4 0.000000 0.000000 0.000000 0.029096 0.000000 0.001135
# 5 -0.000837 0.002353 -0.008279 0.000000 0.070190 0.000000
# 6 0.000000 0.000000 0.000000 0.001135 0.000000 0.031294
#
#
# Mechanical properties :
#
#
# Convention : Reuss Voigt Hill
#
# Bulk Modulus (GPa) = 24.01675 28.17565 26.09620
# Shear Modulus (GPa) = 22.56810 26.58385 24.57597
#
# Velocity S-wave (km/s) = 3.11274 3.37835 3.24826
# Velocity P-wave (km/s) = 4.81975 5.22631 5.02714
#
# Compressibility (1/GPa) = 0.04163761
#
# Stress axis : x y z
#
# Youngs Moduli (GPa) = 43.68338 43.13854 75.23386
#
# Poissons Ratio (x) = 0.10997 0.01788
# Poissons Ratio (y) = 0.11136 0.45717
# Poissons Ratio (z) = 0.01038 0.26214
#
# Static dielectric constant tensor:
#      x y z
#    x 1.856050 0.000000 0.002050 
#    y 0.000000 1.921280 0.000000 
#    z 0.002050 0.000000 1.865960 
# 
# From -- ./inp_files/16348.got.cif
#   From: 2010.05.17/outbox.cif.g08.bks.cpg/sg14_9_cif.got.tgz:16348.got - 2010.06.03 17:49:19.
