data_PCOD9246580
_publ_section_title
;
Structure prediction by ZEFSAII (Michael W. Deem and Ramdas Pophale) SiO2 
 PCOD9246580
Probable space group: P 21/C
;
_chemical_formula_sum "Si O2"
_cell_formula_units_Z 32
_cell_length_a 9.008019
_cell_length_b 11.708774
_cell_length_c 28.177072
_cell_angle_alpha 90.000000
_cell_angle_beta 150.927083
_cell_angle_gamma 90.000000
_cell_volume 1444.120434
_symmetry_space_group_name_H-M "P 21/C"
_symmetry_group_IT_number 14
_symmetry_cell_setting 'monoclinic'
loop_
_space_group_symop_operation_xyz
x,y,z
-x,1/2+y,1/2-z
-x,-y,-z
x,1/2-y,1/2+z
loop_
_atom_site_type_symbol
_atom_site_label
_atom_site_fract_x
_atom_site_fract_y
_atom_site_fract_z
Si Si1 0.227776 0.727161 0.134615
Si Si2 0.304633 0.423429 0.697306
Si Si3 0.244190 0.098923 0.555950
Si Si4 0.699381 0.552385 0.622094
Si Si5 0.592659 0.554028 0.697597
Si Si6 0.264661 0.669871 0.424475
Si Si7 0.674548 0.071804 0.589136
Si Si8 0.767447 0.347153 0.269689
O O1 0.426416 0.612577 0.192339
O O2 0.441731 0.829582 0.175654
O O3 0.166230 0.750104 0.173382
O O4 0.938142 0.701208 0.021445
O O5 0.430592 0.452337 0.681001
O O6 0.173662 0.540766 0.681504
O O7 0.046517 0.329034 0.631745
O O8 0.491730 0.051589 0.587091
O O9 0.431631 0.146461 0.653575
O O10 0.000000 0.000000 0.500000
O O11 0.530434 0.550976 0.624571
O O12 0.507224 0.612283 0.527145
O O13 0.771833 0.421235 0.628536
O O14 0.995564 0.634681 0.706743
O O15 0.960578 0.546703 0.807086
O O16 0.348231 0.794060 0.429988
O O17 0.500000 0.000000 0.500000
#
# Coordination Sequence:
#
# PCOD9246580 Si02
#       8
#     4   4   4   4   4   4   4   4
#     4  11  23  41  67 101 146 186 237 297 373 428
#     4  10  21  41  66  94 141 191 226 300 357 421
#     4  12  25  43  72 105 141 197 241 300 372 444
#     4  10  22  45  69  99 134 191 250 289 357 436
#     4  11  24  43  69 107 139 183 245 301 350 440
#     4  10  23  45  71  96 147 195 229 302 366 434
#     4  12  26  45  70 108 147 183 244 301 373 435
#     4  10  22  42  66  96 144 184 240 297 360 432
#
# _framework density 22.158816000000002
#
# number of rings (size 3 to 8) (size 9 to 14) (size 15 to 20)
#    0.000    1.250    3.750    1.500    1.750    4.500 
#    2.250    0.000    0.000    0.000    0.000    0.000 
#    0.000    0.000    0.000    0.000    0.000    0.000 
#
# Total GULP energy -178650.886250 kJ/mol
# GULP energy per Si atom -5582.840195 kJ/mol
# Density = 2.210838 g / cm^3
# Si number density = 22.158816 Si / 1000 Ang^3
#
#
#
# Elastic Constant Matrix: (Units=GPa)
#
#
# Indices 1 2 3 4 5 6 
#
# 1 122.6787 22.4806 15.8114 0.0000 13.6799 0.0000
# 2 22.4806 63.1643 4.2605 0.0000 0.2522 0.0000
# 3 15.8114 4.2605 91.7245 0.0000 3.5951 0.0000
# 4 0.0000 0.0000 0.0000 31.0820 0.0000 -3.2859
# 5 13.6799 0.2522 3.5951 0.0000 26.7943 0.0000
# 6 0.0000 0.0000 0.0000 -3.2859 0.0000 22.9046
#
#
#
# Elastic Compliance Matrix: (Units=1/GPa)
#
#
# Indices 1 2 3 4 5 6 
#
# 1 0.009428 -0.003250 -0.001294 0.000000 -0.004609 0.000000
# 2 -0.003250 0.017002 -0.000290 0.000000 0.001538 0.000000
# 3 -0.001294 -0.000290 0.011171 0.000000 -0.000836 0.000000
# 4 0.000000 0.000000 0.000000 0.032668 0.000000 0.004687
# 5 -0.004609 0.001538 -0.000836 0.000000 0.039772 0.000000
# 6 0.000000 0.000000 0.000000 0.004687 0.000000 0.044332
#
#
# Mechanical properties :
#
#
# Convention : Reuss Voigt Hill
#
# Bulk Modulus (GPa) = 35.79780 40.29692 38.04736
# Shear Modulus (GPa) = 28.84331 31.82386 30.33359
#
# Velocity S-wave (km/s) = 3.61177 3.79380 3.70390
# Velocity P-wave (km/s) = 5.79512 6.11682 5.95814
#
# Compressibility (1/GPa) = 0.02793468
#
# Stress axis : x y z
#
# Youngs Moduli (GPa) = 106.07223 58.81759 89.51422
#
# Poissons Ratio (x) = 0.19114 0.11579
# Poissons Ratio (y) = 0.34470 0.02594
# Poissons Ratio (z) = 0.13721 0.01705
#
# Static dielectric constant tensor:
#      x y z
#    x 1.860740 0.000000 0.046850 
#    y 0.000000 1.821340 0.000000 
#    z 0.046850 0.000000 1.858160 
# 
# From -- ./inp_files/79643.got.cif
#   From: 2010.05.17/outbox.cif.g08.bks.cpg/sg14_40_cif.got.tgz:79643.got - 2010.06.03 17:49:19.
