data_PCOD9246023
_publ_section_title
;
Structure prediction by ZEFSAII (Michael W. Deem and Ramdas Pophale) SiO2 
 PCOD9246023
Probable space group: P 21/C
;
_chemical_formula_sum "Si O2"
_cell_formula_units_Z 32
_cell_length_a 13.274939
_cell_length_b 14.834045
_cell_length_c 18.077286
_cell_angle_alpha 90.000000
_cell_angle_beta 23.930381
_cell_angle_gamma 90.000000
_cell_volume 1443.947735
_symmetry_space_group_name_H-M "P 21/C"
_symmetry_group_IT_number 14
_symmetry_cell_setting 'monoclinic'
loop_
_space_group_symop_operation_xyz
x,y,z
-x,1/2+y,1/2-z
-x,-y,-z
x,1/2-y,1/2+z
loop_
_atom_site_type_symbol
_atom_site_label
_atom_site_fract_x
_atom_site_fract_y
_atom_site_fract_z
Si Si1 0.405478 0.629453 0.224591
Si Si2 0.436292 0.564808 0.881411
Si Si3 0.890524 0.697837 0.555129
Si Si4 0.088106 0.594722 0.664812
Si Si5 0.438187 0.371282 0.048713
Si Si6 0.891950 0.599294 0.276322
Si Si7 0.585422 0.820811 0.857886
Si Si8 0.865305 0.758085 0.414721
O O1 0.507540 0.534603 0.186030
O O2 0.123763 0.648019 0.434909
O O3 0.436342 0.621228 0.114834
O O4 0.584261 0.712644 0.122723
O O5 0.652936 0.631982 0.710974
O O6 0.456376 0.565547 0.957918
O O7 0.157500 0.597806 0.056213
O O8 0.801893 0.785896 0.658649
O O9 0.974969 0.722476 0.416516
O O10 0.122702 0.491557 0.665501
O O11 0.351999 0.640092 0.469705
O O12 0.856167 0.609853 0.765466
O O13 0.997299 0.651790 0.797317
O O14 0.480172 0.270812 0.053011
O O15 0.682922 0.609941 0.354040
O O16 0.878170 0.684735 0.340846
#
# Coordination Sequence:
#
# PCOD9246023 Si02
#       8
#     4   4   4   4   4   4   4   4
#     4  11  21  42  62  97 130 167 215 271 332 387
#     4  11  23  40  66 100 129 167 224 277 331 390
#     4  11  26  39  66  93 140 175 210 271 339 403
#     4  11  23  44  70  99 127 176 231 275 327 391
#     4  10  21  39  72  93 126 170 220 285 317 386
#     4  12  23  44  72  98 131 175 228 276 327 394
#     4  11  24  43  66  98 133 174 219 269 332 402
#     4  11  24  43  66  97 135 175 219 278 331 393
#
# _framework density 22.161466999999998
#
# number of rings (size 3 to 8) (size 9 to 14) (size 15 to 20)
#    0.000    1.000    5.000    4.125    3.500    1.000 
#    2.250    0.625    0.000    0.000    0.000    0.000 
#    0.000    0.000    0.000    0.000    0.000    0.000 
#
# Total GULP energy -178881.295559 kJ/mol
# GULP energy per Si atom -5590.040486 kJ/mol
# Density = 2.211103 g / cm^3
# Si number density = 22.161467 Si / 1000 Ang^3
#
#
#
# Elastic Constant Matrix: (Units=GPa)
#
#
# Indices 1 2 3 4 5 6 
#
# 1 28.9117 2.6227 -1.3108 0.0000 3.4029 0.0000
# 2 2.6227 104.6131 28.0242 0.0000 -19.0098 0.0000
# 3 -1.3108 28.0242 79.8009 0.0000 -12.8450 0.0000
# 4 0.0000 0.0000 0.0000 34.7438 0.0000 -7.2107
# 5 3.4029 -19.0098 -12.8450 0.0000 23.5841 0.0000
# 6 0.0000 0.0000 0.0000 -7.2107 0.0000 20.6105
#
#
#
# Elastic Compliance Matrix: (Units=1/GPa)
#
#
# Indices 1 2 3 4 5 6 
#
# 1 0.035594 -0.002192 0.000267 0.000000 -0.006757 0.000000
# 2 -0.002192 0.011899 -0.002872 0.000000 0.008344 0.000000
# 3 0.000267 -0.002872 0.014430 0.000000 0.005506 0.000000
# 4 0.000000 0.000000 0.000000 0.031036 0.000000 0.010858
# 5 -0.006757 0.008344 0.005506 0.000000 0.053101 0.000000
# 6 0.000000 0.000000 0.000000 0.010858 0.000000 0.052318
#
#
# Mechanical properties :
#
#
# Convention : Reuss Voigt Hill
#
# Bulk Modulus (GPa) = 19.10928 30.22197 24.66562
# Shear Modulus (GPa) = 22.18131 28.05366 25.11749
#
# Velocity S-wave (km/s) = 3.16713 3.56177 3.37023
# Velocity P-wave (km/s) = 4.69209 5.53008 5.12823
#
# Compressibility (1/GPa) = 0.05233060
#
# Stress axis : x y z
#
# Youngs Moduli (GPa) = 28.09436 84.03765 69.29828
#
# Poissons Ratio (x) = 0.18418 -0.01848
# Poissons Ratio (y) = 0.06157 0.19901
# Poissons Ratio (z) = -0.00749 0.24134
#
# Static dielectric constant tensor:
#      x y z
#    x 1.804540 0.000000 -0.006150 
#    y 0.000000 1.830860 0.000000 
#    z -0.006150 0.000000 1.861070 
# 
# From -- ./inp_files/68705.got.cif
#   From: 2010.05.17/outbox.cif.g08.bks.cpg/sg14_35_cif.got.tgz:68705.got - 2010.06.03 17:49:19.
