data_PCOD9246630
_publ_section_title
;
Structure prediction by ZEFSAII (Michael W. Deem and Ramdas Pophale) SiO2 
 PCOD9246630
Probable space group: P 21/C
;
_chemical_formula_sum "Si O2"
_cell_formula_units_Z 20
_cell_length_a 6.607351
_cell_length_b 7.043536
_cell_length_c 19.940230
_cell_angle_alpha 90.000000
_cell_angle_beta 118.661507
_cell_angle_gamma 90.000000
_cell_volume 814.291425
_symmetry_space_group_name_H-M "P 21/C"
_symmetry_group_IT_number 14
_symmetry_cell_setting 'monoclinic'
loop_
_space_group_symop_operation_xyz
x,y,z
-x,1/2+y,1/2-z
-x,-y,-z
x,1/2-y,1/2+z
loop_
_atom_site_type_symbol
_atom_site_label
_atom_site_fract_x
_atom_site_fract_y
_atom_site_fract_z
Si Si1 0.746178 0.574463 0.449543
Si Si2 0.890625 0.181058 0.305441
Si Si3 0.764143 0.977317 0.418113
Si Si4 0.709720 0.957901 0.094775
Si Si5 0.730526 0.362272 0.149451
O O1 0.763912 0.751130 0.403168
O O2 0.528782 0.439254 0.401186
O O3 0.681270 0.629236 0.516124
O O4 0.000000 0.500000 0.500000
O O5 0.069501 0.351981 0.343054
O O6 0.723775 0.253519 0.220330
O O7 0.052370 0.000942 0.314210
O O8 0.778849 0.116414 0.357531
O O9 0.500946 0.981835 0.404651
O O10 0.000000 0.000000 0.500000
O O11 0.759248 0.184765 0.103557
#
# Coordination Sequence:
#
# PCOD9246630 Si02
#       5
#     4   4   4   4   4
#     4  10  21  41  67  99 136 177 225 287 349 414
#     4  12  24  45  70  96 141 187 235 295 358 420
#     4  11  25  44  68 107 137 179 238 292 354 422
#     4  10  22  42  66  99 134 177 235 283 346 423
#     4  11  26  45  68 100 141 188 239 292 359 424
#
# _framework density 24.561230999999999
#
# number of rings (size 3 to 8) (size 9 to 14) (size 15 to 20)
#    0.000    1.200    4.000    1.200    2.800    2.400 
#    7.200    0.000    0.000    0.000    0.000    0.000 
#    0.000    0.000    0.000    0.000    0.000    0.000 
#
# Total GULP energy -111500.852058 kJ/mol
# GULP energy per Si atom -5575.042603 kJ/mol
# Density = 2.450533 g / cm^3
# Si number density = 24.561231 Si / 1000 Ang^3
#
#
#
# Elastic Constant Matrix: (Units=GPa)
#
#
# Indices 1 2 3 4 5 6 
#
# 1 118.5698 56.5348 31.4042 0.0000 15.8859 0.0000
# 2 56.5348 113.3443 26.4391 0.0000 16.1664 0.0000
# 3 31.4042 26.4391 101.9994 0.0000 17.5032 0.0000
# 4 0.0000 0.0000 0.0000 36.4764 0.0000 11.9055
# 5 15.8859 16.1664 17.5032 0.0000 31.1403 0.0000
# 6 0.0000 0.0000 0.0000 11.9055 0.0000 47.0877
#
#
#
# Elastic Compliance Matrix: (Units=1/GPa)
#
#
# Indices 1 2 3 4 5 6 
#
# 1 0.011642 -0.005044 -0.001889 0.000000 -0.002258 0.000000
# 2 -0.005044 0.012020 -0.001033 0.000000 -0.003086 0.000000
# 3 -0.001889 -0.001033 0.011506 0.000000 -0.004967 0.000000
# 4 0.000000 0.000000 0.000000 0.029881 0.000000 -0.007555
# 5 -0.002258 -0.003086 -0.004967 0.000000 0.037659 0.000000
# 6 0.000000 0.000000 0.000000 -0.007555 0.000000 0.023147
#
#
# Mechanical properties :
#
#
# Convention : Reuss Voigt Hill
#
# Bulk Modulus (GPa) = 51.98971 62.51887 57.25429
# Shear Modulus (GPa) = 33.73854 37.57657 35.65756
#
# Velocity S-wave (km/s) = 3.71030 3.91566 3.81436
# Velocity P-wave (km/s) = 6.29034 6.77884 6.53916
#
# Compressibility (1/GPa) = 0.01923458
#
# Stress axis : x y z
#
# Youngs Moduli (GPa) = 85.89703 83.19671 86.91264
#
# Poissons Ratio (x) = 0.41964 0.16421
# Poissons Ratio (y) = 0.43326 0.08978
# Poissons Ratio (z) = 0.16229 0.08595
#
# Static dielectric constant tensor:
#      x y z
#    x 2.043290 0.000000 0.051010 
#    y 0.000000 1.979270 0.000000 
#    z 0.051010 0.000000 2.054150 
# 
# From -- ./inp_files/70954.got.cif
#   From: 2010.05.17/outbox.cif.g08.bks.cpg/sg14_36_cif.got.tgz:70954.got - 2010.06.03 17:49:19.
