data_PCOD9246705
_publ_section_title
;
Structure prediction by ZEFSAII (Michael W. Deem and Ramdas Pophale) SiO2 
 PCOD9246705
Probable space group: P 21/C
;
_chemical_formula_sum "Si O2"
_cell_formula_units_Z 24
_cell_length_a 5.515836
_cell_length_b 13.019222
_cell_length_c 13.119769
_cell_angle_alpha 90.000000
_cell_angle_beta 111.535763
_cell_angle_gamma 90.000000
_cell_volume 876.382284
_symmetry_space_group_name_H-M "P 21/C"
_symmetry_group_IT_number 14
_symmetry_cell_setting 'monoclinic'
loop_
_space_group_symop_operation_xyz
x,y,z
-x,1/2+y,1/2-z
-x,-y,-z
x,1/2-y,1/2+z
loop_
_atom_site_type_symbol
_atom_site_label
_atom_site_fract_x
_atom_site_fract_y
_atom_site_fract_z
Si Si1 0.025578 0.555764 0.701481
Si Si2 0.550041 0.578705 0.731820
Si Si3 0.251369 0.568148 0.003829
Si Si4 0.247665 0.894810 0.972948
Si Si5 0.990728 0.257733 0.923569
Si Si6 0.482653 0.780123 0.402146
O O1 0.832463 0.532419 0.763086
O O2 0.885014 0.496910 0.586523
O O3 0.031198 0.677545 0.673156
O O4 0.319484 0.514871 0.748816
O O5 0.438555 0.596120 0.600417
O O6 0.569356 0.678969 0.805941
O O7 0.500000 0.500000 0.000000
O O8 0.248495 0.647102 0.907055
O O9 0.000000 0.500000 0.000000
O O10 0.228877 0.655550 0.091739
O O11 0.395200 0.836583 0.904395
O O12 0.032827 0.817660 0.982584
O O13 0.282082 0.298863 0.980870
#
# Coordination Sequence:
#
# PCOD9246705 Si02
#       6
#     4   4   4   4   4   4
#     4  11  24  44  73 100 137 185 233 294 358 419
#     4  11  24  41  66 100 138 177 232 285 342 420
#     4  11  23  42  67  90 134 190 235 275 345 420
#     4  10  23  44  73 101 142 185 227 294 361 423
#     4  10  21  41  74  97 135 186 232 290 352 415
#     4  11  24  42  73 104 139 184 230 297 351 423
#
# _framework density 27.38531
#
# number of rings (size 3 to 8) (size 9 to 14) (size 15 to 20)
#    0.000    1.333    3.333    2.500    7.000    0.000 
#    0.000   11.667    0.000    0.000    0.000    0.000 
#    0.000    0.000    0.000    0.000    0.000    0.000 
#
# Total GULP energy -133785.044739 kJ/mol
# GULP energy per Si atom -5574.376864 kJ/mol
# Density = 2.732298 g / cm^3
# Si number density = 27.385310 Si / 1000 Ang^3
#
#
#
# Elastic Constant Matrix: (Units=GPa)
#
#
# Indices 1 2 3 4 5 6 
#
# 1 234.7073 57.6531 34.3509 0.0000 -5.1402 0.0000
# 2 57.6531 122.0097 26.8695 0.0000 -4.8718 0.0000
# 3 34.3509 26.8695 99.0508 0.0000 -10.9818 0.0000
# 4 0.0000 0.0000 0.0000 44.7570 0.0000 -12.2394
# 5 -5.1402 -4.8718 -10.9818 0.0000 33.3658 0.0000
# 6 0.0000 0.0000 0.0000 -12.2394 0.0000 56.2658
#
#
#
# Elastic Compliance Matrix: (Units=1/GPa)
#
#
# Indices 1 2 3 4 5 6 
#
# 1 0.004940 -0.002080 -0.001140 0.000000 0.000082 0.000000
# 2 -0.002080 0.009601 -0.001830 0.000000 0.000479 0.000000
# 3 -0.001140 -0.001830 0.011353 0.000000 0.003294 0.000000
# 4 0.000000 0.000000 0.000000 0.023756 0.000000 0.005168
# 5 0.000082 0.000479 0.003294 0.000000 0.031137 0.000000
# 6 0.000000 0.000000 0.000000 0.005168 0.000000 0.018897
#
#
# Mechanical properties :
#
#
# Convention : Reuss Voigt Hill
#
# Bulk Modulus (GPa) = 63.31470 77.05719 70.18594
# Shear Modulus (GPa) = 43.45973 49.33736 46.39854
#
# Velocity S-wave (km/s) = 3.98800 4.24913 4.12064
# Velocity P-wave (km/s) = 6.66151 7.22999 6.95156
#
# Compressibility (1/GPa) = 0.01579412
#
# Stress axis : x y z
#
# Youngs Moduli (GPa) = 202.42083 104.15465 88.08443
#
# Poissons Ratio (x) = 0.21665 0.10041
# Poissons Ratio (y) = 0.42105 0.16119
# Poissons Ratio (z) = 0.23074 0.19060
#
# Static dielectric constant tensor:
#      x y z
#    x 2.265740 0.000000 0.059300 
#    y 0.000000 2.177140 0.000000 
#    z 0.059300 0.000000 2.318250 
# 
# From -- ./inp_files/53211.got.cif
#   From: 2010.05.17/outbox.cif.g08.bks.cpg/sg14_27_cif.got.tgz:53211.got - 2010.06.03 17:49:19.
