data_PCOD9246204
_publ_section_title
;
Structure prediction by ZEFSAII (Michael W. Deem and Ramdas Pophale) SiO2 
 PCOD9246204
Probable space group: P 21/C
;
_chemical_formula_sum "Si O2"
_cell_formula_units_Z 30
_cell_length_a 11.504960
_cell_length_b 9.365694
_cell_length_c 15.695596
_cell_angle_alpha 90.000000
_cell_angle_beta 63.452477
_cell_angle_gamma 90.000000
_cell_volume 1512.914160
_symmetry_space_group_name_H-M "P 21/C"
_symmetry_group_IT_number 14
_symmetry_cell_setting 'monoclinic'
loop_
_space_group_symop_operation_xyz
x,y,z
-x,1/2+y,1/2-z
-x,-y,-z
x,1/2-y,1/2+z
loop_
_atom_site_type_symbol
_atom_site_label
_atom_site_fract_x
_atom_site_fract_y
_atom_site_fract_z
Si Si1 0.236841 0.534828 0.285837
Si Si2 0.836742 0.217525 0.025806
Si Si3 0.511599 0.132313 0.385564
Si Si4 0.555400 0.302159 0.056571
Si Si5 0.892853 0.577184 0.214002
Si Si6 0.363115 0.274141 0.766110
Si Si7 0.011308 0.878480 0.186465
Si Si8 0.000000 0.000000 0.500000
O O1 0.199583 0.618528 0.382771
O O2 0.339804 0.619354 0.194590
O O3 0.305730 0.385352 0.287559
O O4 0.108840 0.488113 0.277472
O O5 0.704010 0.259712 0.021279
O O6 0.907504 0.357336 0.038164
O O7 0.930237 0.140747 0.926925
O O8 0.506964 0.217756 0.475637
O O9 0.428546 0.192114 0.334648
O O10 0.460807 0.971609 0.420005
O O11 0.467399 0.222836 0.155531
O O12 0.755488 0.620376 0.216757
O O13 0.886268 0.450843 0.284159
O O14 0.952071 0.725167 0.232086
O O15 0.986266 0.529930 0.107226
#
# Coordination Sequence:
#
# PCOD9246204 Si02
#       8
#     4   4   4   4   4   4   4   2
#     4  10  22  40  64  88 132 168 205 276 328 389
#     4  11  22  42  63  97 127 168 220 269 334 397
#     4  10  21  40  65  89 129 170 216 262 330 392
#     4  10  22  39  64  96 123 172 215 267 324 399
#     4  10  23  44  63  95 130 171 219 274 322 403
#     4  10  21  44  62  94 128 170 217 266 333 388
#     4  10  24  41  63  94 130 168 219 268 340 382
#     4  10  24  38  64  92 124 172 216 258 326 398
#
# _framework density 19.829283
#
# number of rings (size 3 to 8) (size 9 to 14) (size 15 to 20)
#    0.000    1.867    1.333    1.200    5.600    1.067 
#    9.600    1.333    0.000    0.000    0.000    0.000 
#    0.000    0.000    0.000    0.000    0.000    0.000 
#
# Total GULP energy -167026.051459 kJ/mol
# GULP energy per Si atom -5567.535049 kJ/mol
# Density = 1.978415 g / cm^3
# Si number density = 19.829283 Si / 1000 Ang^3
#
#
#
# Elastic Constant Matrix: (Units=GPa)
#
#
# Indices 1 2 3 4 5 6 
#
# 1 68.9472 41.5426 29.1569 0.0000 14.1207 0.0000
# 2 41.5426 34.7908 29.5553 0.0000 15.7339 0.0000
# 3 29.1569 29.5553 67.3683 0.0000 21.5499 0.0000
# 4 0.0000 0.0000 0.0000 20.2544 0.0000 18.6925
# 5 14.1207 15.7339 21.5499 0.0000 32.8381 0.0000
# 6 0.0000 0.0000 0.0000 18.6925 0.0000 12.7339
#
#
#
# Elastic Compliance Matrix: (Units=1/GPa)
#
#
# Indices 1 2 3 4 5 6 
#
# 1 0.055708 -0.075698 0.006531 0.000000 0.008029 0.000000
# 2 -0.075698 0.152112 -0.026668 0.000000 -0.022830 0.000000
# 3 0.006531 -0.026668 0.025982 0.000000 -0.007081 0.000000
# 4 0.000000 0.000000 0.000000 -0.139180 0.000000 0.204307
# 5 0.008029 -0.022830 -0.007081 0.000000 0.042586 0.000000
# 6 0.000000 0.000000 0.000000 0.204307 0.000000 -0.221378
#
#
# Mechanical properties :
#
#
# Convention : Reuss Voigt Hill
#
# Bulk Modulus (GPa) = 23.73538 41.29066 32.51302
# Shear Modulus (GPa) = 41.13740 17.88871 29.51305
#
# Velocity S-wave (km/s) = 4.55970 3.00682 3.86211
# Velocity P-wave (km/s) = 6.30214 5.73785 6.02660
#
# Compressibility (1/GPa) = 0.04213120
#
# Stress axis : x y z
#
# Youngs Moduli (GPa) = 17.95083 6.57410 38.48818
#
# Poissons Ratio (x) = 0.49765 -0.25138
# Poissons Ratio (y) = 1.35885 1.02642
# Poissons Ratio (z) = -0.11724 0.17532
#
# Static dielectric constant tensor:
#      x y z
#    x 1.703460 0.000000 -0.015890 
#    y 0.000000 1.693660 0.000000 
#    z -0.015890 0.000000 1.680610 
# 
# From -- ./inp_files/43638.got.cif
#   From: 2010.05.17/outbox.cif.g08.bks.cpg/sg14_22_cif.got.tgz:43638.got - 2010.06.03 17:49:19.
