data_PCOD9246211
_publ_section_title
;
Structure prediction by ZEFSAII (Michael W. Deem and Ramdas Pophale) SiO2 
 PCOD9246211
Probable space group: P 21/C
;
_chemical_formula_sum "Si O2"
_cell_formula_units_Z 20
_cell_length_a 7.578144
_cell_length_b 7.208399
_cell_length_c 20.839114
_cell_angle_alpha 90.000000
_cell_angle_beta 135.469871
_cell_angle_gamma 90.000000
_cell_volume 798.316296
_symmetry_space_group_name_H-M "P 21/C"
_symmetry_group_IT_number 14
_symmetry_cell_setting 'monoclinic'
loop_
_space_group_symop_operation_xyz
x,y,z
-x,1/2+y,1/2-z
-x,-y,-z
x,1/2-y,1/2+z
loop_
_atom_site_type_symbol
_atom_site_label
_atom_site_fract_x
_atom_site_fract_y
_atom_site_fract_z
Si Si1 0.568446 0.128276 0.118031
Si Si2 0.681236 0.787220 0.082185
Si Si3 0.063328 0.399536 0.696563
Si Si4 0.924210 0.041570 0.585452
Si Si5 0.619478 0.992461 0.378956
O O1 0.413060 0.266627 0.122272
O O2 0.867731 0.160675 0.202582
O O3 0.926659 0.917808 0.134093
O O4 0.492782 0.189516 0.025935
O O5 0.554278 0.903835 0.108393
O O6 0.784803 0.579522 0.103176
O O7 0.345824 0.435312 0.789752
O O8 0.030456 0.232552 0.639161
O O9 0.728081 0.059117 0.475766
O O10 0.171130 0.949014 0.618089
#
# Coordination Sequence:
#
# PCOD9246211 Si02
#       5
#     4   4   4   4   4
#     4   8  18  42  60  89 129 162 218 272 328 391
#     4   8  18  40  64  86 124 171 212 269 331 400
#     4  10  21  40  65  91 125 175 218 267 341 392
#     4  10  22  42  67  90 137 175 215 278 338 395
#     4  10  22  41  63 101 131 170 228 278 326 402
#
# _framework density 25.052724999999999
#
# number of rings (size 3 to 8) (size 9 to 14) (size 15 to 20)
#    1.200    1.600    0.000    0.000    2.800    3.200 
#   10.800   11.000    0.000    0.000    0.000    0.000 
#    0.000    0.000    0.000    0.000    0.000    0.000 
#
# Total GULP energy -111567.688231 kJ/mol
# GULP energy per Si atom -5578.384412 kJ/mol
# Density = 2.499570 g / cm^3
# Si number density = 25.052725 Si / 1000 Ang^3
#
#
#
# Elastic Constant Matrix: (Units=GPa)
#
#
# Indices 1 2 3 4 5 6 
#
# 1 84.1742 27.1352 36.0471 0.0000 17.7359 0.0000
# 2 27.1352 151.5450 49.7488 0.0000 3.5508 0.0000
# 3 36.0471 49.7488 178.7710 0.0000 46.8666 0.0000
# 4 0.0000 0.0000 0.0000 36.8019 0.0000 3.4797
# 5 17.7359 3.5508 46.8666 0.0000 26.7077 0.0000
# 6 0.0000 0.0000 0.0000 3.4797 0.0000 27.7494
#
#
#
# Elastic Compliance Matrix: (Units=1/GPa)
#
#
# Indices 1 2 3 4 5 6 
#
# 1 0.014647 -0.002513 0.000386 0.000000 -0.010070 0.000000
# 2 -0.002513 0.008039 -0.003496 0.000000 0.006735 0.000000
# 3 0.000386 -0.003496 0.011916 0.000000 -0.020701 0.000000
# 4 0.000000 0.000000 0.000000 0.027499 0.000000 -0.003448
# 5 -0.010070 0.006735 -0.020701 0.000000 0.079560 0.000000
# 6 0.000000 0.000000 0.000000 -0.003448 0.000000 0.036469
#
#
# Mechanical properties :
#
#
# Convention : Reuss Voigt Hill
#
# Bulk Modulus (GPa) = 42.81797 71.15027 56.98412
# Shear Modulus (GPa) = 25.36008 38.35574 31.85791
#
# Velocity S-wave (km/s) = 3.18507 3.91705 3.56987
# Velocity P-wave (km/s) = 5.53665 6.99425 6.30769
#
# Compressibility (1/GPa) = 0.02335468
#
# Stress axis : x y z
#
# Youngs Moduli (GPa) = 68.27435 124.40120 83.92249
#
# Poissons Ratio (x) = 0.31266 -0.03239
# Poissons Ratio (y) = 0.17160 0.29337
# Poissons Ratio (z) = -0.02635 0.43487
#
# Static dielectric constant tensor:
#      x y z
#    x 1.952110 0.000000 -0.000470 
#    y 0.000000 2.043180 0.000000 
#    z -0.000470 0.000000 1.962650 
# 
# From -- ./inp_files/72026.got.cif
#   From: 2010.05.17/outbox.cif.g08.bks.cpg/sg14_37_cif.got.tgz:72026.got - 2010.06.03 17:49:19.
