data_PCOD9246880
_publ_section_title
;
Structure prediction by ZEFSAII (Michael W. Deem and Ramdas Pophale) SiO2 
 PCOD9246880
Probable space group: P 21/C
;
_chemical_formula_sum "Si O2"
_cell_formula_units_Z 32
_cell_length_a 15.537796
_cell_length_b 12.499956
_cell_length_c 13.195163
_cell_angle_alpha 90.000000
_cell_angle_beta 37.668576
_cell_angle_gamma 90.000000
_cell_volume 1566.101724
_symmetry_space_group_name_H-M "P 21/C"
_symmetry_group_IT_number 14
_symmetry_cell_setting 'monoclinic'
loop_
_space_group_symop_operation_xyz
x,y,z
-x,1/2+y,1/2-z
-x,-y,-z
x,1/2-y,1/2+z
loop_
_atom_site_type_symbol
_atom_site_label
_atom_site_fract_x
_atom_site_fract_y
_atom_site_fract_z
Si Si1 0.685860 0.886703 0.578457
Si Si2 0.837796 0.122310 0.139091
Si Si3 0.510611 0.399922 0.913605
Si Si4 0.945693 0.973990 0.212605
Si Si5 0.630367 0.692868 0.521735
Si Si6 0.398718 0.543411 0.681055
Si Si7 0.879764 0.143564 0.638073
Si Si8 0.915785 0.936722 0.729386
O O1 0.557292 0.933887 0.630433
O O2 0.831047 0.911964 0.386356
O O3 0.663071 0.760129 0.592818
O O4 0.676355 0.944955 0.693322
O O5 0.675226 0.128417 0.257865
O O6 0.887055 0.230786 0.147949
O O7 0.862398 0.028731 0.197579
O O8 0.935514 0.098445 0.950899
O O9 0.500000 0.500000 0.000000
O O10 0.419181 0.288334 0.010818
O O11 0.018534 0.059536 0.219775
O O12 0.498784 0.615301 0.657472
O O13 0.767045 0.624679 0.364763
O O14 0.500000 0.500000 0.500000
O O15 0.277671 0.617200 0.750148
O O16 0.982856 0.114978 0.448963
O O17 0.905418 0.061372 0.705471
#
# Coordination Sequence:
#
# PCOD9246880 Si02
#       8
#     4   4   4   4   4   4   4   4
#     4  10  23  44  64  97 133 176 219 280 327 401
#     4  11  23  42  66 103 127 181 219 281 332 398
#     4  10  21  42  68  94 133 167 223 277 329 389
#     4  11  24  43  68  94 142 170 232 273 331 408
#     4  10  23  42  66  97 132 171 226 270 337 398
#     4  12  23  45  66  98 137 172 224 283 333 404
#     4  11  23  41  67  94 135 173 225 270 339 396
#     4  11  24  43  64  97 134 180 217 277 332 410
#
# _framework density 20.432901000000001
#
# number of rings (size 3 to 8) (size 9 to 14) (size 15 to 20)
#    0.750    0.500    5.000    0.750    1.750    2.000 
#    4.500    1.250    0.000    0.000    0.000    0.000 
#    0.000    0.000    0.000    0.000    0.000    0.000 
#
# Total GULP energy -178405.426701 kJ/mol
# GULP energy per Si atom -5575.169584 kJ/mol
# Density = 2.038639 g / cm^3
# Si number density = 20.432901 Si / 1000 Ang^3
#
#
#
# Elastic Constant Matrix: (Units=GPa)
#
#
# Indices 1 2 3 4 5 6 
#
# 1 57.5181 0.0792 21.4101 0.0000 -15.8462 0.0000
# 2 0.0792 68.5568 18.2982 0.0000 0.6097 0.0000
# 3 21.4101 18.2982 80.8107 0.0000 -9.1809 0.0000
# 4 0.0000 0.0000 0.0000 10.3879 0.0000 0.1057
# 5 -15.8462 0.6097 -9.1809 0.0000 33.6985 0.0000
# 6 0.0000 0.0000 0.0000 0.1057 0.0000 28.1440
#
#
#
# Elastic Compliance Matrix: (Units=1/GPa)
#
#
# Indices 1 2 3 4 5 6 
#
# 1 0.021680 0.001238 -0.005024 0.000000 0.008803 0.000000
# 2 0.001238 0.015649 -0.003960 0.000000 -0.000780 0.000000
# 3 -0.005024 -0.003960 0.014800 0.000000 0.001741 0.000000
# 4 0.000000 0.000000 0.000000 0.096270 0.000000 -0.000362
# 5 0.008803 -0.000780 0.001741 0.000000 0.034303 0.000000
# 6 0.000000 0.000000 0.000000 -0.000362 0.000000 0.035533
#
#
# Mechanical properties :
#
#
# Convention : Reuss Voigt Hill
#
# Bulk Modulus (GPa) = 27.29553 31.82897 29.56225
# Shear Modulus (GPa) = 20.33028 25.58596 22.95812
#
# Velocity S-wave (km/s) = 3.15775 3.54247 3.35563
# Velocity P-wave (km/s) = 5.16554 5.68712 5.43259
#
# Compressibility (1/GPa) = 0.03663604
#
# Stress axis : x y z
#
# Youngs Moduli (GPa) = 46.12652 63.90236 67.56700
#
# Poissons Ratio (x) = -0.07908 0.33945
# Poissons Ratio (y) = -0.05708 0.26756
# Poissons Ratio (z) = 0.23173 0.25305
#
# Static dielectric constant tensor:
#      x y z
#    x 1.837020 0.000000 0.013290 
#    y 0.000000 1.811480 0.000000 
#    z 0.013290 0.000000 1.691740 
# 
# From -- ./inp_files/48984.got.cif
#   From: 2010.05.17/outbox.cif.g08.bks.cpg/sg14_25_cif.got.tgz:48984.got - 2010.06.03 17:49:19.
