data_PCOD9246221
_publ_section_title
;
Structure prediction by ZEFSAII (Michael W. Deem and Ramdas Pophale) SiO2 
 PCOD9246221
Probable space group: P 21/C
;
_chemical_formula_sum "Si O2"
_cell_formula_units_Z 24
_cell_length_a 21.333471
_cell_length_b 10.832070
_cell_length_c 20.868857
_cell_angle_alpha 90.000000
_cell_angle_beta 166.407755
_cell_angle_gamma 90.000000
_cell_volume 1133.336856
_symmetry_space_group_name_H-M "P 21/C"
_symmetry_group_IT_number 14
_symmetry_cell_setting 'monoclinic'
loop_
_space_group_symop_operation_xyz
x,y,z
-x,1/2+y,1/2-z
-x,-y,-z
x,1/2-y,1/2+z
loop_
_atom_site_type_symbol
_atom_site_label
_atom_site_fract_x
_atom_site_fract_y
_atom_site_fract_z
Si Si1 0.652997 0.479336 0.717767
Si Si2 0.030763 0.356596 0.396680
Si Si3 0.489016 0.516866 0.065820
Si Si4 0.592426 0.241557 0.738132
Si Si5 0.142182 0.576310 0.267796
Si Si6 0.070991 0.352606 0.286875
O O1 0.500000 0.500000 0.500000
O O2 0.647142 0.337473 0.734357
O O3 0.455256 0.551250 0.570104
O O4 0.951553 0.529019 0.020757
O O5 0.298820 0.378643 0.703114
O O6 0.091002 0.376397 0.381797
O O7 0.919055 0.218631 0.287652
O O8 0.803362 0.444536 0.200270
O O9 0.572905 0.393335 0.188006
O O10 0.500000 0.500000 0.000000
O O11 0.323220 0.284573 0.505812
O O12 0.822688 0.267956 0.018745
O O13 0.046721 0.487142 0.230009
#
# Coordination Sequence:
#
# PCOD9246221 Si02
#       6
#     4   4   4   4   4   4
#     4  10  21  40  65  93 123 167 212 272 323 378
#     4  12  26  44  71  96 136 175 219 282 330 405
#     4  12  28  46  66 102 137 187 221 263 343 407
#     4  10  23  42  69  93 135 166 218 273 324 401
#     4  10  23  39  65  96 126 160 224 266 327 391
#     4  10  23  45  67 102 121 173 217 279 339 376
#
# _framework density 21.176404999999999
#
# number of rings (size 3 to 8) (size 9 to 14) (size 15 to 20)
#    0.000    1.333    0.000    4.000    9.333    0.000 
#    0.000    0.000    0.000    0.000    0.000    0.000 
#    0.000    0.000    0.000    0.000    0.000    0.000 
#
# Total GULP energy -134145.235204 kJ/mol
# GULP energy per Si atom -5589.384800 kJ/mol
# Density = 2.112821 g / cm^3
# Si number density = 21.176405 Si / 1000 Ang^3
#
#
#
# Elastic Constant Matrix: (Units=GPa)
#
#
# Indices 1 2 3 4 5 6 
#
# 1 134.2961 -5.8774 4.8030 0.0000 -70.5775 0.0000
# 2 -5.8774 99.4098 -9.0156 0.0000 49.0874 0.0000
# 3 4.8030 -9.0156 96.7333 0.0000 -12.2051 0.0000
# 4 0.0000 0.0000 0.0000 27.3053 0.0000 0.0822
# 5 -70.5775 49.0874 -12.2051 0.0000 105.9880 0.0000
# 6 0.0000 0.0000 0.0000 0.0822 0.0000 6.2546
#
#
#
# Elastic Compliance Matrix: (Units=1/GPa)
#
#
# Indices 1 2 3 4 5 6 
#
# 1 0.012841 -0.004477 0.000290 0.000000 0.010658 0.000000
# 2 -0.004477 0.014623 0.000360 0.000000 -0.009713 0.000000
# 3 0.000290 0.000360 0.010513 0.000000 0.001237 0.000000
# 4 0.000000 0.000000 0.000000 0.036624 0.000000 -0.000481
# 5 0.010658 -0.009713 0.001237 0.000000 0.021173 0.000000
# 6 0.000000 0.000000 0.000000 -0.000481 0.000000 0.159887
#
#
# Mechanical properties :
#
#
# Convention : Reuss Voigt Hill
#
# Bulk Modulus (GPa) = 32.97943 34.47325 33.72634
# Shear Modulus (GPa) = 18.28661 50.61154 34.44907
#
# Velocity S-wave (km/s) = 2.94179 4.89406 4.03770
# Velocity P-wave (km/s) = 5.21021 6.94624 6.13989
#
# Compressibility (1/GPa) = 0.03032193
#
# Stress axis : x y z
#
# Youngs Moduli (GPa) = 77.87582 68.38438 95.12112
#
# Poissons Ratio (x) = 0.30617 -0.02757
# Poissons Ratio (y) = 0.34866 -0.03422
# Poissons Ratio (z) = -0.02257 -0.02460
#
# Static dielectric constant tensor:
#      x y z
#    x 1.749720 0.000000 -0.012370 
#    y 0.000000 1.751980 0.000000 
#    z -0.012370 0.000000 1.744900 
# 
# From -- ./inp_files/74964.got.cif
#   From: 2010.05.17/outbox.cif.g08.bks.cpg/sg14_38_cif.got.tgz:74964.got - 2010.06.03 17:49:19.
