data_PCOD9246578
_publ_section_title
;
Structure prediction by ZEFSAII (Michael W. Deem and Ramdas Pophale) SiO2 
 PCOD9246578
Probable space group: P 21/C
;
_chemical_formula_sum "Si O2"
_cell_formula_units_Z 32
_cell_length_a 8.935862
_cell_length_b 15.722586
_cell_length_c 14.632504
_cell_angle_alpha 90.000000
_cell_angle_beta 41.788480
_cell_angle_gamma 90.000000
_cell_volume 1369.943678
_symmetry_space_group_name_H-M "P 21/C"
_symmetry_group_IT_number 14
_symmetry_cell_setting 'monoclinic'
loop_
_space_group_symop_operation_xyz
x,y,z
-x,1/2+y,1/2-z
-x,-y,-z
x,1/2-y,1/2+z
loop_
_atom_site_type_symbol
_atom_site_label
_atom_site_fract_x
_atom_site_fract_y
_atom_site_fract_z
Si Si1 0.059599 0.523800 0.591792
Si Si2 0.545613 0.234448 0.047719
Si Si3 0.673281 0.110509 0.285189
Si Si4 0.374331 0.695757 0.695778
Si Si5 0.672843 0.085294 0.493270
Si Si6 0.310488 0.351872 0.279773
Si Si7 0.493100 0.570233 0.321453
Si Si8 0.902542 0.467992 0.209971
O O1 0.895573 0.443481 0.665721
O O2 0.928237 0.603699 0.608152
O O3 0.291375 0.505329 0.435162
O O4 0.101342 0.542723 0.679140
O O5 0.526229 0.201525 0.952948
O O6 0.726151 0.312053 0.976958
O O7 0.326423 0.278576 0.193968
O O8 0.590890 0.154069 0.088947
O O9 0.726502 0.210043 0.249901
O O10 0.594140 0.086222 0.423323
O O11 0.490170 0.092072 0.291580
O O12 0.564965 0.680315 0.685915
O O13 0.184823 0.622163 0.789800
O O14 0.475280 0.078273 0.656730
O O15 0.864980 0.015882 0.419279
O O16 0.715324 0.534817 0.264088
#
# Coordination Sequence:
#
# PCOD9246578 Si02
#       8
#     4   4   4   4   4   4   4   4
#     4  11  24  42  68  99 133 183 217 277 332 395
#     4   9  21  41  68  93 137 166 222 270 322 396
#     4  10  21  41  66  94 134 172 229 267 329 397
#     4  11  21  43  65 101 131 175 220 275 331 396
#     4   8  21  44  64  97 131 177 214 273 329 389
#     4  10  22  45  69  92 137 168 224 269 332 399
#     4  12  22  43  68  96 137 175 223 279 327 392
#     4  11  24  40  70  97 140 170 224 273 333 395
#
# _framework density 23.358625
#
# number of rings (size 3 to 8) (size 9 to 14) (size 15 to 20)
#    0.750    1.000    2.500    1.500    0.000    3.500 
#    4.500    1.250    2.750    0.000    0.000    0.000 
#    0.000    0.000    0.000    0.000    0.000    0.000 
#
# Total GULP energy -178653.418208 kJ/mol
# GULP energy per Si atom -5582.919319 kJ/mol
# Density = 2.330546 g / cm^3
# Si number density = 23.358625 Si / 1000 Ang^3
#
#
#
# Elastic Constant Matrix: (Units=GPa)
#
#
# Indices 1 2 3 4 5 6 
#
# 1 113.5641 42.3989 39.4104 0.0000 1.6089 0.0000
# 2 42.3989 119.1230 23.8707 0.0000 3.1884 0.0000
# 3 39.4104 23.8707 78.6274 0.0000 1.3532 0.0000
# 4 0.0000 0.0000 0.0000 20.8504 0.0000 -4.6972
# 5 1.6089 3.1884 1.3532 0.0000 31.4296 0.0000
# 6 0.0000 0.0000 0.0000 -4.6972 0.0000 18.1517
#
#
#
# Elastic Compliance Matrix: (Units=1/GPa)
#
#
# Indices 1 2 3 4 5 6 
#
# 1 0.011692 -0.003179 -0.004894 0.000000 -0.000065 0.000000
# 2 -0.003179 0.009822 -0.001375 0.000000 -0.000775 0.000000
# 3 -0.004894 -0.001375 0.015594 0.000000 -0.000281 0.000000
# 4 0.000000 0.000000 0.000000 0.050930 0.000000 0.013179
# 5 -0.000065 -0.000775 -0.000281 0.000000 0.031911 0.000000
# 6 0.000000 0.000000 0.000000 0.013179 0.000000 0.058502
#
#
# Mechanical properties :
#
#
# Convention : Reuss Voigt Hill
#
# Bulk Modulus (GPa) = 54.91106 58.07495 56.49300
# Shear Modulus (GPa) = 24.57997 27.79529 26.18763
#
# Velocity S-wave (km/s) = 3.24742 3.45329 3.35193
# Velocity P-wave (km/s) = 6.13350 6.38878 6.26244
#
# Compressibility (1/GPa) = 0.01821127
#
# Stress axis : x y z
#
# Youngs Moduli (GPa) = 85.53031 101.80727 64.12881
#
# Poissons Ratio (x) = 0.32364 0.31385
# Poissons Ratio (y) = 0.27190 0.08820
# Poissons Ratio (z) = 0.41859 0.14002
#
# Static dielectric constant tensor:
#      x y z
#    x 1.867680 0.000000 0.024230 
#    y 0.000000 1.962310 0.000000 
#    z 0.024230 0.000000 1.900680 
# 
# From -- ./inp_files/41681.got.cif
#   From: 2010.05.17/outbox.cif.g08.bks.cpg/sg14_21_cif.got.tgz:41681.got - 2010.06.03 17:49:19.
