data_PCOD9246900
_publ_section_title
;
Structure prediction by ZEFSAII (Michael W. Deem and Ramdas Pophale) SiO2 
 PCOD9246900
Probable space group: P 21/C
;
_chemical_formula_sum "Si O2"
_cell_formula_units_Z 32
_cell_length_a 14.760707
_cell_length_b 5.332570
_cell_length_c 29.321260
_cell_angle_alpha 90.000000
_cell_angle_beta 139.990830
_cell_angle_gamma 90.000000
_cell_volume 1483.804462
_symmetry_space_group_name_H-M "P 21/C"
_symmetry_group_IT_number 14
_symmetry_cell_setting 'monoclinic'
loop_
_space_group_symop_operation_xyz
x,y,z
-x,1/2+y,1/2-z
-x,-y,-z
x,1/2-y,1/2+z
loop_
_atom_site_type_symbol
_atom_site_label
_atom_site_fract_x
_atom_site_fract_y
_atom_site_fract_z
Si Si1 0.414264 0.363691 0.204224
Si Si2 0.509415 0.711593 0.362867
Si Si3 0.409745 0.293777 0.436513
Si Si4 0.120991 0.892402 0.482085
Si Si5 0.662865 0.770840 0.690736
Si Si6 0.097821 0.800331 0.064647
Si Si7 0.652465 0.904445 0.499355
Si Si8 0.157775 0.323925 0.656706
O O1 0.495480 0.628319 0.240261
O O2 0.399401 0.283955 0.145644
O O3 0.261707 0.364325 0.169526
O O4 0.430797 0.451659 0.323467
O O5 0.594224 0.689433 0.442899
O O6 0.409751 0.955098 0.332774
O O7 0.500000 0.500000 0.500000
O O8 0.325664 0.329389 0.356839
O O9 0.303138 0.196976 0.434426
O O10 0.526146 0.091919 0.464569
O O11 0.185320 0.798276 0.554818
O O12 0.007607 0.711113 0.414618
O O13 0.234181 0.962290 0.488338
O O14 0.016567 0.112947 0.458293
O O15 0.800316 0.801897 0.774804
O O16 0.185745 0.920722 0.139471
O O17 0.000000 0.000000 0.000000
#
# Coordination Sequence:
#
# PCOD9246900 Si02
#       8
#     4   4   4   4   4   4   4   4
#     4  12  24  38  59  94 134 179 222 268 335 409
#     4  11  22  39  61  97 129 172 218 279 331 400
#     4  10  21  42  69  97 123 165 222 298 347 407
#     4  10  23  42  63  93 136 181 225 272 329 410
#     4  11  23  41  66  95 130 172 221 278 354 392
#     4   9  22  40  58  90 127 181 218 261 313 397
#     4  10  23  40  68  97 126 168 227 284 343 398
#     4  11  24  39  62  91 138 176 224 273 333 406
#
# _framework density 21.566182000000001
#
# number of rings (size 3 to 8) (size 9 to 14) (size 15 to 20)
#    0.000    1.500    3.750    0.000    8.750    4.000 
#    0.000    0.000    5.500    0.000    0.000    0.000 
#    0.000    0.000    0.000    0.000    0.000    0.000 
#
# Total GULP energy -178411.832637 kJ/mol
# GULP energy per Si atom -5575.369770 kJ/mol
# Density = 2.151710 g / cm^3
# Si number density = 21.566182 Si / 1000 Ang^3
#
#
#
# Elastic Constant Matrix: (Units=GPa)
#
#
# Indices 1 2 3 4 5 6 
#
# 1 133.7875 10.2682 42.6041 0.0000 -33.2082 0.0000
# 2 10.2682 71.9286 17.8079 0.0000 -4.0878 0.0000
# 3 42.6041 17.8079 102.0421 0.0000 -41.5843 0.0000
# 4 0.0000 0.0000 0.0000 29.0633 0.0000 -8.0668
# 5 -33.2082 -4.0878 -41.5843 0.0000 44.5106 0.0000
# 6 0.0000 0.0000 0.0000 -8.0668 0.0000 23.8946
#
#
#
# Elastic Compliance Matrix: (Units=1/GPa)
#
#
# Indices 1 2 3 4 5 6 
#
# 1 0.009383 -0.000638 -0.001578 0.000000 0.005468 0.000000
# 2 -0.000638 0.014651 -0.003126 0.000000 -0.002051 0.000000
# 3 -0.001578 -0.003126 0.016806 0.000000 0.014237 0.000000
# 4 0.000000 0.000000 0.000000 0.037965 0.000000 0.012817
# 5 0.005468 -0.002051 0.014237 0.000000 0.039658 0.000000
# 6 0.000000 0.000000 0.000000 0.012817 0.000000 0.046178
#
#
# Mechanical properties :
#
#
# Convention : Reuss Voigt Hill
#
# Bulk Modulus (GPa) = 33.16161 49.90206 41.53184
# Shear Modulus (GPa) = 26.97185 35.29888 31.13537
#
# Velocity S-wave (km/s) = 3.54030 4.05009 3.80374
# Velocity P-wave (km/s) = 5.66760 6.71269 6.21216
#
# Compressibility (1/GPa) = 0.03015535
#
# Stress axis : x y z
#
# Youngs Moduli (GPa) = 106.57344 68.25368 59.50206
#
# Poissons Ratio (x) = 0.04355 0.09390
# Poissons Ratio (y) = 0.06800 0.18603
# Poissons Ratio (z) = 0.16818 0.21339
#
# Static dielectric constant tensor:
#      x y z
#    x 1.786990 0.000000 -0.017210 
#    y 0.000000 1.956360 0.000000 
#    z -0.017210 0.000000 1.871870 
# 
# From -- ./inp_files/80144.got.cif
#   From: 2010.05.17/outbox.cif.g08.bks.cpg/sg14_41_cif.got.tgz:80144.got - 2010.06.03 17:49:19.
