data_PCOD9246740
_publ_section_title
;
Structure prediction by ZEFSAII (Michael W. Deem and Ramdas Pophale) SiO2 
 PCOD9246740
Probable space group: P 21/C
;
_chemical_formula_sum "Si O2"
_cell_formula_units_Z 28
_cell_length_a 6.510144
_cell_length_b 14.511685
_cell_length_c 15.220916
_cell_angle_alpha 90.000000
_cell_angle_beta 61.864644
_cell_angle_gamma 90.000000
_cell_volume 1268.052032
_symmetry_space_group_name_H-M "P 21/C"
_symmetry_group_IT_number 14
_symmetry_cell_setting 'monoclinic'
loop_
_space_group_symop_operation_xyz
x,y,z
-x,1/2+y,1/2-z
-x,-y,-z
x,1/2-y,1/2+z
loop_
_atom_site_type_symbol
_atom_site_label
_atom_site_fract_x
_atom_site_fract_y
_atom_site_fract_z
Si Si1 0.827563 0.494673 0.841011
Si Si2 0.644155 0.096921 0.541468
Si Si3 0.917009 0.336780 0.681635
Si Si4 0.405006 0.276192 0.519307
Si Si5 0.231131 0.637259 0.792576
Si Si6 0.795141 0.409830 0.509433
Si Si7 0.300189 0.399457 0.392975
O O1 0.561010 0.528715 0.885593
O O2 0.883960 0.417916 0.757533
O O3 0.014946 0.576969 0.802162
O O4 0.824375 0.449993 0.938979
O O5 0.502961 0.175698 0.517371
O O6 0.769212 0.137432 0.601504
O O7 0.779596 0.243760 0.733657
O O8 0.842828 0.372959 0.599384
O O9 0.183950 0.302395 0.623351
O O10 0.611848 0.345709 0.500075
O O11 0.321580 0.302547 0.439026
O O12 0.474954 0.593521 0.712352
O O13 0.706825 0.514289 0.538006
O O14 0.039703 0.406019 0.407856
#
# Coordination Sequence:
#
# PCOD9246740 Si02
#       7
#     4   4   4   4   4   4   4
#     4  11  25  44  66  96 132 174 222 267 328 389
#     4  11  24  44  66  93 135 176 216 274 319 397
#     4  11  23  41  67  98 133 172 216 274 324 389
#     4  11  21  42  65  94 131 173 211 265 332 383
#     4  12  23  44  65  99 129 171 222 269 328 388
#     4  10  21  42  62  94 133 163 215 266 325 386
#     4  10  23  37  65  96 125 170 213 272 320 388
#
# _framework density 22.081111
#
# number of rings (size 3 to 8) (size 9 to 14) (size 15 to 20)
#    0.000    1.143    2.857    3.429    0.000    3.429 
#    2.571    0.000    0.000    0.000    0.000    0.000 
#    0.000    0.000    0.000    0.000    0.000    0.000 
#
# Total GULP energy -156563.012514 kJ/mol
# GULP energy per Si atom -5591.536161 kJ/mol
# Density = 2.203085 g / cm^3
# Si number density = 22.081111 Si / 1000 Ang^3
#
#
#
# Elastic Constant Matrix: (Units=GPa)
#
#
# Indices 1 2 3 4 5 6 
#
# 1 42.4633 14.0050 22.2109 0.0000 -4.1063 0.0000
# 2 14.0050 106.5065 20.4467 0.0000 2.3297 0.0000
# 3 22.2109 20.4467 77.3047 0.0000 -14.3203 0.0000
# 4 0.0000 0.0000 0.0000 31.4233 0.0000 -1.8599
# 5 -4.1063 2.3297 -14.3203 0.0000 33.0919 0.0000
# 6 0.0000 0.0000 0.0000 -1.8599 0.0000 39.6126
#
#
#
# Elastic Compliance Matrix: (Units=1/GPa)
#
#
# Indices 1 2 3 4 5 6 
#
# 1 0.028233 -0.002298 -0.007420 0.000000 0.000454 0.000000
# 2 -0.002298 0.010200 -0.002417 0.000000 -0.002049 0.000000
# 3 -0.007420 -0.002417 0.016925 0.000000 0.006574 0.000000
# 4 0.000000 0.000000 0.000000 0.031912 0.000000 0.001498
# 5 0.000454 -0.002049 0.006574 0.000000 0.033264 0.000000
# 6 0.000000 0.000000 0.000000 0.001498 0.000000 0.025315
#
#
# Mechanical properties :
#
#
# Convention : Reuss Voigt Hill
#
# Bulk Modulus (GPa) = 32.16728 37.73332 34.95030
# Shear Modulus (GPa) = 27.70374 32.13301 29.91838
#
# Velocity S-wave (km/s) = 3.54593 3.81888 3.68493
# Velocity P-wave (km/s) = 5.60037 6.04737 5.82816
#
# Compressibility (1/GPa) = 0.03108749
#
# Stress axis : x y z
#
# Youngs Moduli (GPa) = 35.42015 98.03782 59.08518
#
# Poissons Ratio (x) = 0.22528 0.43840
# Poissons Ratio (y) = 0.08139 0.14283
# Poissons Ratio (z) = 0.26281 0.23699
#
# Static dielectric constant tensor:
#      x y z
#    x 1.803760 0.000000 0.017770 
#    y 0.000000 1.803600 0.000000 
#    z 0.017770 0.000000 1.840610 
# 
# From -- ./inp_files/53410.got.cif
#   From: 2010.05.17/outbox.cif.g08.bks.cpg/sg14_27_cif.got.tgz:53410.got - 2010.06.03 17:49:19.
