data_PCOD9246597
_publ_section_title
;
Structure prediction by ZEFSAII (Michael W. Deem and Ramdas Pophale) SiO2 
 PCOD9246597
Probable space group: P 21/C
;
_chemical_formula_sum "Si O2"
_cell_formula_units_Z 30
_cell_length_a 5.128495
_cell_length_b 16.294603
_cell_length_c 14.610567
_cell_angle_alpha 90.000000
_cell_angle_beta 79.336545
_cell_angle_gamma 90.000000
_cell_volume 1199.873483
_symmetry_space_group_name_H-M "P 21/C"
_symmetry_group_IT_number 14
_symmetry_cell_setting 'monoclinic'
loop_
_space_group_symop_operation_xyz
x,y,z
-x,1/2+y,1/2-z
-x,-y,-z
x,1/2-y,1/2+z
loop_
_atom_site_type_symbol
_atom_site_label
_atom_site_fract_x
_atom_site_fract_y
_atom_site_fract_z
Si Si1 0.998542 0.580140 0.898793
Si Si2 0.662091 0.346495 0.976176
Si Si3 0.032125 0.221962 0.851191
Si Si4 0.113957 0.367481 0.524089
Si Si5 0.155706 0.954562 0.196685
Si Si6 0.500000 0.500000 0.000000
Si Si7 0.286254 0.238631 0.642003
Si Si8 0.699990 0.019672 0.098564
O O1 0.719986 0.534067 0.911875
O O2 0.932406 0.674844 0.882893
O O3 0.186012 0.578192 0.976850
O O4 0.163274 0.546634 0.804493
O O5 0.542171 0.291469 0.066543
O O6 0.840545 0.296669 0.894016
O O7 0.448591 0.407673 0.946398
O O8 0.861034 0.141017 0.834507
O O9 0.242274 0.234854 0.754616
O O10 0.165906 0.196131 0.938531
O O11 0.211373 0.327253 0.610040
O O12 0.246451 0.451265 0.482575
O O13 0.805799 0.393539 0.555109
O O14 0.408284 0.003820 0.149027
O O15 0.896416 0.994933 0.168765
#
# Coordination Sequence:
#
# PCOD9246597 Si02
#       8
#     4   4   4   4   4   2   4   4
#     4  10  22  41  67  91 131 182 228 286 355 423
#     4  11  22  42  67  95 134 182 231 295 351 425
#     4  10  22  41  67  98 135 182 236 290 360 426
#     4  10  21  41  66  99 141 179 236 294 351 431
#     4  10  23  41  68 102 135 185 233 289 354 439
#     4  10  24  40  62  92 128 176 236 286 344 416
#     4  10  22  41  65  97 132 179 233 286 356 423
#     4  10  23  40  69 101 141 183 232 293 366 410
#
# _framework density 25.002637
#
# number of rings (size 3 to 8) (size 9 to 14) (size 15 to 20)
#    0.000    1.867    1.333    1.200    7.467    6.933 
#    0.000    0.000    0.000    0.000    0.000    0.000 
#    0.000    0.000    0.000    0.000    0.000    0.000 
#
# Total GULP energy -167193.752350 kJ/mol
# GULP energy per Si atom -5573.125078 kJ/mol
# Density = 2.494573 g / cm^3
# Si number density = 25.002637 Si / 1000 Ang^3
#
#
#
# Elastic Constant Matrix: (Units=GPa)
#
#
# Indices 1 2 3 4 5 6 
#
# 1 78.5210 12.5674 31.3630 0.0000 -6.3100 0.0000
# 2 12.5674 112.3997 39.7894 0.0000 -11.2849 0.0000
# 3 31.3630 39.7894 96.6921 0.0000 -3.2698 0.0000
# 4 0.0000 0.0000 0.0000 29.7412 0.0000 -4.4246
# 5 -6.3100 -11.2849 -3.2698 0.0000 33.0742 0.0000
# 6 0.0000 0.0000 0.0000 -4.4246 0.0000 33.6446
#
#
#
# Elastic Compliance Matrix: (Units=1/GPa)
#
#
# Indices 1 2 3 4 5 6 
#
# 1 0.014821 0.000306 -0.004850 0.000000 0.002453 0.000000
# 2 0.000306 0.010756 -0.004414 0.000000 0.003292 0.000000
# 3 -0.004850 -0.004414 0.013695 0.000000 -0.001077 0.000000
# 4 0.000000 0.000000 0.000000 0.034294 0.000000 0.004510
# 5 0.002453 0.003292 -0.001077 0.000000 0.031720 0.000000
# 6 0.000000 0.000000 0.000000 0.004510 0.000000 0.030316
#
#
# Mechanical properties :
#
#
# Convention : Reuss Voigt Hill
#
# Bulk Modulus (GPa) = 46.82650 50.56138 48.69394
# Shear Modulus (GPa) = 31.12623 32.88485 32.00554
#
# Velocity S-wave (km/s) = 3.53217 3.63058 3.58171
# Velocity P-wave (km/s) = 5.95014 6.15151 6.05167
#
# Compressibility (1/GPa) = 0.02135543
#
# Stress axis : x y z
#
# Youngs Moduli (GPa) = 67.47242 92.97451 73.01772
#
# Poissons Ratio (x) = -0.02846 0.35416
# Poissons Ratio (y) = -0.02065 0.32230
# Poissons Ratio (z) = 0.32726 0.41039
#
# Static dielectric constant tensor:
#      x y z
#    x 1.706990 0.000000 -0.155750 
#    y 0.000000 1.875060 0.000000 
#    z -0.155750 0.000000 1.992820 
# 
# From -- ./inp_files/37694.got.cif
#   From: 2010.05.17/outbox.cif.g08.bks.cpg/sg14_19_cif.got.tgz:37694.got - 2010.06.03 17:49:19.
