data_PCOD9246102
_publ_section_title
;
Structure prediction by ZEFSAII (Michael W. Deem and Ramdas Pophale) SiO2 
 PCOD9246102
Probable space group: P 21/C
;
_chemical_formula_sum "Si O2"
_cell_formula_units_Z 28
_cell_length_a 7.586072
_cell_length_b 9.427392
_cell_length_c 14.691321
_cell_angle_alpha 90.000000
_cell_angle_beta 98.000701
_cell_angle_gamma 90.000000
_cell_volume 1040.450451
_symmetry_space_group_name_H-M "P 21/C"
_symmetry_group_IT_number 14
_symmetry_cell_setting 'monoclinic'
loop_
_space_group_symop_operation_xyz
x,y,z
-x,1/2+y,1/2-z
-x,-y,-z
x,1/2-y,1/2+z
loop_
_atom_site_type_symbol
_atom_site_label
_atom_site_fract_x
_atom_site_fract_y
_atom_site_fract_z
Si Si1 0.121745 0.823488 0.920385
Si Si2 0.490109 0.702961 0.992357
Si Si3 0.477331 0.297247 0.789034
Si Si4 0.340911 0.065358 0.665042
Si Si5 0.979119 0.115456 0.294335
Si Si6 0.175350 0.888121 0.205840
Si Si7 0.225961 0.412991 0.537419
O O1 0.279253 0.717970 0.960658
O O2 0.931912 0.799168 0.956022
O O3 0.089000 0.840434 0.811520
O O4 0.181926 0.980895 0.953441
O O5 0.582118 0.589312 0.930945
O O6 0.583802 0.844412 0.960703
O O7 0.538657 0.705450 0.102647
O O8 0.330361 0.212165 0.721109
O O9 0.522982 0.459908 0.772433
O O10 0.654636 0.212791 0.772126
O O11 0.159496 0.977012 0.656754
O O12 0.131562 0.999684 0.283238
O O13 0.985378 0.276794 0.331160
O O14 0.214062 0.983975 0.122131
#
# Coordination Sequence:
#
# PCOD9246102 Si02
#       7
#     4   4   4   4   4   4   4
#     4  10  21  40  62  99 128 173 234 280 328 422
#     4  12  23  42  75  98 142 185 225 291 357 402
#     4  11  25  45  68 103 138 183 230 290 351 412
#     4  11  26  43  68 102 141 177 239 284 347 425
#     4  10  23  40  64  95 133 178 231 291 339 413
#     4  10  22  40  63  92 132 175 227 283 346 398
#     4  10  22  38  69  98 131 179 233 281 343 414
#
# _framework density 26.911418999999999
#
# number of rings (size 3 to 8) (size 9 to 14) (size 15 to 20)
#    0.000    1.429    1.429    3.429    8.000    0.000 
#    0.000    0.000    0.000    2.571    0.000    0.000 
#    0.000    0.000    0.000    0.000    0.000    0.000 
#
# Total GULP energy -156667.335355 kJ/mol
# GULP energy per Si atom -5595.261977 kJ/mol
# Density = 2.685017 g / cm^3
# Si number density = 26.911419 Si / 1000 Ang^3
#
#
#
# Elastic Constant Matrix: (Units=GPa)
#
#
# Indices 1 2 3 4 5 6 
#
# 1 93.9779 11.8956 18.2653 0.0000 -11.3342 0.0000
# 2 11.8956 125.9063 23.7246 0.0000 -13.1137 0.0000
# 3 18.2653 23.7246 116.1230 0.0000 -11.4271 0.0000
# 4 0.0000 0.0000 0.0000 48.0966 0.0000 -9.4298
# 5 -11.3342 -13.1137 -11.4271 0.0000 27.8653 0.0000
# 6 0.0000 0.0000 0.0000 -9.4298 0.0000 49.8050
#
#
#
# Elastic Compliance Matrix: (Units=1/GPa)
#
#
# Indices 1 2 3 4 5 6 
#
# 1 0.011423 -0.000423 -0.001326 0.000000 0.003903 0.000000
# 2 -0.000423 0.008584 -0.001362 0.000000 0.003309 0.000000
# 3 -0.001326 -0.001362 0.009360 0.000000 0.002658 0.000000
# 4 0.000000 0.000000 0.000000 0.021593 0.000000 0.004088
# 5 0.003903 0.003309 0.002658 0.000000 0.040122 0.000000
# 6 0.000000 0.000000 0.000000 0.004088 0.000000 0.020852
#
#
# Mechanical properties :
#
#
# Convention : Reuss Voigt Hill
#
# Bulk Modulus (GPa) = 43.20539 49.30869 46.25704
# Shear Modulus (GPa) = 39.72350 43.96148 41.84249
#
# Velocity S-wave (km/s) = 3.84615 4.04612 3.94740
# Velocity P-wave (km/s) = 5.98443 6.33960 6.16457
#
# Compressibility (1/GPa) = 0.02314526
#
# Stress axis : x y z
#
# Youngs Moduli (GPa) = 87.54385 116.50153 106.83858
#
# Poissons Ratio (x) = 0.04925 0.14169
# Poissons Ratio (y) = 0.03701 0.14546
# Poissons Ratio (z) = 0.11610 0.15862
#
# Static dielectric constant tensor:
#      x y z
#    x 2.234410 0.000000 0.024520 
#    y 0.000000 2.214010 0.000000 
#    z 0.024520 0.000000 2.092110 
# 
# From -- ./inp_files/54859.got.cif
#   From: 2010.05.17/outbox.cif.g08.bks.cpg/sg14_28_cif.got.tgz:54859.got - 2010.06.03 17:49:19.
