data_PCOD9246529
_publ_section_title
;
Structure prediction by ZEFSAII (Michael W. Deem and Ramdas Pophale) SiO2 
 PCOD9246529
Probable space group: P 21/C
;
_chemical_formula_sum "Si O2"
_cell_formula_units_Z 32
_cell_length_a 26.797804
_cell_length_b 7.485542
_cell_length_c 12.552221
_cell_angle_alpha 90.000000
_cell_angle_beta 146.024271
_cell_angle_gamma 90.000000
_cell_volume 1407.122195
_symmetry_space_group_name_H-M "P 21/C"
_symmetry_group_IT_number 14
_symmetry_cell_setting 'monoclinic'
loop_
_space_group_symop_operation_xyz
x,y,z
-x,1/2+y,1/2-z
-x,-y,-z
x,1/2-y,1/2+z
loop_
_atom_site_type_symbol
_atom_site_label
_atom_site_fract_x
_atom_site_fract_y
_atom_site_fract_z
Si Si1 0.780929 0.290946 0.712945
Si Si2 0.567374 0.798080 0.928249
Si Si3 0.356181 0.417148 0.235717
Si Si4 0.162871 0.486708 0.991695
Si Si5 0.617477 0.075510 0.454169
Si Si6 0.891410 0.676650 0.742586
Si Si7 0.930803 0.243272 0.323302
Si Si8 0.298801 0.401430 0.518845
O O1 0.710997 0.166415 0.649271
O O2 0.862983 0.202577 0.798497
O O3 0.722105 0.389515 0.517152
O O4 0.820772 0.444278 0.860063
O O5 0.469755 0.801420 0.703261
O O6 0.594021 0.591859 0.985945
O O7 0.573024 0.919934 0.043449
O O8 0.643647 0.872311 0.984753
O O9 0.371924 0.504815 0.149029
O O10 0.261470 0.486294 0.113050
O O11 0.349936 0.204663 0.199974
O O12 0.123156 0.292284 0.890690
O O13 0.096281 0.629633 0.820689
O O14 0.912585 0.466279 0.762990
O O15 0.798880 0.688338 0.644118
O O16 0.970662 0.754715 0.954579
#
# Coordination Sequence:
#
# PCOD9246529 Si02
#       8
#     4   4   4   4   4   4   4   4
#     4  11  22  40  63  92 131 165 214 270 315 392
#     4  11  22  41  63  92 125 163 217 263 334 390
#     4  10  21  41  65  90 125 170 212 263 321 392
#     4  11  21  40  67  93 126 175 214 257 331 383
#     4  11  24  41  65  93 129 167 210 276 325 389
#     4   9  21  41  67  89 135 171 206 277 319 382
#     4  10  21  43  62  99 133 166 221 267 321 385
#     4   9  20  39  62  90 123 164 208 260 320 376
#
# _framework density 22.741451000000001
#
# number of rings (size 3 to 8) (size 9 to 14) (size 15 to 20)
#    0.000    1.750    2.500    1.500    0.000    3.000 
#    6.750    3.125    0.000    0.000    0.000    0.000 
#    0.000    0.000    0.000    0.000    0.000    0.000 
#
# Total GULP energy -178517.134656 kJ/mol
# GULP energy per Si atom -5578.660458 kJ/mol
# Density = 2.268969 g / cm^3
# Si number density = 22.741451 Si / 1000 Ang^3
#
#
#
# Elastic Constant Matrix: (Units=GPa)
#
#
# Indices 1 2 3 4 5 6 
#
# 1 38.4308 8.6481 18.5143 0.0000 4.3491 0.0000
# 2 8.6481 42.7939 19.9163 0.0000 -0.4716 0.0000
# 3 18.5143 19.9163 68.0178 0.0000 1.3390 0.0000
# 4 0.0000 0.0000 0.0000 25.9573 0.0000 -2.0371
# 5 4.3491 -0.4716 1.3390 0.0000 29.4696 0.0000
# 6 0.0000 0.0000 0.0000 -2.0371 0.0000 9.3022
#
#
#
# Elastic Compliance Matrix: (Units=1/GPa)
#
#
# Indices 1 2 3 4 5 6 
#
# 1 0.030723 -0.002781 -0.007465 0.000000 -0.004239 0.000000
# 2 -0.002781 0.027325 -0.007267 0.000000 0.001178 0.000000
# 3 -0.007465 -0.007267 0.018859 0.000000 0.000128 0.000000
# 4 0.000000 0.000000 0.000000 0.039198 0.000000 0.008584
# 5 -0.004239 0.001178 0.000128 0.000000 0.034572 0.000000
# 6 0.000000 0.000000 0.000000 0.008584 0.000000 0.109381
#
#
# Mechanical properties :
#
#
# Convention : Reuss Voigt Hill
#
# Bulk Modulus (GPa) = 23.87749 27.04444 25.46096
# Shear Modulus (GPa) = 16.17890 19.75675 17.96783
#
# Velocity S-wave (km/s) = 2.67015 2.95066 2.81391
# Velocity P-wave (km/s) = 4.47534 4.85041 4.66664
#
# Compressibility (1/GPa) = 0.04188046
#
# Stress axis : x y z
#
# Youngs Moduli (GPa) = 32.54931 36.59655 53.02430
#
# Poissons Ratio (x) = 0.10179 0.39581
# Poissons Ratio (y) = 0.09053 0.38533
# Poissons Ratio (z) = 0.24297 0.26595
#
# Static dielectric constant tensor:
#      x y z
#    x 1.848970 0.000000 0.002560 
#    y 0.000000 1.900570 0.000000 
#    z 0.002560 0.000000 1.834080 
# 
# From -- ./inp_files/34961.got.cif
#   From: 2010.05.17/outbox.cif.g08.bks.cpg/sg14_18_cif.got.tgz:34961.got - 2010.06.03 17:49:19.
