data_PCOD9246003
_publ_section_title
;
Structure prediction by ZEFSAII (Michael W. Deem and Ramdas Pophale) SiO2 
 PCOD9246003
Probable space group: P 21/C
;
_chemical_formula_sum "Si O2"
_cell_formula_units_Z 32
_cell_length_a 15.327217
_cell_length_b 13.773153
_cell_length_c 12.159075
_cell_angle_alpha 90.000000
_cell_angle_beta 37.715572
_cell_angle_gamma 90.000000
_cell_volume 1570.238261
_symmetry_space_group_name_H-M "P 21/C"
_symmetry_group_IT_number 14
_symmetry_cell_setting 'monoclinic'
loop_
_space_group_symop_operation_xyz
x,y,z
-x,1/2+y,1/2-z
-x,-y,-z
x,1/2-y,1/2+z
loop_
_atom_site_type_symbol
_atom_site_label
_atom_site_fract_x
_atom_site_fract_y
_atom_site_fract_z
Si Si1 0.606116 0.397075 0.783473
Si Si2 0.876644 0.897273 0.458996
Si Si3 0.631453 0.390425 0.420384
Si Si4 0.511597 0.111089 0.623639
Si Si5 0.765051 0.108122 0.545121
Si Si6 0.682139 0.889953 0.854918
Si Si7 0.361300 0.267668 0.914468
Si Si8 0.174928 0.813295 0.090793
O O1 0.576440 0.511184 0.799175
O O2 0.487979 0.335712 0.833773
O O3 0.757315 0.367833 0.581663
O O4 0.583206 0.371263 0.933850
O O5 0.819474 0.883693 0.640251
O O6 0.769035 0.834836 0.491422
O O7 0.034820 0.862031 0.278605
O O8 0.856500 0.010797 0.454213
O O9 0.699177 0.376154 0.232168
O O10 0.461400 0.382527 0.576747
O O11 0.668477 0.501455 0.417977
O O12 0.704763 0.320676 0.434521
O O13 0.631424 0.095539 0.596782
O O14 0.414318 0.199248 0.762184
O O15 0.847997 0.202745 0.422257
O O16 0.678804 0.807170 0.948786
#
# Coordination Sequence:
#
# PCOD9246003 Si02
#       8
#     4   4   4   4   4   4   4   4
#     4  11  24  40  67  99 129 170 219 267 323 382
#     4  11  27  44  61  98 140 171 215 263 330 404
#     4  10  22  41  70  99 125 165 227 278 324 371
#     4  11  23  42  69  99 129 164 221 279 321 375
#     4  11  24  43  68  95 130 171 217 280 322 376
#     4  10  21  39  69 100 124 167 220 281 315 375
#     4  12  21  41  69  97 127 171 220 273 322 379
#     4  12  26  41  67  96 135 179 214 260 330 406
#
# _framework density 20.379073999999999
#
# number of rings (size 3 to 8) (size 9 to 14) (size 15 to 20)
#    0.000    1.000    3.750    2.250    5.250    5.000 
#    0.000    0.625    0.000    0.000    0.000    0.000 
#    0.000    0.000    0.000    0.000    0.000    0.000 
#
# Total GULP energy -179150.966730 kJ/mol
# GULP energy per Si atom -5598.467710 kJ/mol
# Density = 2.033269 g / cm^3
# Si number density = 20.379074 Si / 1000 Ang^3
#
#
#
# Elastic Constant Matrix: (Units=GPa)
#
#
# Indices 1 2 3 4 5 6 
#
# 1 41.8275 21.1470 33.9711 0.0000 18.7479 0.0000
# 2 21.1470 123.8588 63.5272 0.0000 8.2316 0.0000
# 3 33.9711 63.5272 138.2991 0.0000 4.3224 0.0000
# 4 0.0000 0.0000 0.0000 20.8707 0.0000 5.1630
# 5 18.7479 8.2316 4.3224 0.0000 24.0435 0.0000
# 6 0.0000 0.0000 0.0000 5.1630 0.0000 29.3190
#
#
#
# Elastic Compliance Matrix: (Units=1/GPa)
#
#
# Indices 1 2 3 4 5 6 
#
# 1 0.049042 -0.000486 -0.010693 0.000000 -0.036152 0.000000
# 2 -0.000486 0.010752 -0.004743 0.000000 -0.002450 0.000000
# 3 -0.010693 -0.004743 0.011791 0.000000 0.007842 0.000000
# 4 0.000000 0.000000 0.000000 0.050096 0.000000 -0.008822
# 5 -0.036152 -0.002450 0.007842 0.000000 0.069210 0.000000
# 6 0.000000 0.000000 0.000000 -0.008822 0.000000 0.035661
#
#
# Mechanical properties :
#
#
# Convention : Reuss Voigt Hill
#
# Bulk Modulus (GPa) = 25.16309 60.14179 42.65244
# Shear Modulus (GPa) = 18.40640 27.20263 22.80452
#
# Velocity S-wave (km/s) = 3.00859 3.65750 3.34880
# Velocity P-wave (km/s) = 4.94400 6.88564 5.99396
#
# Compressibility (1/GPa) = 0.03974074
#
# Stress axis : x y z
#
# Youngs Moduli (GPa) = 20.39053 93.00432 84.81047
#
# Poissons Ratio (x) = 0.04519 0.90692
# Poissons Ratio (y) = 0.00991 0.40226
# Poissons Ratio (z) = 0.21805 0.44113
#
# Static dielectric constant tensor:
#      x y z
#    x 1.706460 0.000000 0.021810 
#    y 0.000000 1.742520 0.000000 
#    z 0.021810 0.000000 1.709570 
# 
# From -- ./inp_files/32771.got.cif
#   From: 2010.05.17/outbox.cif.g08.bks.cpg/sg14_17_cif.got.tgz:32771.got - 2010.06.03 17:49:19.
