data_PCOD9246004
_publ_section_title
;
Structure prediction by ZEFSAII (Michael W. Deem and Ramdas Pophale) SiO2 
 PCOD9246004
Probable space group: P 21/C
;
_chemical_formula_sum "Si O2"
_cell_formula_units_Z 28
_cell_length_a 20.719149
_cell_length_b 5.260130
_cell_length_c 13.155337
_cell_angle_alpha 90.000000
_cell_angle_beta 69.474956
_cell_angle_gamma 90.000000
_cell_volume 1342.724684
_symmetry_space_group_name_H-M "P 21/C"
_symmetry_group_IT_number 14
_symmetry_cell_setting 'monoclinic'
loop_
_space_group_symop_operation_xyz
x,y,z
-x,1/2+y,1/2-z
-x,-y,-z
x,1/2-y,1/2+z
loop_
_atom_site_type_symbol
_atom_site_label
_atom_site_fract_x
_atom_site_fract_y
_atom_site_fract_z
Si Si1 0.301670 0.497595 0.454312
Si Si2 0.426372 0.120153 0.015201
Si Si3 0.244443 0.979912 0.583079
Si Si4 0.025381 0.503600 0.870361
Si Si5 0.649116 0.975517 0.299773
Si Si6 0.911678 0.503292 0.756094
Si Si7 0.493146 0.875005 0.686326
O O1 0.374836 0.535405 0.471852
O O2 0.256650 0.747627 0.499105
O O3 0.316829 0.446456 0.328510
O O4 0.266881 0.248047 0.521906
O O5 0.384323 0.220229 0.134677
O O6 0.448693 0.361158 0.932352
O O7 0.500000 0.000000 0.000000
O O8 0.295031 0.931941 0.650567
O O9 0.166826 0.994340 0.665219
O O10 0.070045 0.255984 0.817221
O O11 0.960350 0.502514 0.829196
O O12 0.068086 0.756906 0.820773
O O13 0.000000 0.500000 0.000000
O O14 0.582256 0.151006 0.321349
O O15 0.504756 0.637815 0.754292
#
# Coordination Sequence:
#
# PCOD9246004 Si02
#       7
#     4   4   4   4   4   4   4
#     4  11  26  42  63  90 126 166 217 263 318 389
#     4  11  24  44  65  94 121 163 215 280 337 390
#     4  11  26  45  63  94 132 173 212 259 316 383
#     4  10  21  39  69 103 131 169 212 257 307 368
#     4  11  26  42  66  92 126 167 216 269 331 392
#     4  10  22  41  65  97 137 168 212 260 305 371
#     4  12  25  41  67  90 121 162 211 275 340 386
#
# _framework density 20.853119
#
# number of rings (size 3 to 8) (size 9 to 14) (size 15 to 20)
#    0.000    1.143    1.429    3.429    4.000    5.714 
#    0.000    0.000    0.000    0.000    0.000    0.000 
#    0.000    0.000    0.000    0.000    0.000    0.000 
#
# Total GULP energy -156693.256816 kJ/mol
# GULP energy per Si atom -5596.187743 kJ/mol
# Density = 2.080566 g / cm^3
# Si number density = 20.853119 Si / 1000 Ang^3
#
#
#
# Elastic Constant Matrix: (Units=GPa)
#
#
# Indices 1 2 3 4 5 6 
#
# 1 62.6989 24.8049 36.7808 0.0000 -27.0557 0.0000
# 2 24.8049 122.4220 53.9431 0.0000 -3.7060 0.0000
# 3 36.7808 53.9431 139.9181 0.0000 -11.2751 0.0000
# 4 0.0000 0.0000 0.0000 30.8401 0.0000 -5.4169
# 5 -27.0557 -3.7060 -11.2751 0.0000 30.2343 0.0000
# 6 0.0000 0.0000 0.0000 -5.4169 0.0000 11.3689
#
#
#
# Elastic Compliance Matrix: (Units=1/GPa)
#
#
# Indices 1 2 3 4 5 6 
#
# 1 0.031236 -0.003428 -0.004816 0.000000 0.025736 0.000000
# 2 -0.003428 0.010218 -0.003283 0.000000 -0.003039 0.000000
# 3 -0.004816 -0.003283 0.009587 0.000000 -0.001136 0.000000
# 4 0.000000 0.000000 0.000000 0.035387 0.000000 0.016861
# 5 0.025736 -0.003039 -0.001136 0.000000 0.055309 0.000000
# 6 0.000000 0.000000 0.000000 0.016861 0.000000 0.095992
#
#
# Mechanical properties :
#
#
# Convention : Reuss Voigt Hill
#
# Bulk Modulus (GPa) = 35.73038 61.78849 48.75944
# Shear Modulus (GPa) = 18.51092 28.45601 23.48347
#
# Velocity S-wave (km/s) = 2.98263 3.69805 3.35944
# Velocity P-wave (km/s) = 5.38822 6.92306 6.20329
#
# Compressibility (1/GPa) = 0.02798739
#
# Stress axis : x y z
#
# Youngs Moduli (GPa) = 32.01451 97.86997 104.30703
#
# Poissons Ratio (x) = 0.33549 0.50230
# Poissons Ratio (y) = 0.10974 0.34245
# Poissons Ratio (z) = 0.15417 0.32131
#
# Static dielectric constant tensor:
#      x y z
#    x 1.732300 0.000000 0.029140 
#    y 0.000000 1.786770 0.000000 
#    z 0.029140 0.000000 1.739440 
# 
# From -- ./inp_files/34663.got.cif
#   From: 2010.05.17/outbox.cif.g08.bks.cpg/sg14_18_cif.got.tgz:34663.got - 2010.06.03 17:49:19.
