data_PCOD9246378
_publ_section_title
;
Structure prediction by ZEFSAII (Michael W. Deem and Ramdas Pophale) SiO2 
 PCOD9246378
Probable space group: P 21/C
;
_chemical_formula_sum "Si O2"
_cell_formula_units_Z 30
_cell_length_a 9.487286
_cell_length_b 20.371960
_cell_length_c 8.895046
_cell_angle_alpha 90.000000
_cell_angle_beta 44.550512
_cell_angle_gamma 90.000000
_cell_volume 1206.074343
_symmetry_space_group_name_H-M "P 21/C"
_symmetry_group_IT_number 14
_symmetry_cell_setting 'monoclinic'
loop_
_space_group_symop_operation_xyz
x,y,z
-x,1/2+y,1/2-z
-x,-y,-z
x,1/2-y,1/2+z
loop_
_atom_site_type_symbol
_atom_site_label
_atom_site_fract_x
_atom_site_fract_y
_atom_site_fract_z
Si Si1 0.500000 0.500000 0.000000
Si Si2 0.047856 0.631623 0.965937
Si Si3 0.439806 0.910222 0.075459
Si Si4 0.254036 0.262315 0.914085
Si Si5 0.507161 0.673541 0.998240
Si Si6 0.288097 0.034885 0.358854
Si Si7 0.941481 0.349835 0.701484
Si Si8 0.285136 0.430710 0.348227
O O1 0.331833 0.492652 0.988857
O O2 0.680950 0.495762 0.726671
O O3 0.892649 0.691103 0.068296
O O4 0.922785 0.571270 0.992578
O O5 0.092964 0.621066 0.106910
O O6 0.264643 0.643321 0.724098
O O7 0.612943 0.908624 0.072736
O O8 0.320438 0.976199 0.214029
O O9 0.547493 0.913988 0.834626
O O10 0.414697 0.221439 0.693785
O O11 0.365541 0.303558 0.956909
O O12 0.097826 0.209852 0.099350
O O13 0.270556 0.673793 0.199926
O O14 0.565274 0.599062 0.897997
O O15 0.068110 0.400366 0.504856
#
# Coordination Sequence:
#
# PCOD9246378 Si02
#       8
#     2   4   4   4   4   4   4   4
#     4  10  22  44  66  94 140 178 208 288 344 402
#     4  12  22  42  71 101 132 185 234 280 341 419
#     4  10  21  40  71  98 132 181 228 278 340 413
#     4  11  26  42  66  99 137 177 233 282 342 408
#     4  11  24  43  66  96 137 180 223 290 340 401
#     4  10  22  41  66 102 137 175 230 280 345 413
#     4  11  24  41  69  97 133 179 230 284 339 408
#     4  10  21  42  66  94 135 173 223 277 341 402
#
# _framework density 24.874088
#
# number of rings (size 3 to 8) (size 9 to 14) (size 15 to 20)
#    0.000    1.333    4.000    1.200    1.867    1.067 
#    0.000    6.667    0.000    0.000    0.000    0.000 
#    0.000    0.000    0.000    0.000    0.000    0.000 
#
# Total GULP energy -167401.801397 kJ/mol
# GULP energy per Si atom -5580.060047 kJ/mol
# Density = 2.481747 g / cm^3
# Si number density = 24.874088 Si / 1000 Ang^3
#
#
#
# Elastic Constant Matrix: (Units=GPa)
#
#
# Indices 1 2 3 4 5 6 
#
# 1 94.1395 28.3614 58.2195 0.0000 -9.3795 0.0000
# 2 28.3614 50.4945 22.3725 0.0000 -8.9349 0.0000
# 3 58.2195 22.3725 118.1266 0.0000 -32.4072 0.0000
# 4 0.0000 0.0000 0.0000 38.9921 0.0000 0.7907
# 5 -9.3795 -8.9349 -32.4072 0.0000 47.0007 0.0000
# 6 0.0000 0.0000 0.0000 0.7907 0.0000 37.1703
#
#
#
# Elastic Compliance Matrix: (Units=1/GPa)
#
#
# Indices 1 2 3 4 5 6 
#
# 1 0.017418 -0.006740 -0.008271 0.000000 -0.003508 0.000000
# 2 -0.006740 0.024322 -0.000475 0.000000 0.002951 0.000000
# 3 -0.008271 -0.000475 0.014990 0.000000 0.008595 0.000000
# 4 0.000000 0.000000 0.000000 0.025657 0.000000 -0.000546
# 5 -0.003508 0.002951 0.008595 0.000000 0.027063 0.000000
# 6 0.000000 0.000000 0.000000 -0.000546 0.000000 0.026915
#
#
# Mechanical properties :
#
#
# Convention : Reuss Voigt Hill
#
# Bulk Modulus (GPa) = 38.82098 53.40747 46.11423
# Shear Modulus (GPa) = 28.42147 34.88642 31.65395
#
# Velocity S-wave (km/s) = 3.38392 3.74909 3.57118
# Velocity P-wave (km/s) = 5.55957 6.34497 5.96521
#
# Compressibility (1/GPa) = 0.02575927
#
# Stress axis : x y z
#
# Youngs Moduli (GPa) = 57.41056 41.11442 66.71278
#
# Poissons Ratio (x) = 0.27710 0.55176
# Poissons Ratio (y) = 0.38693 0.03170
# Poissons Ratio (z) = 0.47482 0.01954
#
# Static dielectric constant tensor:
#      x y z
#    x 1.915800 0.000000 -0.061230 
#    y 0.000000 1.639660 0.000000 
#    z -0.061230 0.000000 1.875670 
# 
# From -- ./inp_files/11176.got.cif
#   From: 2010.05.17/outbox.cif.g08.bks.cpg/sg14_6_cif.got.tgz:11176.got - 2010.06.03 17:49:19.
