data_PCOD9246758
_publ_section_title
;
Structure prediction by ZEFSAII (Michael W. Deem and Ramdas Pophale) SiO2 
 PCOD9246758
Probable space group: P 21/C
;
_chemical_formula_sum "Si O2"
_cell_formula_units_Z 32
_cell_length_a 22.306371
_cell_length_b 12.545546
_cell_length_c 12.788421
_cell_angle_alpha 90.000000
_cell_angle_beta 156.156195
_cell_angle_gamma 90.000000
_cell_volume 1446.704229
_symmetry_space_group_name_H-M "P 21/C"
_symmetry_group_IT_number 14
_symmetry_cell_setting 'monoclinic'
loop_
_space_group_symop_operation_xyz
x,y,z
-x,1/2+y,1/2-z
-x,-y,-z
x,1/2-y,1/2+z
loop_
_atom_site_type_symbol
_atom_site_label
_atom_site_fract_x
_atom_site_fract_y
_atom_site_fract_z
Si Si1 0.409704 0.411229 0.794354
Si Si2 0.257803 0.222076 0.227989
Si Si3 0.967790 0.943030 0.058316
Si Si4 0.505297 0.620304 0.292752
Si Si5 0.186251 0.916646 0.863119
Si Si6 0.682638 0.427409 0.647567
Si Si7 0.263983 0.805433 0.568666
Si Si8 0.933511 0.912878 0.605858
O O1 0.353763 0.324145 0.786380
O O2 0.504252 0.372596 0.846676
O O3 0.267002 0.472546 0.517643
O O4 0.500000 0.500000 0.000000
O O5 0.361513 0.299484 0.461636
O O6 0.123892 0.294027 0.968614
O O7 0.181942 0.126455 0.171870
O O8 0.104106 0.862330 0.300636
O O9 0.965854 0.034347 0.144586
O O10 0.000000 0.000000 0.000000
O O11 0.545269 0.497878 0.387939
O O12 0.364145 0.654781 0.132945
O O13 0.228615 0.886840 0.812397
O O14 0.015840 0.921586 0.625795
O O15 0.247794 0.821019 0.033208
O O16 0.661007 0.341214 0.702897
O O17 0.788141 0.514699 0.870017
#
# Coordination Sequence:
#
# PCOD9246758 Si02
#       8
#     4   4   4   4   4   4   4   4
#     4  11  25  43  67  95 130 169 221 275 317 389
#     4  11  23  45  66  97 130 176 220 265 334 388
#     4  11  25  41  65  97 134 170 211 281 328 385
#     4  10  24  43  67  93 129 178 219 263 328 394
#     4  11  21  39  63  95 124 167 214 264 326 379
#     4   9  22  41  64  88 127 171 214 265 317 391
#     4  11  23  42  63  98 128 169 216 270 332 384
#     4  10  21  42  63  94 128 168 217 261 322 393
#
# _framework density 22.119240999999999
#
# number of rings (size 3 to 8) (size 9 to 14) (size 15 to 20)
#    0.000    1.500    2.500    1.500    3.500    3.000 
#    0.000    0.000    0.000    0.000    0.000    0.000 
#    0.000    0.000    0.000    0.000    0.000    0.000 
#
# Total GULP energy -178880.979333 kJ/mol
# GULP energy per Si atom -5590.030604 kJ/mol
# Density = 2.206890 g / cm^3
# Si number density = 22.119241 Si / 1000 Ang^3
#
#
#
# Elastic Constant Matrix: (Units=GPa)
#
#
# Indices 1 2 3 4 5 6 
#
# 1 129.3230 38.8697 15.9231 0.0000 -12.8582 0.0000
# 2 38.8697 82.2551 6.9616 0.0000 -14.5070 0.0000
# 3 15.9231 6.9616 31.0920 0.0000 -2.1130 0.0000
# 4 0.0000 0.0000 0.0000 28.0524 0.0000 12.6018
# 5 -12.8582 -14.5070 -2.1130 0.0000 33.7185 0.0000
# 6 0.0000 0.0000 0.0000 12.6018 0.0000 26.7504
#
#
#
# Elastic Compliance Matrix: (Units=1/GPa)
#
#
# Indices 1 2 3 4 5 6 
#
# 1 0.009551 -0.003878 -0.003906 0.000000 0.001729 0.000000
# 2 -0.003878 0.014938 -0.001027 0.000000 0.004884 0.000000
# 3 -0.003906 -0.001027 0.034408 0.000000 0.000225 0.000000
# 4 0.000000 0.000000 0.000000 0.045217 0.000000 -0.021301
# 5 0.001729 0.004884 0.000225 0.000000 0.032432 0.000000
# 6 0.000000 0.000000 0.000000 -0.021301 0.000000 0.047417
#
#
# Mechanical properties :
#
#
# Convention : Reuss Voigt Hill
#
# Bulk Modulus (GPa) = 24.22686 40.68656 32.45671
# Shear Modulus (GPa) = 23.21890 29.76531 26.49210
#
# Velocity S-wave (km/s) = 3.24345 3.67232 3.46453
# Velocity P-wave (km/s) = 5.00032 6.03452 5.54160
#
# Compressibility (1/GPa) = 0.04127649
#
# Stress axis : x y z
#
# Youngs Moduli (GPa) = 104.70235 66.94335 29.06306
#
# Poissons Ratio (x) = 0.25959 0.11351
# Poissons Ratio (y) = 0.40601 0.02984
# Poissons Ratio (z) = 0.40892 0.06874
#
# Static dielectric constant tensor:
#      x y z
#    x 1.780690 0.000000 -0.002390 
#    y 0.000000 1.816790 0.000000 
#    z -0.002390 0.000000 1.878070 
# 
# From -- ./inp_files/35266.got.cif
#   From: 2010.05.17/outbox.cif.g08.bks.cpg/sg14_18_cif.got.tgz:35266.got - 2010.06.03 17:49:19.
