data_PCOD9246372
_publ_section_title
;
Structure prediction by ZEFSAII (Michael W. Deem and Ramdas Pophale) SiO2 
 PCOD9246372
Probable space group: P 21/C
;
_chemical_formula_sum "Si O2"
_cell_formula_units_Z 32
_cell_length_a 16.032798
_cell_length_b 16.441691
_cell_length_c 12.079445
_cell_angle_alpha 90.000000
_cell_angle_beta 153.720424
_cell_angle_gamma 90.000000
_cell_volume 1409.817570
_symmetry_space_group_name_H-M "P 21/C"
_symmetry_group_IT_number 14
_symmetry_cell_setting 'monoclinic'
loop_
_space_group_symop_operation_xyz
x,y,z
-x,1/2+y,1/2-z
-x,-y,-z
x,1/2-y,1/2+z
loop_
_atom_site_type_symbol
_atom_site_label
_atom_site_fract_x
_atom_site_fract_y
_atom_site_fract_z
Si Si1 0.460473 0.157157 0.407759
Si Si2 0.052551 0.929745 0.309977
Si Si3 0.442180 0.913783 0.881942
Si Si4 0.525231 0.409887 0.214724
Si Si5 0.057979 0.296404 0.505817
Si Si6 0.300713 0.796993 0.907982
Si Si7 0.077282 0.436156 0.683826
Si Si8 0.700912 0.572596 0.502668
O O1 0.547934 0.102181 0.609633
O O2 0.615913 0.212252 0.535882
O O3 0.373483 0.107345 0.202677
O O4 0.283306 0.207398 0.250458
O O5 0.269192 0.926072 0.594029
O O6 0.010582 0.859879 0.170470
O O7 0.004801 0.020024 0.207509
O O8 0.923854 0.916346 0.263353
O O9 0.367384 0.857117 0.890135
O O10 0.611539 0.886510 0.003706
O O11 0.500000 0.000000 0.000000
O O12 0.592206 0.327213 0.354357
O O13 0.639213 0.479057 0.415919
O O14 0.304288 0.432458 0.961943
O O15 0.922133 0.218595 0.339969
O O16 0.027322 0.345739 0.584531
O O17 0.000000 0.500000 0.500000
#
# Coordination Sequence:
#
# PCOD9246372 Si02
#       8
#     4   4   4   4   4   4   4   4
#     4  10  25  43  72 100 134 175 231 296 344 410
#     4  10  21  40  70  98 130 175 226 293 350 404
#     4  12  25  46  64  97 143 188 230 280 346 431
#     4  11  23  45  68 104 136 178 236 290 355 417
#     4   9  22  43  63 101 133 172 230 286 349 408
#     4  12  26  43  68  98 143 191 222 283 360 428
#     4   9  18  39  71  99 130 168 229 298 337 407
#     4  11  23  44  72 100 133 175 238 289 346 415
#
# _framework density 22.697970999999999
#
# number of rings (size 3 to 8) (size 9 to 14) (size 15 to 20)
#    0.000    1.500    2.500    1.875    7.000    1.500 
#   11.250    0.000    0.000    0.000    0.000    0.000 
#    0.000    0.000    0.000    0.000    0.000    0.000 
#
# Total GULP energy -178616.618523 kJ/mol
# GULP energy per Si atom -5581.769329 kJ/mol
# Density = 2.264631 g / cm^3
# Si number density = 22.697971 Si / 1000 Ang^3
#
#
#
# Elastic Constant Matrix: (Units=GPa)
#
#
# Indices 1 2 3 4 5 6 
#
# 1 92.7793 7.1025 -7.4438 0.0000 10.1003 0.0000
# 2 7.1025 27.8349 -21.4788 0.0000 4.7393 0.0000
# 3 -7.4438 -21.4788 -24.8240 0.0000 22.2896 0.0000
# 4 0.0000 0.0000 0.0000 32.1003 0.0000 -0.8434
# 5 10.1003 4.7393 22.2896 0.0000 32.0873 0.0000
# 6 0.0000 0.0000 0.0000 -0.8434 0.0000 34.1774
#
#
#
# Elastic Compliance Matrix: (Units=1/GPa)
#
#
# Indices 1 2 3 4 5 6 
#
# 1 0.011133 -0.003810 -0.001652 0.000000 -0.001794 0.000000
# 2 -0.003810 0.024912 -0.013943 0.000000 0.007205 0.000000
# 3 -0.001652 -0.013943 -0.015648 0.000000 0.013449 0.000000
# 4 0.000000 0.000000 0.000000 0.031173 0.000000 0.000769
# 5 -0.001794 0.007205 0.013449 0.000000 0.021323 0.000000
# 6 0.000000 0.000000 0.000000 0.000769 0.000000 0.029278
#
#
# Mechanical properties :
#
#
# Convention : Reuss Voigt Hill
#
# Bulk Modulus (GPa) = -54.30748 5.79445 -24.25651
# Shear Modulus (GPa) = 37.08003 27.51369 32.29686
#
# Velocity S-wave (km/s) = 4.04620 3.48539 3.77622
# Velocity P-wave (km/s) = 1.46598 4.33078 2.88154
#
# Compressibility (1/GPa) = -0.01841367
#
# Stress axis : x y z
#
# Youngs Moduli (GPa) = 89.82571 40.14073 -63.90643
#
# Poissons Ratio (x) = 0.15294 -0.10559
# Poissons Ratio (y) = 0.34225 -0.89105
# Poissons Ratio (z) = 0.14841 0.55968
#
# Static dielectric constant tensor:
#      x y z
#    x 1.864310 0.000000 0.003410 
#    y 0.000000 1.866470 0.000000 
#    z 0.003410 0.000000 1.829850 
# 
# From -- ./inp_files/33076.got.cif
#   From: 2010.05.17/outbox.cif.g08.bks.cpg/sg14_17_cif.got.tgz:33076.got - 2010.06.03 17:49:19.
