data_PCOD9246650
_publ_section_title
;
Structure prediction by ZEFSAII (Michael W. Deem and Ramdas Pophale) SiO2 
 PCOD9246650
Probable space group: P 21/C
;
_chemical_formula_sum "Si O2"
_cell_formula_units_Z 28
_cell_length_a 6.625159
_cell_length_b 7.984825
_cell_length_c 28.786295
_cell_angle_alpha 90.000000
_cell_angle_beta 124.522912
_cell_angle_gamma 90.000000
_cell_volume 1254.647667
_symmetry_space_group_name_H-M "P 21/C"
_symmetry_group_IT_number 14
_symmetry_cell_setting 'monoclinic'
loop_
_space_group_symop_operation_xyz
x,y,z
-x,1/2+y,1/2-z
-x,-y,-z
x,1/2-y,1/2+z
loop_
_atom_site_type_symbol
_atom_site_label
_atom_site_fract_x
_atom_site_fract_y
_atom_site_fract_z
Si Si1 0.779136 0.090941 0.378708
Si Si2 0.939451 0.551290 0.425190
Si Si3 0.644571 0.756452 0.730487
Si Si4 0.759426 0.267327 0.466383
Si Si5 0.804997 0.793551 0.105380
Si Si6 0.889037 0.480719 0.707742
Si Si7 0.459639 0.258691 0.677855
O O1 0.564635 0.219844 0.335207
O O2 0.847895 0.131382 0.440627
O O3 0.009787 0.138150 0.376720
O O4 0.653817 0.913862 0.354865
O O5 0.790947 0.447969 0.444748
O O6 0.751046 0.607438 0.361480
O O7 0.078970 0.707029 0.466788
O O8 0.129708 0.423581 0.427157
O O9 0.799338 0.590309 0.739821
O O10 0.516459 0.748889 0.763692
O O11 0.837441 0.909593 0.753893
O O12 0.473740 0.238502 0.436648
O O13 0.852105 0.896166 0.159051
O O14 0.703393 0.322725 0.684163
#
# Coordination Sequence:
#
# PCOD9246650 Si02
#       7
#     4   4   4   4   4   4   4
#     4  11  26  39  63  94 133 167 216 265 330 381
#     4  10  21  41  68  96 125 170 217 268 326 385
#     4  12  26  41  65  94 130 171 214 272 324 398
#     4  10  21  42  68  93 129 169 216 268 324 390
#     4  11  21  43  65  96 122 168 220 266 318 395
#     4  12  25  42  69  95 129 172 221 264 332 392
#     4  12  25  42  62  95 131 172 212 272 323 397
#
# _framework density 22.317022000000001
#
# number of rings (size 3 to 8) (size 9 to 14) (size 15 to 20)
#    0.000    0.857    4.286    3.000    6.000    1.714 
#    0.000    0.714    0.000    0.000    0.000    0.000 
#    0.000    0.000    0.000    0.000    0.000    0.000 
#
# Total GULP energy -156617.770143 kJ/mol
# GULP energy per Si atom -5593.491791 kJ/mol
# Density = 2.226623 g / cm^3
# Si number density = 22.317022 Si / 1000 Ang^3
#
#
#
# Elastic Constant Matrix: (Units=GPa)
#
#
# Indices 1 2 3 4 5 6 
#
# 1 93.5125 9.2883 5.4035 0.0000 15.0834 0.0000
# 2 9.2883 61.9008 -12.4322 0.0000 4.8467 0.0000
# 3 5.4035 -12.4322 57.0680 0.0000 0.5091 0.0000
# 4 0.0000 0.0000 0.0000 29.7313 0.0000 4.9736
# 5 15.0834 4.8467 0.5091 0.0000 30.1543 0.0000
# 6 0.0000 0.0000 0.0000 4.9736 0.0000 34.3477
#
#
#
# Elastic Compliance Matrix: (Units=1/GPa)
#
#
# Indices 1 2 3 4 5 6 
#
# 1 0.011847 -0.001622 -0.001425 0.000000 -0.005641 0.000000
# 2 -0.001622 0.017352 0.003952 0.000000 -0.002044 0.000000
# 3 -0.001425 0.003952 0.018521 0.000000 -0.000235 0.000000
# 4 0.000000 0.000000 0.000000 0.034470 0.000000 -0.004991
# 5 -0.005641 -0.002044 -0.000235 0.000000 0.036317 0.000000
# 6 0.000000 0.000000 0.000000 -0.004991 0.000000 0.029837
#
#
# Mechanical properties :
#
#
# Convention : Reuss Voigt Hill
#
# Bulk Modulus (GPa) = 20.18977 24.11118 22.15048
# Shear Modulus (GPa) = 30.66665 32.86143 31.76404
#
# Velocity S-wave (km/s) = 3.71096 3.84146 3.77677
# Velocity P-wave (km/s) = 5.23718 5.52296 5.38197
#
# Compressibility (1/GPa) = 0.04953003
#
# Stress axis : x y z
#
# Youngs Moduli (GPa) = 84.40857 57.63010 53.99313
#
# Poissons Ratio (x) = 0.09348 0.07693
# Poissons Ratio (y) = 0.13692 -0.21338
# Poissons Ratio (z) = 0.12027 -0.22775
#
# Static dielectric constant tensor:
#      x y z
#    x 1.829470 0.000000 -0.012900 
#    y 0.000000 1.852120 0.000000 
#    z -0.012900 0.000000 1.810730 
# 
# From -- ./inp_files/75645.got.cif
#   From: 2010.05.17/outbox.cif.g08.bks.cpg/sg14_38_cif.got.tgz:75645.got - 2010.06.03 17:49:19.
