data_PCOD9246332
_publ_section_title
;
Structure prediction by ZEFSAII (Michael W. Deem and Ramdas Pophale) SiO2 
 PCOD9246332
Probable space group: P 21/C
;
_chemical_formula_sum "Si O2"
_cell_formula_units_Z 28
_cell_length_a 16.272753
_cell_length_b 9.809936
_cell_length_c 15.515539
_cell_angle_alpha 90.000000
_cell_angle_beta 32.309994
_cell_angle_gamma 90.000000
_cell_volume 1323.858608
_symmetry_space_group_name_H-M "P 21/C"
_symmetry_group_IT_number 14
_symmetry_cell_setting 'monoclinic'
loop_
_space_group_symop_operation_xyz
x,y,z
-x,1/2+y,1/2-z
-x,-y,-z
x,1/2-y,1/2+z
loop_
_atom_site_type_symbol
_atom_site_label
_atom_site_fract_x
_atom_site_fract_y
_atom_site_fract_z
Si Si1 0.610504 0.522677 0.516570
Si Si2 0.860528 0.822429 0.885339
Si Si3 0.614339 0.700686 0.235887
Si Si4 0.865530 0.996774 0.549831
Si Si5 0.397901 0.582458 0.022852
Si Si6 0.350256 0.819077 0.177943
Si Si7 0.109561 0.471856 0.177962
O O1 0.774016 0.566660 0.404939
O O2 0.506170 0.425269 0.671228
O O3 0.638334 0.430900 0.408091
O O4 0.514422 0.659178 0.578468
O O5 0.925174 0.689196 0.778401
O O6 0.719331 0.763637 0.067961
O O7 0.993187 0.910517 0.814288
O O8 0.744838 0.625750 0.178039
O O9 0.513732 0.820477 0.366458
O O10 0.898538 0.984827 0.419306
O O11 0.774374 0.136611 0.643313
O O12 0.000000 0.000000 0.500000
O O13 0.308264 0.682788 0.166978
O O14 0.277767 0.504270 0.068569
O O15 0.500000 0.500000 0.000000
#
# Coordination Sequence:
#
# PCOD9246332 Si02
#       7
#     4   4   4   4   4   4   4
#     4   9  18  38  66  93 124 178 223 274 332 401
#     4  11  24  43  65 100 143 172 230 278 342 397
#     4   9  23  39  69  96 131 178 229 279 333 405
#     4  10  21  40  68  95 129 172 231 276 331 403
#     4  11  24  44  64  97 142 172 227 279 346 402
#     4   9  19  36  65  91 121 175 227 274 329 391
#     4  11  27  42  67 104 136 183 221 283 344 406
#
# _framework density 21.150293000000001
#
# number of rings (size 3 to 8) (size 9 to 14) (size 15 to 20)
#    0.000    2.000    0.000    2.571   14.000    1.143 
#    2.571    0.714    0.000    0.000    0.000    0.000 
#    0.000    0.000    0.000    0.000    0.000    0.000 
#
# Total GULP energy -155897.944219 kJ/mol
# GULP energy per Si atom -5567.783722 kJ/mol
# Density = 2.110215 g / cm^3
# Si number density = 21.150293 Si / 1000 Ang^3
#
#
#
# Elastic Constant Matrix: (Units=GPa)
#
#
# Indices 1 2 3 4 5 6 
#
# 1 105.9466 32.2525 25.2768 0.0000 -35.4203 0.0000
# 2 32.2525 92.7435 26.9608 0.0000 -18.6180 0.0000
# 3 25.2768 26.9608 56.9709 0.0000 -13.7360 0.0000
# 4 0.0000 0.0000 0.0000 23.3508 0.0000 -4.5810
# 5 -35.4203 -18.6180 -13.7360 0.0000 32.5566 0.0000
# 6 0.0000 0.0000 0.0000 -4.5810 0.0000 27.5122
#
#
#
# Elastic Compliance Matrix: (Units=1/GPa)
#
#
# Indices 1 2 3 4 5 6 
#
# 1 0.015518 -0.001685 -0.002504 0.000000 0.014863 0.000000
# 2 -0.001685 0.013523 -0.004708 0.000000 0.003914 0.000000
# 3 -0.002504 -0.004708 0.021804 0.000000 0.003782 0.000000
# 4 0.000000 0.000000 0.000000 0.044271 0.000000 0.007371
# 5 0.014863 0.003914 0.003782 0.000000 0.050720 0.000000
# 6 0.000000 0.000000 0.000000 0.007371 0.000000 0.037575
#
#
# Mechanical properties :
#
#
# Convention : Reuss Voigt Hill
#
# Bulk Modulus (GPa) = 30.25709 47.18235 38.71972
# Shear Modulus (GPa) = 23.56017 28.09531 25.82774
#
# Velocity S-wave (km/s) = 3.34120 3.64863 3.49829
# Velocity P-wave (km/s) = 5.40570 6.33297 5.88762
#
# Compressibility (1/GPa) = 0.03305011
#
# Stress axis : x y z
#
# Youngs Moduli (GPa) = 64.44062 73.94954 45.86316
#
# Poissons Ratio (x) = 0.12460 0.11485
# Poissons Ratio (y) = 0.10858 0.21594
# Poissons Ratio (z) = 0.16137 0.34818
#
# Static dielectric constant tensor:
#      x y z
#    x 1.852000 0.000000 -0.017570 
#    y 0.000000 1.927770 0.000000 
#    z -0.017570 0.000000 1.862280 
# 
# From -- ./inp_files/60306.got.cif
#   From: 2010.05.17/outbox.cif.g08.bks.cpg/sg14_31_cif.got.tgz:60306.got - 2010.06.03 17:49:19.
