data_PCOD9246366
_publ_section_title
;
Structure prediction by ZEFSAII (Michael W. Deem and Ramdas Pophale) SiO2 
 PCOD9246366
Probable space group: P 21/C
;
_chemical_formula_sum "Si O2"
_cell_formula_units_Z 24
_cell_length_a 15.024698
_cell_length_b 14.532376
_cell_length_c 16.362147
_cell_angle_alpha 90.000000
_cell_angle_beta 17.940679
_cell_angle_gamma 90.000000
_cell_volume 1100.471304
_symmetry_space_group_name_H-M "P 21/C"
_symmetry_group_IT_number 14
_symmetry_cell_setting 'monoclinic'
loop_
_space_group_symop_operation_xyz
x,y,z
-x,1/2+y,1/2-z
-x,-y,-z
x,1/2-y,1/2+z
loop_
_atom_site_type_symbol
_atom_site_label
_atom_site_fract_x
_atom_site_fract_y
_atom_site_fract_z
Si Si1 0.809553 0.250580 0.774272
Si Si2 0.686665 0.386433 0.005567
Si Si3 0.313339 0.386432 0.494425
Si Si4 0.150632 0.402999 0.370258
Si Si5 0.849375 0.097001 0.629732
Si Si6 0.190453 0.250578 0.725718
O O1 0.753251 0.283175 0.914781
O O2 0.907232 0.148633 0.665324
O O3 0.013926 0.328453 0.554018
O O4 0.500005 0.250002 0.999992
O O5 0.000002 0.429925 0.749996
O O6 0.500002 0.389175 0.249996
O O7 0.479976 0.421350 0.112650
O O8 0.520032 0.421348 0.387338
O O9 0.246750 0.283174 0.585213
O O10 0.092771 0.351368 0.334670
O O11 0.000000 0.500000 0.500000
O O12 0.986087 0.171547 0.445966
O O13 0.000000 0.000000 0.500000
#
# Coordination Sequence:
#
# PCOD9246366 Si02
#       6
#     4   4   4   4   4   4
#     4   9  20  38  66  92 121 166 214 249 324 375
#     4  11  21  39  67  91 130 173 208 267 324 367
#     4  11  21  39  67  91 130 173 208 267 324 367
#     4  10  21  40  70  93 125 169 219 258 311 387
#     4  10  21  40  70  93 125 169 219 258 311 387
#     4   9  20  38  66  92 121 166 214 249 324 375
#
# _framework density 21.808838000000002
#
# number of rings (size 3 to 8) (size 9 to 14) (size 15 to 20)
#    0.000    2.000    3.333    0.000    0.000    5.333 
#    0.000    0.000   29.333    0.000    0.000    0.000 
#    0.000    0.000    0.000    0.000    0.000    0.000 
#
# Total GULP energy -133608.111443 kJ/mol
# GULP energy per Si atom -5567.004643 kJ/mol
# Density = 2.175920 g / cm^3
# Si number density = 21.808838 Si / 1000 Ang^3
#
#
#
# Elastic Constant Matrix: (Units=GPa)
#
#
# Indices 1 2 3 4 5 6 
#
# 1 40.6684 4.1045 30.2697 0.0000 -17.9035 0.0000
# 2 4.1045 121.2133 30.2990 0.0000 -16.0502 0.0000
# 3 30.2697 30.2990 136.2477 0.0000 -25.5838 0.0000
# 4 0.0000 0.0000 0.0000 28.1656 0.0000 -1.2486
# 5 -17.9035 -16.0502 -25.5838 0.0000 53.8071 0.0000
# 6 0.0000 0.0000 0.0000 -1.2486 0.0000 8.5710
#
#
#
# Elastic Compliance Matrix: (Units=1/GPa)
#
#
# Indices 1 2 3 4 5 6 
#
# 1 0.032622 0.001514 -0.005996 0.000000 0.008455 0.000000
# 2 0.001514 0.008976 -0.001905 0.000000 0.002275 0.000000
# 3 -0.005996 -0.001905 0.009459 0.000000 0.001934 0.000000
# 4 0.000000 0.000000 0.000000 0.035735 0.000000 0.005206
# 5 0.008455 0.002275 0.001934 0.000000 0.022996 0.000000
# 6 0.000000 0.000000 0.000000 0.005206 0.000000 0.117430
#
#
# Mechanical properties :
#
#
# Convention : Reuss Voigt Hill
#
# Bulk Modulus (GPa) = 26.12295 47.49731 36.81013
# Shear Modulus (GPa) = 19.78209 33.67250 26.72730
#
# Velocity S-wave (km/s) = 3.01502 3.93362 3.50455
# Velocity P-wave (km/s) = 4.91168 6.51593 5.76984
#
# Compressibility (1/GPa) = 0.03828051
#
# Stress axis : x y z
#
# Youngs Moduli (GPa) = 30.65461 111.40596 105.72410
#
# Poissons Ratio (x) = -0.16865 0.63397
# Poissons Ratio (y) = -0.04640 0.20143
# Poissons Ratio (z) = 0.18382 0.21225
#
# Static dielectric constant tensor:
#      x y z
#    x 1.897640 0.000000 0.054320 
#    y 0.000000 1.822720 0.000000 
#    z 0.054320 0.000000 1.936840 
# 
# From -- ./inp_files/59580.got.cif
#   From: 2010.05.17/outbox.cif.g08.bks.cpg/sg14_30_cif.got.tgz:59580.got - 2010.06.03 17:49:19.
