data_PCOD9246839
_publ_section_title
;
Structure prediction by ZEFSAII (Michael W. Deem and Ramdas Pophale) SiO2 
 PCOD9246839
Probable space group: P 21/C
;
_chemical_formula_sum "Si O2"
_cell_formula_units_Z 32
_cell_length_a 22.464545
_cell_length_b 11.242761
_cell_length_c 11.606610
_cell_angle_alpha 90.000000
_cell_angle_beta 25.731299
_cell_angle_gamma 90.000000
_cell_volume 1272.673656
_symmetry_space_group_name_H-M "P 21/C"
_symmetry_group_IT_number 14
_symmetry_cell_setting 'monoclinic'
loop_
_space_group_symop_operation_xyz
x,y,z
-x,1/2+y,1/2-z
-x,-y,-z
x,1/2-y,1/2+z
loop_
_atom_site_type_symbol
_atom_site_label
_atom_site_fract_x
_atom_site_fract_y
_atom_site_fract_z
Si Si1 0.175959 0.715843 0.925400
Si Si2 0.207077 0.545486 0.070151
Si Si3 0.923307 0.455504 0.464669
Si Si4 0.220805 0.509472 0.692527
Si Si5 0.657327 0.634391 0.301471
Si Si6 0.775933 0.884088 0.042466
Si Si7 0.535474 0.216435 0.688339
Si Si8 0.514538 0.550974 0.133494
O O1 0.080387 0.830243 0.093767
O O2 0.133650 0.610614 0.909686
O O3 0.323000 0.751306 0.618537
O O4 0.198589 0.666188 0.013364
O O5 0.186933 0.557023 0.239897
O O6 0.070228 0.478287 0.263411
O O7 0.335126 0.468545 0.805583
O O8 0.871359 0.561979 0.475542
O O9 0.271188 0.424912 0.709922
O O10 0.171243 0.429499 0.673201
O O11 0.352251 0.576506 0.405863
O O12 0.747634 0.744333 0.099149
O O13 0.508867 0.681105 0.602632
O O14 0.623982 0.933963 0.341800
O O15 0.449639 0.342711 0.835285
O O16 0.510054 0.087911 0.673968
#
# Coordination Sequence:
#
# PCOD9246839 Si02
#       8
#     4   4   4   4   4   4   4   4
#     4  10  21  42  67  90 127 165 216 266 326 390
#     4  10  25  47  62  91 131 178 204 276 331 361
#     4  11  25  41  66  90 126 171 227 261 314 381
#     4   9  20  37  61  90 124 164 202 263 331 374
#     4   9  21  40  63  88 133 164 205 266 327 384
#     4  11  21  35  62  94 117 162 223 259 308 391
#     4   9  17  35  62  92 125 164 212 259 323 396
#     4   9  17  33  56  88 126 164 197 261 323 374
#
# _framework density 25.143915
#
# number of rings (size 3 to 8) (size 9 to 14) (size 15 to 20)
#    0.000    2.250    1.250    1.125    5.250    0.000 
#    0.000    4.375    0.000    0.000    0.000    0.000 
#    0.000    0.000    0.000    0.000    0.000    0.000 
#
# Total GULP energy -178464.767693 kJ/mol
# GULP energy per Si atom -5577.023990 kJ/mol
# Density = 2.508669 g / cm^3
# Si number density = 25.143915 Si / 1000 Ang^3
#
#
#
# Elastic Constant Matrix: (Units=GPa)
#
#
# Indices 1 2 3 4 5 6 
#
# 1 55.7615 22.0320 17.4242 0.0000 21.3689 0.0000
# 2 22.0320 117.6223 5.3730 0.0000 13.5555 0.0000
# 3 17.4242 5.3730 90.0001 0.0000 13.6011 0.0000
# 4 0.0000 0.0000 0.0000 1.9416 0.0000 17.2588
# 5 21.3689 13.5555 13.6011 0.0000 22.4617 0.0000
# 6 0.0000 0.0000 0.0000 17.2588 0.0000 16.2045
#
#
#
# Elastic Compliance Matrix: (Units=1/GPa)
#
#
# Indices 1 2 3 4 5 6 
#
# 1 0.029073 -0.002470 -0.001680 0.000000 -0.025150 0.000000
# 2 -0.002470 0.009355 0.000460 0.000000 -0.003574 0.000000
# 3 -0.001680 0.000460 0.012338 0.000000 -0.006150 0.000000
# 4 0.000000 0.000000 0.000000 -0.060827 0.000000 0.064784
# 5 -0.025150 -0.003574 -0.006150 0.000000 0.074327 0.000000
# 6 0.000000 0.000000 0.000000 0.064784 0.000000 -0.007288
#
#
# Mechanical properties :
#
#
# Convention : Reuss Voigt Hill
#
# Bulk Modulus (GPa) = 23.04968 39.22691 31.13829
# Shear Modulus (GPa) = 63.43454 22.69189 43.06322
#
# Velocity S-wave (km/s) = 5.02826 3.00739 4.14293
# Velocity P-wave (km/s) = 6.54967 5.26251 5.94105
#
# Compressibility (1/GPa) = 0.04338455
#
# Stress axis : x y z
#
# Youngs Moduli (GPa) = 34.39676 106.88982 81.04786
#
# Poissons Ratio (x) = 0.26407 0.13619
# Poissons Ratio (y) = 0.08498 -0.03727
# Poissons Ratio (z) = 0.05780 -0.04916
#
# Static dielectric constant tensor:
#      x y z
#    x 2.056990 0.000000 -0.056570 
#    y 0.000000 2.060800 0.000000 
#    z -0.056570 0.000000 2.015640 
# 
# From -- ./inp_files/35900.got.cif
#   From: 2010.05.17/outbox.cif.g08.bks.cpg/sg14_18_cif.got.tgz:35900.got - 2010.06.03 17:49:19.
