data_PCOD9246257
_publ_section_title
;
Structure prediction by ZEFSAII (Michael W. Deem and Ramdas Pophale) SiO2 
 PCOD9246257
Probable space group: P 21/C
;
_chemical_formula_sum "Si O2"
_cell_formula_units_Z 12
_cell_length_a 6.868588
_cell_length_b 13.376002
_cell_length_c 4.997283
_cell_angle_alpha 90.000000
_cell_angle_beta 78.913831
_cell_angle_gamma 90.000000
_cell_volume 450.553994
_symmetry_space_group_name_H-M "P 21/C"
_symmetry_group_IT_number 14
_symmetry_cell_setting 'monoclinic'
loop_
_space_group_symop_operation_xyz
x,y,z
-x,1/2+y,1/2-z
-x,-y,-z
x,1/2-y,1/2+z
loop_
_atom_site_type_symbol
_atom_site_label
_atom_site_fract_x
_atom_site_fract_y
_atom_site_fract_z
Si Si1 0.167784 0.989727 0.178891
Si Si2 0.501379 0.095666 0.302004
Si Si3 0.843070 0.191106 0.445408
O O1 0.110777 0.916954 0.441140
O O2 0.281047 0.091178 0.240309
O O3 0.343303 0.928513 0.976111
O O4 0.000000 0.000000 0.000000
O O5 0.603756 0.183049 0.447303
O O6 0.500000 0.000000 0.500000
O O7 0.915811 0.229782 0.142695
#
# Coordination Sequence:
#
# PCOD9246257 Si02
#       3
#     4   4   4
#     4  10  21  40  66  91 123 161 211 249 305 370
#     4   9  20  38  64  88 119 163 204 243 308 365
#     4  11  21  39  63  89 126 163 200 259 311 355
#
# _framework density 26.633875
#
# number of rings (size 3 to 8) (size 9 to 14) (size 15 to 20)
#    0.000    2.000    3.333    0.000    0.000    5.333 
#    0.000    3.333    0.000    0.000    0.000    0.000 
#    0.000    0.000    0.000    0.000    0.000    0.000 
#
# Total GULP energy -67001.712121 kJ/mol
# GULP energy per Si atom -5583.476010 kJ/mol
# Density = 2.657326 g / cm^3
# Si number density = 26.633875 Si / 1000 Ang^3
#
#
#
# Elastic Constant Matrix: (Units=GPa)
#
#
# Indices 1 2 3 4 5 6 
#
# 1 176.0121 29.1563 33.8435 0.0000 48.7497 0.0000
# 2 29.1563 90.8899 25.0735 0.0000 25.1126 0.0000
# 3 33.8435 25.0735 140.5228 0.0000 41.6580 0.0000
# 4 0.0000 0.0000 0.0000 55.6466 0.0000 27.4781
# 5 48.7497 25.1126 41.6580 0.0000 55.5420 0.0000
# 6 0.0000 0.0000 0.0000 27.4781 0.0000 51.1825
#
#
#
# Elastic Compliance Matrix: (Units=1/GPa)
#
#
# Indices 1 2 3 4 5 6 
#
# 1 0.007548 -0.000693 0.000227 0.000000 -0.006482 0.000000
# 2 -0.000693 0.012693 -0.000742 0.000000 -0.004574 0.000000
# 3 0.000227 -0.000742 0.009199 0.000000 -0.006764 0.000000
# 4 0.000000 0.000000 0.000000 0.024453 0.000000 -0.013128
# 5 -0.006482 -0.004574 -0.006764 0.000000 0.030835 0.000000
# 6 0.000000 0.000000 0.000000 -0.013128 0.000000 0.026586
#
#
# Mechanical properties :
#
#
# Convention : Reuss Voigt Hill
#
# Bulk Modulus (GPa) = 37.00264 64.84125 50.92195
# Shear Modulus (GPa) = 40.73747 53.76433 47.25090
#
# Velocity S-wave (km/s) = 3.91517 4.49781 4.21656
# Velocity P-wave (km/s) = 5.86185 7.16742 6.54726
#
# Compressibility (1/GPa) = 0.02702510
#
# Stress axis : x y z
#
# Youngs Moduli (GPa) = 132.48877 78.78248 108.70789
#
# Poissons Ratio (x) = 0.05460 -0.02472
# Poissons Ratio (y) = 0.09182 0.08065
# Poissons Ratio (z) = -0.03013 0.05845
#
# Static dielectric constant tensor:
#      x y z
#    x 2.237720 0.000000 -0.114860 
#    y 0.000000 2.267720 0.000000 
#    z -0.114860 0.000000 2.152080 
# 
# From -- ./inp_files/162.got.cif
#   From: 2010.05.17/outbox.cif.g08.bks.cpg/sg14_1_cif.got.tgz:162.got - 2010.06.03 17:49:19.
