data_PCOD9246550
_publ_section_title
;
Structure prediction by ZEFSAII (Michael W. Deem and Ramdas Pophale) SiO2 
 PCOD9246550
Probable space group: P 21/C
;
_chemical_formula_sum "Si O2"
_cell_formula_units_Z 26
_cell_length_a 12.206718
_cell_length_b 14.134017
_cell_length_c 15.266947
_cell_angle_alpha 90.000000
_cell_angle_beta 28.775909
_cell_angle_gamma 90.000000
_cell_volume 1267.971315
_symmetry_space_group_name_H-M "P 21/C"
_symmetry_group_IT_number 14
_symmetry_cell_setting 'monoclinic'
loop_
_space_group_symop_operation_xyz
x,y,z
-x,1/2+y,1/2-z
-x,-y,-z
x,1/2-y,1/2+z
loop_
_atom_site_type_symbol
_atom_site_label
_atom_site_fract_x
_atom_site_fract_y
_atom_site_fract_z
Si Si1 0.887898 0.340493 0.170736
Si Si2 0.882469 0.541932 0.270174
Si Si3 0.700211 0.107246 0.613828
Si Si4 0.473591 0.322753 0.575789
Si Si5 0.000000 0.000000 0.000000
Si Si6 0.336408 0.956130 0.910455
Si Si7 0.256989 0.303149 0.358357
O O1 0.919911 0.439807 0.198616
O O2 0.829283 0.366201 0.111960
O O3 0.669279 0.293908 0.370897
O O4 0.100969 0.270799 0.019691
O O5 0.680317 0.596754 0.362032
O O6 0.803312 0.524048 0.424304
O O7 0.115974 0.598335 0.092222
O O8 0.498300 0.179270 0.735449
O O9 0.569256 0.008053 0.719897
O O10 0.592410 0.368814 0.577889
O O11 0.314790 0.239931 0.722551
O O12 0.823848 0.062441 0.059495
O O13 0.862862 0.903844 0.068226
#
# Coordination Sequence:
#
# PCOD9246550 Si02
#       7
#     4   4   4   4   2   4   4
#     4  11  21  41  65 101 125 160 218 267 320 389
#     4  11  20  39  72 100 125 159 215 278 324 375
#     4  11  21  38  64  92 131 164 206 267 320 383
#     4  11  21  39  70 102 124 164 219 275 320 379
#     4  10  26  48  58  84 140 182 212 262 326 394
#     4  10  21  41  65  94 130 170 209 269 329 385
#     4  11  26  41  61  92 132 178 214 262 324 385
#
# _framework density 20.505195000000001
#
# number of rings (size 3 to 8) (size 9 to 14) (size 15 to 20)
#    0.000    1.231    4.615    2.308    2.154    2.462 
#    5.538    3.846    0.000    0.000    0.000    0.000 
#    0.000    0.000    0.000    0.000    0.000    0.000 
#
# Total GULP energy -144757.147604 kJ/mol
# GULP energy per Si atom -5567.582600 kJ/mol
# Density = 2.045852 g / cm^3
# Si number density = 20.505195 Si / 1000 Ang^3
#
#
#
# Elastic Constant Matrix: (Units=GPa)
#
#
# Indices 1 2 3 4 5 6 
#
# 1 56.2710 6.5702 15.3937 0.0000 -21.5159 0.0000
# 2 6.5702 51.7990 25.2081 0.0000 -5.8803 0.0000
# 3 15.3937 25.2081 123.1514 0.0000 -7.7183 0.0000
# 4 0.0000 0.0000 0.0000 26.8707 0.0000 -9.9580
# 5 -21.5159 -5.8803 -7.7183 0.0000 25.6014 0.0000
# 6 0.0000 0.0000 0.0000 -9.9580 0.0000 12.0500
#
#
#
# Elastic Compliance Matrix: (Units=1/GPa)
#
#
# Indices 1 2 3 4 5 6 
#
# 1 0.026644 0.000058 -0.001975 0.000000 0.021810 0.000000
# 2 0.000058 0.021785 -0.004230 0.000000 0.003777 0.000000
# 3 -0.001975 -0.004230 0.009242 0.000000 0.000155 0.000000
# 4 0.000000 0.000000 0.000000 0.053644 0.000000 0.044331
# 5 0.021810 0.003777 0.000155 0.000000 0.058304 0.000000
# 6 0.000000 0.000000 0.000000 0.044331 0.000000 0.119622
#
#
# Mechanical properties :
#
#
# Convention : Reuss Voigt Hill
#
# Bulk Modulus (GPa) = 22.03762 36.17394 29.10578
# Shear Modulus (GPa) = 15.78967 25.17436 20.48202
#
# Velocity S-wave (km/s) = 2.77796 3.50767 3.16392
# Velocity P-wave (km/s) = 4.58912 5.83820 5.25094
#
# Compressibility (1/GPa) = 0.04537695
#
# Stress axis : x y z
#
# Youngs Moduli (GPa) = 37.53168 45.90255 108.19587
#
# Poissons Ratio (x) = -0.00265 0.21373
# Poissons Ratio (y) = -0.00216 0.45764
# Poissons Ratio (z) = 0.07414 0.19416
#
# Static dielectric constant tensor:
#      x y z
#    x 1.700510 0.000000 0.003650 
#    y 0.000000 1.756530 0.000000 
#    z 0.003650 0.000000 1.752860 
# 
# From -- ./inp_files/32821.got.cif
#   From: 2010.05.17/outbox.cif.g08.bks.cpg/sg14_17_cif.got.tgz:32821.got - 2010.06.03 17:49:19.
