data_PCOD9246815
_publ_section_title
;
Structure prediction by ZEFSAII (Michael W. Deem and Ramdas Pophale) SiO2 
 PCOD9246815
Probable space group: P 21/C
;
_chemical_formula_sum "Si O2"
_cell_formula_units_Z 32
_cell_length_a 8.446946
_cell_length_b 9.006714
_cell_length_c 22.428444
_cell_angle_alpha 90.000000
_cell_angle_beta 106.953155
_cell_angle_gamma 90.000000
_cell_volume 1632.187136
_symmetry_space_group_name_H-M "P 21/C"
_symmetry_group_IT_number 14
_symmetry_cell_setting 'monoclinic'
loop_
_space_group_symop_operation_xyz
x,y,z
-x,1/2+y,1/2-z
-x,-y,-z
x,1/2-y,1/2+z
loop_
_atom_site_type_symbol
_atom_site_label
_atom_site_fract_x
_atom_site_fract_y
_atom_site_fract_z
Si Si1 0.409192 0.992479 0.926812
Si Si2 0.031476 0.585083 0.734330
Si Si3 0.183437 0.244506 0.379198
Si Si4 0.136085 0.234310 0.194654
Si Si5 0.305522 0.929290 0.355847
Si Si6 0.850525 0.238784 0.069060
Si Si7 0.927163 0.666585 0.999715
Si Si8 0.380326 0.250750 0.120399
O O1 0.236524 0.911083 0.921933
O O2 0.518184 0.890381 0.894829
O O3 0.345160 0.150157 0.897527
O O4 0.500000 0.000000 0.000000
O O5 0.072077 0.417218 0.718956
O O6 0.189043 0.640091 0.790797
O O7 0.971895 0.678503 0.670868
O O8 0.879896 0.625172 0.762854
O O9 0.244209 0.096519 0.353126
O O10 0.123536 0.203281 0.438855
O O11 0.305929 0.216022 0.177413
O O12 0.008105 0.266319 0.127551
O O13 0.274051 0.863051 0.419157
O O14 0.491962 0.887371 0.361658
O O15 0.918534 0.239134 0.009945
O O16 0.765110 0.703451 0.941889
O O17 0.000000 0.500000 0.000000
#
# Coordination Sequence:
#
# PCOD9246815 Si02
#       8
#     4   4   4   4   4   4   4   4
#     4  11  22  39  61  97 132 167 205 263 330 384
#     4  11  22  42  66  94 121 169 223 264 315 386
#     4  12  23  39  68  96 128 170 222 261 325 396
#     4  10  21  42  66  89 123 165 214 264 314 381
#     4  10  22  42  64  93 129 172 210 265 326 376
#     4   9  20  38  64  87 126 169 202 263 323 373
#     4  11  22  39  65  98 125 167 223 265 316 396
#     4  10  24  43  64  92 135 167 209 269 334 378
#
# _framework density 19.605592999999999
#
# number of rings (size 3 to 8) (size 9 to 14) (size 15 to 20)
#    0.000    1.500    5.000    0.000    0.000    3.000 
#    2.250    2.500    0.000    0.000    0.000    0.000 
#    0.000    0.000    0.000    0.000    0.000    0.000 
#
# Total GULP energy -178150.716558 kJ/mol
# GULP energy per Si atom -5567.209892 kJ/mol
# Density = 1.956097 g / cm^3
# Si number density = 19.605593 Si / 1000 Ang^3
#
#
#
# Elastic Constant Matrix: (Units=GPa)
#
#
# Indices 1 2 3 4 5 6 
#
# 1 113.5876 44.6950 44.0312 0.0000 -29.2486 0.0000
# 2 44.6950 79.8179 31.5817 0.0000 -18.1585 0.0000
# 3 44.0312 31.5817 95.4376 0.0000 -15.2294 0.0000
# 4 0.0000 0.0000 0.0000 22.6401 0.0000 3.4264
# 5 -29.2486 -18.1585 -15.2294 0.0000 30.4753 0.0000
# 6 0.0000 0.0000 0.0000 3.4264 0.0000 25.1735
#
#
#
# Elastic Compliance Matrix: (Units=1/GPa)
#
#
# Indices 1 2 3 4 5 6 
#
# 1 0.014387 -0.004489 -0.003668 0.000000 0.009300 0.000000
# 2 -0.004489 0.017216 -0.002908 0.000000 0.004496 0.000000
# 3 -0.003668 -0.002908 0.013360 0.000000 0.001423 0.000000
# 4 0.000000 0.000000 0.000000 0.045098 0.000000 -0.006138
# 5 0.009300 0.004496 0.001423 0.000000 0.045129 0.000000
# 6 0.000000 0.000000 0.000000 -0.006138 0.000000 0.040560
#
#
# Mechanical properties :
#
#
# Convention : Reuss Voigt Hill
#
# Bulk Modulus (GPa) = 43.79898 58.82876 51.31387
# Shear Modulus (GPa) = 24.33198 26.89347 25.61273
#
# Velocity S-wave (km/s) = 3.52671 3.70770 3.61834
# Velocity P-wave (km/s) = 6.24276 6.95706 6.60957
#
# Compressibility (1/GPa) = 0.02283158
#
# Stress axis : x y z
#
# Youngs Moduli (GPa) = 69.50883 58.08599 74.85123
#
# Poissons Ratio (x) = 0.26075 0.27455
# Poissons Ratio (y) = 0.31202 0.21770
# Poissons Ratio (z) = 0.25496 0.16894
#
# Static dielectric constant tensor:
#      x y z
#    x 1.714890 0.000000 -0.026470 
#    y 0.000000 1.745770 0.000000 
#    z -0.026470 0.000000 1.642480 
# 
# From -- ./inp_files/71993.got.cif
#   From: 2010.05.17/outbox.cif.g08.bks.cpg/sg14_36_cif.got.tgz:71993.got - 2010.06.03 17:49:19.
