data_PCOD9246509
_publ_section_title
;
Structure prediction by ZEFSAII (Michael W. Deem and Ramdas Pophale) SiO2 
 PCOD9246509
Probable space group: P 21/C
;
_chemical_formula_sum "Si O2"
_cell_formula_units_Z 20
_cell_length_a 8.784556
_cell_length_b 9.470643
_cell_length_c 9.028355
_cell_angle_alpha 90.000000
_cell_angle_beta 97.770944
_cell_angle_gamma 90.000000
_cell_volume 744.219690
_symmetry_space_group_name_H-M "P 21/C"
_symmetry_group_IT_number 14
_symmetry_cell_setting 'monoclinic'
loop_
_space_group_symop_operation_xyz
x,y,z
-x,1/2+y,1/2-z
-x,-y,-z
x,1/2-y,1/2+z
loop_
_atom_site_type_symbol
_atom_site_label
_atom_site_fract_x
_atom_site_fract_y
_atom_site_fract_z
Si Si1 0.716981 0.565484 0.321254
Si Si2 0.576672 0.575223 0.734961
Si Si3 0.831857 0.721768 0.624517
Si Si4 0.403218 0.720656 0.980271
Si Si5 0.191627 0.761131 0.692390
O O1 0.532481 0.559038 0.312523
O O2 0.796888 0.658368 0.458485
O O3 0.753656 0.633998 0.169059
O O4 0.773978 0.405415 0.334156
O O5 0.756225 0.603500 0.725972
O O6 0.509842 0.630609 0.883394
O O7 0.507039 0.680840 0.597562
O O8 0.009848 0.761980 0.664692
O O9 0.271293 0.790781 0.859698
O O10 0.288494 0.647437 0.085812
#
# Coordination Sequence:
#
# PCOD9246509 Si02
#       5
#     4   4   4   4   4
#     4  10  24  42  60  92 128 162 204 260 316 364
#     4  10  21  41  64  93 127 165 206 257 312 367
#     4  12  22  40  68  94 122 164 216 256 300 376
#     4   8  18  38  62  88 126 162 198 248 312 368
#     4  10  21  41  64  93 127 165 206 257 312 367
#
# _framework density 26.873788000000001
#
# number of rings (size 3 to 8) (size 9 to 14) (size 15 to 20)
#    0.000    2.400    0.000    3.600    0.000    3.200 
#    0.000   38.000    0.000    0.000    0.000    0.000 
#    0.000    0.000    0.000    0.000    0.000    0.000 
#
# Total GULP energy -111741.139123 kJ/mol
# GULP energy per Si atom -5587.056956 kJ/mol
# Density = 2.681262 g / cm^3
# Si number density = 26.873788 Si / 1000 Ang^3
#
#
#
# Elastic Constant Matrix: (Units=GPa)
#
#
# Indices 1 2 3 4 5 6 
#
# 1 184.3796 0.9559 22.6478 0.0000 5.4208 0.0000
# 2 0.9559 72.1622 16.5825 0.0000 -5.6902 0.0000
# 3 22.6478 16.5825 136.1299 0.0000 -3.2512 0.0000
# 4 0.0000 0.0000 0.0000 48.1029 0.0000 -11.1242
# 5 5.4208 -5.6902 -3.2512 0.0000 32.8013 0.0000
# 6 0.0000 0.0000 0.0000 -11.1242 0.0000 48.7072
#
#
#
# Elastic Compliance Matrix: (Units=1/GPa)
#
#
# Indices 1 2 3 4 5 6 
#
# 1 0.005571 0.000067 -0.000959 0.000000 -0.001004 0.000000
# 2 0.000067 0.014434 -0.001714 0.000000 0.002323 0.000000
# 3 -0.000959 -0.001714 0.007729 0.000000 0.000627 0.000000
# 4 0.000000 0.000000 0.000000 0.021948 0.000000 0.005013
# 5 -0.001004 0.002323 0.000627 0.000000 0.031118 0.000000
# 6 0.000000 0.000000 0.000000 0.005013 0.000000 0.021676
#
#
# Mechanical properties :
#
#
# Convention : Reuss Voigt Hill
#
# Bulk Modulus (GPa) = 44.39998 52.56048 48.48023
# Shear Modulus (GPa) = 43.40523 49.42132 46.41327
#
# Velocity S-wave (km/s) = 4.02325 4.29303 4.16033
# Velocity P-wave (km/s) = 6.17573 6.64637 6.41536
#
# Compressibility (1/GPa) = 0.02252253
#
# Stress axis : x y z
#
# Youngs Moduli (GPa) = 179.51544 69.28183 129.37898
#
# Poissons Ratio (x) = -0.00467 0.12407
# Poissons Ratio (y) = -0.01210 0.22175
# Poissons Ratio (z) = 0.17215 0.11875
#
# Static dielectric constant tensor:
#      x y z
#    x 2.194100 0.000000 -0.040510 
#    y 0.000000 2.313080 0.000000 
#    z -0.040510 0.000000 2.146250 
# 
# From -- ./inp_files/7940.got.cif
#   From: 2010.05.17/outbox.cif.g08.bks.cpg/sg14_4_cif.got.tgz:7940.got - 2010.06.03 17:49:19.
