data_PCOD9246009
_publ_section_title
;
Structure prediction by ZEFSAII (Michael W. Deem and Ramdas Pophale) SiO2 
 PCOD9246009
Probable space group: P 21/C
;
_chemical_formula_sum "Si O2"
_cell_formula_units_Z 30
_cell_length_a 12.731072
_cell_length_b 8.932776
_cell_length_c 18.048372
_cell_angle_alpha 90.000000
_cell_angle_beta 144.404803
_cell_angle_gamma 90.000000
_cell_volume 1194.684784
_symmetry_space_group_name_H-M "P 21/C"
_symmetry_group_IT_number 14
_symmetry_cell_setting 'monoclinic'
loop_
_space_group_symop_operation_xyz
x,y,z
-x,1/2+y,1/2-z
-x,-y,-z
x,1/2-y,1/2+z
loop_
_atom_site_type_symbol
_atom_site_label
_atom_site_fract_x
_atom_site_fract_y
_atom_site_fract_z
Si Si1 0.769429 0.360959 0.129932
Si Si2 0.000000 0.500000 0.500000
Si Si3 0.617136 0.137427 0.804778
Si Si4 0.542749 0.553976 0.641646
Si Si5 0.926088 0.676181 0.894181
Si Si6 0.450866 0.237773 0.008527
Si Si7 0.940578 0.659063 0.243217
Si Si8 0.295067 0.554291 0.076986
O O1 0.601126 0.365459 0.088095
O O2 0.918310 0.482880 0.237869
O O3 0.877817 0.205022 0.194199
O O4 0.708214 0.395767 0.011024
O O5 0.212535 0.552766 0.632202
O O6 0.052847 0.316851 0.538865
O O7 0.612062 0.084686 0.887943
O O8 0.630857 0.314640 0.826365
O O9 0.431187 0.083670 0.661481
O O10 0.733307 0.597988 0.786675
O O11 0.534394 0.657095 0.563707
O O12 0.520902 0.384738 0.604743
O O13 0.943739 0.761562 0.824531
O O14 0.084947 0.552221 0.979733
O O15 0.245893 0.287583 0.901621
#
# Coordination Sequence:
#
# PCOD9246009 Si02
#       8
#     4   2   4   4   4   4   4   4
#     4  11  23  43  65  99 132 174 214 277 328 408
#     4  10  22  38  66  88 128 176 216 264 336 376
#     4  11  22  42  63  94 123 175 211 276 317 397
#     4  10  21  39  69  94 131 171 224 273 333 393
#     4   9  21  43  62  96 129 172 215 278 327 397
#     4  10  22  40  67  96 133 176 214 273 336 397
#     4  10  24  39  68  96 135 167 220 269 336 391
#     4  10  23  40  66  90 133 164 219 261 334 380
#
# _framework density 25.111225999999998
#
# number of rings (size 3 to 8) (size 9 to 14) (size 15 to 20)
#    0.000    1.867    1.333    1.200    9.333    1.600 
#    4.800    1.333    0.000    0.000    0.000    0.000 
#    0.000    0.000    0.000    0.000    0.000    0.000 
#
# Total GULP energy -167340.278392 kJ/mol
# GULP energy per Si atom -5578.009280 kJ/mol
# Density = 2.505407 g / cm^3
# Si number density = 25.111226 Si / 1000 Ang^3
#
#
#
# Elastic Constant Matrix: (Units=GPa)
#
#
# Indices 1 2 3 4 5 6 
#
# 1 48.5461 0.9171 34.7686 0.0000 5.9441 0.0000
# 2 0.9171 51.6660 21.6608 0.0000 17.5047 0.0000
# 3 34.7686 21.6608 98.8548 0.0000 21.8841 0.0000
# 4 0.0000 0.0000 0.0000 47.8555 0.0000 7.9402
# 5 5.9441 17.5047 21.8841 0.0000 32.9842 0.0000
# 6 0.0000 0.0000 0.0000 7.9402 0.0000 34.1996
#
#
#
# Elastic Compliance Matrix: (Units=1/GPa)
#
#
# Indices 1 2 3 4 5 6 
#
# 1 0.028280 0.004059 -0.010820 0.000000 -0.000071 0.000000
# 2 0.004059 0.024866 -0.004446 0.000000 -0.010978 0.000000
# 3 -0.010820 -0.004446 0.016342 0.000000 -0.006533 0.000000
# 4 0.000000 0.000000 0.000000 0.021733 0.000000 -0.005046
# 5 -0.000071 -0.010978 -0.006533 0.000000 0.040491 0.000000
# 6 0.000000 0.000000 0.000000 -0.005046 0.000000 0.030412
#
#
# Mechanical properties :
#
#
# Convention : Reuss Voigt Hill
#
# Bulk Modulus (GPa) = 21.24312 34.86220 28.05266
# Shear Modulus (GPa) = 24.97115 32.45589 28.71352
#
# Velocity S-wave (km/s) = 3.15687 3.59902 3.38517
# Velocity P-wave (km/s) = 4.66537 5.58425 5.14536
#
# Compressibility (1/GPa) = 0.04707406
#
# Stress axis : x y z
#
# Youngs Moduli (GPa) = 35.36016 40.21481 61.19261
#
# Poissons Ratio (x) = -0.16321 0.66211
# Poissons Ratio (y) = -0.14351 0.27205
# Poissons Ratio (z) = 0.38260 0.17878
#
# Static dielectric constant tensor:
#      x y z
#    x 1.998560 0.000000 -0.092790 
#    y 0.000000 2.015530 0.000000 
#    z -0.092790 0.000000 1.958700 
# 
# From -- ./inp_files/68398.got.cif
#   From: 2010.05.17/outbox.cif.g08.bks.cpg/sg14_35_cif.got.tgz:68398.got - 2010.06.03 17:49:19.
