data_PCOD9246239
_publ_section_title
;
Structure prediction by ZEFSAII (Michael W. Deem and Ramdas Pophale) SiO2 
 PCOD9246239
Probable space group: P 21/C
;
_chemical_formula_sum "Si O2"
_cell_formula_units_Z 28
_cell_length_a 17.834099
_cell_length_b 8.240329
_cell_length_c 9.247025
_cell_angle_alpha 90.000000
_cell_angle_beta 75.907917
_cell_angle_gamma 90.000000
_cell_volume 1318.035943
_symmetry_space_group_name_H-M "P 21/C"
_symmetry_group_IT_number 14
_symmetry_cell_setting 'monoclinic'
loop_
_space_group_symop_operation_xyz
x,y,z
-x,1/2+y,1/2-z
-x,-y,-z
x,1/2-y,1/2+z
loop_
_atom_site_type_symbol
_atom_site_label
_atom_site_fract_x
_atom_site_fract_y
_atom_site_fract_z
Si Si1 0.510190 0.366019 0.874191
Si Si2 0.588570 0.938680 0.121189
Si Si3 0.088318 0.049295 0.453945
Si Si4 0.667894 0.211005 0.896362
Si Si5 0.247225 0.573657 0.907975
Si Si6 0.841324 0.700399 0.364385
Si Si7 0.736674 0.809225 0.165472
O O1 0.445588 0.229739 0.917959
O O2 0.516852 0.459350 0.718982
O O3 0.593755 0.285445 0.852166
O O4 0.500000 0.500000 0.000000
O O5 0.652991 0.888766 0.209935
O O6 0.633815 0.051090 0.989053
O O7 0.113788 0.098924 0.278545
O O8 0.102126 0.197275 0.559513
O O9 0.154702 0.922992 0.472693
O O10 0.000000 0.000000 0.500000
O O11 0.731263 0.162320 0.750269
O O12 0.703584 0.338180 0.992359
O O13 0.268528 0.382806 0.874180
O O14 0.784850 0.812201 0.290974
O O15 0.785877 0.614544 0.508879
#
# Coordination Sequence:
#
# PCOD9246239 Si02
#       7
#     4   4   4   4   4   4   4
#     4  12  28  42  64  95 133 176 229 281 354 390
#     4  12  26  42  67  90 130 176 228 282 343 391
#     4  10  21  40  65  97 138 172 211 280 336 414
#     4  12  24  46  63  94 130 176 223 288 331 407
#     4  10  24  41  67  94 130 166 231 265 338 405
#     4   8  19  39  61  94 125 165 226 259 334 393
#     4  10  21  40  68  90 122 176 222 278 314 406
#
# _framework density 21.243729999999999
#
# number of rings (size 3 to 8) (size 9 to 14) (size 15 to 20)
#    0.000    1.714    1.429    3.857   10.000    1.143 
#    0.000    2.857    0.000    0.000    0.000    0.000 
#    0.000    0.000    0.000    0.000    0.000    0.000 
#
# Total GULP energy -156416.453759 kJ/mol
# GULP energy per Si atom -5586.301920 kJ/mol
# Density = 2.119538 g / cm^3
# Si number density = 21.243730 Si / 1000 Ang^3
#
#
#
# Elastic Constant Matrix: (Units=GPa)
#
#
# Indices 1 2 3 4 5 6 
#
# 1 86.0970 33.3058 -0.8921 0.0000 -7.0135 0.0000
# 2 33.3058 63.1741 0.5525 0.0000 -0.3369 0.0000
# 3 -0.8921 0.5525 69.1933 0.0000 1.2176 0.0000
# 4 0.0000 0.0000 0.0000 28.8135 0.0000 -1.9826
# 5 -7.0135 -0.3369 1.2176 0.0000 22.8979 0.0000
# 6 0.0000 0.0000 0.0000 -1.9826 0.0000 40.9271
#
#
#
# Elastic Compliance Matrix: (Units=1/GPa)
#
#
# Indices 1 2 3 4 5 6 
#
# 1 0.015040 -0.007907 0.000178 0.000000 0.004481 0.000000
# 2 -0.007907 0.019989 -0.000224 0.000000 -0.002116 0.000000
# 3 0.000178 -0.000224 0.014469 0.000000 -0.000718 0.000000
# 4 0.000000 0.000000 0.000000 0.034822 0.000000 0.001687
# 5 0.004481 -0.002116 -0.000718 0.000000 0.045052 0.000000
# 6 0.000000 0.000000 0.000000 0.001687 0.000000 0.024515
#
#
# Mechanical properties :
#
#
# Convention : Reuss Voigt Hill
#
# Bulk Modulus (GPa) = 29.76928 31.59962 30.68445
# Shear Modulus (GPa) = 27.62572 30.89425 29.25999
#
# Velocity S-wave (km/s) = 3.61004 3.81763 3.71529
# Velocity P-wave (km/s) = 5.60537 5.85999 5.73410
#
# Compressibility (1/GPa) = 0.03359168
#
# Stress axis : x y z
#
# Youngs Moduli (GPa) = 66.48739 50.02850 69.11328
#
# Poissons Ratio (x) = 0.39558 -0.01232
# Poissons Ratio (y) = 0.52572 0.01550
# Poissons Ratio (z) = -0.01185 0.01122
#
# Static dielectric constant tensor:
#      x y z
#    x 1.761830 0.000000 0.006450 
#    y 0.000000 1.867600 0.000000 
#    z 0.006450 0.000000 1.796010 
# 
# From -- ./inp_files/17539.got.cif
#   From: 2010.05.17/outbox.cif.g08.bks.cpg/sg14_9_cif.got.tgz:17539.got - 2010.06.03 17:49:19.
