data_PCOD9246320
_publ_section_title
;
Structure prediction by ZEFSAII (Michael W. Deem and Ramdas Pophale) SiO2 
 PCOD9246320
Probable space group: P 21/C
;
_chemical_formula_sum "Si O2"
_cell_formula_units_Z 20
_cell_length_a 9.105924
_cell_length_b 5.154926
_cell_length_c 18.992325
_cell_angle_alpha 90.000000
_cell_angle_beta 72.517764
_cell_angle_gamma 90.000000
_cell_volume 850.328085
_symmetry_space_group_name_H-M "P 21/C"
_symmetry_group_IT_number 14
_symmetry_cell_setting 'monoclinic'
loop_
_space_group_symop_operation_xyz
x,y,z
-x,1/2+y,1/2-z
-x,-y,-z
x,1/2-y,1/2+z
loop_
_atom_site_type_symbol
_atom_site_label
_atom_site_fract_x
_atom_site_fract_y
_atom_site_fract_z
Si Si1 0.349139 0.264557 0.567575
Si Si2 0.839942 0.252518 0.919014
Si Si3 0.335496 0.932023 0.934137
Si Si4 0.601412 0.620463 0.727451
Si Si5 0.930868 0.657244 0.725172
O O1 0.262486 0.527421 0.602985
O O2 0.515228 0.247284 0.578871
O O3 0.374886 0.327919 0.480675
O O4 0.252420 0.176662 0.744596
O O5 0.762473 0.523230 0.911591
O O6 0.007222 0.225331 0.862157
O O7 0.811742 0.196449 0.006048
O O8 0.327306 0.020875 0.856299
O O9 0.495977 0.382211 0.768206
O O10 0.015789 0.869693 0.761243
#
# Coordination Sequence:
#
# PCOD9246320 Si02
#       5
#     4   4   4   4   4
#     4   9  20  35  70 101 135 178 223 291 348 424
#     4  10  21  40  68 100 134 184 232 286 343 426
#     4   9  23  39  69 102 140 180 234 287 355 418
#     4  12  30  46  71 106 146 189 238 302 354 425
#     4  12  28  48  72 102 146 194 238 290 367 425
#
# _framework density 23.520334999999999
#
# number of rings (size 3 to 8) (size 9 to 14) (size 15 to 20)
#    1.200    0.400    0.000    3.000   11.200    0.800 
#    0.000    1.000    0.000    0.000    0.000    0.000 
#    0.000    0.000    0.000    0.000    0.000    0.000 
#
# Total GULP energy -111769.265348 kJ/mol
# GULP energy per Si atom -5588.463267 kJ/mol
# Density = 2.346680 g / cm^3
# Si number density = 23.520335 Si / 1000 Ang^3
#
#
#
# Elastic Constant Matrix: (Units=GPa)
#
#
# Indices 1 2 3 4 5 6 
#
# 1 77.5367 27.6481 8.6737 0.0000 -22.7811 0.0000
# 2 27.6481 134.1886 -7.1204 0.0000 -5.8830 0.0000
# 3 8.6737 -7.1204 73.2023 0.0000 -8.5862 0.0000
# 4 0.0000 0.0000 0.0000 19.6659 0.0000 -5.9507
# 5 -22.7811 -5.8830 -8.5862 0.0000 31.9530 0.0000
# 6 0.0000 0.0000 0.0000 -5.9507 0.0000 26.9001
#
#
#
# Elastic Compliance Matrix: (Units=1/GPa)
#
#
# Indices 1 2 3 4 5 6 
#
# 1 0.017567 -0.003162 -0.001020 0.000000 0.011668 0.000000
# 2 -0.003162 0.008143 0.001113 0.000000 -0.000456 0.000000
# 3 -0.001020 0.001113 0.014279 0.000000 0.003314 0.000000
# 4 0.000000 0.000000 0.000000 0.054497 0.000000 0.012056
# 5 0.011668 -0.000456 0.003314 0.000000 0.040421 0.000000
# 6 0.000000 0.000000 0.000000 0.012056 0.000000 0.039841
#
#
# Mechanical properties :
#
#
# Convention : Reuss Voigt Hill
#
# Bulk Modulus (GPa) = 29.54225 38.14782 33.84504
# Shear Modulus (GPa) = 26.01853 32.75222 29.38538
#
# Velocity S-wave (km/s) = 3.32959 3.73568 3.53846
# Velocity P-wave (km/s) = 5.23155 5.90435 5.57810
#
# Compressibility (1/GPa) = 0.03384982
#
# Stress axis : x y z
#
# Youngs Moduli (GPa) = 56.92477 122.80810 70.03427
#
# Poissons Ratio (x) = 0.38833 0.07147
# Poissons Ratio (y) = 0.18000 -0.07796
# Poissons Ratio (z) = 0.05809 -0.13671
#
# Static dielectric constant tensor:
#      x y z
#    x 1.869060 0.000000 -0.031930 
#    y 0.000000 1.833490 0.000000 
#    z -0.031930 0.000000 1.992460 
# 
# From -- ./inp_files/56346.got.cif
#   From: 2010.05.17/outbox.cif.g08.bks.cpg/sg14_29_cif.got.tgz:56346.got - 2010.06.03 17:49:19.
