data_PCOD9246524
_publ_section_title
;
Structure prediction by ZEFSAII (Michael W. Deem and Ramdas Pophale) SiO2 
 PCOD9246524
Probable space group: P 21/C
;
_chemical_formula_sum "Si O2"
_cell_formula_units_Z 20
_cell_length_a 23.857036
_cell_length_b 4.943184
_cell_length_c 13.390663
_cell_angle_alpha 90.000000
_cell_angle_beta 28.312164
_cell_angle_gamma 90.000000
_cell_volume 748.954941
_symmetry_space_group_name_H-M "P 21/C"
_symmetry_group_IT_number 14
_symmetry_cell_setting 'monoclinic'
loop_
_space_group_symop_operation_xyz
x,y,z
-x,1/2+y,1/2-z
-x,-y,-z
x,1/2-y,1/2+z
loop_
_atom_site_type_symbol
_atom_site_label
_atom_site_fract_x
_atom_site_fract_y
_atom_site_fract_z
Si Si1 0.024064 0.710375 0.655868
Si Si2 0.607318 0.784211 0.824553
Si Si3 0.138349 0.493308 0.817640
Si Si4 0.511955 0.939676 0.659106
Si Si5 0.190259 0.504757 0.124786
O O1 0.941611 0.541686 0.710177
O O2 0.946315 0.966667 0.815929
O O3 0.132043 0.865027 0.434883
O O4 0.572704 0.565912 0.793661
O O5 0.720743 0.929672 0.601727
O O6 0.616802 0.659364 0.920493
O O7 0.500000 0.000000 0.000000
O O8 0.204416 0.696763 0.641320
O O9 0.000000 0.500000 0.000000
O O10 0.468421 0.680980 0.791759
O O11 0.806720 0.797029 0.287203
#
# Coordination Sequence:
#
# PCOD9246524 Si02
#       5
#     4   4   4   4   4
#     4  11  21  41  61  96 134 165 216 288 328 397
#     4  11  26  47  73 104 149 188 238 303 354 428
#     4  10  21  41  65  87 128 173 219 271 333 411
#     4  11  24  47  71  98 142 191 239 300 358 417
#     4  11  24  42  68  96 130 183 224 266 359 411
#
# _framework density 26.703876999999999
#
# number of rings (size 3 to 8) (size 9 to 14) (size 15 to 20)
#    0.000    1.200    2.000    6.000    5.600    0.000 
#   10.800    0.000    0.000    0.000    0.000    0.000 
#    0.000    0.000    0.000    0.000    0.000    0.000 
#
# Total GULP energy -111931.538343 kJ/mol
# GULP energy per Si atom -5596.576917 kJ/mol
# Density = 2.664310 g / cm^3
# Si number density = 26.703877 Si / 1000 Ang^3
#
#
#
# Elastic Constant Matrix: (Units=GPa)
#
#
# Indices 1 2 3 4 5 6 
#
# 1 104.6209 34.8901 37.8171 0.0000 26.0020 0.0000
# 2 34.8901 156.5816 44.7116 0.0000 16.7149 0.0000
# 3 37.8171 44.7116 144.3223 0.0000 31.7750 0.0000
# 4 0.0000 0.0000 0.0000 43.8656 0.0000 13.2694
# 5 26.0020 16.7149 31.7750 0.0000 31.3918 0.0000
# 6 0.0000 0.0000 0.0000 13.2694 0.0000 33.4605
#
#
#
# Elastic Compliance Matrix: (Units=1/GPa)
#
#
# Indices 1 2 3 4 5 6 
#
# 1 0.012570 -0.001625 -0.000886 0.000000 -0.008650 0.000000
# 2 -0.001625 0.007312 -0.001645 0.000000 -0.000882 0.000000
# 3 -0.000886 -0.001645 0.009414 0.000000 -0.007919 0.000000
# 4 0.000000 0.000000 0.000000 0.025904 0.000000 -0.010273
# 5 -0.008650 -0.000882 -0.007919 0.000000 0.047506 0.000000
# 6 0.000000 0.000000 0.000000 -0.010273 0.000000 0.033960
#
#
# Mechanical properties :
#
#
# Convention : Reuss Voigt Hill
#
# Bulk Modulus (GPa) = 47.65298 71.15137 59.40217
# Shear Modulus (GPa) = 32.90016 40.95063 36.92540
#
# Velocity S-wave (km/s) = 3.51385 3.92025 3.72260
# Velocity P-wave (km/s) = 5.86059 6.86976 6.38514
#
# Compressibility (1/GPa) = 0.02098505
#
# Stress axis : x y z
#
# Youngs Moduli (GPa) = 79.55306 136.75222 106.21964
#
# Poissons Ratio (x) = 0.22216 0.09412
# Poissons Ratio (y) = 0.12924 0.17478
# Poissons Ratio (z) = 0.07049 0.22502
#
# Static dielectric constant tensor:
#      x y z
#    x 2.254360 0.000000 0.052060 
#    y 0.000000 2.078160 0.000000 
#    z 0.052060 0.000000 2.116180 
# 
# From -- ./inp_files/51618.got.cif
#   From: 2010.05.17/outbox.cif.g08.bks.cpg/sg14_26_cif.got.tgz:51618.got - 2010.06.03 17:49:19.
