data_PCOD9246634
_publ_section_title
;
Structure prediction by ZEFSAII (Michael W. Deem and Ramdas Pophale) SiO2 
 PCOD9246634
Probable space group: P 21/C
;
_chemical_formula_sum "Si O2"
_cell_formula_units_Z 32
_cell_length_a 16.084122
_cell_length_b 14.595964
_cell_length_c 21.275580
_cell_angle_alpha 90.000000
_cell_angle_beta 16.288384
_cell_angle_gamma 90.000000
_cell_volume 1400.880982
_symmetry_space_group_name_H-M "P 21/C"
_symmetry_group_IT_number 14
_symmetry_cell_setting 'monoclinic'
loop_
_space_group_symop_operation_xyz
x,y,z
-x,1/2+y,1/2-z
-x,-y,-z
x,1/2-y,1/2+z
loop_
_atom_site_type_symbol
_atom_site_label
_atom_site_fract_x
_atom_site_fract_y
_atom_site_fract_z
Si Si1 0.423513 0.638349 0.080245
Si Si2 0.140145 0.491809 0.829882
Si Si3 0.826056 0.181263 0.749730
Si Si4 0.665432 0.125970 0.990771
Si Si5 0.609224 0.470754 0.118357
Si Si6 0.699221 0.783136 0.182983
Si Si7 0.886663 0.497627 0.778363
Si Si8 0.848794 0.096086 0.089469
O O1 0.433542 0.743947 0.056753
O O2 0.164534 0.591805 0.226470
O O3 0.335004 0.630549 0.217086
O O4 0.713589 0.576412 0.864396
O O5 0.268727 0.590388 0.717682
O O6 0.388544 0.415102 0.653786
O O7 0.000000 0.500000 0.000000
O O8 0.882820 0.473127 0.966686
O O9 0.088573 0.228645 0.519365
O O10 0.904533 0.155371 0.764469
O O11 0.549754 0.212752 0.113108
O O12 0.800089 0.042061 0.932645
O O13 0.440119 0.374063 0.246703
O O14 0.389100 0.558297 0.287884
O O15 0.726799 0.476766 0.960954
O O16 0.897537 0.825952 0.096994
O O17 0.000000 0.000000 0.000000
#
# Coordination Sequence:
#
# PCOD9246634 Si02
#       8
#     4   4   4   4   4   4   4   4
#     4   9  20  40  68  99 132 170 226 288 335 404
#     4  12  26  47  65  95 143 186 226 273 351 418
#     4  11  23  46  65  98 137 177 228 275 336 413
#     4  12  25  43  68  99 141 185 221 276 344 418
#     4  10  21  43  69  99 130 183 228 288 347 400
#     4  10  22  44  68 104 132 170 238 283 338 415
#     4  10  21  41  68 102 134 174 229 284 352 401
#     4   8  17  37  67  93 130 169 219 285 341 388
#
# _framework density 22.842769000000001
#
# number of rings (size 3 to 8) (size 9 to 14) (size 15 to 20)
#    0.000    1.750    2.500    1.125    0.000    5.000 
#    6.750    0.000    0.000    0.000    0.000    0.000 
#    0.000    0.000    0.000    0.000    0.000    0.000 
#
# Total GULP energy -178724.753209 kJ/mol
# GULP energy per Si atom -5585.148538 kJ/mol
# Density = 2.279078 g / cm^3
# Si number density = 22.842769 Si / 1000 Ang^3
#
#
#
# Elastic Constant Matrix: (Units=GPa)
#
#
# Indices 1 2 3 4 5 6 
#
# 1 90.6426 20.3001 23.1790 0.0000 -5.3330 0.0000
# 2 20.3001 95.9171 13.7342 0.0000 -5.5024 0.0000
# 3 23.1790 13.7342 53.8791 0.0000 -5.7900 0.0000
# 4 0.0000 0.0000 0.0000 36.4341 0.0000 11.4766
# 5 -5.3330 -5.5024 -5.7900 0.0000 47.7029 0.0000
# 6 0.0000 0.0000 0.0000 11.4766 0.0000 22.0918
#
#
#
# Elastic Compliance Matrix: (Units=1/GPa)
#
#
# Indices 1 2 3 4 5 6 
#
# 1 0.012767 -0.001962 -0.004928 0.000000 0.000603 0.000000
# 2 -0.001962 0.011163 -0.001912 0.000000 0.000836 0.000000
# 3 -0.004928 -0.001912 0.021363 0.000000 0.001822 0.000000
# 4 0.000000 0.000000 0.000000 0.032817 0.000000 -0.017048
# 5 0.000603 0.000836 0.001822 0.000000 0.021348 0.000000
# 6 0.000000 0.000000 0.000000 -0.017048 0.000000 0.054122
#
#
# Mechanical properties :
#
#
# Convention : Reuss Voigt Hill
#
# Bulk Modulus (GPa) = 36.11327 39.42949 37.77138
# Shear Modulus (GPa) = 27.71427 33.46079 30.58753
#
# Velocity S-wave (km/s) = 3.48697 3.83146 3.66327
# Velocity P-wave (km/s) = 5.66178 6.07225 5.87060
#
# Compressibility (1/GPa) = 0.02769065
#
# Stress axis : x y z
#
# Youngs Moduli (GPa) = 78.32514 89.58504 46.80996
#
# Poissons Ratio (x) = 0.17576 0.23066
# Poissons Ratio (y) = 0.15367 0.08948
# Poissons Ratio (z) = 0.38596 0.17125
#
# Static dielectric constant tensor:
#      x y z
#    x 1.884900 0.000000 0.021060 
#    y 0.000000 1.862550 0.000000 
#    z 0.021060 0.000000 1.951220 
# 
# From -- ./inp_files/68687.got.cif
#   From: 2010.05.17/outbox.cif.g08.bks.cpg/sg14_35_cif.got.tgz:68687.got - 2010.06.03 17:49:19.
