data_PCOD9246990
_publ_section_title
;
Structure prediction by ZEFSAII (Michael W. Deem and Ramdas Pophale) SiO2 
 PCOD9246990
Probable space group: P 21/C
;
_chemical_formula_sum "Si O2"
_cell_formula_units_Z 24
_cell_length_a 8.534184
_cell_length_b 13.455662
_cell_length_c 9.441744
_cell_angle_alpha 90.000000
_cell_angle_beta 119.276435
_cell_angle_gamma 90.000000
_cell_volume 945.737185
_symmetry_space_group_name_H-M "P 21/C"
_symmetry_group_IT_number 14
_symmetry_cell_setting 'monoclinic'
loop_
_space_group_symop_operation_xyz
x,y,z
-x,1/2+y,1/2-z
-x,-y,-z
x,1/2-y,1/2+z
loop_
_atom_site_type_symbol
_atom_site_label
_atom_site_fract_x
_atom_site_fract_y
_atom_site_fract_z
Si Si1 0.885425 0.982751 0.308612
Si Si2 0.536794 0.419319 0.728915
Si Si3 0.388963 0.708449 0.699726
Si Si4 0.051637 0.599444 0.438260
Si Si5 0.587526 0.830907 0.567317
Si Si6 0.187207 0.323065 0.441474
O O1 0.672038 0.993762 0.250670
O O2 0.942319 0.066542 0.220071
O O3 0.000000 0.000000 0.500000
O O4 0.911278 0.880893 0.229606
O O5 0.669284 0.322458 0.793590
O O6 0.441771 0.423173 0.841564
O O7 0.371679 0.385890 0.556240
O O8 0.247494 0.638150 0.565197
O O9 0.540079 0.738821 0.652728
O O10 0.452872 0.665335 0.876478
O O11 0.000000 0.500000 0.500000
O O12 0.917819 0.675618 0.455978
O O13 0.767387 0.789814 0.577655
#
# Coordination Sequence:
#
# PCOD9246990 Si02
#       6
#     4   4   4   4   4   4
#     4  11  24  44  69  99 134 179 221 277 344 401
#     4   9  21  41  66  94 130 173 224 270 338 387
#     4   9  19  38  62  91 129 169 222 265 340 385
#     4  10  22  38  65  94 133 172 215 272 337 392
#     4   9  20  40  66  93 127 179 219 273 334 392
#     4  10  21  43  65  98 132 172 226 274 336 403
#
# _framework density 25.377029
#
# number of rings (size 3 to 8) (size 9 to 14) (size 15 to 20)
#    1.000    1.333    0.000    2.500    4.667    1.333 
#   12.000    0.833    0.000    0.000    0.000    0.000 
#    0.000    0.000    0.000    0.000    0.000    0.000 
#
# Total GULP energy -133910.652637 kJ/mol
# GULP energy per Si atom -5579.610527 kJ/mol
# Density = 2.531927 g / cm^3
# Si number density = 25.377029 Si / 1000 Ang^3
#
#
#
# Elastic Constant Matrix: (Units=GPa)
#
#
# Indices 1 2 3 4 5 6 
#
# 1 90.7359 12.1896 29.5005 0.0000 -25.8406 0.0000
# 2 12.1896 60.1203 26.0728 0.0000 -5.4783 0.0000
# 3 29.5005 26.0728 186.7340 0.0000 -25.5261 0.0000
# 4 0.0000 0.0000 0.0000 39.0332 0.0000 -1.8946
# 5 -25.8406 -5.4783 -25.5261 0.0000 41.0040 0.0000
# 6 0.0000 0.0000 0.0000 -1.8946 0.0000 23.1013
#
#
#
# Elastic Compliance Matrix: (Units=1/GPa)
#
#
# Indices 1 2 3 4 5 6 
#
# 1 0.013786 -0.001701 -0.000857 0.000000 0.007927 0.000000
# 2 -0.001701 0.017946 -0.002247 0.000000 -0.000073 0.000000
# 3 -0.000857 -0.002247 0.006219 0.000000 0.003031 0.000000
# 4 0.000000 0.000000 0.000000 0.025722 0.000000 0.002109
# 5 0.007927 -0.000073 0.003031 0.000000 0.031261 0.000000
# 6 0.000000 0.000000 0.000000 0.002109 0.000000 0.043461
#
#
# Mechanical properties :
#
#
# Convention : Reuss Voigt Hill
#
# Bulk Modulus (GPa) = 35.28521 52.56843 43.92682
# Shear Modulus (GPa) = 31.75616 38.61620 35.18618
#
# Velocity S-wave (km/s) = 3.54131 3.90513 3.72766
# Velocity P-wave (km/s) = 5.53677 6.41041 5.98954
#
# Compressibility (1/GPa) = 0.02834049
#
# Stress axis : x y z
#
# Youngs Moduli (GPa) = 72.53934 55.72262 160.80671
#
# Poissons Ratio (x) = 0.09480 0.13777
# Poissons Ratio (y) = 0.12340 0.36133
# Poissons Ratio (z) = 0.06215 0.12521
#
# Static dielectric constant tensor:
#      x y z
#    x 2.098510 0.000000 0.029040 
#    y 0.000000 2.129500 0.000000 
#    z 0.029040 0.000000 2.041690 
# 
# From -- ./inp_files/10021.got.cif
#   From: 2010.05.17/outbox.cif.g08.bks.cpg/sg14_6_cif.got.tgz:10021.got - 2010.06.03 17:49:19.
