data_PCOD9246903
_publ_section_title
;
Structure prediction by ZEFSAII (Michael W. Deem and Ramdas Pophale) SiO2 
 PCOD9246903
Probable space group: P 21/C
;
_chemical_formula_sum "Si O2"
_cell_formula_units_Z 32
_cell_length_a 22.102275
_cell_length_b 7.379749
_cell_length_c 14.968140
_cell_angle_alpha 90.000000
_cell_angle_beta 151.876571
_cell_angle_gamma 90.000000
_cell_volume 1150.828738
_symmetry_space_group_name_H-M "P 21/C"
_symmetry_group_IT_number 14
_symmetry_cell_setting 'monoclinic'
loop_
_space_group_symop_operation_xyz
x,y,z
-x,1/2+y,1/2-z
-x,-y,-z
x,1/2-y,1/2+z
loop_
_atom_site_type_symbol
_atom_site_label
_atom_site_fract_x
_atom_site_fract_y
_atom_site_fract_z
Si Si1 0.455255 0.663167 0.105608
Si Si2 0.166732 0.603247 0.701803
Si Si3 0.834921 0.593514 0.540050
Si Si4 0.373932 0.152974 0.803082
Si Si5 0.852737 0.448440 0.912251
Si Si6 0.798205 0.776613 0.190646
Si Si7 0.495218 0.268690 0.141676
Si Si8 0.931244 0.228736 0.245628
O O1 0.536906 0.825469 0.168105
O O2 0.532084 0.479046 0.184954
O O3 0.430377 0.681336 0.178819
O O4 0.317364 0.639902 0.880924
O O5 0.136295 0.390325 0.670352
O O6 0.134238 0.674471 0.757634
O O7 0.106023 0.742189 0.551932
O O8 0.727371 0.678479 0.335450
O O9 0.823361 0.700259 0.619060
O O10 0.829023 0.380456 0.552906
O O11 0.974869 0.634611 0.682000
O O12 0.271778 0.991330 0.688354
O O13 0.470112 0.182317 0.012052
O O14 0.818187 0.537587 0.770733
O O15 0.971705 0.570292 0.096659
O O16 0.648673 0.732851 0.005138
#
# Coordination Sequence:
#
# PCOD9246903 Si02
#       8
#     4   4   4   4   4   4   4   4
#     4  11  24  42  69 101 139 178 232 284 339 417
#     4  11  24  41  66 104 136 181 231 277 346 419
#     4  11  22  43  69  95 140 180 225 293 339 410
#     4  10  23  44  72  99 136 185 232 278 353 408
#     4  10  23  45  69  99 136 181 228 290 345 412
#     4  10  21  42  69  97 138 179 223 284 349 404
#     4  10  23  42  68 101 136 180 229 284 347 411
#     4  11  24  43  66 100 136 178 236 281 350 408
#
# _framework density 27.806048000000001
#
# number of rings (size 3 to 8) (size 9 to 14) (size 15 to 20)
#    0.000    1.500    2.500    1.500    5.250    1.000 
#    9.000    0.000    0.000    0.000    0.000    0.000 
#    0.000    0.000    0.000    0.000    0.000    0.000 
#
# Total GULP energy -179355.070858 kJ/mol
# GULP energy per Si atom -5604.845964 kJ/mol
# Density = 2.774276 g / cm^3
# Si number density = 27.806048 Si / 1000 Ang^3
#
#
#
# Elastic Constant Matrix: (Units=GPa)
#
#
# Indices 1 2 3 4 5 6 
#
# 1 156.7011 34.6843 16.0238 0.0000 1.2599 0.0000
# 2 34.6843 97.2876 21.1478 0.0000 -8.4042 0.0000
# 3 16.0238 21.1478 78.7840 0.0000 -5.8272 0.0000
# 4 0.0000 0.0000 0.0000 42.7801 0.0000 -10.5361
# 5 1.2599 -8.4042 -5.8272 0.0000 47.3545 0.0000
# 6 0.0000 0.0000 0.0000 -10.5361 0.0000 49.2947
#
#
#
# Elastic Compliance Matrix: (Units=1/GPa)
#
#
# Indices 1 2 3 4 5 6 
#
# 1 0.006999 -0.002374 -0.000839 0.000000 -0.000711 0.000000
# 2 -0.002374 0.011841 -0.002559 0.000000 0.001850 0.000000
# 3 -0.000839 -0.002559 0.013643 0.000000 0.001247 0.000000
# 4 0.000000 0.000000 0.000000 0.024674 0.000000 0.005274
# 5 -0.000711 0.001850 0.001247 0.000000 0.021618 0.000000
# 6 0.000000 0.000000 0.000000 0.005274 0.000000 0.021413
#
#
# Mechanical properties :
#
#
# Convention : Reuss Voigt Hill
#
# Bulk Modulus (GPa) = 47.75773 52.94272 50.35022
# Shear Modulus (GPa) = 42.11910 45.28030 43.69970
#
# Velocity S-wave (km/s) = 3.89620 4.03976 3.96863
# Velocity P-wave (km/s) = 6.11989 6.39069 6.25675
#
# Compressibility (1/GPa) = 0.02093902
#
# Stress axis : x y z
#
# Youngs Moduli (GPa) = 142.88666 84.45067 73.29974
#
# Poissons Ratio (x) = 0.20050 0.06148
# Poissons Ratio (y) = 0.33924 0.18756
# Poissons Ratio (z) = 0.11984 0.21609
#
# Static dielectric constant tensor:
#      x y z
#    x 2.127370 0.000000 -0.009810 
#    y 0.000000 2.213820 0.000000 
#    z -0.009810 0.000000 2.181750 
# 
# From -- ./inp_files/51387.got.cif
#   From: 2010.05.17/outbox.cif.g08.bks.cpg/sg14_26_cif.got.tgz:51387.got - 2010.06.03 17:49:19.
