data_PCOD9246498
_publ_section_title
;
Structure prediction by ZEFSAII (Michael W. Deem and Ramdas Pophale) SiO2 
 PCOD9246498
Probable space group: P 21/C
;
_chemical_formula_sum "Si O2"
_cell_formula_units_Z 32
_cell_length_a 15.736151
_cell_length_b 13.800281
_cell_length_c 22.560416
_cell_angle_alpha 90.000000
_cell_angle_beta 162.257616
_cell_angle_gamma 90.000000
_cell_volume 1492.999741
_symmetry_space_group_name_H-M "P 21/C"
_symmetry_group_IT_number 14
_symmetry_cell_setting 'monoclinic'
loop_
_space_group_symop_operation_xyz
x,y,z
-x,1/2+y,1/2-z
-x,-y,-z
x,1/2-y,1/2+z
loop_
_atom_site_type_symbol
_atom_site_label
_atom_site_fract_x
_atom_site_fract_y
_atom_site_fract_z
Si Si1 0.404544 0.372160 0.071302
Si Si2 0.625088 0.818576 0.585713
Si Si3 0.969331 0.138556 0.650963
Si Si4 0.130317 0.799452 0.720098
Si Si5 0.387486 0.413558 0.801780
Si Si6 0.860735 0.577520 0.863648
Si Si7 0.037515 0.779566 0.038609
Si Si8 0.558281 0.959238 0.973300
O O1 0.372489 0.355442 0.979787
O O2 0.528722 0.478803 0.160401
O O3 0.631177 0.296980 0.248124
O O4 0.107218 0.357172 0.903983
O O5 0.866203 0.738109 0.751100
O O6 0.331659 0.760872 0.396808
O O7 0.649137 0.898490 0.652234
O O8 0.000889 0.080192 0.609978
O O9 0.650979 0.150790 0.456230
O O10 0.132128 0.083529 0.813232
O O11 0.994955 0.730874 0.580825
O O12 0.339462 0.870734 0.823178
O O13 0.119032 0.371593 0.591456
O O14 0.542670 0.540851 0.639741
O O15 0.000000 0.500000 0.000000
O O16 0.912317 0.683455 0.925052
O O17 0.500000 0.000000 0.000000
#
# Coordination Sequence:
#
# PCOD9246498 Si02
#       8
#     4   4   4   4   4   4   4   4
#     4  11  24  43  66  87 132 174 212 258 323 388
#     4  10  22  43  67  93 126 165 216 276 320 372
#     4  10  22  40  65  96 126 168 211 270 321 381
#     4  10  21  41  64  92 123 166 208 261 323 377
#     4  12  24  43  65  94 129 174 220 257 322 386
#     4  11  20  38  63  93 130 160 209 267 325 367
#     4  11  25  40  62  92 132 168 207 264 314 384
#     4   9  18  35  62  91 125 155 199 264 323 362
#
# _framework density 21.433357999999998
#
# number of rings (size 3 to 8) (size 9 to 14) (size 15 to 20)
#    0.000    1.500    2.500    3.000    1.750    0.000 
#    2.250    0.000    2.750    0.000    0.000    0.000 
#    0.000    0.000    0.000    0.000    0.000    0.000 
#
# Total GULP energy -178719.430268 kJ/mol
# GULP energy per Si atom -5584.982196 kJ/mol
# Density = 2.138457 g / cm^3
# Si number density = 21.433358 Si / 1000 Ang^3
#
#
#
# Elastic Constant Matrix: (Units=GPa)
#
#
# Indices 1 2 3 4 5 6 
#
# 1 44.5045 7.6011 33.3656 0.0000 -1.6051 0.0000
# 2 7.6011 76.8596 11.6406 0.0000 -6.6045 0.0000
# 3 33.3656 11.6406 81.1611 0.0000 -3.7524 0.0000
# 4 0.0000 0.0000 0.0000 25.0090 0.0000 -13.2550
# 5 -1.6051 -6.6045 -3.7524 0.0000 24.6326 0.0000
# 6 0.0000 0.0000 0.0000 -13.2550 0.0000 29.1302
#
#
#
# Elastic Compliance Matrix: (Units=1/GPa)
#
#
# Indices 1 2 3 4 5 6 
#
# 1 0.032593 -0.001239 -0.013232 0.000000 -0.000224 0.000000
# 2 -0.001239 0.013618 -0.001288 0.000000 0.003374 0.000000
# 3 -0.013232 -0.001288 0.018017 0.000000 0.001537 0.000000
# 4 0.000000 0.000000 0.000000 0.052693 0.000000 0.023977
# 5 -0.000224 0.003374 0.001537 0.000000 0.041721 0.000000
# 6 0.000000 0.000000 0.000000 0.023977 0.000000 0.045239
#
#
# Mechanical properties :
#
#
# Convention : Reuss Voigt Hill
#
# Bulk Modulus (GPa) = 30.57058 34.19331 32.38194
# Shear Modulus (GPa) = 20.30028 25.74890 23.02459
#
# Velocity S-wave (km/s) = 3.08089 3.46981 3.28112
# Velocity P-wave (km/s) = 5.19133 5.66045 5.43096
#
# Compressibility (1/GPa) = 0.03271119
#
# Stress axis : x y z
#
# Youngs Moduli (GPa) = 30.68117 73.43087 55.50422
#
# Poissons Ratio (x) = 0.09095 0.73443
# Poissons Ratio (y) = 0.03800 0.07149
# Poissons Ratio (z) = 0.40597 0.09458
#
# Static dielectric constant tensor:
#      x y z
#    x 1.757190 0.000000 -0.019530 
#    y 0.000000 1.849220 0.000000 
#    z -0.019530 0.000000 1.792120 
# 
# From -- ./inp_files/68718.got.cif
#   From: 2010.05.17/outbox.cif.g08.bks.cpg/sg14_35_cif.got.tgz:68718.got - 2010.06.03 17:49:19.
