data_PCOD9246803
_publ_section_title
;
Structure prediction by ZEFSAII (Michael W. Deem and Ramdas Pophale) SiO2 
 PCOD9246803
Probable space group: P 21/C
;
_chemical_formula_sum "Si O2"
_cell_formula_units_Z 28
_cell_length_a 15.158691
_cell_length_b 9.240380
_cell_length_c 10.165244
_cell_angle_alpha 90.000000
_cell_angle_beta 67.695763
_cell_angle_gamma 90.000000
_cell_volume 1317.335369
_symmetry_space_group_name_H-M "P 21/C"
_symmetry_group_IT_number 14
_symmetry_cell_setting 'monoclinic'
loop_
_space_group_symop_operation_xyz
x,y,z
-x,1/2+y,1/2-z
-x,-y,-z
x,1/2-y,1/2+z
loop_
_atom_site_type_symbol
_atom_site_label
_atom_site_fract_x
_atom_site_fract_y
_atom_site_fract_z
Si Si1 0.404536 0.912986 0.013007
Si Si2 0.098440 0.073722 0.985257
Si Si3 0.450249 0.745403 0.731889
Si Si4 0.216019 0.427071 0.167808
Si Si5 0.786920 0.579819 0.326017
Si Si6 0.095798 0.077516 0.490083
Si Si7 0.421224 0.472723 0.933096
O O1 0.401081 0.780591 0.119167
O O2 0.313598 0.010828 0.085864
O O3 0.407753 0.856362 0.862272
O O4 0.500000 0.000000 0.000000
O O5 0.180644 0.032716 0.833137
O O6 0.085033 0.248128 0.990526
O O7 0.135479 0.033998 0.109019
O O8 0.000000 0.000000 0.000000
O O9 0.441449 0.592560 0.810886
O O10 0.554326 0.813690 0.641121
O O11 0.222168 0.252732 0.162563
O O12 0.132742 0.467379 0.112283
O O13 0.316821 0.480416 0.055086
O O14 0.822708 0.538923 0.161446
O O15 0.000000 0.000000 0.500000
O O16 0.500000 0.500000 0.000000
#
# Coordination Sequence:
#
# PCOD9246803 Si02
#       7
#     4   4   4   4   4   4   4
#     4  12  25  44  67  99 139 176 228 278 332 398
#     4  10  22  43  68  97 126 171 222 276 335 397
#     4  12  26  43  67  95 139 179 227 274 336 390
#     4  10  23  41  68  95 130 178 224 261 337 410
#     4  10  23  42  69  92 133 181 217 264 340 409
#     4  10  21  42  65  94 128 169 216 273 335 400
#     4  12  26  43  66  99 138 176 227 277 329 402
#
# _framework density 21.255027999999999
#
# number of rings (size 3 to 8) (size 9 to 14) (size 15 to 20)
#    0.000    1.143    2.857    2.571    2.000    1.143 
#    7.714    0.000    0.000    0.000    0.000    0.000 
#    0.000    0.000    0.000    0.000    0.000    0.000 
#
# Total GULP energy -156504.042161 kJ/mol
# GULP energy per Si atom -5589.430077 kJ/mol
# Density = 2.120665 g / cm^3
# Si number density = 21.255028 Si / 1000 Ang^3
#
#
#
# Elastic Constant Matrix: (Units=GPa)
#
#
# Indices 1 2 3 4 5 6 
#
# 1 56.6040 7.7575 -9.9987 0.0000 -12.2743 0.0000
# 2 7.7575 26.2694 7.0437 0.0000 -7.4848 0.0000
# 3 -9.9987 7.0437 69.7612 0.0000 2.3081 0.0000
# 4 0.0000 0.0000 0.0000 38.7567 0.0000 -4.3098
# 5 -12.2743 -7.4848 2.3081 0.0000 34.0456 0.0000
# 6 0.0000 0.0000 0.0000 -4.3098 0.0000 37.6369
#
#
#
# Elastic Compliance Matrix: (Units=1/GPa)
#
#
# Indices 1 2 3 4 5 6 
#
# 1 0.020230 -0.005144 0.003222 0.000000 0.005944 0.000000
# 2 -0.005144 0.043317 -0.005377 0.000000 0.008033 0.000000
# 3 0.003222 -0.005377 0.015374 0.000000 -0.001063 0.000000
# 4 0.000000 0.000000 0.000000 0.026135 0.000000 0.002993
# 5 0.005944 0.008033 -0.001063 0.000000 0.033353 0.000000
# 6 0.000000 0.000000 0.000000 0.002993 0.000000 0.026912
#
#
# Mechanical properties :
#
#
# Convention : Reuss Voigt Hill
#
# Bulk Modulus (GPa) = 15.54650 18.02662 16.78656
# Shear Modulus (GPa) = 24.83113 31.94330 28.38722
#
# Velocity S-wave (km/s) = 3.42167 3.88088 3.65849
# Velocity P-wave (km/s) = 4.78963 5.34613 5.07552
#
# Compressibility (1/GPa) = 0.06432314
#
# Stress axis : x y z
#
# Youngs Moduli (GPa) = 49.43220 23.08581 65.04282
#
# Poissons Ratio (x) = 0.11876 -0.20958
# Poissons Ratio (y) = 0.25430 0.34972
# Poissons Ratio (z) = -0.15928 0.12413
#
# Static dielectric constant tensor:
#      x y z
#    x 1.745300 0.000000 0.039530 
#    y 0.000000 1.793100 0.000000 
#    z 0.039530 0.000000 1.795240 
# 
# From -- ./inp_files/31462.got.cif
#   From: 2010.05.17/outbox.cif.g08.bks.cpg/sg14_16_cif.got.tgz:31462.got - 2010.06.03 17:49:19.
