data_PCOD9246782
_publ_section_title
;
Structure prediction by ZEFSAII (Michael W. Deem and Ramdas Pophale) SiO2 
 PCOD9246782
Probable space group: P 21/C
;
_chemical_formula_sum "Si O2"
_cell_formula_units_Z 28
_cell_length_a 12.444500
_cell_length_b 6.924793
_cell_length_c 17.075598
_cell_angle_alpha 90.000000
_cell_angle_beta 110.924718
_cell_angle_gamma 90.000000
_cell_volume 1374.454985
_symmetry_space_group_name_H-M "P 21/C"
_symmetry_group_IT_number 14
_symmetry_cell_setting 'monoclinic'
loop_
_space_group_symop_operation_xyz
x,y,z
-x,1/2+y,1/2-z
-x,-y,-z
x,1/2-y,1/2+z
loop_
_atom_site_type_symbol
_atom_site_label
_atom_site_fract_x
_atom_site_fract_y
_atom_site_fract_z
Si Si1 0.835574 0.237348 0.674366
Si Si2 0.876917 0.019989 0.928449
Si Si3 0.518201 0.479362 0.412312
Si Si4 0.312225 0.194896 0.592266
Si Si5 0.900697 0.865934 0.761797
Si Si6 0.270519 0.705205 0.019908
Si Si7 0.284942 0.462536 0.259192
O O1 0.775301 0.281230 0.575792
O O2 0.759991 0.328246 0.724515
O O3 0.965727 0.316329 0.713539
O O4 0.851159 0.008255 0.683982
O O5 0.790993 0.850850 0.935387
O O6 0.889633 0.984214 0.839901
O O7 0.822571 0.223017 0.940606
O O8 0.000000 0.000000 0.000000
O O9 0.500000 0.500000 0.500000
O O10 0.574170 0.678002 0.393948
O O11 0.611838 0.311147 0.426522
O O12 0.400551 0.428488 0.338432
O O13 0.312496 0.086487 0.676307
O O14 0.290268 0.023146 0.525679
O O15 0.819771 0.679851 0.745518
#
# Coordination Sequence:
#
# PCOD9246782 Si02
#       7
#     4   4   4   4   4   4   4
#     4  12  23  39  68  98 132 172 213 273 332 392
#     4  10  21  42  64  93 134 172 213 271 326 387
#     4  11  25  45  68  96 134 173 223 283 324 381
#     4  10  26  43  67  97 127 179 224 263 338 394
#     4  11  24  40  65  97 131 174 217 266 334 399
#     4  11  24  42  66  97 132 173 222 273 326 397
#     4  11  25  47  64  96 136 174 218 275 334 397
#
# _framework density 20.371711000000001
#
# number of rings (size 3 to 8) (size 9 to 14) (size 15 to 20)
#    0.000    1.143    4.286    0.857    4.000    3.429 
#    0.000    0.000    0.000    0.000    0.000    0.000 
#    0.000    0.000    0.000    0.000    0.000    0.000 
#
# Total GULP energy -156417.620753 kJ/mol
# GULP energy per Si atom -5586.343598 kJ/mol
# Density = 2.032534 g / cm^3
# Si number density = 20.371711 Si / 1000 Ang^3
#
#
#
# Elastic Constant Matrix: (Units=GPa)
#
#
# Indices 1 2 3 4 5 6 
#
# 1 74.9255 -3.1594 38.9687 0.0000 8.7988 0.0000
# 2 -3.1594 45.1421 20.9299 0.0000 -5.8252 0.0000
# 3 38.9687 20.9299 103.7620 0.0000 26.0940 0.0000
# 4 0.0000 0.0000 0.0000 27.4287 0.0000 -3.3518
# 5 8.7988 -5.8252 26.0940 0.0000 34.3922 0.0000
# 6 0.0000 0.0000 0.0000 -3.3518 0.0000 20.7120
#
#
#
# Elastic Compliance Matrix: (Units=1/GPa)
#
#
# Indices 1 2 3 4 5 6 
#
# 1 0.017642 0.005519 -0.008451 0.000000 0.002833 0.000000
# 2 0.005519 0.029122 -0.010915 0.000000 0.011802 0.000000
# 3 -0.008451 -0.010915 0.018456 0.000000 -0.013689 0.000000
# 4 0.000000 0.000000 0.000000 0.037194 0.000000 0.006019
# 5 0.002833 0.011802 -0.013689 0.000000 0.040737 0.000000
# 6 0.000000 0.000000 0.000000 0.006019 0.000000 0.049255
#
#
# Mechanical properties :
#
#
# Convention : Reuss Voigt Hill
#
# Bulk Modulus (GPa) = 26.64893 37.47867 32.06380
# Shear Modulus (GPa) = 21.49535 27.64592 24.57063
#
# Velocity S-wave (km/s) = 3.25184 3.68784 3.47668
# Velocity P-wave (km/s) = 5.21623 6.04739 5.64712
#
# Compressibility (1/GPa) = 0.03752497
#
# Stress axis : x y z
#
# Youngs Moduli (GPa) = 56.68250 34.33829 54.18414
#
# Poissons Ratio (x) = -0.18951 0.45793
# Poissons Ratio (y) = -0.31282 0.59141
# Poissons Ratio (z) = 0.47905 0.37479
#
# Static dielectric constant tensor:
#      x y z
#    x 1.712520 0.000000 -0.025740 
#    y 0.000000 1.736320 0.000000 
#    z -0.025740 0.000000 1.705410 
# 
# From -- ./inp_files/66547.got.cif
#   From: 2010.05.17/outbox.cif.g08.bks.cpg/sg14_34_cif.got.tgz:66547.got - 2010.06.03 17:49:19.
