data_PCOD9246933
_publ_section_title
;
Structure prediction by ZEFSAII (Michael W. Deem and Ramdas Pophale) SiO2 
 PCOD9246933
Probable space group: P 21/C
;
_chemical_formula_sum "Si O2"
_cell_formula_units_Z 16
_cell_length_a 20.330197
_cell_length_b 7.961344
_cell_length_c 13.560662
_cell_angle_alpha 90.000000
_cell_angle_beta 161.116094
_cell_angle_gamma 90.000000
_cell_volume 710.373418
_symmetry_space_group_name_H-M "P 21/C"
_symmetry_group_IT_number 14
_symmetry_cell_setting 'monoclinic'
loop_
_space_group_symop_operation_xyz
x,y,z
-x,1/2+y,1/2-z
-x,-y,-z
x,1/2-y,1/2+z
loop_
_atom_site_type_symbol
_atom_site_label
_atom_site_fract_x
_atom_site_fract_y
_atom_site_fract_z
Si Si1 0.578151 0.506723 0.220269
Si Si2 0.269099 0.995141 0.709345
Si Si3 0.640413 0.291340 0.476171
Si Si4 0.925801 0.267834 0.719281
O O1 0.505776 0.365705 0.196037
O O2 0.812234 0.450049 0.549476
O O3 0.500000 0.500000 0.000000
O O4 0.501527 0.675962 0.159761
O O5 0.272999 0.933786 0.828262
O O6 0.159474 0.854236 0.485565
O O7 0.158073 0.175624 0.543119
O O8 0.500000 0.000000 0.000000
O O9 0.831481 0.206146 0.690102
#
# Coordination Sequence:
#
# PCOD9246933 Si02
#       4
#     4   4   4   4
#     4  10  21  42  71 106 144 185 245 294 362 430
#     4  12  25  46  72 104 148 189 241 302 359 433
#     4  10  21  43  68 102 142 191 235 302 351 433
#     4  10  26  43  70 106 142 192 237 293 367 426
#
# _framework density 22.523365999999999
#
# number of rings (size 3 to 8) (size 9 to 14) (size 15 to 20)
#    1.500    0.000    2.500    2.250    3.500    0.000 
#    0.000    1.250    0.000    0.000    0.000    0.000 
#    0.000    0.000    0.000    0.000    0.000    0.000 
#
# Total GULP energy -89144.533435 kJ/mol
# GULP energy per Si atom -5571.533340 kJ/mol
# Density = 2.247210 g / cm^3
# Si number density = 22.523366 Si / 1000 Ang^3
#
#
#
# Elastic Constant Matrix: (Units=GPa)
#
#
# Indices 1 2 3 4 5 6 
#
# 1 154.2148 36.7096 40.5515 0.0000 -30.5998 0.0000
# 2 36.7096 68.2766 34.4733 0.0000 -4.0218 0.0000
# 3 40.5515 34.4733 77.8160 0.0000 11.7430 0.0000
# 4 0.0000 0.0000 0.0000 48.4201 0.0000 1.8918
# 5 -30.5998 -4.0218 11.7430 0.0000 25.1733 0.0000
# 6 0.0000 0.0000 0.0000 1.8918 0.0000 48.7374
#
#
#
# Elastic Compliance Matrix: (Units=1/GPa)
#
#
# Indices 1 2 3 4 5 6 
#
# 1 0.013316 -0.001152 -0.009514 0.000000 0.020441 0.000000
# 2 -0.001152 0.020355 -0.009355 0.000000 0.006216 0.000000
# 3 -0.009514 -0.009355 0.025736 0.000000 -0.025065 0.000000
# 4 0.000000 0.000000 0.000000 0.020684 0.000000 -0.000803
# 5 0.020441 0.006216 -0.025065 0.000000 0.077257 0.000000
# 6 0.000000 0.000000 0.000000 -0.000803 0.000000 0.020549
#
#
# Mechanical properties :
#
#
# Convention : Reuss Voigt Hill
#
# Bulk Modulus (GPa) = 51.63926 58.19736 54.91831
# Shear Modulus (GPa) = 22.28213 37.03770 29.65992
#
# Velocity S-wave (km/s) = 3.14871 4.05953 3.63278
# Velocity P-wave (km/s) = 6.01630 6.91866 6.48320
#
# Compressibility (1/GPa) = 0.01936511
#
# Stress axis : x y z
#
# Youngs Moduli (GPa) = 75.09588 49.12695 38.85666
#
# Poissons Ratio (x) = 0.05660 0.36967
# Poissons Ratio (y) = 0.08651 0.36352
# Poissons Ratio (z) = 0.71444 0.45960
#
# Static dielectric constant tensor:
#      x y z
#    x 1.855430 0.000000 0.013670 
#    y 0.000000 1.871830 0.000000 
#    z 0.013670 0.000000 1.886130 
# 
# From -- ./inp_files/22551.got.cif
#   From: 2010.05.17/outbox.cif.g08.bks.cpg/sg14_12_cif.got.tgz:22551.got - 2010.06.03 17:49:19.
