data_PCOD9246436
_publ_section_title
;
Structure prediction by ZEFSAII (Michael W. Deem and Ramdas Pophale) SiO2 
 PCOD9246436
Probable space group: P 21/C
;
_chemical_formula_sum "Si O2"
_cell_formula_units_Z 26
_cell_length_a 12.849787
_cell_length_b 9.171627
_cell_length_c 8.208692
_cell_angle_alpha 90.000000
_cell_angle_beta 86.805769
_cell_angle_gamma 90.000000
_cell_volume 965.919692
_symmetry_space_group_name_H-M "P 21/C"
_symmetry_group_IT_number 14
_symmetry_cell_setting 'monoclinic'
loop_
_space_group_symop_operation_xyz
x,y,z
-x,1/2+y,1/2-z
-x,-y,-z
x,1/2-y,1/2+z
loop_
_atom_site_type_symbol
_atom_site_label
_atom_site_fract_x
_atom_site_fract_y
_atom_site_fract_z
Si Si1 0.500000 0.500000 0.000000
Si Si2 0.296255 0.423821 0.871135
Si Si3 0.778858 0.649031 0.769996
Si Si4 0.021477 0.963447 0.768401
Si Si5 0.898750 0.311968 0.430056
Si Si6 0.324497 0.910226 0.910045
Si Si7 0.408929 0.829659 0.225005
O O1 0.417843 0.395509 0.904251
O O2 0.505977 0.380235 0.153022
O O3 0.242210 0.406288 0.047869
O O4 0.244198 0.317558 0.747772
O O5 0.307232 0.587259 0.808259
O O6 0.893003 0.591277 0.724137
O O7 0.707405 0.569768 0.641346
O O8 0.062556 0.848524 0.629025
O O9 0.027973 0.862399 0.927297
O O10 0.918244 0.063223 0.788642
O O11 0.781634 0.333309 0.512425
O O12 0.409687 0.886110 0.042247
O O13 0.373724 0.837882 0.741916
#
# Coordination Sequence:
#
# PCOD9246436 Si02
#       7
#     2   4   4   4   4   4   4
#     4   8  24  42  62  90 126 160 214 266 320 384
#     4  10  22  43  60  88 127 160 214 260 317 381
#     4  11  23  40  66  92 124 170 210 261 323 379
#     4  10  23  40  63  96 128 170 213 261 317 380
#     4  10  22  40  60  94 132 162 217 259 315 381
#     4  11  21  39  66  92 124 170 207 261 320 383
#     4  10  21  41  62  89 124 162 212 259 321 378
#
# _framework density 26.917351
#
# number of rings (size 3 to 8) (size 9 to 14) (size 15 to 20)
#    0.923    0.923    0.000    4.615    0.000    6.769 
#    0.000    1.538    0.000    0.000    0.000    0.000 
#    0.000    0.000    0.000    0.000    0.000    0.000 
#
# Total GULP energy -144768.994675 kJ/mol
# GULP energy per Si atom -5568.038257 kJ/mol
# Density = 2.685609 g / cm^3
# Si number density = 26.917351 Si / 1000 Ang^3
#
#
#
# Elastic Constant Matrix: (Units=GPa)
#
#
# Indices 1 2 3 4 5 6 
#
# 1 90.2965 34.5477 -0.8317 0.0000 -16.9556 0.0000
# 2 34.5477 83.3946 -32.4944 0.0000 -6.4624 0.0000
# 3 -0.8317 -32.4944 45.7432 0.0000 -7.5842 0.0000
# 4 0.0000 0.0000 0.0000 51.7681 0.0000 -0.8317
# 5 -16.9556 -6.4624 -7.5842 0.0000 42.7491 0.0000
# 6 0.0000 0.0000 0.0000 -0.8317 0.0000 33.6679
#
#
#
# Elastic Compliance Matrix: (Units=1/GPa)
#
#
# Indices 1 2 3 4 5 6 
#
# 1 0.014622 -0.007468 -0.004394 0.000000 0.003891 0.000000
# 2 -0.007468 0.021381 0.015555 0.000000 0.003030 0.000000
# 3 -0.004394 0.015555 0.033930 0.000000 0.006628 0.000000
# 4 0.000000 0.000000 0.000000 0.019325 0.000000 0.000477
# 5 0.003891 0.003030 0.006628 0.000000 0.026570 0.000000
# 6 0.000000 0.000000 0.000000 0.000477 0.000000 0.029714
#
#
# Mechanical properties :
#
#
# Convention : Reuss Voigt Hill
#
# Bulk Modulus (GPa) = 12.93378 24.65306 18.79342
# Shear Modulus (GPa) = 30.50123 40.18452 35.34288
#
# Velocity S-wave (km/s) = 3.36987 3.86798 3.62749
# Velocity P-wave (km/s) = 4.46730 5.39695 4.95398
#
# Compressibility (1/GPa) = 0.07731692
#
# Stress axis : x y z
#
# Youngs Moduli (GPa) = 68.38947 46.77154 29.47274
#
# Poissons Ratio (x) = 0.34930 0.12951
# Poissons Ratio (y) = 0.51074 -0.45843
# Poissons Ratio (z) = 0.30051 -0.72751
#
# Static dielectric constant tensor:
#      x y z
#    x 2.181730 0.000000 -0.030340 
#    y 0.000000 2.069080 0.000000 
#    z -0.030340 0.000000 2.135320 
# 
# From -- ./inp_files/17568.got.cif
#   From: 2010.05.17/outbox.cif.g08.bks.cpg/sg14_9_cif.got.tgz:17568.got - 2010.06.03 17:49:19.
