data_PCOD9246430
_publ_section_title
;
Structure prediction by ZEFSAII (Michael W. Deem and Ramdas Pophale) SiO2 
 PCOD9246430
Probable space group: P 21/C
;
_chemical_formula_sum "Si O2"
_cell_formula_units_Z 28
_cell_length_a 9.136767
_cell_length_b 17.682368
_cell_length_c 14.217250
_cell_angle_alpha 90.000000
_cell_angle_beta 31.762984
_cell_angle_gamma 90.000000
_cell_volume 1209.121407
_symmetry_space_group_name_H-M "P 21/C"
_symmetry_group_IT_number 14
_symmetry_cell_setting 'monoclinic'
loop_
_space_group_symop_operation_xyz
x,y,z
-x,1/2+y,1/2-z
-x,-y,-z
x,1/2-y,1/2+z
loop_
_atom_site_type_symbol
_atom_site_label
_atom_site_fract_x
_atom_site_fract_y
_atom_site_fract_z
Si Si1 0.054952 0.929191 0.899077
Si Si2 0.604703 0.164606 0.967280
Si Si3 0.354642 0.148783 0.405237
Si Si4 0.856008 0.769708 0.289222
Si Si5 0.229163 0.599942 0.827258
Si Si6 0.366587 0.988662 0.971264
Si Si7 0.636695 0.806960 0.207964
O O1 0.367673 0.899821 0.731904
O O2 0.861658 0.856955 0.027608
O O3 0.922404 0.966677 0.878426
O O4 0.000000 0.000000 0.000000
O O5 0.680398 0.140662 0.820149
O O6 0.813683 0.231895 0.879768
O O7 0.288282 0.188711 0.136788
O O8 0.669907 0.100887 0.008993
O O9 0.262017 0.184154 0.556691
O O10 0.388638 0.222314 0.319436
O O11 0.100463 0.099670 0.502024
O O12 0.752723 0.807439 0.249545
O O13 0.411424 0.523724 0.722348
O O14 0.345497 0.650681 0.848194
O O15 0.500000 0.000000 0.000000
#
# Coordination Sequence:
#
# PCOD9246430 Si02
#       7
#     4   4   4   4   4   4   4
#     4  11  25  45  70  98 139 182 229 286 353 404
#     4  10  21  41  61  99 130 172 224 279 339 409
#     4  11  24  44  69 102 139 181 233 290 337 415
#     4  11  25  38  68  99 134 174 229 276 342 410
#     4   9  20  41  66  95 131 175 225 275 341 403
#     4   9  20  41  66  89 132 176 217 275 343 403
#     4  11  23  42  67 101 137 182 227 286 343 415
#
# _framework density 23.157312000000001
#
# number of rings (size 3 to 8) (size 9 to 14) (size 15 to 20)
#    0.000    1.714    1.429    1.714    8.000    0.000 
#    0.000   18.571    0.000    0.000    0.000    0.000 
#    0.000    0.000    0.000    0.000    0.000    0.000 
#
# Total GULP energy -156437.025805 kJ/mol
# GULP energy per Si atom -5587.036636 kJ/mol
# Density = 2.310460 g / cm^3
# Si number density = 23.157312 Si / 1000 Ang^3
#
#
#
# Elastic Constant Matrix: (Units=GPa)
#
#
# Indices 1 2 3 4 5 6 
#
# 1 102.8129 -1.2627 10.8419 0.0000 -12.1356 0.0000
# 2 -1.2627 53.1352 23.3045 0.0000 -12.1127 0.0000
# 3 10.8419 23.3045 48.7211 0.0000 -34.9971 0.0000
# 4 0.0000 0.0000 0.0000 33.2951 0.0000 -7.5036
# 5 -12.1356 -12.1127 -34.9971 0.0000 46.3895 0.0000
# 6 0.0000 0.0000 0.0000 -7.5036 0.0000 47.1853
#
#
#
# Elastic Compliance Matrix: (Units=1/GPa)
#
#
# Indices 1 2 3 4 5 6 
#
# 1 0.010124 0.001359 -0.001628 0.000000 0.001775 0.000000
# 2 0.001359 0.024584 -0.015707 0.000000 -0.005075 0.000000
# 3 -0.001628 -0.015707 0.054899 0.000000 0.036889 0.000000
# 4 0.000000 0.000000 0.000000 0.031151 0.000000 0.004954
# 5 0.001775 -0.005075 0.036889 0.000000 0.048526 0.000000
# 6 0.000000 0.000000 0.000000 0.004954 0.000000 0.021981
#
#
# Mechanical properties :
#
#
# Convention : Reuss Voigt Hill
#
# Bulk Modulus (GPa) = 17.34441 30.04854 23.69648
# Shear Modulus (GPa) = 20.62405 36.82635 28.72520
#
# Velocity S-wave (km/s) = 2.98754 3.99214 3.52581
# Velocity P-wave (km/s) = 4.40529 5.85266 5.17978
#
# Compressibility (1/GPa) = 0.05765545
#
# Stress axis : x y z
#
# Youngs Moduli (GPa) = 98.77211 40.67631 18.21537
#
# Poissons Ratio (x) = -0.05529 0.02965
# Poissons Ratio (y) = -0.13426 0.28612
# Poissons Ratio (z) = 0.16079 0.63892
#
# Static dielectric constant tensor:
#      x y z
#    x 1.913040 0.000000 0.027480 
#    y 0.000000 1.964390 0.000000 
#    z 0.027480 0.000000 1.879800 
# 
# From -- ./inp_files/42093.got.cif
#   From: 2010.05.17/outbox.cif.g08.bks.cpg/sg14_22_cif.got.tgz:42093.got - 2010.06.03 17:49:19.
