data_PCOD9246906
_publ_section_title
;
Structure prediction by ZEFSAII (Michael W. Deem and Ramdas Pophale) SiO2 
 PCOD9246906
Probable space group: P 21/C
;
_chemical_formula_sum "Si O2"
_cell_formula_units_Z 20
_cell_length_a 5.290894
_cell_length_b 19.854586
_cell_length_c 8.739096
_cell_angle_alpha 90.000000
_cell_angle_beta 55.117846
_cell_angle_gamma 90.000000
_cell_volume 753.086780
_symmetry_space_group_name_H-M "P 21/C"
_symmetry_group_IT_number 14
_symmetry_cell_setting 'monoclinic'
loop_
_space_group_symop_operation_xyz
x,y,z
-x,1/2+y,1/2-z
-x,-y,-z
x,1/2-y,1/2+z
loop_
_atom_site_type_symbol
_atom_site_label
_atom_site_fract_x
_atom_site_fract_y
_atom_site_fract_z
Si Si1 0.300782 0.218836 0.773065
Si Si2 0.744262 0.635039 0.315562
Si Si3 0.133454 0.622295 0.674847
Si Si4 0.596186 0.830779 0.555219
Si Si5 0.134536 0.988989 0.624722
O O1 0.013794 0.170218 0.905600
O O2 0.175379 0.286142 0.727736
O O3 0.511288 0.175749 0.583271
O O4 0.462930 0.256974 0.854003
O O5 0.497428 0.622369 0.533607
O O6 0.025073 0.583955 0.219571
O O7 0.563604 0.622746 0.215369
O O8 0.956641 0.654099 0.882940
O O9 0.014617 0.546213 0.716643
O O10 0.500000 0.000000 0.500000
O O11 0.000000 0.000000 0.500000
#
# Coordination Sequence:
#
# PCOD9246906 Si02
#       5
#     4   4   4   4   4
#     4   8  18  38  60 102 134 184 222 292 350 410
#     4  10  21  42  69  98 141 187 236 290 356 423
#     4  10  21  42  69  98 141 187 236 290 356 423
#     4   8  18  39  60  99 146 172 232 294 338 427
#     4  12  25  50  71 101 145 186 239 298 360 422
#
# _framework density 26.557359999999999
#
# number of rings (size 3 to 8) (size 9 to 14) (size 15 to 20)
#    2.400    0.000    2.000    0.600    0.000    3.200 
#    7.200    2.000    0.000    0.000    0.000    0.000 
#    0.000    0.000    0.000    0.000    0.000    0.000 
#
# Total GULP energy -111369.543008 kJ/mol
# GULP energy per Si atom -5568.477150 kJ/mol
# Density = 2.649691 g / cm^3
# Si number density = 26.557360 Si / 1000 Ang^3
#
#
#
# Elastic Constant Matrix: (Units=GPa)
#
#
# Indices 1 2 3 4 5 6 
#
# 1 108.4163 12.7126 11.5021 0.0000 -15.6315 0.0000
# 2 12.7126 115.6020 5.8417 0.0000 -27.1675 0.0000
# 3 11.5021 5.8417 94.6663 0.0000 -28.1907 0.0000
# 4 0.0000 0.0000 0.0000 39.0911 0.0000 4.1504
# 5 -15.6315 -27.1675 -28.1907 0.0000 41.8143 0.0000
# 6 0.0000 0.0000 0.0000 4.1504 0.0000 13.5883
#
#
#
# Elastic Compliance Matrix: (Units=1/GPa)
#
#
# Indices 1 2 3 4 5 6 
#
# 1 0.009758 -0.000276 -0.000170 0.000000 0.003354 0.000000
# 2 -0.000276 0.010436 0.001724 0.000000 0.007840 0.000000
# 3 -0.000170 0.001724 0.013503 0.000000 0.010161 0.000000
# 4 0.000000 0.000000 0.000000 0.026439 0.000000 -0.008075
# 5 0.003354 0.007840 0.010161 0.000000 0.037113 0.000000
# 6 0.000000 0.000000 0.000000 -0.008075 0.000000 0.076059
#
#
# Mechanical properties :
#
#
# Convention : Reuss Voigt Hill
#
# Bulk Modulus (GPa) = 27.58389 42.08860 34.83624
# Shear Modulus (GPa) = 27.34693 38.14062 32.74377
#
# Velocity S-wave (km/s) = 3.21242 3.79378 3.51514
# Velocity P-wave (km/s) = 4.91616 5.92224 5.44250
#
# Compressibility (1/GPa) = 0.03625304
#
# Stress axis : x y z
#
# Youngs Moduli (GPa) = 102.48358 95.82226 74.05557
#
# Poissons Ratio (x) = 0.02648 0.01258
# Poissons Ratio (y) = 0.02832 -0.12768
# Poissons Ratio (z) = 0.01740 -0.16521
#
# Static dielectric constant tensor:
#      x y z
#    x 2.303980 0.000000 0.048600 
#    y 0.000000 2.127430 0.000000 
#    z 0.048600 0.000000 2.053370 
# 
# From -- ./inp_files/6471.got.cif
#   From: 2010.05.17/outbox.cif.g08.bks.cpg/sg14_4_cif.got.tgz:6471.got - 2010.06.03 17:49:19.
