data_PCOD9246298
_publ_section_title
;
Structure prediction by ZEFSAII (Michael W. Deem and Ramdas Pophale) SiO2 
 PCOD9246298
Probable space group: P 21/C
;
_chemical_formula_sum "Si O2"
_cell_formula_units_Z 20
_cell_length_a 16.100694
_cell_length_b 6.561071
_cell_length_c 14.237284
_cell_angle_alpha 90.000000
_cell_angle_beta 151.527810
_cell_angle_gamma 90.000000
_cell_volume 717.002913
_symmetry_space_group_name_H-M "P 21/C"
_symmetry_group_IT_number 14
_symmetry_cell_setting 'monoclinic'
loop_
_space_group_symop_operation_xyz
x,y,z
-x,1/2+y,1/2-z
-x,-y,-z
x,1/2-y,1/2+z
loop_
_atom_site_type_symbol
_atom_site_label
_atom_site_fract_x
_atom_site_fract_y
_atom_site_fract_z
Si Si1 0.513490 0.901973 0.164584
Si Si2 0.007611 0.024406 0.371919
Si Si3 0.226752 0.235585 0.724412
Si Si4 0.769534 0.167907 0.980722
Si Si5 0.416314 0.121598 0.568221
O O1 0.597397 0.829533 0.153328
O O2 0.645134 0.890082 0.385098
O O3 0.457971 0.135527 0.100599
O O4 0.349101 0.776868 0.043509
O O5 0.860066 0.934032 0.294020
O O6 0.148366 0.840893 0.502916
O O7 0.927846 0.056955 0.189647
O O8 0.086807 0.226212 0.500144
O O9 0.284049 0.416179 0.851940
O O10 0.618667 0.043958 0.773888
#
# Coordination Sequence:
#
# PCOD9246298 Si02
#       5
#     4   4   4   4   4
#     4  10  21  40  67  93 122 172 219 257 307 398
#     4  11  24  38  66 101 130 163 206 282 316 373
#     4  11  21  38  71  93 122 171 226 250 315 388
#     4  10  24  38  64  96 134 164 214 258 334 362
#     4  10  21  40  67  93 122 172 219 257 307 398
#
# _framework density 27.893889000000001
#
# number of rings (size 3 to 8) (size 9 to 14) (size 15 to 20)
#    1.200    0.400    4.000    0.600    2.800    0.000 
#    0.000    1.000    0.000    8.400    0.000    0.000 
#    0.000    0.000    0.000    0.000    0.000    0.000 
#
# Total GULP energy -111509.652639 kJ/mol
# GULP energy per Si atom -5575.482632 kJ/mol
# Density = 2.783040 g / cm^3
# Si number density = 27.893889 Si / 1000 Ang^3
#
#
#
# Elastic Constant Matrix: (Units=GPa)
#
#
# Indices 1 2 3 4 5 6 
#
# 1 151.5894 37.5170 13.2102 0.0000 -3.5067 0.0000
# 2 37.5170 42.2461 20.7921 0.0000 -14.9529 0.0000
# 3 13.2102 20.7921 160.6747 0.0000 -14.6225 0.0000
# 4 0.0000 0.0000 0.0000 50.5814 0.0000 -6.9191
# 5 -3.5067 -14.9529 -14.6225 0.0000 49.6880 0.0000
# 6 0.0000 0.0000 0.0000 -6.9191 0.0000 27.2368
#
#
#
# Elastic Compliance Matrix: (Units=1/GPa)
#
#
# Indices 1 2 3 4 5 6 
#
# 1 0.008618 -0.008417 0.000211 0.000000 -0.001863 0.000000
# 2 -0.008417 0.035976 -0.003116 0.000000 0.009316 0.000000
# 3 0.000211 -0.003116 0.006705 0.000000 0.001051 0.000000
# 4 0.000000 0.000000 0.000000 0.020482 0.000000 0.005203
# 5 -0.001863 0.009316 0.001051 0.000000 0.023107 0.000000
# 6 0.000000 0.000000 0.000000 0.005203 0.000000 0.038037
#
#
# Mechanical properties :
#
#
# Convention : Reuss Voigt Hill
#
# Bulk Modulus (GPa) = 34.89558 55.28320 45.08939
# Shear Modulus (GPa) = 30.28100 44.36728 37.32414
#
# Velocity S-wave (km/s) = 3.29839 3.99253 3.66194
# Velocity P-wave (km/s) = 5.20030 6.41216 5.83776
#
# Compressibility (1/GPa) = 0.02865692
#
# Stress axis : x y z
#
# Youngs Moduli (GPa) = 116.03140 27.79624 149.13819
#
# Poissons Ratio (x) = 0.23395 -0.03148
# Poissons Ratio (y) = 0.97661 0.46467
# Poissons Ratio (z) = -0.02449 0.08660
#
# Static dielectric constant tensor:
#      x y z
#    x 2.090630 0.000000 0.019970 
#    y 0.000000 2.377040 0.000000 
#    z 0.019970 0.000000 2.311460 
# 
# From -- ./inp_files/48327.got.cif
#   From: 2010.05.17/outbox.cif.g08.bks.cpg/sg14_25_cif.got.tgz:48327.got - 2010.06.03 17:49:19.
