data_PCOD9246703
_publ_section_title
;
Structure prediction by ZEFSAII (Michael W. Deem and Ramdas Pophale) SiO2 
 PCOD9246703
Probable space group: P 21/C
;
_chemical_formula_sum "Si O2"
_cell_formula_units_Z 32
_cell_length_a 8.196403
_cell_length_b 24.440140
_cell_length_c 8.536311
_cell_angle_alpha 90.000000
_cell_angle_beta 123.189967
_cell_angle_gamma 90.000000
_cell_volume 1431.034578
_symmetry_space_group_name_H-M "P 21/C"
_symmetry_group_IT_number 14
_symmetry_cell_setting 'monoclinic'
loop_
_space_group_symop_operation_xyz
x,y,z
-x,1/2+y,1/2-z
-x,-y,-z
x,1/2-y,1/2+z
loop_
_atom_site_type_symbol
_atom_site_label
_atom_site_fract_x
_atom_site_fract_y
_atom_site_fract_z
Si Si1 0.067039 0.826812 0.105863
Si Si2 0.772556 0.440239 0.299609
Si Si3 0.618395 0.195642 0.247050
Si Si4 0.036104 0.729146 0.257691
Si Si5 0.766633 0.543580 0.471954
Si Si6 0.351077 0.301783 0.099184
Si Si7 0.522565 0.606756 0.082438
Si Si8 0.303062 0.140878 0.888827
O O1 0.204404 0.877130 0.138566
O O2 0.135026 0.788208 0.284040
O O3 0.862427 0.847559 0.067307
O O4 0.041310 0.792730 0.934617
O O5 0.707166 0.481547 0.400303
O O6 0.997692 0.456677 0.380774
O O7 0.627313 0.436107 0.075746
O O8 0.837848 0.195554 0.300703
O O9 0.518512 0.255905 0.227030
O O10 0.581412 0.150230 0.358316
O O11 0.497613 0.171651 0.038499
O O12 0.815733 0.730726 0.082535
O O13 0.686797 0.575609 0.272722
O O14 0.678160 0.575626 0.574890
O O15 0.257144 0.331388 0.200444
O O16 0.402143 0.352942 0.014331
#
# Coordination Sequence:
#
# PCOD9246703 Si02
#       8
#     4   4   4   4   4   4   4   4
#     4  11  24  41  64  95 129 172 219 270 329 400
#     4  10  21  41  74  94 126 178 227 276 344 387
#     4  11  25  39  60  94 132 174 219 265 328 409
#     4  12  26  39  66  92 135 175 214 270 333 405
#     4   9  21  43  70  96 129 173 231 282 332 395
#     4  12  24  41  65  97 138 177 219 271 332 409
#     4  11  24  42  67  98 134 175 224 278 330 395
#     4  10  22  42  63  91 132 167 214 274 328 384
#
# _framework density 22.361445
#
# number of rings (size 3 to 8) (size 9 to 14) (size 15 to 20)
#    0.000    1.250    1.250    4.875   10.500    0.000 
#    0.000    0.625    2.750    4.500    0.000    0.000 
#    0.000    0.000    0.000    0.000    0.000    0.000 
#
# Total GULP energy -178426.342908 kJ/mol
# GULP energy per Si atom -5575.823216 kJ/mol
# Density = 2.231055 g / cm^3
# Si number density = 22.361445 Si / 1000 Ang^3
#
#
#
# Elastic Constant Matrix: (Units=GPa)
#
#
# Indices 1 2 3 4 5 6 
#
# 1 74.3329 9.1441 19.7457 0.0000 -2.5173 0.0000
# 2 9.1441 52.8567 -2.0543 0.0000 -9.9358 0.0000
# 3 19.7457 -2.0543 63.3953 0.0000 3.3999 0.0000
# 4 0.0000 0.0000 0.0000 34.1414 0.0000 9.2603
# 5 -2.5173 -9.9358 3.3999 0.0000 36.7234 0.0000
# 6 0.0000 0.0000 0.0000 9.2603 0.0000 11.9109
#
#
#
# Elastic Compliance Matrix: (Units=1/GPa)
#
#
# Indices 1 2 3 4 5 6 
#
# 1 0.015087 -0.002654 -0.004826 0.000000 0.000763 0.000000
# 2 -0.002654 0.020408 0.001208 0.000000 0.005228 0.000000
# 3 -0.004826 0.001208 0.017403 0.000000 -0.001615 0.000000
# 4 0.000000 0.000000 0.000000 0.037117 0.000000 -0.028857
# 5 0.000763 0.005228 -0.001615 0.000000 0.028847 0.000000
# 6 0.000000 0.000000 0.000000 -0.028857 0.000000 0.106393
#
#
# Mechanical properties :
#
#
# Convention : Reuss Voigt Hill
#
# Bulk Modulus (GPa) = 24.78149 27.13956 25.96052
# Shear Modulus (GPa) = 19.90041 27.47177 23.68609
#
# Velocity S-wave (km/s) = 2.98643 3.50885 3.25812
# Velocity P-wave (km/s) = 4.79562 5.34594 5.07824
#
# Compressibility (1/GPa) = 0.04035270
#
# Stress axis : x y z
#
# Youngs Moduli (GPa) = 66.28060 49.00064 57.46137
#
# Poissons Ratio (x) = 0.13006 0.27732
# Poissons Ratio (y) = 0.17593 -0.06939
# Poissons Ratio (z) = 0.31988 -0.05918
#
# Static dielectric constant tensor:
#      x y z
#    x 1.856270 0.000000 0.029010 
#    y 0.000000 1.942440 0.000000 
#    z 0.029010 0.000000 1.834970 
# 
# From -- ./inp_files/10826.got.cif
#   From: 2010.05.17/outbox.cif.g08.bks.cpg/sg14_6_cif.got.tgz:10826.got - 2010.06.03 17:49:19.
