data_PCOD9246778
_publ_section_title
;
Structure prediction by ZEFSAII (Michael W. Deem and Ramdas Pophale) SiO2 
 PCOD9246778
Probable space group: P 21/C
;
_chemical_formula_sum "Si O2"
_cell_formula_units_Z 32
_cell_length_a 7.419968
_cell_length_b 18.598767
_cell_length_c 18.080624
_cell_angle_alpha 90.000000
_cell_angle_beta 32.106255
_cell_angle_gamma 90.000000
_cell_volume 1326.158894
_symmetry_space_group_name_H-M "P 21/C"
_symmetry_group_IT_number 14
_symmetry_cell_setting 'monoclinic'
loop_
_space_group_symop_operation_xyz
x,y,z
-x,1/2+y,1/2-z
-x,-y,-z
x,1/2-y,1/2+z
loop_
_atom_site_type_symbol
_atom_site_label
_atom_site_fract_x
_atom_site_fract_y
_atom_site_fract_z
Si Si1 0.640189 0.878042 0.134568
Si Si2 0.364413 0.901446 0.831660
Si Si3 0.118721 0.111682 0.218531
Si Si4 0.667521 0.007230 0.304014
Si Si5 0.311679 0.220525 0.352417
Si Si6 0.697203 0.376226 0.088148
Si Si7 0.679257 0.407642 0.401231
Si Si8 0.883757 0.771904 0.240083
O O1 0.628080 0.792007 0.122287
O O2 0.461883 0.885396 0.275076
O O3 0.458700 0.921793 0.132803
O O4 0.030405 0.902665 0.997956
O O5 0.693876 0.904419 0.769133
O O6 0.360762 0.958495 0.767434
O O7 0.366907 0.823444 0.789701
O O8 0.087310 0.197869 0.226110
O O9 0.766773 0.070763 0.326156
O O10 0.377331 0.086346 0.064628
O O11 0.349323 0.955110 0.430884
O O12 0.993741 0.954800 0.193878
O O13 0.135798 0.250679 0.339248
O O14 0.062445 0.159574 0.470163
O O15 0.460248 0.318214 0.127690
O O16 0.811908 0.326249 0.355791
#
# Coordination Sequence:
#
# PCOD9246778 Si02
#       8
#     4   4   4   4   4   4   4   4
#     4  11  22  37  68  98 122 165 220 262 316 367
#     4  11  24  41  67  91 129 169 207 267 316 378
#     4  11  22  40  66  92 129 162 215 261 323 367
#     4  11  25  41  61  95 131 165 214 256 323 376
#     4  10  21  42  64  92 126 168 215 257 322 376
#     4  10  22  41  65  90 130 168 208 263 316 378
#     4  11  23  37  64  95 130 163 213 268 316 372
#     4   9  20  39  63  91 123 166 210 269 316 368
#
# _framework density 24.129840000000002
#
# number of rings (size 3 to 8) (size 9 to 14) (size 15 to 20)
#    0.000    1.500    1.250    5.625    3.500    2.500 
#    0.000    2.500    0.000    0.000    0.000    0.000 
#    0.000    0.000    0.000    0.000    0.000    0.000 
#
# Total GULP energy -179034.305274 kJ/mol
# GULP energy per Si atom -5594.822040 kJ/mol
# Density = 2.407492 g / cm^3
# Si number density = 24.129840 Si / 1000 Ang^3
#
#
#
# Elastic Constant Matrix: (Units=GPa)
#
#
# Indices 1 2 3 4 5 6 
#
# 1 65.9786 30.6685 -2.4012 0.0000 0.8445 0.0000
# 2 30.6685 99.5532 -8.7808 0.0000 0.8723 0.0000
# 3 -2.4012 -8.7808 34.6224 0.0000 -2.8724 0.0000
# 4 0.0000 0.0000 0.0000 25.7979 0.0000 -3.9099
# 5 0.8445 0.8723 -2.8724 0.0000 15.0851 0.0000
# 6 0.0000 0.0000 0.0000 -3.9099 0.0000 45.9329
#
#
#
# Elastic Compliance Matrix: (Units=1/GPa)
#
#
# Indices 1 2 3 4 5 6 
#
# 1 0.017698 -0.005465 -0.000218 0.000000 -0.000716 0.000000
# 2 -0.005465 0.011962 0.002665 0.000000 0.000122 0.000000
# 3 -0.000218 0.002665 0.030006 0.000000 0.005572 0.000000
# 4 0.000000 0.000000 0.000000 0.039270 0.000000 0.003343
# 5 -0.000716 0.000122 0.005572 0.000000 0.067385 0.000000
# 6 0.000000 0.000000 0.000000 0.003343 0.000000 0.022055
#
#
# Mechanical properties :
#
#
# Convention : Reuss Voigt Hill
#
# Bulk Modulus (GPa) = 18.64620 26.56968 22.60794
# Shear Modulus (GPa) = 23.55282 29.40769 26.48026
#
# Velocity S-wave (km/s) = 3.12763 3.49481 3.31631
# Velocity P-wave (km/s) = 4.55927 5.22685 4.90444
#
# Compressibility (1/GPa) = 0.05363024
#
# Stress axis : x y z
#
# Youngs Moduli (GPa) = 56.50375 83.59512 33.32663
#
# Poissons Ratio (x) = 0.45685 0.00727
# Poissons Ratio (y) = 0.30879 -0.08881
# Poissons Ratio (z) = 0.01232 -0.22278
#
# Static dielectric constant tensor:
#      x y z
#    x 1.898540 0.000000 -0.009170 
#    y 0.000000 2.022580 0.000000 
#    z -0.009170 0.000000 1.904770 
# 
# From -- ./inp_files/66030.got.cif
#   From: 2010.05.17/outbox.cif.g08.bks.cpg/sg14_34_cif.got.tgz:66030.got - 2010.06.03 17:49:19.
