data_PCOD9246535
_publ_section_title
;
Structure prediction by ZEFSAII (Michael W. Deem and Ramdas Pophale) SiO2 
 PCOD9246535
Probable space group: P 21/C
;
_chemical_formula_sum "Si O2"
_cell_formula_units_Z 24
_cell_length_a 8.233408
_cell_length_b 14.144712
_cell_length_c 8.100101
_cell_angle_alpha 90.000000
_cell_angle_beta 88.136853
_cell_angle_gamma 90.000000
_cell_volume 942.832454
_symmetry_space_group_name_H-M "P 21/C"
_symmetry_group_IT_number 14
_symmetry_cell_setting 'monoclinic'
loop_
_space_group_symop_operation_xyz
x,y,z
-x,1/2+y,1/2-z
-x,-y,-z
x,1/2-y,1/2+z
loop_
_atom_site_type_symbol
_atom_site_label
_atom_site_fract_x
_atom_site_fract_y
_atom_site_fract_z
Si Si1 0.241490 0.384010 0.906253
Si Si2 0.388990 0.879483 0.712245
Si Si3 0.138058 0.282407 0.582632
Si Si4 0.223330 0.767575 0.426383
Si Si5 0.770677 0.543842 0.605501
Si Si6 0.135267 0.945191 0.227617
O O1 0.431097 0.380579 0.864478
O O2 0.155116 0.324865 0.762782
O O3 0.195993 0.325346 0.068914
O O4 0.174382 0.488128 0.882995
O O5 0.274584 0.832379 0.577667
O O6 0.359200 0.807782 0.866672
O O7 0.344587 0.985924 0.768730
O O8 0.245532 0.348697 0.458350
O O9 0.948184 0.285788 0.542701
O O10 0.186902 0.841295 0.279462
O O11 0.766506 0.485773 0.432352
O O12 0.950186 0.539591 0.678273
#
# Coordination Sequence:
#
# PCOD9246535 Si02
#       6
#     4   4   4   4   4   4
#     4  11  25  41  61  94 129 165 204 259 322 372
#     4  12  25  40  63  94 129 164 206 261 320 373
#     4  11  23  42  67  90 123 167 214 257 307 373
#     4  12  24  42  68  94 123 167 217 260 305 372
#     4  10  21  41  65  91 123 164 211 259 310 370
#     4  10  22  40  64  91 123 162 212 259 310 370
#
# _framework density 25.455213000000001
#
# number of rings (size 3 to 8) (size 9 to 14) (size 15 to 20)
#    0.000    1.000    0.000    9.000    0.000    8.667 
#    0.000    0.000    0.000    0.000    0.000    0.000 
#    0.000    0.000    0.000    0.000    0.000    0.000 
#
# Total GULP energy -134525.485807 kJ/mol
# GULP energy per Si atom -5605.228575 kJ/mol
# Density = 2.539728 g / cm^3
# Si number density = 25.455213 Si / 1000 Ang^3
#
#
#
# Elastic Constant Matrix: (Units=GPa)
#
#
# Indices 1 2 3 4 5 6 
#
# 1 64.4126 -0.1096 1.4222 0.0000 -1.0116 0.0000
# 2 -0.1096 121.8818 24.9249 0.0000 5.6533 0.0000
# 3 1.4222 24.9249 72.8162 0.0000 3.0621 0.0000
# 4 0.0000 0.0000 0.0000 48.8307 0.0000 -8.6832
# 5 -1.0116 5.6533 3.0621 0.0000 23.5495 0.0000
# 6 0.0000 0.0000 0.0000 -8.6832 0.0000 25.1920
#
#
#
# Elastic Compliance Matrix: (Units=1/GPa)
#
#
# Indices 1 2 3 4 5 6 
#
# 1 0.015544 0.000053 -0.000351 0.000000 0.000701 0.000000
# 2 0.000053 0.008893 -0.002972 0.000000 -0.001746 0.000000
# 3 -0.000351 -0.002972 0.014809 0.000000 -0.001227 0.000000
# 4 0.000000 0.000000 0.000000 0.021816 0.000000 0.007520
# 5 0.000701 -0.001746 -0.001227 0.000000 0.043073 0.000000
# 6 0.000000 0.000000 0.000000 0.007520 0.000000 0.042287
#
#
# Mechanical properties :
#
#
# Convention : Reuss Voigt Hill
#
# Bulk Modulus (GPa) = 30.57493 34.62063 32.59778
# Shear Modulus (GPa) = 30.51316 35.03931 32.77624
#
# Velocity S-wave (km/s) = 3.46598 3.71416 3.59221
# Velocity P-wave (km/s) = 5.29667 5.65892 5.48079
#
# Compressibility (1/GPa) = 0.03270653
#
# Stress axis : x y z
#
# Youngs Moduli (GPa) = 64.33448 112.44229 67.52682
#
# Poissons Ratio (x) = -0.00600 0.02372
# Poissons Ratio (y) = -0.00343 0.20068
# Poissons Ratio (z) = 0.02260 0.33416
#
# Static dielectric constant tensor:
#      x y z
#    x 1.910730 0.000000 -0.029330 
#    y 0.000000 2.006820 0.000000 
#    z -0.029330 0.000000 2.091110 
# 
# From -- ./inp_files/8588.got.cif
#   From: 2010.05.17/outbox.cif.g08.bks.cpg/sg14_5_cif.got.tgz:8588.got - 2010.06.03 17:49:19.
