data_PCOD9246155
_publ_section_title
;
Structure prediction by ZEFSAII (Michael W. Deem and Ramdas Pophale) SiO2 
 PCOD9246155
Probable space group: P 21/C
;
_chemical_formula_sum "Si O2"
_cell_formula_units_Z 24
_cell_length_a 11.843405
_cell_length_b 13.530849
_cell_length_c 20.977354
_cell_angle_alpha 90.000000
_cell_angle_beta 19.460309
_cell_angle_gamma 90.000000
_cell_volume 1119.945977
_symmetry_space_group_name_H-M "P 21/C"
_symmetry_group_IT_number 14
_symmetry_cell_setting 'monoclinic'
loop_
_space_group_symop_operation_xyz
x,y,z
-x,1/2+y,1/2-z
-x,-y,-z
x,1/2-y,1/2+z
loop_
_atom_site_type_symbol
_atom_site_label
_atom_site_fract_x
_atom_site_fract_y
_atom_site_fract_z
Si Si1 0.262693 0.436092 0.401433
Si Si2 0.485491 0.893926 0.973032
Si Si3 0.657790 0.605345 0.235944
Si Si4 0.183760 0.826570 0.774471
Si Si5 0.113406 0.728032 0.451108
Si Si6 0.816539 0.796216 0.366840
O O1 0.592342 0.499832 0.237985
O O2 0.240051 0.332861 0.376017
O O3 0.000000 0.500000 0.500000
O O4 0.081556 0.411597 0.565410
O O5 0.640827 0.904612 0.820434
O O6 0.685695 0.803528 0.901485
O O7 0.094130 0.856831 0.179977
O O8 0.500000 0.000000 0.000000
O O9 0.984581 0.665727 0.040047
O O10 0.330608 0.669491 0.387189
O O11 0.494059 0.856913 0.564418
O O12 0.999655 0.740999 0.833597
O O13 0.289902 0.783880 0.787538
#
# Coordination Sequence:
#
# PCOD9246155 Si02
#       6
#     4   4   4   4   4   4
#     4   8  18  32  54  83 116 149 187 244 305 363
#     4  11  24  41  64  93 128 168 216 255 304 374
#     4  11  19  39  58  88 123 154 198 257 310 364
#     4   9  18  36  62  85 116 156 206 244 316 361
#     4   9  20  34  64  85 120 157 195 256 319 364
#     4  10  21  40  64  86 124 169 207 259 304 365
#
# _framework density 21.429604000000001
#
# number of rings (size 3 to 8) (size 9 to 14) (size 15 to 20)
#    1.000    1.333    0.000    3.000    0.000    0.000 
#    0.000   15.000    0.000    0.000    0.000    0.000 
#    0.000    0.000    0.000    0.000    0.000    0.000 
#
# Total GULP energy -133707.087270 kJ/mol
# GULP energy per Si atom -5571.128636 kJ/mol
# Density = 2.138083 g / cm^3
# Si number density = 21.429604 Si / 1000 Ang^3
#
#
#
# Elastic Constant Matrix: (Units=GPa)
#
#
# Indices 1 2 3 4 5 6 
#
# 1 75.2105 19.4028 -5.9859 0.0000 10.1914 0.0000
# 2 19.4028 107.8174 44.8465 0.0000 11.8570 0.0000
# 3 -5.9859 44.8465 74.4764 0.0000 1.0433 0.0000
# 4 0.0000 0.0000 0.0000 37.6189 0.0000 -4.5216
# 5 10.1914 11.8570 1.0433 0.0000 21.0671 0.0000
# 6 0.0000 0.0000 0.0000 -4.5216 0.0000 29.0741
#
#
#
# Elastic Compliance Matrix: (Units=1/GPa)
#
#
# Indices 1 2 3 4 5 6 
#
# 1 0.015242 -0.003570 0.003452 0.000000 -0.005535 0.000000
# 2 -0.003570 0.014201 -0.008757 0.000000 -0.005832 0.000000
# 3 0.003452 -0.008757 0.018945 0.000000 0.002320 0.000000
# 4 0.000000 0.000000 0.000000 0.027089 0.000000 0.004213
# 5 -0.005535 -0.005832 0.002320 0.000000 0.053312 0.000000
# 6 0.000000 0.000000 0.000000 0.004213 0.000000 0.035050
#
#
# Mechanical properties :
#
#
# Convention : Reuss Voigt Hill
#
# Bulk Modulus (GPa) = 32.63807 41.55902 37.09855
# Shear Modulus (GPa) = 26.06873 30.83473 28.45173
#
# Velocity S-wave (km/s) = 3.49159 3.79738 3.64769
# Velocity P-wave (km/s) = 5.61413 6.21789 5.92370
#
# Compressibility (1/GPa) = 0.03063906
#
# Stress axis : x y z
#
# Youngs Moduli (GPa) = 65.60880 70.41736 52.78483
#
# Poissons Ratio (x) = 0.25141 -0.18224
# Poissons Ratio (y) = 0.23424 0.46221
# Poissons Ratio (z) = -0.22651 0.61661
#
# Static dielectric constant tensor:
#      x y z
#    x 1.760170 0.000000 -0.041980 
#    y 0.000000 1.724070 0.000000 
#    z -0.041980 0.000000 1.819130 
# 
# From -- ./inp_files/67507.got.cif
#   From: 2010.05.17/outbox.cif.g08.bks.cpg/sg14_34_cif.got.tgz:67507.got - 2010.06.03 17:49:19.
