data_PCOD9246288
_publ_section_title
;
Structure prediction by ZEFSAII (Michael W. Deem and Ramdas Pophale) SiO2 
 PCOD9246288
Probable space group: P 21/C
;
_chemical_formula_sum "Si O2"
_cell_formula_units_Z 20
_cell_length_a 10.563187
_cell_length_b 9.863469
_cell_length_c 9.970865
_cell_angle_alpha 90.000000
_cell_angle_beta 44.272695
_cell_angle_gamma 90.000000
_cell_volume 725.202069
_symmetry_space_group_name_H-M "P 21/C"
_symmetry_group_IT_number 14
_symmetry_cell_setting 'monoclinic'
loop_
_space_group_symop_operation_xyz
x,y,z
-x,1/2+y,1/2-z
-x,-y,-z
x,1/2-y,1/2+z
loop_
_atom_site_type_symbol
_atom_site_label
_atom_site_fract_x
_atom_site_fract_y
_atom_site_fract_z
Si Si1 0.581042 0.604580 0.802872
Si Si2 0.770775 0.540965 0.906324
Si Si3 0.942539 0.653792 0.026956
Si Si4 0.320616 0.053845 0.061259
Si Si5 0.769313 0.252870 0.356139
O O1 0.444244 0.475375 0.898732
O O2 0.629369 0.627145 0.613505
O O3 0.443152 0.713683 0.972227
O O4 0.243218 0.427863 0.241085
O O5 0.220082 0.590847 0.602246
O O6 0.855783 0.645970 0.943553
O O7 0.846571 0.385809 0.865914
O O8 0.790511 0.653482 0.256478
O O9 0.000000 0.500000 0.000000
O O10 0.124619 0.741063 0.867259
O O11 0.500000 0.000000 0.000000
#
# Coordination Sequence:
#
# PCOD9246288 Si02
#       5
#     4   4   4   4   4
#     4   9  20  40  70  99 131 181 234 275 322 415
#     4   9  19  42  68  98 135 177 234 266 339 415
#     4  10  21  40  67 102 138 174 217 283 346 405
#     4  11  20  37  67 104 134 168 234 280 324 410
#     4   9  21  40  66  96 138 180 213 284 355 388
#
# _framework density 27.578519
#
# number of rings (size 3 to 8) (size 9 to 14) (size 15 to 20)
#    1.200    1.200    2.000    0.000    0.000    4.800 
#    0.000   12.000    0.000    9.600    0.000    2.800 
#    0.000    0.000    0.000    0.000    0.000    0.000 
#
# Total GULP energy -111466.027334 kJ/mol
# GULP energy per Si atom -5573.301367 kJ/mol
# Density = 2.751575 g / cm^3
# Si number density = 27.578519 Si / 1000 Ang^3
#
#
#
# Elastic Constant Matrix: (Units=GPa)
#
#
# Indices 1 2 3 4 5 6 
#
# 1 108.2704 19.9176 68.3915 0.0000 21.4640 0.0000
# 2 19.9176 135.1828 48.7793 0.0000 -5.9093 0.0000
# 3 68.3915 48.7793 219.5426 0.0000 25.1452 0.0000
# 4 0.0000 0.0000 0.0000 34.0168 0.0000 -16.3599
# 5 21.4640 -5.9093 25.1452 0.0000 32.2084 0.0000
# 6 0.0000 0.0000 0.0000 -16.3599 0.0000 23.8223
#
#
#
# Elastic Compliance Matrix: (Units=1/GPa)
#
#
# Indices 1 2 3 4 5 6 
#
# 1 0.012534 -0.001053 -0.002956 0.000000 -0.006238 0.000000
# 2 -0.001053 0.008433 -0.001980 0.000000 0.003795 0.000000
# 3 -0.002956 -0.001980 0.006295 0.000000 -0.003308 0.000000
# 4 0.000000 0.000000 0.000000 0.043895 0.000000 0.030145
# 5 -0.006238 0.003795 -0.003308 0.000000 0.038483 0.000000
# 6 0.000000 0.000000 0.000000 0.030145 0.000000 0.062679
#
#
# Mechanical properties :
#
#
# Convention : Reuss Voigt Hill
#
# Bulk Modulus (GPa) = 65.43245 81.90807 73.67026
# Shear Modulus (GPa) = 26.40030 39.73665 33.06848
#
# Velocity S-wave (km/s) = 3.09735 3.79998 3.46651
# Velocity P-wave (km/s) = 6.04721 7.00125 6.54165
#
# Compressibility (1/GPa) = 0.01528294
#
# Stress axis : x y z
#
# Youngs Moduli (GPa) = 79.78463 118.58205 158.86460
#
# Poissons Ratio (x) = 0.12483 0.46963
# Poissons Ratio (y) = 0.08399 0.31462
# Poissons Ratio (z) = 0.23585 0.23484
#
# Static dielectric constant tensor:
#      x y z
#    x 2.202180 0.000000 -0.034680 
#    y 0.000000 2.260370 0.000000 
#    z -0.034680 0.000000 2.361920 
# 
# From -- ./inp_files/48688.got.cif
#   From: 2010.05.17/outbox.cif.g08.bks.cpg/sg14_25_cif.got.tgz:48688.got - 2010.06.03 17:49:19.
