data_PCOD9246769
_publ_section_title
;
Structure prediction by ZEFSAII (Michael W. Deem and Ramdas Pophale) SiO2 
 PCOD9246769
Probable space group: P 21/C
;
_chemical_formula_sum "Si O2"
_cell_formula_units_Z 20
_cell_length_a 15.913896
_cell_length_b 13.320925
_cell_length_c 11.024296
_cell_angle_alpha 90.000000
_cell_angle_beta 24.468021
_cell_angle_gamma 90.000000
_cell_volume 967.957832
_symmetry_space_group_name_H-M "P 21/C"
_symmetry_group_IT_number 14
_symmetry_cell_setting 'monoclinic'
loop_
_space_group_symop_operation_xyz
x,y,z
-x,1/2+y,1/2-z
-x,-y,-z
x,1/2-y,1/2+z
loop_
_atom_site_type_symbol
_atom_site_label
_atom_site_fract_x
_atom_site_fract_y
_atom_site_fract_z
Si Si1 0.057389 0.114228 0.903822
Si Si2 0.042852 0.574318 0.829890
Si Si3 0.702234 0.813735 0.621587
Si Si4 0.088912 0.119060 0.138603
Si Si5 0.762628 0.291860 0.234287
O O1 0.249571 0.122406 0.562538
O O2 0.102795 0.147546 0.980435
O O3 0.874814 0.183547 0.090625
O O4 0.000000 0.000000 0.000000
O O5 0.130148 0.496803 0.615387
O O6 0.185559 0.656890 0.703854
O O7 0.000000 0.500000 0.000000
O O8 0.850336 0.631819 0.024935
O O9 0.764801 0.701584 0.495364
O O10 0.476201 0.801838 0.965911
O O11 0.871785 0.146357 0.482826
#
# Coordination Sequence:
#
# PCOD9246769 Si02
#       5
#     4   4   4   4   4
#     4  11  22  42  64  96 132 164 206 274 323 365
#     4  10  21  42  64  90 126 166 213 258 313 383
#     4  11  23  42  66  93 127 169 213 260 317 376
#     4  10  22  42  63  90 131 161 211 265 312 377
#     4  10  24  42  66  91 125 173 213 255 313 391
#
# _framework density 20.662057000000001
#
# number of rings (size 3 to 8) (size 9 to 14) (size 15 to 20)
#    0.000    1.600    4.000    0.000    0.000    6.400 
#    0.000    2.000    0.000    0.000    0.000    0.000 
#    0.000    0.000    0.000    0.000    0.000    0.000 
#
# Total GULP energy -111392.726540 kJ/mol
# GULP energy per Si atom -5569.636327 kJ/mol
# Density = 2.061503 g / cm^3
# Si number density = 20.662057 Si / 1000 Ang^3
#
#
#
# Elastic Constant Matrix: (Units=GPa)
#
#
# Indices 1 2 3 4 5 6 
#
# 1 55.9584 -6.9470 -3.1076 0.0000 9.8183 0.0000
# 2 -6.9470 101.4907 -11.1556 0.0000 -6.9704 0.0000
# 3 -3.1076 -11.1556 72.1737 0.0000 1.7903 0.0000
# 4 0.0000 0.0000 0.0000 14.0940 0.0000 9.7320
# 5 9.8183 -6.9704 1.7903 0.0000 28.9098 0.0000
# 6 0.0000 0.0000 0.0000 9.7320 0.0000 24.5999
#
#
#
# Elastic Compliance Matrix: (Units=1/GPa)
#
#
# Indices 1 2 3 4 5 6 
#
# 1 0.019170 0.001002 0.001138 0.000000 -0.006339 0.000000
# 2 0.001002 0.010234 0.001575 0.000000 0.002030 0.000000
# 3 0.001138 0.001575 0.014170 0.000000 -0.000884 0.000000
# 4 0.000000 0.000000 0.000000 0.097619 0.000000 -0.038620
# 5 -0.006339 0.002030 -0.000884 0.000000 0.037287 0.000000
# 6 0.000000 0.000000 0.000000 -0.038620 0.000000 0.055929
#
#
# Mechanical properties :
#
#
# Convention : Reuss Voigt Hill
#
# Bulk Modulus (GPa) = 19.60700 20.80027 20.20363
# Shear Modulus (GPa) = 20.49327 30.24295 25.36811
#
# Velocity S-wave (km/s) = 3.15275 3.82998 3.50775
# Velocity P-wave (km/s) = 4.77107 5.44491 5.11909
#
# Compressibility (1/GPa) = 0.05100220
#
# Stress axis : x y z
#
# Youngs Moduli (GPa) = 52.16418 97.71183 70.57283
#
# Poissons Ratio (x) = -0.09789 -0.08028
# Poissons Ratio (y) = -0.05226 -0.11113
# Poissons Ratio (z) = -0.05934 -0.15386
#
# Static dielectric constant tensor:
#      x y z
#    x 1.853710 0.000000 0.061820 
#    y 0.000000 0.706760 0.000000 
#    z 0.061820 0.000000 1.748540 
# 
# From -- ./inp_files/25058.got.cif
#   From: 2010.05.17/outbox.cif.g08.bks.cpg/sg14_13_cif.got.tgz:25058.got - 2010.06.03 17:49:19.
