data_PCOD9246126
_publ_section_title
;
Structure prediction by ZEFSAII (Michael W. Deem and Ramdas Pophale) SiO2 
 PCOD9246126
Probable space group: P 21/C
;
_chemical_formula_sum "Si O2"
_cell_formula_units_Z 24
_cell_length_a 5.040976
_cell_length_b 15.007200
_cell_length_c 14.794361
_cell_angle_alpha 90.000000
_cell_angle_beta 83.564923
_cell_angle_gamma 90.000000
_cell_volume 1112.155667
_symmetry_space_group_name_H-M "P 21/C"
_symmetry_group_IT_number 14
_symmetry_cell_setting 'monoclinic'
loop_
_space_group_symop_operation_xyz
x,y,z
-x,1/2+y,1/2-z
-x,-y,-z
x,1/2-y,1/2+z
loop_
_atom_site_type_symbol
_atom_site_label
_atom_site_fract_x
_atom_site_fract_y
_atom_site_fract_z
Si Si1 0.670703 0.390063 0.175401
Si Si2 0.668568 0.170410 0.472153
Si Si3 0.155650 0.062805 0.422505
Si Si4 0.831994 0.982190 0.915516
Si Si5 0.888706 0.608140 0.707882
Si Si6 0.583856 0.858520 0.045505
O O1 0.752453 0.493327 0.156560
O O2 0.366626 0.388149 0.218317
O O3 0.863589 0.352996 0.245956
O O4 0.710936 0.341630 0.078228
O O5 0.416890 0.108267 0.454866
O O6 0.589325 0.270925 0.455248
O O7 0.932416 0.136576 0.410480
O O8 0.000000 0.000000 0.500000
O O9 0.597210 0.056123 0.919828
O O10 0.708566 0.886332 0.943404
O O11 0.025491 0.007896 0.826480
O O12 0.000000 0.000000 0.000000
O O13 0.802046 0.652516 0.616351
#
# Coordination Sequence:
#
# PCOD9246126 Si02
#       6
#     4   4   4   4   4   4
#     4  11  21  39  65  92 127 169 208 263 320 371
#     4  11  23  39  69  94 125 167 216 258 308 388
#     4  10  21  40  63  92 121 166 214 249 306 388
#     4   9  20  40  68  87 120 168 218 248 312 386
#     4  11  21  39  66  91 127 168 208 267 319 362
#     4  10  22  41  68  93 123 172 215 259 313 376
#
# _framework density 21.579713999999999
#
# number of rings (size 3 to 8) (size 9 to 14) (size 15 to 20)
#    0.000    1.667    1.667    5.000    4.667    0.000 
#    0.000    1.667   18.333    0.000    0.000    0.000 
#    0.000    0.000    0.000    0.000    0.000    0.000 
#
# Total GULP energy -133938.124974 kJ/mol
# GULP energy per Si atom -5580.755207 kJ/mol
# Density = 2.153060 g / cm^3
# Si number density = 21.579714 Si / 1000 Ang^3
#
#
#
# Elastic Constant Matrix: (Units=GPa)
#
#
# Indices 1 2 3 4 5 6 
#
# 1 104.4762 10.3246 13.5826 0.0000 17.2305 0.0000
# 2 10.3246 80.0333 11.5197 0.0000 16.3078 0.0000
# 3 13.5826 11.5197 58.9415 0.0000 18.5452 0.0000
# 4 0.0000 0.0000 0.0000 14.9250 0.0000 2.0019
# 5 17.2305 16.3078 18.5452 0.0000 42.9117 0.0000
# 6 0.0000 0.0000 0.0000 2.0019 0.0000 39.2558
#
#
#
# Elastic Compliance Matrix: (Units=1/GPa)
#
#
# Indices 1 2 3 4 5 6 
#
# 1 0.010344 -0.000456 -0.001206 0.000000 -0.003459 0.000000
# 2 -0.000456 0.013636 -0.001142 0.000000 -0.004505 0.000000
# 3 -0.001206 -0.001142 0.019882 0.000000 -0.007674 0.000000
# 4 0.000000 0.000000 0.000000 0.067463 0.000000 -0.003440
# 5 -0.003459 -0.004505 -0.007674 0.000000 0.029721 0.000000
# 6 0.000000 0.000000 0.000000 -0.003440 0.000000 0.025649
#
#
# Mechanical properties :
#
#
# Convention : Reuss Voigt Hill
#
# Bulk Modulus (GPa) = 26.14230 34.92276 30.53253
# Shear Modulus (GPa) = 27.01892 33.28677 30.15285
#
# Velocity S-wave (km/s) = 3.54227 3.93173 3.74207
# Velocity P-wave (km/s) = 5.37316 6.06874 5.73151
#
# Compressibility (1/GPa) = 0.03825218
#
# Stress axis : x y z
#
# Youngs Moduli (GPa) = 96.67554 73.33484 50.29754
#
# Poissons Ratio (x) = 0.03344 0.06067
# Poissons Ratio (y) = 0.04408 0.05746
# Poissons Ratio (z) = 0.11662 0.08378
#
# Static dielectric constant tensor:
#      x y z
#    x 1.846880 0.000000 -0.022170 
#    y 0.000000 1.814150 0.000000 
#    z -0.022170 0.000000 1.826030 
# 
# From -- ./inp_files/37189.got.cif
#   From: 2010.05.17/outbox.cif.g08.bks.cpg/sg14_19_cif.got.tgz:37189.got - 2010.06.03 17:49:19.
