data_PCOD9246789
_publ_section_title
;
Structure prediction by ZEFSAII (Michael W. Deem and Ramdas Pophale) SiO2 
 PCOD9246789
Probable space group: P 21/C
;
_chemical_formula_sum "Si O2"
_cell_formula_units_Z 28
_cell_length_a 19.725275
_cell_length_b 4.978412
_cell_length_c 13.187963
_cell_angle_alpha 90.000000
_cell_angle_beta 119.004863
_cell_angle_gamma 90.000000
_cell_volume 1132.636221
_symmetry_space_group_name_H-M "P 21/C"
_symmetry_group_IT_number 14
_symmetry_cell_setting 'monoclinic'
loop_
_space_group_symop_operation_xyz
x,y,z
-x,1/2+y,1/2-z
-x,-y,-z
x,1/2-y,1/2+z
loop_
_atom_site_type_symbol
_atom_site_label
_atom_site_fract_x
_atom_site_fract_y
_atom_site_fract_z
Si Si1 0.355667 0.862594 0.503796
Si Si2 0.241435 0.997100 0.250623
Si Si3 0.677741 0.638998 0.383496
Si Si4 0.958985 0.684575 0.678185
Si Si5 0.000000 0.500000 0.000000
Si Si6 0.849487 0.989438 0.253151
Si Si7 0.514890 0.536677 0.197835
Si Si8 0.000000 0.000000 0.000000
O O1 0.315049 0.893139 0.366863
O O2 0.318657 0.076066 0.557438
O O3 0.447905 0.917601 0.567388
O O4 0.340304 0.573766 0.541526
O O5 0.220378 0.292595 0.274084
O O6 0.254792 0.033420 0.140743
O O7 0.174152 0.790568 0.236267
O O8 0.602479 0.638537 0.254049
O O9 0.879320 0.563735 0.660703
O O10 0.024030 0.470488 0.758944
O O11 0.976650 0.729559 0.571616
O O12 0.077728 0.384852 0.127736
O O13 0.948767 0.234989 0.010736
O O14 0.484692 0.725425 0.269459
#
# Coordination Sequence:
#
# PCOD9246789 Si02
#       8
#     4   4   4   4   2   4   4   2
#     4  10  21  42  64  97 132 175 216 267 316 367
#     4  12  26  45  64  97 136 169 217 254 328 394
#     4  10  21  42  66  97 134 176 214 262 308 379
#     4  12  23  45  68  96 124 152 206 267 321 374
#     4  12  24  46  72  92 122 164 220 258 334 378
#     4  12  26  47  65  97 129 166 210 276 319 395
#     4   8  16  33  64  93 128 168 219 261 304 359
#     4  12  22  44  74  96 116 158 196 276 318 386
#
# _framework density 24.721088999999999
#
# number of rings (size 3 to 8) (size 9 to 14) (size 15 to 20)
#    0.000    1.143    2.857    3.429    0.000    0.571 
#   15.429    0.000    0.000   12.000    0.000    0.000 
#    0.000    0.000    0.000    0.000    0.000    0.000 
#
# Total GULP energy -155884.192648 kJ/mol
# GULP energy per Si atom -5567.292595 kJ/mol
# Density = 2.466482 g / cm^3
# Si number density = 24.721089 Si / 1000 Ang^3
#
#
#
# Elastic Constant Matrix: (Units=GPa)
#
#
# Indices 1 2 3 4 5 6 
#
# 1 40.5556 -0.2097 -3.8240 0.0000 -24.7065 0.0000
# 2 -0.2097 142.1354 1.4063 0.0000 -10.5039 0.0000
# 3 -3.8240 1.4063 98.6570 0.0000 -0.4697 0.0000
# 4 0.0000 0.0000 0.0000 32.7681 0.0000 4.1606
# 5 -24.7065 -10.5039 -0.4697 0.0000 33.5547 0.0000
# 6 0.0000 0.0000 0.0000 4.1606 0.0000 24.8404
#
#
#
# Elastic Compliance Matrix: (Units=1/GPa)
#
#
# Indices 1 2 3 4 5 6 
#
# 1 0.045999 0.002614 0.001911 0.000000 0.034715 0.000000
# 2 0.002614 0.007352 0.000017 0.000000 0.004227 0.000000
# 3 0.001911 0.000017 0.010217 0.000000 0.001555 0.000000
# 4 0.000000 0.000000 0.000000 0.031181 0.000000 -0.005223
# 5 0.034715 0.004227 0.001555 0.000000 0.056707 0.000000
# 6 0.000000 0.000000 0.000000 -0.005223 0.000000 0.041132
#
#
# Mechanical properties :
#
#
# Convention : Reuss Voigt Hill
#
# Bulk Modulus (GPa) = 13.76417 30.67702 22.22059
# Shear Modulus (GPa) = 24.07071 37.16434 30.61752
#
# Velocity S-wave (km/s) = 3.12379 3.88151 3.52308
# Velocity P-wave (km/s) = 4.31168 5.70301 5.05544
#
# Compressibility (1/GPa) = 0.07265241
#
# Stress axis : x y z
#
# Youngs Moduli (GPa) = 21.73945 136.02511 97.87252
#
# Poissons Ratio (x) = -0.35562 -0.18703
# Poissons Ratio (y) = -0.05684 -0.00163
# Poissons Ratio (z) = -0.04154 -0.00227
#
# Static dielectric constant tensor:
#      x y z
#    x 1.967010 0.000000 -0.060880 
#    y 0.000000 1.605980 0.000000 
#    z -0.060880 0.000000 1.827490 
# 
# From -- ./inp_files/48074.got.cif
#   From: 2010.05.17/outbox.cif.g08.bks.cpg/sg14_25_cif.got.tgz:48074.got - 2010.06.03 17:49:19.
