data_PCOD9246136
_publ_section_title
;
Structure prediction by ZEFSAII (Michael W. Deem and Ramdas Pophale) SiO2 
 PCOD9246136
Probable space group: P 21/C
;
_chemical_formula_sum "Si O2"
_cell_formula_units_Z 20
_cell_length_a 25.533022
_cell_length_b 6.931461
_cell_length_c 17.578946
_cell_angle_alpha 90.000000
_cell_angle_beta 164.195793
_cell_angle_gamma 90.000000
_cell_volume 847.322321
_symmetry_space_group_name_H-M "P 21/C"
_symmetry_group_IT_number 14
_symmetry_cell_setting 'monoclinic'
loop_
_space_group_symop_operation_xyz
x,y,z
-x,1/2+y,1/2-z
-x,-y,-z
x,1/2-y,1/2+z
loop_
_atom_site_type_symbol
_atom_site_label
_atom_site_fract_x
_atom_site_fract_y
_atom_site_fract_z
Si Si1 0.896207 0.894759 0.239525
Si Si2 0.682819 0.916005 0.343446
Si Si3 0.240570 0.647520 0.578903
Si Si4 0.729045 0.519322 0.660854
Si Si5 0.677447 0.640714 0.188874
O O1 0.748269 0.967589 0.097467
O O2 0.816947 0.704119 0.087946
O O3 0.100381 0.889001 0.566916
O O4 0.900238 0.055067 0.178864
O O5 0.522855 0.047102 0.903797
O O6 0.657631 0.789918 0.232125
O O7 0.764487 0.123792 0.433221
O O8 0.220012 0.543967 0.631569
O O9 0.459300 0.588619 0.861320
O O10 0.766438 0.736017 0.745618
#
# Coordination Sequence:
#
# PCOD9246136 Si02
#       5
#     4   4   4   4   4
#     4  10  23  40  59  97 134 166 216 257 322 386
#     4  10  21  41  66  91 127 168 217 264 319 378
#     4   9  18  38  61  89 119 163 213 256 311 378
#     4  10  21  40  63  93 135 170 210 269 314 389
#     4   9  19  39  63  89 122 163 216 262 320 375
#
# _framework density 23.603769
#
# number of rings (size 3 to 8) (size 9 to 14) (size 15 to 20)
#    0.000    2.400    0.000    2.400    5.600    0.000 
#   14.400   14.000    0.000    0.000    0.000    0.000 
#    0.000    0.000    0.000    0.000    0.000    0.000 
#
# Total GULP energy -111950.447775 kJ/mol
# GULP energy per Si atom -5597.522389 kJ/mol
# Density = 2.355005 g / cm^3
# Si number density = 23.603769 Si / 1000 Ang^3
#
#
#
# Elastic Constant Matrix: (Units=GPa)
#
#
# Indices 1 2 3 4 5 6 
#
# 1 69.9049 21.5320 25.8065 0.0000 10.5689 0.0000
# 2 21.5320 134.5388 36.7193 0.0000 0.7843 0.0000
# 3 25.8065 36.7193 103.9844 0.0000 -1.3349 0.0000
# 4 0.0000 0.0000 0.0000 25.3278 0.0000 2.6607
# 5 10.5689 0.7843 -1.3349 0.0000 33.3959 0.0000
# 6 0.0000 0.0000 0.0000 2.6607 0.0000 26.6164
#
#
#
# Elastic Compliance Matrix: (Units=1/GPa)
#
#
# Indices 1 2 3 4 5 6 
#
# 1 0.017020 -0.001682 -0.003701 0.000000 -0.005495 0.000000
# 2 -0.001682 0.008395 -0.002544 0.000000 0.000233 0.000000
# 3 -0.003701 -0.002544 0.011455 0.000000 0.001689 0.000000
# 4 0.000000 0.000000 0.000000 0.039901 0.000000 -0.003989
# 5 -0.005495 0.000233 0.001689 0.000000 0.031745 0.000000
# 6 0.000000 0.000000 0.000000 -0.003989 0.000000 0.037970
#
#
# Mechanical properties :
#
#
# Convention : Reuss Voigt Hill
#
# Bulk Modulus (GPa) = 47.58010 52.94931 50.26470
# Shear Modulus (GPa) = 29.52555 32.02604 30.77579
#
# Velocity S-wave (km/s) = 3.54062 3.68750 3.61480
# Velocity P-wave (km/s) = 6.07587 6.37271 6.22606
#
# Compressibility (1/GPa) = 0.02101719
#
# Stress axis : x y z
#
# Youngs Moduli (GPa) = 58.75403 119.11910 87.29611
#
# Poissons Ratio (x) = 0.20035 0.32305
# Poissons Ratio (y) = 0.09882 0.22208
# Poissons Ratio (z) = 0.21743 0.30304
#
# Static dielectric constant tensor:
#      x y z
#    x 1.874520 0.000000 0.036970 
#    y 0.000000 1.898220 0.000000 
#    z 0.036970 0.000000 1.889860 
# 
# From -- ./inp_files/62422.got.cif
#   From: 2010.05.17/outbox.cif.g08.bks.cpg/sg14_32_cif.got.tgz:62422.got - 2010.06.03 17:49:19.
