data_PCOD9246297
_publ_section_title
;
Structure prediction by ZEFSAII (Michael W. Deem and Ramdas Pophale) SiO2 
 PCOD9246297
Probable space group: P 21/C
;
_chemical_formula_sum "Si O2"
_cell_formula_units_Z 24
_cell_length_a 21.859263
_cell_length_b 8.479387
_cell_length_c 14.710257
_cell_angle_alpha 90.000000
_cell_angle_beta 157.101273
_cell_angle_gamma 90.000000
_cell_volume 1060.926631
_symmetry_space_group_name_H-M "P 21/C"
_symmetry_group_IT_number 14
_symmetry_cell_setting 'monoclinic'
loop_
_space_group_symop_operation_xyz
x,y,z
-x,1/2+y,1/2-z
-x,-y,-z
x,1/2-y,1/2+z
loop_
_atom_site_type_symbol
_atom_site_label
_atom_site_fract_x
_atom_site_fract_y
_atom_site_fract_z
Si Si1 0.389704 0.012222 0.494204
Si Si2 0.562780 0.202526 0.019448
Si Si3 0.751586 0.963367 0.392155
Si Si4 0.863957 0.368108 0.214687
Si Si5 0.291319 0.551486 0.464889
Si Si6 0.825104 0.710824 0.814467
O O1 0.393526 0.885704 0.418763
O O2 0.262055 0.950262 0.392171
O O3 0.558716 0.002808 0.772054
O O4 0.335740 0.188551 0.398000
O O5 0.640453 0.108909 0.208830
O O6 0.377663 0.166970 0.756087
O O7 0.641676 0.127148 0.037168
O O8 0.838014 0.895100 0.422424
O O9 0.864470 0.025488 0.625392
O O10 0.031553 0.333058 0.489411
O O11 0.799383 0.191307 0.109210
O O12 0.187443 0.403499 0.289524
#
# Coordination Sequence:
#
# PCOD9246297 Si02
#       6
#     4   4   4   4   4   4
#     4  11  22  40  66  95 118 169 224 267 314 383
#     4   9  20  38  62  88 123 162 216 273 310 372
#     4  10  22  41  60  88 134 168 209 267 327 378
#     4  11  23  42  64  91 130 172 210 265 321 383
#     4  10  21  40  67  93 120 168 220 263 314 376
#     4  11  24  41  63  96 134 166 210 268 331 381
#
# _framework density 22.621734
#
# number of rings (size 3 to 8) (size 9 to 14) (size 15 to 20)
#    0.000    1.667    1.667    3.000    4.667    2.000 
#    3.000    1.667    0.000    0.000    0.000    0.000 
#    0.000    0.000    0.000    0.000    0.000    0.000 
#
# Total GULP energy -134153.489026 kJ/mol
# GULP energy per Si atom -5589.728709 kJ/mol
# Density = 2.257025 g / cm^3
# Si number density = 22.621734 Si / 1000 Ang^3
#
#
#
# Elastic Constant Matrix: (Units=GPa)
#
#
# Indices 1 2 3 4 5 6 
#
# 1 28.5481 25.7581 10.5220 0.0000 -5.7697 0.0000
# 2 25.7581 98.3163 20.7441 0.0000 -15.9218 0.0000
# 3 10.5220 20.7441 92.5083 0.0000 -8.4136 0.0000
# 4 0.0000 0.0000 0.0000 43.3294 0.0000 0.2857
# 5 -5.7697 -15.9218 -8.4136 0.0000 14.9772 0.0000
# 6 0.0000 0.0000 0.0000 0.2857 0.0000 33.3210
#
#
#
# Elastic Compliance Matrix: (Units=1/GPa)
#
#
# Indices 1 2 3 4 5 6 
#
# 1 0.046805 -0.010936 -0.002412 0.000000 0.005050 0.000000
# 2 -0.010936 0.015086 -0.001121 0.000000 0.011195 0.000000
# 3 -0.002412 -0.001121 0.011743 0.000000 0.004476 0.000000
# 4 0.000000 0.000000 0.000000 0.023080 0.000000 -0.000198
# 5 0.005050 0.011195 0.004476 0.000000 0.083129 0.000000
# 6 0.000000 0.000000 0.000000 -0.000198 0.000000 0.030013
#
#
# Mechanical properties :
#
#
# Convention : Reuss Voigt Hill
#
# Bulk Modulus (GPa) = 22.37323 37.04678 29.71001
# Shear Modulus (GPa) = 19.70894 29.14877 24.42886
#
# Velocity S-wave (km/s) = 2.95488 3.59350 3.28972
# Velocity P-wave (km/s) = 4.64256 5.79913 5.25277
#
# Compressibility (1/GPa) = 0.04469627
#
# Stress axis : x y z
#
# Youngs Moduli (GPa) = 21.36503 66.28760 85.16001
#
# Poissons Ratio (x) = 0.72491 0.20542
# Poissons Ratio (y) = 0.23364 0.09545
# Poissons Ratio (z) = 0.05154 0.07430
#
# Static dielectric constant tensor:
#      x y z
#    x 1.813610 0.000000 0.011810 
#    y 0.000000 1.874830 0.000000 
#    z 0.011810 0.000000 1.836530 
# 
# From -- ./inp_files/62260.got.cif
#   From: 2010.05.17/outbox.cif.g08.bks.cpg/sg14_32_cif.got.tgz:62260.got - 2010.06.03 17:49:19.
