data_PCOD9246078
_publ_section_title
;
Structure prediction by ZEFSAII (Michael W. Deem and Ramdas Pophale) SiO2 
 PCOD9246078
Probable space group: P 21/C
;
_chemical_formula_sum "Si O2"
_cell_formula_units_Z 30
_cell_length_a 8.776978
_cell_length_b 9.418876
_cell_length_c 24.852577
_cell_angle_alpha 90.000000
_cell_angle_beta 144.467587
_cell_angle_gamma 90.000000
_cell_volume 1194.026010
_symmetry_space_group_name_H-M "P 21/C"
_symmetry_group_IT_number 14
_symmetry_cell_setting 'monoclinic'
loop_
_space_group_symop_operation_xyz
x,y,z
-x,1/2+y,1/2-z
-x,-y,-z
x,1/2-y,1/2+z
loop_
_atom_site_type_symbol
_atom_site_label
_atom_site_fract_x
_atom_site_fract_y
_atom_site_fract_z
Si Si1 0.773670 0.156731 0.774894
Si Si2 0.575334 0.868507 0.892874
Si Si3 0.143070 0.386066 0.970332
Si Si4 0.500000 0.500000 0.000000
Si Si5 0.386426 0.576701 0.119289
Si Si6 0.139773 0.516323 0.329587
Si Si7 0.025672 0.660615 0.822241
Si Si8 0.546310 0.366119 0.320634
O O1 0.657346 0.277426 0.702750
O O2 0.702339 0.194238 0.814890
O O3 0.600861 0.017082 0.710941
O O4 0.064140 0.096205 0.853201
O O5 0.777200 0.755594 0.974442
O O6 0.439792 0.958591 0.900819
O O7 0.660985 0.985005 0.873715
O O8 0.355339 0.508060 0.051306
O O9 0.220801 0.397833 0.930939
O O10 0.874168 0.439289 0.919086
O O11 0.305881 0.630248 0.928265
O O12 0.438817 0.742939 0.130573
O O13 0.025730 0.672612 0.307815
O O14 0.009176 0.438537 0.240302
O O15 0.763729 0.625415 0.781226
#
# Coordination Sequence:
#
# PCOD9246078 Si02
#       8
#     4   4   4   2   4   4   4   4
#     4  11  20  37  60  92 119 155 218 268 307 380
#     4  10  22  39  59  88 126 166 207 263 327 385
#     4  10  22  41  62  89 128 166 207 260 330 389
#     4  12  22  40  66 100 124 166 220 276 316 396
#     4  10  21  40  62  87 125 169 206 260 329 389
#     4  11  20  41  63  92 124 174 207 265 323 398
#     4  11  23  39  69  93 128 166 220 264 335 381
#     4  11  23  37  64  94 121 164 221 270 311 382
#
# _framework density 25.125081999999999
#
# number of rings (size 3 to 8) (size 9 to 14) (size 15 to 20)
#    0.000    1.333    4.000    2.400    0.000    1.600 
#    0.000    0.000    0.000    2.400    0.000    0.000 
#    0.000    0.000    0.000    0.000    0.000    0.000 
#
# Total GULP energy -167187.223075 kJ/mol
# GULP energy per Si atom -5572.907436 kJ/mol
# Density = 2.506790 g / cm^3
# Si number density = 25.125082 Si / 1000 Ang^3
#
#
#
# Elastic Constant Matrix: (Units=GPa)
#
#
# Indices 1 2 3 4 5 6 
#
# 1 59.6427 -7.8209 -10.2712 0.0000 14.0210 0.0000
# 2 -7.8209 130.9994 12.4395 0.0000 -17.2581 0.0000
# 3 -10.2712 12.4395 37.6250 0.0000 -0.4728 0.0000
# 4 0.0000 0.0000 0.0000 24.2572 0.0000 4.9359
# 5 14.0210 -17.2581 -0.4728 0.0000 18.5572 0.0000
# 6 0.0000 0.0000 0.0000 4.9359 0.0000 27.1391
#
#
#
# Elastic Compliance Matrix: (Units=1/GPa)
#
#
# Indices 1 2 3 4 5 6 
#
# 1 0.021832 -0.001647 0.006280 0.000000 -0.017867 0.000000
# 2 -0.001647 0.009123 -0.003345 0.000000 0.009644 0.000000
# 3 0.006280 -0.003345 0.029309 0.000000 -0.007109 0.000000
# 4 0.000000 0.000000 0.000000 0.042809 0.000000 -0.007786
# 5 -0.017867 0.009644 -0.007109 0.000000 0.076174 0.000000
# 6 0.000000 0.000000 0.000000 -0.007786 0.000000 0.038263
#
#
# Mechanical properties :
#
#
# Convention : Reuss Voigt Hill
#
# Bulk Modulus (GPa) = 15.91306 24.10688 20.00997
# Shear Modulus (GPa) = 21.19708 29.58536 25.39122
#
# Velocity S-wave (km/s) = 2.90774 3.43523 3.18243
# Velocity P-wave (km/s) = 4.19768 5.03487 4.63522
#
# Compressibility (1/GPa) = 0.06284148
#
# Stress axis : x y z
#
# Youngs Moduli (GPa) = 45.80373 109.60828 34.11934
#
# Poissons Ratio (x) = 0.18050 -0.21427
# Poissons Ratio (y) = 0.07543 0.11412
# Poissons Ratio (z) = -0.28764 0.36661
#
# Static dielectric constant tensor:
#      x y z
#    x 1.360450 0.000000 0.472140 
#    y 0.000000 1.916230 0.000000 
#    z 0.472140 0.000000 1.772970 
# 
# From -- ./inp_files/76525.got.cif
#   From: 2010.05.17/outbox.cif.g08.bks.cpg/sg14_39_cif.got.tgz:76525.got - 2010.06.03 17:49:19.
