data_PCOD9246853
_publ_section_title
;
Structure prediction by ZEFSAII (Michael W. Deem and Ramdas Pophale) SiO2 
 PCOD9246853
Probable space group: P 21/C
;
_chemical_formula_sum "Si O2"
_cell_formula_units_Z 24
_cell_length_a 5.373069
_cell_length_b 13.955927
_cell_length_c 14.052142
_cell_angle_alpha 90.000000
_cell_angle_beta 64.374502
_cell_angle_gamma 90.000000
_cell_volume 950.072786
_symmetry_space_group_name_H-M "P 21/C"
_symmetry_group_IT_number 14
_symmetry_cell_setting 'monoclinic'
loop_
_space_group_symop_operation_xyz
x,y,z
-x,1/2+y,1/2-z
-x,-y,-z
x,1/2-y,1/2+z
loop_
_atom_site_type_symbol
_atom_site_label
_atom_site_fract_x
_atom_site_fract_y
_atom_site_fract_z
Si Si1 0.502251 0.887477 0.970849
Si Si2 0.636759 0.986690 0.270618
Si Si3 0.797775 0.345234 0.093112
Si Si4 0.488589 0.312982 0.739114
Si Si5 0.652653 0.902286 0.451476
Si Si6 0.143733 0.344826 0.408671
O O1 0.706861 0.840267 0.014118
O O2 0.598510 0.863353 0.846603
O O3 0.184820 0.852076 0.031274
O O4 0.500000 0.000000 0.000000
O O5 0.601991 0.099559 0.283276
O O6 0.760264 0.945893 0.153946
O O7 0.336926 0.938966 0.336024
O O8 0.800984 0.931649 0.327299
O O9 0.742007 0.257528 0.171560
O O10 0.592802 0.332156 0.037439
O O11 0.111620 0.366639 0.018965
O O12 0.263696 0.241536 0.822763
O O13 0.500000 0.000000 0.500000
#
# Coordination Sequence:
#
# PCOD9246853 Si02
#       6
#     4   4   4   4   4   4
#     4  12  27  50  80 109 155 204 258 309 390 456
#     4   9  23  42  70  99 144 194 239 306 375 431
#     4   9  23  42  62 100 139 179 243 295 365 431
#     4  11  25  48  78 111 148 202 249 324 374 452
#     4  10  21  42  67  94 143 189 236 300 367 440
#     4  11  27  50  71 115 151 195 261 316 374 466
#
# _framework density 25.261222
#
# number of rings (size 3 to 8) (size 9 to 14) (size 15 to 20)
#    1.000    0.667    1.667    1.000    4.667    5.333 
#    6.000    0.000    0.000    0.000    0.000    0.000 
#    0.000    0.000    0.000    0.000    0.000    0.000 
#
# Total GULP energy -134072.951432 kJ/mol
# GULP energy per Si atom -5586.372976 kJ/mol
# Density = 2.520373 g / cm^3
# Si number density = 25.261222 Si / 1000 Ang^3
#
#
#
# Elastic Constant Matrix: (Units=GPa)
#
#
# Indices 1 2 3 4 5 6 
#
# 1 166.1307 31.2299 33.5517 0.0000 -22.3334 0.0000
# 2 31.2299 167.1069 24.7862 0.0000 -23.8164 0.0000
# 3 33.5517 24.7862 72.3801 0.0000 -2.4917 0.0000
# 4 0.0000 0.0000 0.0000 57.0255 0.0000 6.5609
# 5 -22.3334 -23.8164 -2.4917 0.0000 30.9867 0.0000
# 6 0.0000 0.0000 0.0000 6.5609 0.0000 10.5886
#
#
#
# Elastic Compliance Matrix: (Units=1/GPa)
#
#
# Indices 1 2 3 4 5 6 
#
# 1 0.007356 -0.000208 -0.003170 0.000000 0.004887 0.000000
# 2 -0.000208 0.007070 -0.002149 0.000000 0.005112 0.000000
# 3 -0.003170 -0.002149 0.015930 0.000000 -0.002656 0.000000
# 4 0.000000 0.000000 0.000000 0.018882 0.000000 -0.011700
# 5 0.004887 0.005112 -0.002656 0.000000 0.039509 0.000000
# 6 0.000000 0.000000 0.000000 -0.011700 0.000000 0.101690
#
#
# Mechanical properties :
#
#
# Convention : Reuss Voigt Hill
#
# Bulk Modulus (GPa) = 51.80859 64.97258 58.39058
# Shear Modulus (GPa) = 24.04709 40.79016 32.41862
#
# Velocity S-wave (km/s) = 3.08869 4.02273 3.58625
# Velocity P-wave (km/s) = 5.76834 6.88133 6.34927
#
# Compressibility (1/GPa) = 0.01930182
#
# Stress axis : x y z
#
# Youngs Moduli (GPa) = 135.94982 141.43691 62.77479
#
# Poissons Ratio (x) = 0.02941 0.19901
# Poissons Ratio (y) = 0.02827 0.13489
# Poissons Ratio (z) = 0.43100 0.30392
#
# Static dielectric constant tensor:
#      x y z
#    x 2.002430 0.000000 0.075660 
#    y 0.000000 2.060850 0.000000 
#    z 0.075660 0.000000 2.098580 
# 
# From -- ./inp_files/53110.got.cif
#   From: 2010.05.17/outbox.cif.g08.bks.cpg/sg14_27_cif.got.tgz:53110.got - 2010.06.03 17:49:19.
