data_PCOD9246952
_publ_section_title
;
Structure prediction by ZEFSAII (Michael W. Deem and Ramdas Pophale) SiO2 
 PCOD9246952
Probable space group: P 21/C
;
_chemical_formula_sum "Si O2"
_cell_formula_units_Z 30
_cell_length_a 11.380237
_cell_length_b 15.384345
_cell_length_c 9.808425
_cell_angle_alpha 90.000000
_cell_angle_beta 53.301676
_cell_angle_gamma 90.000000
_cell_volume 1376.866778
_symmetry_space_group_name_H-M "P 21/C"
_symmetry_group_IT_number 14
_symmetry_cell_setting 'monoclinic'
loop_
_space_group_symop_operation_xyz
x,y,z
-x,1/2+y,1/2-z
-x,-y,-z
x,1/2-y,1/2+z
loop_
_atom_site_type_symbol
_atom_site_label
_atom_site_fract_x
_atom_site_fract_y
_atom_site_fract_z
Si Si1 0.248981 0.206599 0.810547
Si Si2 0.738139 0.211199 0.494573
Si Si3 0.500000 0.500000 0.500000
Si Si4 0.509103 0.899568 0.467583
Si Si5 0.658321 0.144085 0.840584
Si Si6 0.917848 0.691033 0.294853
Si Si7 0.156461 0.469860 0.840260
Si Si8 0.595216 0.876086 0.703750
O O1 0.346762 0.123161 0.717304
O O2 0.155324 0.233005 0.743905
O O3 0.366189 0.284196 0.754428
O O4 0.140705 0.199196 0.012479
O O5 0.635402 0.137343 0.501729
O O6 0.714523 0.199554 0.673267
O O7 0.687997 0.300128 0.455047
O O8 0.907603 0.197029 0.340966
O O9 0.500774 0.600628 0.570458
O O10 0.498507 0.447430 0.648206
O O11 0.532345 0.856855 0.599854
O O12 0.500000 0.000000 0.500000
O O13 0.742044 0.048819 0.786345
O O14 0.865740 0.601536 0.260569
O O15 0.246250 0.424970 0.900726
O O16 0.000000 0.500000 0.000000
#
# Coordination Sequence:
#
# PCOD9246952 Si02
#       8
#     4   4   2   4   4   4   4   4
#     4  11  24  47  73 104 145 194 249 294 360 443
#     4  12  27  46  72 112 149 185 245 309 367 437
#     4  10  22  44  72 100 136 186 240 286 366 436
#     4  12  27  44  72 102 155 184 236 306 371 426
#     4  11  25  45  72 102 142 187 241 298 366 433
#     4  11  24  46  77 107 144 198 247 299 368 439
#     4  10  21  42  74  97 138 194 241 289 354 441
#     4  10  23  44  71 103 137 193 238 296 356 435
#
# _framework density 21.788602000000001
#
# number of rings (size 3 to 8) (size 9 to 14) (size 15 to 20)
#    0.000    1.067    2.667    3.200    5.600    6.400 
#    0.000    0.667    0.000    0.000    0.000    0.000 
#    0.000    0.000    0.000    0.000    0.000    0.000 
#
# Total GULP energy -167193.495757 kJ/mol
# GULP energy per Si atom -5573.116525 kJ/mol
# Density = 2.173901 g / cm^3
# Si number density = 21.788602 Si / 1000 Ang^3
#
#
#
# Elastic Constant Matrix: (Units=GPa)
#
#
# Indices 1 2 3 4 5 6 
#
# 1 86.3771 17.6121 19.9274 0.0000 -11.7544 0.0000
# 2 17.6121 116.0679 17.5368 0.0000 -9.5916 0.0000
# 3 19.9274 17.5368 102.0166 0.0000 0.9265 0.0000
# 4 0.0000 0.0000 0.0000 36.7981 0.0000 -1.9560
# 5 -11.7544 -9.5916 0.9265 0.0000 23.7954 0.0000
# 6 0.0000 0.0000 0.0000 -1.9560 0.0000 33.3245
#
#
#
# Elastic Compliance Matrix: (Units=1/GPa)
#
#
# Indices 1 2 3 4 5 6 
#
# 1 0.013209 -0.001126 -0.002443 0.000000 0.006166 0.000000
# 2 -0.001126 0.009266 -0.001402 0.000000 0.003233 0.000000
# 3 -0.002443 -0.001402 0.010540 0.000000 -0.002182 0.000000
# 4 0.000000 0.000000 0.000000 0.027260 0.000000 0.001600
# 5 0.006166 0.003233 -0.002182 0.000000 0.046459 0.000000
# 6 0.000000 0.000000 0.000000 0.001600 0.000000 0.030102
#
#
# Mechanical properties :
#
#
# Convention : Reuss Voigt Hill
#
# Bulk Modulus (GPa) = 43.33909 46.06824 44.70367
# Shear Modulus (GPa) = 32.36885 35.40928 33.88906
#
# Velocity S-wave (km/s) = 3.85851 4.03566 3.94808
# Velocity P-wave (km/s) = 6.30751 6.55016 6.42998
#
# Compressibility (1/GPa) = 0.02307386
#
# Stress axis : x y z
#
# Youngs Moduli (GPa) = 75.70382 107.92699 94.87360
#
# Poissons Ratio (x) = 0.12150 0.23175
# Poissons Ratio (y) = 0.08522 0.13303
# Poissons Ratio (z) = 0.18492 0.15134
#
# Static dielectric constant tensor:
#      x y z
#    x 1.695180 0.000000 0.049660 
#    y 0.000000 1.821460 0.000000 
#    z 0.049660 0.000000 1.917480 
# 
# From -- ./inp_files/13255.got.cif
#   From: 2010.05.17/outbox.cif.g08.bks.cpg/sg14_7_cif.got.tgz:13255.got - 2010.06.03 17:49:19.
