data_PCOD9246352
_publ_section_title
;
Structure prediction by ZEFSAII (Michael W. Deem and Ramdas Pophale) SiO2 
 PCOD9246352
Probable space group: P 21/C
;
_chemical_formula_sum "Si O2"
_cell_formula_units_Z 28
_cell_length_a 7.878266
_cell_length_b 8.921227
_cell_length_c 23.280821
_cell_angle_alpha 90.000000
_cell_angle_beta 133.075674
_cell_angle_gamma 90.000000
_cell_volume 1195.213218
_symmetry_space_group_name_H-M "P 21/C"
_symmetry_group_IT_number 14
_symmetry_cell_setting 'monoclinic'
loop_
_space_group_symop_operation_xyz
x,y,z
-x,1/2+y,1/2-z
-x,-y,-z
x,1/2-y,1/2+z
loop_
_atom_site_type_symbol
_atom_site_label
_atom_site_fract_x
_atom_site_fract_y
_atom_site_fract_z
Si Si1 0.142925 0.226576 0.813644
Si Si2 0.737425 0.441800 0.286605
Si Si3 0.948177 0.170607 0.507395
Si Si4 0.169994 0.989354 0.734052
Si Si5 0.354108 0.652399 0.170763
Si Si6 0.684857 0.591515 0.392567
Si Si7 0.610763 0.381345 0.478775
O O1 0.152345 0.156870 0.752389
O O2 0.958557 0.124462 0.806187
O O3 0.386255 0.201108 0.900412
O O4 0.044100 0.391813 0.793824
O O5 0.577731 0.550547 0.211878
O O6 0.596196 0.296575 0.277676
O O7 0.791499 0.529980 0.357744
O O8 0.782763 0.212765 0.415047
O O9 0.798793 0.242711 0.526575
O O10 0.197269 0.250763 0.567590
O O11 0.000000 0.000000 0.500000
O O12 0.193370 0.956911 0.672297
O O13 0.406724 0.921401 0.817279
O O14 0.725651 0.490921 0.458063
O O15 0.500000 0.500000 0.500000
#
# Coordination Sequence:
#
# PCOD9246352 Si02
#       7
#     4   4   4   4   4   4   4
#     4  10  22  38  64  92 127 168 215 279 335 409
#     4  10  21  40  69  92 128 179 228 282 333 425
#     4  12  27  42  68 100 136 174 232 298 346 414
#     4   9  22  39  61  91 126 166 219 272 342 400
#     4  10  23  40  64  96 126 174 228 279 339 411
#     4  10  22  44  63  91 131 179 224 272 342 431
#     4  11  24  43  68  96 130 182 228 272 360 433
#
# _framework density 23.426781999999999
#
# number of rings (size 3 to 8) (size 9 to 14) (size 15 to 20)
#    0.000    1.714    1.429    1.286   12.000    0.000 
#    5.143    0.714    0.000    0.000    0.000    0.000 
#    0.000    0.000    0.000    0.000    0.000    0.000 
#
# Total GULP energy -156208.248573 kJ/mol
# GULP energy per Si atom -5578.866020 kJ/mol
# Density = 2.337346 g / cm^3
# Si number density = 23.426782 Si / 1000 Ang^3
#
#
#
# Elastic Constant Matrix: (Units=GPa)
#
#
# Indices 1 2 3 4 5 6 
#
# 1 111.9646 21.5918 2.8789 0.0000 7.2732 0.0000
# 2 21.5918 89.6121 -8.0041 0.0000 7.8088 0.0000
# 3 2.8789 -8.0041 35.2939 0.0000 2.5482 0.0000
# 4 0.0000 0.0000 0.0000 30.6041 0.0000 13.1574
# 5 7.2732 7.8088 2.5482 0.0000 34.6699 0.0000
# 6 0.0000 0.0000 0.0000 13.1574 0.0000 48.3316
#
#
#
# Elastic Compliance Matrix: (Units=1/GPa)
#
#
# Indices 1 2 3 4 5 6 
#
# 1 0.009490 -0.002272 -0.001189 0.000000 -0.001392 0.000000
# 2 -0.002272 0.012205 0.003134 0.000000 -0.002503 0.000000
# 3 -0.001189 0.003134 0.029330 0.000000 -0.002612 0.000000
# 4 0.000000 0.000000 0.000000 0.037007 0.000000 -0.010074
# 5 -0.001392 -0.002503 -0.002612 0.000000 0.029891 0.000000
# 6 0.000000 0.000000 0.000000 -0.010074 0.000000 0.023433
#
#
# Mechanical properties :
#
#
# Convention : Reuss Voigt Hill
#
# Bulk Modulus (GPa) = 19.85247 29.97820 24.91533
# Shear Modulus (GPa) = 31.48632 37.41471 34.45051
#
# Velocity S-wave (km/s) = 3.67008 4.00070 3.83895
# Velocity P-wave (km/s) = 5.14315 5.84509 5.50532
#
# Compressibility (1/GPa) = 0.05037158
#
# Stress axis : x y z
#
# Youngs Moduli (GPa) = 105.36913 81.93686 34.09502
#
# Poissons Ratio (x) = 0.18613 0.04053
# Poissons Ratio (y) = 0.23935 -0.10685
# Poissons Ratio (z) = 0.12526 -0.25677
#
# Static dielectric constant tensor:
#      x y z
#    x 1.956890 0.000000 -0.011200 
#    y 0.000000 1.931500 0.000000 
#    z -0.011200 0.000000 1.909080 
# 
# From -- ./inp_files/76393.got.cif
#   From: 2010.05.17/outbox.cif.g08.bks.cpg/sg14_39_cif.got.tgz:76393.got - 2010.06.03 17:49:19.
