data_PCOD9246135
_publ_section_title
;
Structure prediction by ZEFSAII (Michael W. Deem and Ramdas Pophale) SiO2 
 PCOD9246135
Probable space group: P 21/C
;
_chemical_formula_sum "Si O2"
_cell_formula_units_Z 32
_cell_length_a 31.588966
_cell_length_b 8.097996
_cell_length_c 12.697069
_cell_angle_alpha 90.000000
_cell_angle_beta 153.356845
_cell_angle_gamma 90.000000
_cell_volume 1456.509982
_symmetry_space_group_name_H-M "P 21/C"
_symmetry_group_IT_number 14
_symmetry_cell_setting 'monoclinic'
loop_
_space_group_symop_operation_xyz
x,y,z
-x,1/2+y,1/2-z
-x,-y,-z
x,1/2-y,1/2+z
loop_
_atom_site_type_symbol
_atom_site_label
_atom_site_fract_x
_atom_site_fract_y
_atom_site_fract_z
Si Si1 0.454013 0.947511 0.673950
Si Si2 0.350545 0.478143 0.725317
Si Si3 0.953129 0.731979 0.063852
Si Si4 0.159289 0.325637 0.380351
Si Si5 0.208589 0.409587 0.154845
Si Si6 0.304269 0.733673 0.452712
Si Si7 0.130417 0.951477 0.023242
Si Si8 0.598785 0.719359 0.357131
O O1 0.449970 0.103736 0.742146
O O2 0.397899 0.999309 0.443205
O O3 0.397542 0.800008 0.603525
O O4 0.553646 0.888021 0.851194
O O5 0.250252 0.388744 0.519154
O O6 0.330054 0.651179 0.621367
O O7 0.411229 0.370054 0.777435
O O8 0.058050 0.695424 0.335309
O O9 0.919360 0.917953 0.010312
O O10 0.931171 0.683714 0.895356
O O11 0.883067 0.618035 0.977793
O O12 0.181656 0.145942 0.478312
O O13 0.145431 0.448447 0.447742
O O14 0.255655 0.585809 0.278334
O O15 0.289548 0.279321 0.372258
O O16 0.227509 0.879187 0.283900
#
# Coordination Sequence:
#
# PCOD9246135 Si02
#       8
#     4   4   4   4   4   4   4   4
#     4  12  24  45  64  98 131 170 215 270 315 382
#     4  11  23  43  69  92 132 170 213 267 322 381
#     4  11  22  41  64  92 126 166 213 260 318 375
#     4  11  21  42  68  91 128 169 208 264 321 376
#     4  10  21  40  63  93 123 167 206 262 317 373
#     4  11  23  42  65  94 130 170 213 260 327 377
#     4  11  24  42  65  94 130 169 209 268 314 378
#     4  11  22  41  67  91 129 169 213 264 323 374
#
# _framework density 21.970327000000001
#
# number of rings (size 3 to 8) (size 9 to 14) (size 15 to 20)
#    0.000    1.000    5.000    3.750    0.000    1.000 
#    0.000    4.375    0.000    0.000    0.000    0.000 
#    0.000    0.000    0.000    0.000    0.000    0.000 
#
# Total GULP energy -178960.175170 kJ/mol
# GULP energy per Si atom -5592.505474 kJ/mol
# Density = 2.192032 g / cm^3
# Si number density = 21.970327 Si / 1000 Ang^3
#
#
#
# Elastic Constant Matrix: (Units=GPa)
#
#
# Indices 1 2 3 4 5 6 
#
# 1 45.2199 6.5240 7.2573 0.0000 -9.3421 0.0000
# 2 6.5240 78.0062 -8.0294 0.0000 -9.7415 0.0000
# 3 7.2573 -8.0294 49.3781 0.0000 -3.1579 0.0000
# 4 0.0000 0.0000 0.0000 33.2287 0.0000 5.9816
# 5 -9.3421 -9.7415 -3.1579 0.0000 29.1235 0.0000
# 6 0.0000 0.0000 0.0000 5.9816 0.0000 35.8666
#
#
#
# Elastic Compliance Matrix: (Units=1/GPa)
#
#
# Indices 1 2 3 4 5 6 
#
# 1 0.024305 -0.001516 -0.003376 0.000000 0.006923 0.000000
# 2 -0.001516 0.013781 0.002746 0.000000 0.004421 0.000000
# 3 -0.003376 0.002746 0.021332 0.000000 0.002149 0.000000
# 4 0.000000 0.000000 0.000000 0.031026 0.000000 -0.005174
# 5 0.006923 0.004421 0.002149 0.000000 0.038269 0.000000
# 6 0.000000 0.000000 0.000000 -0.005174 0.000000 0.028744
#
#
# Mechanical properties :
#
#
# Convention : Reuss Voigt Hill
#
# Bulk Modulus (GPa) = 18.13958 20.45644 19.29801
# Shear Modulus (GPa) = 27.75874 30.76725 29.26300
#
# Velocity S-wave (km/s) = 3.55838 3.74625 3.65352
# Velocity P-wave (km/s) = 5.01569 5.29563 5.15756
#
# Compressibility (1/GPa) = 0.05512808
#
# Stress axis : x y z
#
# Youngs Moduli (GPa) = 41.14388 72.56320 46.87772
#
# Poissons Ratio (x) = 0.10998 0.15825
# Poissons Ratio (y) = 0.06236 -0.12875
# Poissons Ratio (z) = 0.13890 -0.19929
#
# Static dielectric constant tensor:
#      x y z
#    x 1.779430 0.000000 0.002690 
#    y 0.000000 1.855320 0.000000 
#    z 0.002690 0.000000 1.782330 
# 
# From -- ./inp_files/36503.got.cif
#   From: 2010.05.17/outbox.cif.g08.bks.cpg/sg14_19_cif.got.tgz:36503.got - 2010.06.03 17:49:19.
