data_PCOD9246673
_publ_section_title
;
Structure prediction by ZEFSAII (Michael W. Deem and Ramdas Pophale) SiO2 
 PCOD9246673
Probable space group: P 21/C
;
_chemical_formula_sum "Si O2"
_cell_formula_units_Z 28
_cell_length_a 17.230807
_cell_length_b 12.672482
_cell_length_c 10.917479
_cell_angle_alpha 90.000000
_cell_angle_beta 30.024501
_cell_angle_gamma 90.000000
_cell_volume 1192.837211
_symmetry_space_group_name_H-M "P 21/C"
_symmetry_group_IT_number 14
_symmetry_cell_setting 'monoclinic'
loop_
_space_group_symop_operation_xyz
x,y,z
-x,1/2+y,1/2-z
-x,-y,-z
x,1/2-y,1/2+z
loop_
_atom_site_type_symbol
_atom_site_label
_atom_site_fract_x
_atom_site_fract_y
_atom_site_fract_z
Si Si1 0.963001 0.307664 0.512823
Si Si2 0.997732 0.892526 0.667153
Si Si3 0.435446 0.983137 0.224454
Si Si4 0.265275 0.779175 0.469810
Si Si5 0.467004 0.581492 0.157575
Si Si6 0.871550 0.596705 0.931201
Si Si7 0.217888 0.325367 0.350379
O O1 0.019142 0.186906 0.420778
O O2 0.991779 0.370500 0.348956
O O3 0.084191 0.359511 0.439506
O O4 0.800548 0.294470 0.802522
O O5 0.130148 0.827884 0.566545
O O6 0.064176 0.008763 0.564142
O O7 0.832094 0.892093 0.961666
O O8 0.526815 0.026212 0.217334
O O9 0.267968 0.041186 0.452083
O O10 0.408066 0.858844 0.270099
O O11 0.500000 0.000000 0.000000
O O12 0.321837 0.662540 0.356411
O O13 0.500000 0.500000 0.000000
O O14 0.618872 0.654546 0.932800
O O15 0.807087 0.704269 0.076035
#
# Coordination Sequence:
#
# PCOD9246673 Si02
#       7
#     4   4   4   4   4   4   4
#     4  10  21  42  69  97 139 185 237 301 352 428
#     4   9  22  39  69 100 135 186 239 296 354 425
#     4  11  25  44  70  98 138 194 230 287 360 431
#     4  10  25  42  69  99 140 179 243 296 350 434
#     4  12  28  46  71 107 142 188 234 296 364 426
#     4  10  21  41  69  97 140 186 241 292 361 420
#     4  10  22  42  65 102 137 187 233 296 352 434
#
# _framework density 23.473445000000002
#
# number of rings (size 3 to 8) (size 9 to 14) (size 15 to 20)
#    0.000    1.714    1.429    0.857    8.000    5.714 
#    5.143    0.000    0.000    0.000    0.000    0.000 
#    0.000    0.000    0.000    0.000    0.000    0.000 
#
# Total GULP energy -156256.251029 kJ/mol
# GULP energy per Si atom -5580.580394 kJ/mol
# Density = 2.342002 g / cm^3
# Si number density = 23.473445 Si / 1000 Ang^3
#
#
#
# Elastic Constant Matrix: (Units=GPa)
#
#
# Indices 1 2 3 4 5 6 
#
# 1 60.0393 23.8878 30.5230 0.0000 9.6405 0.0000
# 2 23.8878 100.6824 42.3367 0.0000 12.1038 0.0000
# 3 30.5230 42.3367 129.3498 0.0000 17.0579 0.0000
# 4 0.0000 0.0000 0.0000 28.3152 0.0000 -4.1390
# 5 9.6405 12.1038 17.0579 0.0000 31.8636 0.0000
# 6 0.0000 0.0000 0.0000 -4.1390 0.0000 29.0404
#
#
#
# Elastic Compliance Matrix: (Units=1/GPa)
#
#
# Indices 1 2 3 4 5 6 
#
# 1 0.020042 -0.002972 -0.003342 0.000000 -0.003146 0.000000
# 2 -0.002972 0.012152 -0.002997 0.000000 -0.002112 0.000000
# 3 -0.003342 -0.002997 0.009917 0.000000 -0.003159 0.000000
# 4 0.000000 0.000000 0.000000 0.036068 0.000000 0.005141
# 5 -0.003146 -0.002112 -0.003159 0.000000 0.034829 0.000000
# 6 0.000000 0.000000 0.000000 0.005141 0.000000 0.035167
#
#
# Mechanical properties :
#
#
# Convention : Reuss Voigt Hill
#
# Bulk Modulus (GPa) = 42.57322 53.72962 48.15142
# Shear Modulus (GPa) = 28.63230 30.73210 29.68220
#
# Velocity S-wave (km/s) = 3.49632 3.62225 3.55984
# Velocity P-wave (km/s) = 5.87155 6.35873 6.11999
#
# Compressibility (1/GPa) = 0.02348895
#
# Stress axis : x y z
#
# Youngs Moduli (GPa) = 49.89470 82.29337 100.83382
#
# Poissons Ratio (x) = 0.24455 0.33697
# Poissons Ratio (y) = 0.14827 0.30225
# Poissons Ratio (z) = 0.16674 0.24667
#
# Static dielectric constant tensor:
#      x y z
#    x 1.955030 0.000000 0.032930 
#    y 0.000000 1.910780 0.000000 
#    z 0.032930 0.000000 1.909420 
# 
# From -- ./inp_files/35159.got.cif
#   From: 2010.05.17/outbox.cif.g08.bks.cpg/sg14_18_cif.got.tgz:35159.got - 2010.06.03 17:49:19.
