data_PCOD9246244
_publ_section_title
;
Structure prediction by ZEFSAII (Michael W. Deem and Ramdas Pophale) SiO2 
 PCOD9246244
Probable space group: P 21/C
;
_chemical_formula_sum "Si O2"
_cell_formula_units_Z 32
_cell_length_a 13.399408
_cell_length_b 13.783086
_cell_length_c 19.242541
_cell_angle_alpha 90.000000
_cell_angle_beta 20.149688
_cell_angle_gamma 90.000000
_cell_volume 1224.195849
_symmetry_space_group_name_H-M "P 21/C"
_symmetry_group_IT_number 14
_symmetry_cell_setting 'monoclinic'
loop_
_space_group_symop_operation_xyz
x,y,z
-x,1/2+y,1/2-z
-x,-y,-z
x,1/2-y,1/2+z
loop_
_atom_site_type_symbol
_atom_site_label
_atom_site_fract_x
_atom_site_fract_y
_atom_site_fract_z
Si Si1 0.315902 0.364828 0.925651
Si Si2 0.190908 0.736206 0.584100
Si Si3 0.190152 0.772284 0.424540
Si Si4 0.212378 0.947493 0.160385
Si Si5 0.574758 0.459225 0.235469
Si Si6 0.667890 0.046304 0.325209
Si Si7 0.893284 0.615782 0.359466
Si Si8 0.722560 0.867156 0.205523
O O1 0.480845 0.263208 0.806323
O O2 0.388001 0.430542 0.810919
O O3 0.472702 0.406492 0.893036
O O4 0.977312 0.386424 0.160149
O O5 0.123397 0.740820 0.547031
O O6 0.263505 0.631579 0.566813
O O7 0.468911 0.806988 0.410023
O O8 0.920336 0.782361 0.802924
O O9 0.149953 0.887004 0.441944
O O10 0.972983 0.707460 0.522645
O O11 0.021180 0.036119 0.254927
O O12 0.500000 0.000000 0.000000
O O13 0.396306 0.431615 0.420324
O O14 0.413939 0.414890 0.272967
O O15 0.888233 0.117914 0.218893
O O16 0.500000 0.000000 0.500000
O O17 0.830540 0.955550 0.182629
#
# Coordination Sequence:
#
# PCOD9246244 Si02
#       8
#     4   4   4   4   4   4   4   4
#     4  11  23  44  68  99 133 176 227 282 346 410
#     4  11  25  41  68  97 135 183 228 277 344 412
#     4  11  23  42  66  93 133 175 222 277 329 416
#     4  12  27  45  65 102 143 183 228 275 347 419
#     4  10  23  42  65  96 132 170 220 280 340 404
#     4  11  19  38  72 100 126 163 224 302 338 383
#     4  12  23  46  69 103 133 175 237 287 340 403
#     4  10  21  40  65  99 129 171 221 281 349 396
#
# _framework density 26.139607999999999
#
# number of rings (size 3 to 8) (size 9 to 14) (size 15 to 20)
#    0.000    1.000    2.500    5.250    3.500    2.000 
#    9.000    1.250    0.000    0.000    0.000    0.000 
#    0.000    0.000    0.000    0.000    0.000    0.000 
#
# Total GULP energy -179098.761662 kJ/mol
# GULP energy per Si atom -5596.836302 kJ/mol
# Density = 2.608011 g / cm^3
# Si number density = 26.139608 Si / 1000 Ang^3
#
#
#
# Elastic Constant Matrix: (Units=GPa)
#
#
# Indices 1 2 3 4 5 6 
#
# 1 94.3030 5.8545 11.5220 0.0000 1.2419 0.0000
# 2 5.8545 93.1015 -11.2148 0.0000 6.3032 0.0000
# 3 11.5220 -11.2148 73.0073 0.0000 9.8154 0.0000
# 4 0.0000 0.0000 0.0000 41.5607 0.0000 8.3778
# 5 1.2419 6.3032 9.8154 0.0000 36.3226 0.0000
# 6 0.0000 0.0000 0.0000 8.3778 0.0000 35.4753
#
#
#
# Elastic Compliance Matrix: (Units=1/GPa)
#
#
# Indices 1 2 3 4 5 6 
#
# 1 0.010891 -0.000935 -0.001903 0.000000 0.000304 0.000000
# 2 -0.000935 0.011236 0.002212 0.000000 -0.002516 0.000000
# 3 -0.001903 0.002212 0.014922 0.000000 -0.004351 0.000000
# 4 0.000000 0.000000 0.000000 0.025264 0.000000 -0.005966
# 5 0.000304 -0.002516 -0.004351 0.000000 0.029133 0.000000
# 6 0.000000 0.000000 0.000000 -0.005966 0.000000 0.029598
#
#
# Mechanical properties :
#
#
# Convention : Reuss Voigt Hill
#
# Bulk Modulus (GPa) = 27.93509 30.30390 29.11949
# Shear Modulus (GPa) = 37.24984 39.62173 38.43579
#
# Velocity S-wave (km/s) = 3.77906 3.89752 3.83874
# Velocity P-wave (km/s) = 5.45452 5.64557 5.55087
#
# Compressibility (1/GPa) = 0.03579727
#
# Stress axis : x y z
#
# Youngs Moduli (GPa) = 91.82167 88.99581 67.01345
#
# Poissons Ratio (x) = 0.08318 0.12754
# Poissons Ratio (y) = 0.08582 -0.14822
# Poissons Ratio (z) = 0.17476 -0.19684
#
# Static dielectric constant tensor:
#      x y z
#    x 2.020250 0.000000 -0.015080 
#    y 0.000000 2.063880 0.000000 
#    z -0.015080 0.000000 2.178350 
# 
# From -- ./inp_files/68641.got.cif
#   From: 2010.05.17/outbox.cif.g08.bks.cpg/sg14_35_cif.got.tgz:68641.got - 2010.06.03 17:49:19.
