data_PCOD9246052
_publ_section_title
;
Structure prediction by ZEFSAII (Michael W. Deem and Ramdas Pophale) SiO2 
 PCOD9246052
Probable space group: P 21/C
;
_chemical_formula_sum "Si O2"
_cell_formula_units_Z 32
_cell_length_a 10.848273
_cell_length_b 10.048972
_cell_length_c 27.460882
_cell_angle_alpha 90.000000
_cell_angle_beta 32.675846
_cell_angle_gamma 90.000000
_cell_volume 1616.212283
_symmetry_space_group_name_H-M "P 21/C"
_symmetry_group_IT_number 14
_symmetry_cell_setting 'monoclinic'
loop_
_space_group_symop_operation_xyz
x,y,z
-x,1/2+y,1/2-z
-x,-y,-z
x,1/2-y,1/2+z
loop_
_atom_site_type_symbol
_atom_site_label
_atom_site_fract_x
_atom_site_fract_y
_atom_site_fract_z
Si Si1 0.227660 0.855015 0.857964
Si Si2 0.840724 0.559304 0.701901
Si Si3 0.956825 0.596574 0.912695
Si Si4 0.672183 0.389023 0.460658
Si Si5 0.165118 0.695635 0.485452
Si Si6 0.622240 0.866126 0.442877
Si Si7 0.237650 0.177715 0.326558
Si Si8 0.459065 0.952009 0.397940
O O1 0.192348 0.885687 0.926862
O O2 0.495127 0.844128 0.755867
O O3 0.097851 0.716862 0.889229
O O4 0.133218 0.971500 0.855300
O O5 0.778968 0.712125 0.710378
O O6 0.636408 0.494572 0.800006
O O7 0.087913 0.572723 0.643517
O O8 0.859331 0.642268 0.892577
O O9 0.107936 0.461672 0.859371
O O10 0.727444 0.555459 0.019115
O O11 0.500000 0.500000 0.500000
O O12 0.731516 0.368218 0.498933
O O13 0.551053 0.251845 0.486601
O O14 0.309320 0.830364 0.427762
O O15 0.910229 0.749981 0.581889
O O16 0.619509 0.885117 0.385992
O O17 0.500000 0.000000 0.500000
#
# Coordination Sequence:
#
# PCOD9246052 Si02
#       8
#     4   4   4   4   4   4   4   4
#     4  12  23  37  62  94 130 160 213 260 311 381
#     4  11  22  38  62  92 121 161 205 261 319 372
#     4  10  22  40  64  90 120 167 214 259 308 376
#     4  10  21  40  61  86 124 158 195 253 321 368
#     4   9  21  39  62  85 121 171 200 252 322 371
#     4   9  18  40  65  84 113 158 207 251 301 367
#     4  10  22  39  61  88 124 163 207 256 311 373
#     4   9  19  39  65  88 116 164 212 253 316 373
#
# _framework density 19.799378999999998
#
# number of rings (size 3 to 8) (size 9 to 14) (size 15 to 20)
#    0.000    2.000    1.250    3.750    1.750    3.000 
#    2.250    7.500    0.000    0.000    0.000    0.000 
#    0.000    0.000    0.000    0.000    0.000    0.000 
#
# Total GULP energy -178289.067249 kJ/mol
# GULP energy per Si atom -5571.533352 kJ/mol
# Density = 1.975432 g / cm^3
# Si number density = 19.799379 Si / 1000 Ang^3
#
#
#
# Elastic Constant Matrix: (Units=GPa)
#
#
# Indices 1 2 3 4 5 6 
#
# 1 74.1055 41.7923 46.7185 0.0000 -19.8803 0.0000
# 2 41.7923 105.3049 43.7079 0.0000 -22.8655 0.0000
# 3 46.7185 43.7079 117.1042 0.0000 -17.3096 0.0000
# 4 0.0000 0.0000 0.0000 24.6686 0.0000 -12.0993
# 5 -19.8803 -22.8655 -17.3096 0.0000 27.5931 0.0000
# 6 0.0000 0.0000 0.0000 -12.0993 0.0000 22.4502
#
#
#
# Elastic Compliance Matrix: (Units=1/GPa)
#
#
# Indices 1 2 3 4 5 6 
#
# 1 0.021963 -0.004450 -0.005850 0.000000 0.008467 0.000000
# 2 -0.004450 0.013683 -0.002347 0.000000 0.006660 0.000000
# 3 -0.005850 -0.002347 0.011946 0.000000 0.001335 0.000000
# 4 0.000000 0.000000 0.000000 0.055103 0.000000 0.029697
# 5 0.008467 0.006660 0.001335 0.000000 0.048697 0.000000
# 6 0.000000 0.000000 0.000000 0.029697 0.000000 0.060548
#
#
# Mechanical properties :
#
#
# Convention : Reuss Voigt Hill
#
# Bulk Modulus (GPa) = 44.84629 62.32800 53.58714
# Shear Modulus (GPa) = 20.43591 25.89543 23.16567
#
# Velocity S-wave (km/s) = 3.21619 3.62040 3.42427
# Velocity P-wave (km/s) = 6.04081 7.00175 6.53896
#
# Compressibility (1/GPa) = 0.02229839
#
# Stress axis : x y z
#
# Youngs Moduli (GPa) = 45.53077 73.08544 83.70680
#
# Poissons Ratio (x) = 0.32524 0.48966
# Poissons Ratio (y) = 0.20262 0.19647
# Poissons Ratio (z) = 0.26634 0.17154
#
# Static dielectric constant tensor:
#      x y z
#    x 1.773180 0.000000 0.031670 
#    y 0.000000 1.675520 0.000000 
#    z 0.031670 0.000000 1.736880 
# 
# From -- ./inp_files/79938.got.cif
#   From: 2010.05.17/outbox.cif.g08.bks.cpg/sg14_40_cif.got.tgz:79938.got - 2010.06.03 17:49:19.
