data_PCOD9246966
_publ_section_title
;
Structure prediction by ZEFSAII (Michael W. Deem and Ramdas Pophale) SiO2 
 PCOD9246966
Probable space group: P 21/C
;
_chemical_formula_sum "Si O2"
_cell_formula_units_Z 28
_cell_length_a 9.589726
_cell_length_b 12.607478
_cell_length_c 12.999770
_cell_angle_alpha 90.000000
_cell_angle_beta 126.465062
_cell_angle_gamma 90.000000
_cell_volume 1263.992929
_symmetry_space_group_name_H-M "P 21/C"
_symmetry_group_IT_number 14
_symmetry_cell_setting 'monoclinic'
loop_
_space_group_symop_operation_xyz
x,y,z
-x,1/2+y,1/2-z
-x,-y,-z
x,1/2-y,1/2+z
loop_
_atom_site_type_symbol
_atom_site_label
_atom_site_fract_x
_atom_site_fract_y
_atom_site_fract_z
Si Si1 0.787188 0.472009 0.774718
Si Si2 0.512666 0.861994 0.425128
Si Si3 0.743507 0.513535 0.310280
Si Si4 0.832841 0.978360 0.522008
Si Si5 0.129412 0.548986 0.408394
Si Si6 0.256252 0.717841 0.985011
Si Si7 0.496190 0.685670 0.272076
O O1 0.781425 0.538917 0.879023
O O2 0.792228 0.508473 0.658453
O O3 0.624620 0.394820 0.716344
O O4 0.983474 0.425741 0.872672
O O5 0.675116 0.936404 0.521304
O O6 0.404300 0.810744 0.468367
O O7 0.584106 0.767409 0.386316
O O8 0.378117 0.928796 0.298078
O O9 0.779819 0.484999 0.445611
O O10 0.635447 0.621983 0.267239
O O11 0.927411 0.522280 0.334454
O O12 0.846277 0.106279 0.544222
O O13 0.154760 0.676506 0.408742
O O14 0.357546 0.739410 0.135333
#
# Coordination Sequence:
#
# PCOD9246966 Si02
#       7
#     4   4   4   4   4   4   4
#     4  10  21  43  62  95 128 169 214 275 320 385
#     4  12  22  43  67  96 132 175 218 275 330 390
#     4  11  25  44  66  95 135 178 216 270 336 395
#     4  10  23  40  70  95 132 169 223 273 325 393
#     4  11  24  43  66  94 137 172 219 271 331 393
#     4  11  22  39  66  95 126 174 214 274 321 391
#     4  11  24  42  64  96 133 168 225 271 326 393
#
# _framework density 22.152021000000001
#
# number of rings (size 3 to 8) (size 9 to 14) (size 15 to 20)
#    0.000    1.143    5.714    1.286    2.000    4.000 
#    2.571    0.000    0.000    0.000    0.000    0.000 
#    0.000    0.000    0.000    0.000    0.000    0.000 
#
# Total GULP energy -156336.513568 kJ/mol
# GULP energy per Si atom -5583.446913 kJ/mol
# Density = 2.210160 g / cm^3
# Si number density = 22.152021 Si / 1000 Ang^3
#
#
#
# Elastic Constant Matrix: (Units=GPa)
#
#
# Indices 1 2 3 4 5 6 
#
# 1 74.1777 -2.8491 6.1054 0.0000 -6.2058 0.0000
# 2 -2.8491 38.2688 -9.4598 0.0000 5.0122 0.0000
# 3 6.1054 -9.4598 51.1636 0.0000 -9.9964 0.0000
# 4 0.0000 0.0000 0.0000 23.9882 0.0000 -8.8224
# 5 -6.2058 5.0122 -9.9964 0.0000 44.9597 0.0000
# 6 0.0000 0.0000 0.0000 -8.8224 0.0000 3.8887
#
#
#
# Elastic Compliance Matrix: (Units=1/GPa)
#
#
# Indices 1 2 3 4 5 6 
#
# 1 0.013734 0.000511 -0.001239 0.000000 0.001563 0.000000
# 2 0.000511 0.027577 0.004653 0.000000 -0.001969 0.000000
# 3 -0.001239 0.004653 0.021346 0.000000 0.004056 0.000000
# 4 0.000000 0.000000 0.000000 0.251721 0.000000 0.571084
# 5 0.001563 -0.001969 0.004056 0.000000 0.023579 0.000000
# 6 0.000000 0.000000 0.000000 0.571084 0.000000 1.552783
#
#
# Mechanical properties :
#
#
# Convention : Reuss Voigt Hill
#
# Bulk Modulus (GPa) = 14.18280 16.80035 15.49157
# Shear Modulus (GPa) = 2.62276 25.88823 14.25550
#
# Velocity S-wave (km/s) = 1.08929 3.42228 2.53954
# Velocity P-wave (km/s) = 2.82815 4.81836 3.95063
#
# Compressibility (1/GPa) = 0.07050792
#
# Stress axis : x y z
#
# Youngs Moduli (GPa) = 72.81453 36.26189 46.84756
#
# Poissons Ratio (x) = -0.01855 0.05804
# Poissons Ratio (y) = -0.03724 -0.21799
# Poissons Ratio (z) = 0.09021 -0.16873
#
# Static dielectric constant tensor:
#      x y z
#    x 1.792360 0.000000 -0.043880 
#    y 0.000000 1.821010 0.000000 
#    z -0.043880 0.000000 1.844010 
# 
# From -- ./inp_files/25290.got.cif
#   From: 2010.05.17/outbox.cif.g08.bks.cpg/sg14_13_cif.got.tgz:25290.got - 2010.06.03 17:49:19.
