data_PCOD9246085
_publ_section_title
;
Structure prediction by ZEFSAII (Michael W. Deem and Ramdas Pophale) SiO2 
 PCOD9246085
Probable space group: P 21/C
;
_chemical_formula_sum "Si O2"
_cell_formula_units_Z 28
_cell_length_a 9.563921
_cell_length_b 8.205668
_cell_length_c 17.088862
_cell_angle_alpha 90.000000
_cell_angle_beta 113.329036
_cell_angle_gamma 90.000000
_cell_volume 1231.464850
_symmetry_space_group_name_H-M "P 21/C"
_symmetry_group_IT_number 14
_symmetry_cell_setting 'monoclinic'
loop_
_space_group_symop_operation_xyz
x,y,z
-x,1/2+y,1/2-z
-x,-y,-z
x,1/2-y,1/2+z
loop_
_atom_site_type_symbol
_atom_site_label
_atom_site_fract_x
_atom_site_fract_y
_atom_site_fract_z
Si Si1 0.345845 0.729237 0.142058
Si Si2 0.409464 0.968243 0.295887
Si Si3 0.045688 0.981710 0.867721
Si Si4 0.764946 0.680481 0.361515
Si Si5 0.648051 0.984566 0.978610
Si Si6 0.125024 0.629142 0.815391
Si Si7 0.930100 0.481830 0.898914
O O1 0.421324 0.833738 0.229454
O O2 0.440349 0.564738 0.146959
O O3 0.337989 0.844798 0.065176
O O4 0.176950 0.674893 0.129642
O O5 0.303639 0.893641 0.339116
O O6 0.309181 0.110706 0.233209
O O7 0.091145 0.809686 0.837875
O O8 0.917127 0.931453 0.902759
O O9 0.200214 0.049659 0.938099
O O10 0.969551 0.091966 0.784302
O O11 0.652864 0.648640 0.409482
O O12 0.821360 0.862010 0.362784
O O13 0.500000 0.000000 0.000000
O O14 0.062501 0.501058 0.865109
O O15 0.000000 0.500000 0.000000
#
# Coordination Sequence:
#
# PCOD9246085 Si02
#       7
#     4   4   4   4   4   4   4
#     4  11  23  41  62  91 128 166 200 252 308 360
#     4  10  22  40  63  92 124 162 207 248 302 364
#     4  10  21  40  62  90 120 155 206 254 307 361
#     4   9  21  40  61  86 120 162 200 252 307 359
#     4  11  25  41  61  88 125 167 204 250 306 367
#     4  10  22  38  64  90 116 156 204 257 298 360
#     4  11  23  40  63  91 122 158 202 253 311 367
#
# _framework density 22.737148999999999
#
# number of rings (size 3 to 8) (size 9 to 14) (size 15 to 20)
#    0.000    1.714    0.000    3.857    0.000   13.714 
#    0.000    2.143    0.000    0.000    0.000    0.000 
#    0.000    0.000    0.000    0.000    0.000    0.000 
#
# Total GULP energy -156593.473484 kJ/mol
# GULP energy per Si atom -5592.624053 kJ/mol
# Density = 2.268540 g / cm^3
# Si number density = 22.737149 Si / 1000 Ang^3
#
#
#
# Elastic Constant Matrix: (Units=GPa)
#
#
# Indices 1 2 3 4 5 6 
#
# 1 92.4433 -3.7097 9.0028 0.0000 -24.7120 0.0000
# 2 -3.7097 59.2276 -3.7373 0.0000 -11.2326 0.0000
# 3 9.0028 -3.7373 51.1930 0.0000 -13.2434 0.0000
# 4 0.0000 0.0000 0.0000 23.8994 0.0000 3.1046
# 5 -24.7120 -11.2326 -13.2434 0.0000 38.0114 0.0000
# 6 0.0000 0.0000 0.0000 3.1046 0.0000 39.6458
#
#
#
# Elastic Compliance Matrix: (Units=1/GPa)
#
#
# Indices 1 2 3 4 5 6 
#
# 1 0.013481 0.002700 0.000330 0.000000 0.009677 0.000000
# 2 0.002700 0.018839 0.003072 0.000000 0.008393 0.000000
# 3 0.000330 0.003072 0.021971 0.000000 0.008777 0.000000
# 4 0.000000 0.000000 0.000000 0.042272 0.000000 -0.003310
# 5 0.009677 0.008393 0.008777 0.000000 0.038137 0.000000
# 6 0.000000 0.000000 0.000000 -0.003310 0.000000 0.025483
#
#
# Mechanical properties :
#
#
# Convention : Reuss Voigt Hill
#
# Bulk Modulus (GPa) = 15.03910 22.88618 18.96264
# Shear Modulus (GPa) = 29.38714 33.73185 31.55949
#
# Velocity S-wave (km/s) = 3.59900 3.85587 3.72965
# Velocity P-wave (km/s) = 4.88867 5.46910 5.18701
#
# Compressibility (1/GPa) = 0.06649332
#
# Stress axis : x y z
#
# Youngs Moduli (GPa) = 74.18116 53.08237 45.51524
#
# Poissons Ratio (x) = -0.14334 -0.01501
# Poissons Ratio (y) = -0.20032 -0.13980
# Poissons Ratio (z) = -0.02447 -0.16305
#
# Static dielectric constant tensor:
#      x y z
#    x 1.897720 0.000000 0.008940 
#    y 0.000000 1.844490 0.000000 
#    z 0.008940 0.000000 1.819570 
# 
# From -- ./inp_files/54935.got.cif
#   From: 2010.05.17/outbox.cif.g08.bks.cpg/sg14_28_cif.got.tgz:54935.got - 2010.06.03 17:49:19.
