data_PCOD9246943
_publ_section_title
;
Structure prediction by ZEFSAII (Michael W. Deem and Ramdas Pophale) SiO2 
 PCOD9246943
Probable space group: P 21/C
;
_chemical_formula_sum "Si O2"
_cell_formula_units_Z 28
_cell_length_a 14.295094
_cell_length_b 12.151431
_cell_length_c 8.977149
_cell_angle_alpha 90.000000
_cell_angle_beta 65.952246
_cell_angle_gamma 90.000000
_cell_volume 1424.038388
_symmetry_space_group_name_H-M "P 21/C"
_symmetry_group_IT_number 14
_symmetry_cell_setting 'monoclinic'
loop_
_space_group_symop_operation_xyz
x,y,z
-x,1/2+y,1/2-z
-x,-y,-z
x,1/2-y,1/2+z
loop_
_atom_site_type_symbol
_atom_site_label
_atom_site_fract_x
_atom_site_fract_y
_atom_site_fract_z
Si Si1 0.119733 0.526359 0.397890
Si Si2 0.047838 0.163275 0.384191
Si Si3 0.644154 0.744223 0.660151
Si Si4 0.909468 0.251824 0.218572
Si Si5 0.782776 0.660364 0.824931
Si Si6 0.588892 0.912015 0.927013
Si Si7 0.189972 0.981163 0.179644
O O1 0.131852 0.654949 0.359413
O O2 0.164385 0.456537 0.232657
O O3 0.173308 0.490706 0.516279
O O4 0.000000 0.500000 0.500000
O O5 0.134536 0.249254 0.277583
O O6 0.100571 0.045686 0.326623
O O7 0.952957 0.188854 0.335120
O O8 0.007156 0.192740 0.573335
O O9 0.692529 0.672523 0.761629
O O10 0.734831 0.808422 0.513669
O O11 0.577299 0.835489 0.788619
O O12 0.592963 0.667388 0.569223
O O13 0.830455 0.350923 0.293918
O O14 0.699468 0.973010 0.846207
O O15 0.500000 0.000000 0.000000
#
# Coordination Sequence:
#
# PCOD9246943 Si02
#       7
#     4   4   4   4   4   4   4
#     4  12  21  37  58  89 136 175 214 265 316 398
#     4  12  21  36  61  90 131 169 220 257 309 406
#     4  10  21  42  72  96 121 166 218 271 330 392
#     4  12  25  36  55  95 135 175 211 261 340 385
#     4  11  19  37  65  94 122 170 220 257 308 385
#     4  11  25  48  72 100 129 169 227 289 338 391
#     4  12  23  42  62  90 134 172 218 280 323 388
#
# _framework density 19.662391
#
# number of rings (size 3 to 8) (size 9 to 14) (size 15 to 20)
#    0.000    0.571    8.571    1.286    0.000    1.143 
#    2.571    2.857    0.000    0.000    0.000    0.000 
#    0.000    0.000    0.000    0.000    0.000    0.000 
#
# Total GULP energy -156465.226416 kJ/mol
# GULP energy per Si atom -5588.043801 kJ/mol
# Density = 1.961764 g / cm^3
# Si number density = 19.662391 Si / 1000 Ang^3
#
#
#
# Elastic Constant Matrix: (Units=GPa)
#
#
# Indices 1 2 3 4 5 6 
#
# 1 55.6791 35.8853 30.0234 0.0000 -2.1953 0.0000
# 2 35.8853 123.9946 25.9748 0.0000 -16.6716 0.0000
# 3 30.0234 25.9748 62.6091 0.0000 0.3039 0.0000
# 4 0.0000 0.0000 0.0000 47.6020 0.0000 -8.2300
# 5 -2.1953 -16.6716 0.3039 0.0000 20.9283 0.0000
# 6 0.0000 0.0000 0.0000 -8.2300 0.0000 33.3558
#
#
#
# Elastic Compliance Matrix: (Units=1/GPa)
#
#
# Indices 1 2 3 4 5 6 
#
# 1 0.027500 -0.005942 -0.010714 0.000000 -0.001693 0.000000
# 2 -0.005942 0.011311 -0.001884 0.000000 0.008414 0.000000
# 3 -0.010714 -0.001884 0.021906 0.000000 -0.002943 0.000000
# 4 0.000000 0.000000 0.000000 0.021944 0.000000 0.005414
# 5 -0.001693 0.008414 -0.002943 0.000000 0.054350 0.000000
# 6 0.000000 0.000000 0.000000 0.005414 0.000000 0.031316
#
#
# Mechanical properties :
#
#
# Convention : Reuss Voigt Hill
#
# Bulk Modulus (GPa) = 42.30711 47.33887 44.82299
# Shear Modulus (GPa) = 23.44289 30.40383 26.92336
#
# Velocity S-wave (km/s) = 3.45667 3.93656 3.70440
# Velocity P-wave (km/s) = 6.12331 6.69254 6.41424
#
# Compressibility (1/GPa) = 0.02363669
#
# Stress axis : x y z
#
# Youngs Moduli (GPa) = 36.36341 88.41337 45.65029
#
# Poissons Ratio (x) = 0.52536 0.48909
# Poissons Ratio (y) = 0.21608 0.08600
# Poissons Ratio (z) = 0.38959 0.16655
#
# Static dielectric constant tensor:
#      x y z
#    x 1.694910 0.000000 0.037340 
#    y 0.000000 1.720840 0.000000 
#    z 0.037340 0.000000 1.715580 
# 
# From -- ./inp_files/15326.got.cif
#   From: 2010.05.17/outbox.cif.g08.bks.cpg/sg14_8_cif.got.tgz:15326.got - 2010.06.03 17:49:19.
