data_PCOD9246955
_publ_section_title
;
Structure prediction by ZEFSAII (Michael W. Deem and Ramdas Pophale) SiO2 
 PCOD9246955
Probable space group: P 21/C
;
_chemical_formula_sum "Si O2"
_cell_formula_units_Z 30
_cell_length_a 13.672822
_cell_length_b 5.197599
_cell_length_c 15.318052
_cell_angle_alpha 90.000000
_cell_angle_beta 83.727889
_cell_angle_gamma 90.000000
_cell_volume 1082.074296
_symmetry_space_group_name_H-M "P 21/C"
_symmetry_group_IT_number 14
_symmetry_cell_setting 'monoclinic'
loop_
_space_group_symop_operation_xyz
x,y,z
-x,1/2+y,1/2-z
-x,-y,-z
x,1/2-y,1/2+z
loop_
_atom_site_type_symbol
_atom_site_label
_atom_site_fract_x
_atom_site_fract_y
_atom_site_fract_z
Si Si1 0.744634 0.229421 0.881200
Si Si2 0.225541 0.592071 0.933192
Si Si3 0.221912 0.264525 0.219409
Si Si4 0.000000 0.000000 0.500000
Si Si5 0.633240 0.395548 0.237619
Si Si6 0.976449 0.846124 0.695340
Si Si7 0.496462 0.727964 0.889572
Si Si8 0.380805 0.273324 0.468065
O O1 0.792505 0.476466 0.831660
O O2 0.644835 0.222239 0.832661
O O3 0.796136 0.967648 0.847139
O O4 0.737042 0.253299 0.984410
O O5 0.279668 0.691309 0.839481
O O6 0.271665 0.308497 0.950554
O O7 0.108331 0.596166 0.950939
O O8 0.138475 0.234388 0.299746
O O9 0.327308 0.188877 0.251369
O O10 0.015819 0.878165 0.256456
O O11 0.978984 0.138949 0.405856
O O12 0.530841 0.306679 0.208734
O O13 0.443549 0.469941 0.928069
O O14 0.434427 0.977003 0.926352
O O15 0.599819 0.757526 0.929511
#
# Coordination Sequence:
#
# PCOD9246955 Si02
#       8
#     4   4   4   2   4   4   4   4
#     4  10  23  40  65  91 128 169 211 272 333 384
#     4  11  22  41  65  97 135 173 226 275 333 404
#     4  10  21  43  58  88 125 167 210 268 326 384
#     4  12  24  42  70 102 132 188 234 278 348 418
#     4   9  22  38  67  90 123 170 212 266 322 402
#     4  12  26  45  65  91 132 173 228 285 332 399
#     4   9  18  36  65  90 125 159 216 254 333 382
#     4   9  20  36  60  96 121 166 205 270 315 398
#
# _framework density 27.724526999999998
#
# number of rings (size 3 to 8) (size 9 to 14) (size 15 to 20)
#    0.800    1.067    1.333    2.400    3.733    2.667 
#    0.000    4.000    2.933    0.000    0.000    0.000 
#    0.000    0.000    0.000    0.000    0.000    0.000 
#
# Total GULP energy -167171.407743 kJ/mol
# GULP energy per Si atom -5572.380258 kJ/mol
# Density = 2.766143 g / cm^3
# Si number density = 27.724527 Si / 1000 Ang^3
#
#
#
# Elastic Constant Matrix: (Units=GPa)
#
#
# Indices 1 2 3 4 5 6 
#
# 1 130.5918 3.7890 26.9990 0.0000 0.9586 0.0000
# 2 3.7890 152.4167 43.4797 0.0000 -19.3940 0.0000
# 3 26.9990 43.4797 144.8028 0.0000 -25.4025 0.0000
# 4 0.0000 0.0000 0.0000 37.8723 0.0000 -4.3256
# 5 0.9586 -19.3940 -25.4025 0.0000 58.8663 0.0000
# 6 0.0000 0.0000 0.0000 -4.3256 0.0000 20.1326
#
#
#
# Elastic Compliance Matrix: (Units=1/GPa)
#
#
# Indices 1 2 3 4 5 6 
#
# 1 0.008007 0.000181 -0.001687 0.000000 -0.000799 0.000000
# 2 0.000181 0.007313 -0.001955 0.000000 0.001563 0.000000
# 3 -0.001687 -0.001955 0.008330 0.000000 0.002978 0.000000
# 4 0.000000 0.000000 0.000000 0.027069 0.000000 0.005816
# 5 -0.000799 0.001563 0.002978 0.000000 0.018801 0.000000
# 6 0.000000 0.000000 0.000000 0.005816 0.000000 0.050920
#
#
# Mechanical properties :
#
#
# Convention : Reuss Voigt Hill
#
# Bulk Modulus (GPa) = 59.78768 64.03855 61.91311
# Shear Modulus (GPa) = 37.61112 46.94381 42.27746
#
# Velocity S-wave (km/s) = 3.68720 4.11934 3.90925
# Velocity P-wave (km/s) = 6.30389 6.76562 6.53883
#
# Compressibility (1/GPa) = 0.01672585
#
# Stress axis : x y z
#
# Youngs Moduli (GPa) = 124.89207 136.74031 120.04621
#
# Poissons Ratio (x) = -0.02470 0.20256
# Poissons Ratio (y) = -0.02256 0.23475
# Poissons Ratio (z) = 0.21073 0.26739
#
# Static dielectric constant tensor:
#      x y z
#    x 2.204740 0.000000 0.089760 
#    y 0.000000 2.239690 0.000000 
#    z 0.089760 0.000000 2.220770 
# 
# From -- ./inp_files/58452.got.cif
#   From: 2010.05.17/outbox.cif.g08.bks.cpg/sg14_30_cif.got.tgz:58452.got - 2010.06.03 17:49:19.
