data_PCOD9246690
_publ_section_title
;
Structure prediction by ZEFSAII (Michael W. Deem and Ramdas Pophale) SiO2 
 PCOD9246690
Probable space group: P 21/C
;
_chemical_formula_sum "Si O2"
_cell_formula_units_Z 28
_cell_length_a 8.531269
_cell_length_b 9.196351
_cell_length_c 23.679248
_cell_angle_alpha 90.000000
_cell_angle_beta 40.805733
_cell_angle_gamma 90.000000
_cell_volume 1214.060261
_symmetry_space_group_name_H-M "P 21/C"
_symmetry_group_IT_number 14
_symmetry_cell_setting 'monoclinic'
loop_
_space_group_symop_operation_xyz
x,y,z
-x,1/2+y,1/2-z
-x,-y,-z
x,1/2-y,1/2+z
loop_
_atom_site_type_symbol
_atom_site_label
_atom_site_fract_x
_atom_site_fract_y
_atom_site_fract_z
Si Si1 0.518525 0.023250 0.879980
Si Si2 0.158276 0.257467 0.510761
Si Si3 0.343714 0.868781 0.338890
Si Si4 0.080459 0.762887 0.702331
Si Si5 0.704901 0.647935 0.219627
Si Si6 0.521317 0.996153 0.403083
Si Si7 0.675976 0.778844 0.909631
O O1 0.736556 0.130185 0.838874
O O2 0.588560 0.937768 0.804573
O O3 0.504725 0.904315 0.933202
O O4 0.283417 0.121715 0.938162
O O5 0.213870 0.306273 0.559608
O O6 0.880586 0.225959 0.579667
O O7 0.299367 0.105706 0.465352
O O8 0.510622 0.768301 0.253586
O O9 0.502367 0.910912 0.349295
O O10 0.252443 0.018704 0.336098
O O11 0.936633 0.772556 0.682580
O O12 0.891795 0.763382 0.805369
O O13 0.240501 0.907643 0.661227
O O14 0.534794 0.873443 0.447142
#
# Coordination Sequence:
#
# PCOD9246690 Si02
#       7
#     4   4   4   4   4   4   4
#     4  10  22  42  66  97 126 170 223 270 319 375
#     4  11  25  39  65  91 139 173 207 265 326 401
#     4  12  26  45  64  99 132 175 210 268 334 391
#     4  10  21  41  71  92 125 166 224 277 313 371
#     4  11  26  42  69  99 128 173 222 268 324 383
#     4  11  23  43  66  94 132 171 216 267 324 389
#     4  11  20  40  66  98 124 169 226 269 319 372
#
# _framework density 23.063106000000001
#
# number of rings (size 3 to 8) (size 9 to 14) (size 15 to 20)
#    0.000    1.143    2.857    4.714    6.000    1.714 
#    0.000    0.000    0.000    0.000    0.000    0.000 
#    0.000    0.000    0.000    0.000    0.000    0.000 
#
# Total GULP energy -156716.401997 kJ/mol
# GULP energy per Si atom -5597.014357 kJ/mol
# Density = 2.301061 g / cm^3
# Si number density = 23.063106 Si / 1000 Ang^3
#
#
#
# Elastic Constant Matrix: (Units=GPa)
#
#
# Indices 1 2 3 4 5 6 
#
# 1 34.8341 -1.9741 7.3852 0.0000 -5.9808 0.0000
# 2 -1.9741 77.2105 18.7329 0.0000 -20.0045 0.0000
# 3 7.3852 18.7329 50.0767 0.0000 -18.8922 0.0000
# 4 0.0000 0.0000 0.0000 26.6032 0.0000 9.3319
# 5 -5.9808 -20.0045 -18.8922 0.0000 30.8584 0.0000
# 6 0.0000 0.0000 0.0000 9.3319 0.0000 29.9563
#
#
#
# Elastic Compliance Matrix: (Units=1/GPa)
#
#
# Indices 1 2 3 4 5 6 
#
# 1 0.030628 0.003142 -0.003491 0.000000 0.005836 0.000000
# 2 0.003142 0.016158 -0.003025 0.000000 0.009232 0.000000
# 3 -0.003491 -0.003025 0.026814 0.000000 0.013779 0.000000
# 4 0.000000 0.000000 0.000000 0.042201 0.000000 -0.013146
# 5 0.005836 0.009232 0.013779 0.000000 0.047957 0.000000
# 6 0.000000 0.000000 0.000000 -0.013146 0.000000 0.037477
#
#
# Mechanical properties :
#
#
# Convention : Reuss Voigt Hill
#
# Bulk Modulus (GPa) = 14.95836 23.37880 19.16858
# Shear Modulus (GPa) = 21.71403 26.68207 24.19805
#
# Velocity S-wave (km/s) = 3.07172 3.40504 3.24267
# Velocity P-wave (km/s) = 4.36813 5.06141 4.72750
#
# Compressibility (1/GPa) = 0.06685227
#
# Stress axis : x y z
#
# Youngs Moduli (GPa) = 32.65033 61.89017 37.29403
#
# Poissons Ratio (x) = -0.19446 0.13017
# Poissons Ratio (y) = -0.10259 0.11281
# Poissons Ratio (z) = 0.11397 0.18721
#
# Static dielectric constant tensor:
#      x y z
#    x 1.834620 0.000000 0.013690 
#    y 0.000000 1.884660 0.000000 
#    z 0.013690 0.000000 1.883940 
# 
# From -- ./inp_files/76439.got.cif
#   From: 2010.05.17/outbox.cif.g08.bks.cpg/sg14_39_cif.got.tgz:76439.got - 2010.06.03 17:49:19.
