data_PCOD9246261
_publ_section_title
;
Structure prediction by ZEFSAII (Michael W. Deem and Ramdas Pophale) SiO2 
 PCOD9246261
Probable space group: P 21/C
;
_chemical_formula_sum "Si O2"
_cell_formula_units_Z 30
_cell_length_a 8.566967
_cell_length_b 12.188349
_cell_length_c 18.029136
_cell_angle_alpha 90.000000
_cell_angle_beta 135.413558
_cell_angle_gamma 90.000000
_cell_volume 1321.522133
_symmetry_space_group_name_H-M "P 21/C"
_symmetry_group_IT_number 14
_symmetry_cell_setting 'monoclinic'
loop_
_space_group_symop_operation_xyz
x,y,z
-x,1/2+y,1/2-z
-x,-y,-z
x,1/2-y,1/2+z
loop_
_atom_site_type_symbol
_atom_site_label
_atom_site_fract_x
_atom_site_fract_y
_atom_site_fract_z
Si Si1 0.315524 0.757030 0.911970
Si Si2 0.392430 0.933050 0.814610
Si Si3 0.231090 0.191728 0.490353
Si Si4 0.000000 0.500000 0.000000
Si Si5 0.907410 0.864319 0.325800
Si Si6 0.181872 0.935211 0.984522
Si Si7 0.891789 0.126062 0.875332
Si Si8 0.550354 0.744344 0.282249
O O1 0.302018 0.839219 0.837792
O O2 0.552827 0.696146 0.989177
O O3 0.112617 0.673305 0.846501
O O4 0.281300 0.837945 0.969808
O O5 0.436363 0.875397 0.749131
O O6 0.224044 0.032295 0.750294
O O7 0.618449 0.982970 0.925057
O O8 0.129126 0.076417 0.479857
O O9 0.324665 0.245950 0.597644
O O10 0.042183 0.274367 0.397882
O O11 0.983369 0.600920 0.934058
O O12 0.723900 0.768122 0.276183
O O13 0.087066 0.885344 0.028282
O O14 0.991875 0.010279 0.881926
O O15 0.636176 0.160183 0.778650
#
# Coordination Sequence:
#
# PCOD9246261 Si02
#       8
#     4   4   4   2   4   4   4   4
#     4  11  25  41  64  97 141 173 213 277 339 411
#     4  11  23  44  63 100 131 172 221 276 327 406
#     4  10  22  42  61  98 129 171 223 273 329 401
#     4  10  22  44  70  86 128 178 218 282 326 388
#     4  11  24  44  67  98 137 173 224 277 339 402
#     4  11  22  40  67  97 128 175 222 269 338 392
#     4  11  21  38  69  96 124 177 222 280 320 392
#     4  10  21  40  66  93 129 168 231 276 320 388
#
# _framework density 22.701094999999999
#
# number of rings (size 3 to 8) (size 9 to 14) (size 15 to 20)
#    0.000    1.333    4.000    2.800    1.867    2.667 
#    2.400    2.667    0.000    0.000    0.000    0.000 
#    0.000    0.000    0.000    0.000    0.000    0.000 
#
# Total GULP energy -167124.654075 kJ/mol
# GULP energy per Si atom -5570.821802 kJ/mol
# Density = 2.264943 g / cm^3
# Si number density = 22.701095 Si / 1000 Ang^3
#
#
#
# Elastic Constant Matrix: (Units=GPa)
#
#
# Indices 1 2 3 4 5 6 
#
# 1 97.5119 48.1532 10.4386 0.0000 34.1606 0.0000
# 2 48.1532 116.1884 13.6013 0.0000 20.2553 0.0000
# 3 10.4386 13.6013 44.7765 0.0000 18.8146 0.0000
# 4 0.0000 0.0000 0.0000 40.0843 0.0000 13.0363
# 5 34.1606 20.2553 18.8146 0.0000 30.4189 0.0000
# 6 0.0000 0.0000 0.0000 13.0363 0.0000 53.0436
#
#
#
# Elastic Compliance Matrix: (Units=1/GPa)
#
#
# Indices 1 2 3 4 5 6 
#
# 1 0.020308 -0.005094 0.006716 0.000000 -0.023568 0.000000
# 2 -0.005094 0.011018 -0.002000 0.000000 -0.000379 0.000000
# 3 0.006716 -0.002000 0.032407 0.000000 -0.026255 0.000000
# 4 0.000000 0.000000 0.000000 0.027115 0.000000 -0.006664
# 5 -0.023568 -0.000379 -0.026255 0.000000 0.075833 0.000000
# 6 0.000000 0.000000 0.000000 -0.006664 0.000000 0.020490
#
#
# Mechanical properties :
#
#
# Convention : Reuss Voigt Hill
#
# Bulk Modulus (GPa) = 15.87878 44.76255 30.32067
# Shear Modulus (GPa) = 23.93269 37.12827 30.53048
#
# Velocity S-wave (km/s) = 3.25045 4.04855 3.67125
# Velocity P-wave (km/s) = 4.59316 6.45100 5.59967
#
# Compressibility (1/GPa) = 0.06297713
#
# Stress axis : x y z
#
# Youngs Moduli (GPa) = 49.24116 90.75976 30.85767
#
# Poissons Ratio (x) = 0.46234 -0.20724
# Poissons Ratio (y) = 0.25084 0.06172
# Poissons Ratio (z) = -0.33071 0.18152
#
# Static dielectric constant tensor:
#      x y z
#    x 1.873740 0.000000 0.018630 
#    y 0.000000 1.870600 0.000000 
#    z 0.018630 0.000000 1.913590 
# 
# From -- ./inp_files/72362.got.cif
#   From: 2010.05.17/outbox.cif.g08.bks.cpg/sg14_37_cif.got.tgz:72362.got - 2010.06.03 17:49:19.
