data_PCOD9246828
_publ_section_title
;
Structure prediction by ZEFSAII (Michael W. Deem and Ramdas Pophale) SiO2 
 PCOD9246828
Probable space group: P 21/C
;
_chemical_formula_sum "Si O2"
_cell_formula_units_Z 24
_cell_length_a 5.480280
_cell_length_b 21.050203
_cell_length_c 8.809401
_cell_angle_alpha 90.000000
_cell_angle_beta 79.822383
_cell_angle_gamma 90.000000
_cell_volume 1000.270201
_symmetry_space_group_name_H-M "P 21/C"
_symmetry_group_IT_number 14
_symmetry_cell_setting 'monoclinic'
loop_
_space_group_symop_operation_xyz
x,y,z
-x,1/2+y,1/2-z
-x,-y,-z
x,1/2-y,1/2+z
loop_
_atom_site_type_symbol
_atom_site_label
_atom_site_fract_x
_atom_site_fract_y
_atom_site_fract_z
Si Si1 0.355625 0.098203 0.530955
Si Si2 0.915211 0.506571 0.736828
Si Si3 0.172870 0.670258 0.946592
Si Si4 0.906061 0.303323 0.698301
Si Si5 0.263817 0.919330 0.998155
Si Si6 0.705467 0.894046 0.793231
O O1 0.263983 0.032438 0.614226
O O2 0.579705 0.127944 0.604439
O O3 0.444448 0.097028 0.346088
O O4 0.096519 0.137755 0.549282
O O5 0.771383 0.480275 0.607160
O O6 0.103209 0.562261 0.660994
O O7 0.077538 0.445067 0.760318
O O8 0.161635 0.734396 0.851978
O O9 0.195946 0.689084 0.121136
O O10 0.827852 0.355951 0.580312
O O11 0.193009 0.323126 0.695458
O O12 0.557431 0.910018 0.962183
#
# Coordination Sequence:
#
# PCOD9246828 Si02
#       6
#     4   4   4   4   4   4
#     4  11  25  44  68 103 137 179 231 283 341 413
#     4  10  23  39  65 106 133 184 225 278 349 412
#     4  11  26  45  69 100 136 181 234 281 344 408
#     4  10  24  45  66  98 134 181 230 287 341 403
#     4  10  21  42  66  96 142 174 230 282 342 405
#     4  10  21  43  69  96 139 182 225 290 342 407
#
# _framework density 23.993517000000001
#
# number of rings (size 3 to 8) (size 9 to 14) (size 15 to 20)
#    0.000    1.667    1.667    1.000    7.000    0.667 
#    0.000    0.000    0.000    0.000    0.000    0.000 
#    0.000    0.000    0.000    0.000    0.000    0.000 
#
# Total GULP energy -133930.889364 kJ/mol
# GULP energy per Si atom -5580.453724 kJ/mol
# Density = 2.393891 g / cm^3
# Si number density = 23.993517 Si / 1000 Ang^3
#
#
#
# Elastic Constant Matrix: (Units=GPa)
#
#
# Indices 1 2 3 4 5 6 
#
# 1 86.8953 29.5691 18.3761 0.0000 -11.9728 0.0000
# 2 29.5691 27.4873 -2.7484 0.0000 -0.4490 0.0000
# 3 18.3761 -2.7484 57.6409 0.0000 -14.8613 0.0000
# 4 0.0000 0.0000 0.0000 35.3750 0.0000 14.1378
# 5 -11.9728 -0.4490 -14.8613 0.0000 32.8526 0.0000
# 6 0.0000 0.0000 0.0000 14.1378 0.0000 27.5704
#
#
#
# Elastic Compliance Matrix: (Units=1/GPa)
#
#
# Indices 1 2 3 4 5 6 
#
# 1 0.021771 -0.024040 -0.006935 0.000000 0.004469 0.000000
# 2 -0.024040 0.063163 0.009780 0.000000 -0.003474 0.000000
# 3 -0.006935 0.009780 0.021971 0.000000 0.007545 0.000000
# 4 0.000000 0.000000 0.000000 0.035555 0.000000 -0.018232
# 5 0.004469 -0.003474 0.007545 0.000000 0.035433 0.000000
# 6 0.000000 0.000000 0.000000 -0.018232 0.000000 0.045620
#
#
# Mechanical properties :
#
#
# Convention : Reuss Voigt Hill
#
# Bulk Modulus (GPa) = 15.50020 29.15746 22.32883
# Shear Modulus (GPa) = 17.39690 27.61472 22.50581
#
# Velocity S-wave (km/s) = 2.69563 3.39621 3.06599
# Velocity P-wave (km/s) = 4.02029 5.24953 4.67548
#
# Compressibility (1/GPa) = 0.06451528
#
# Stress axis : x y z
#
# Youngs Moduli (GPa) = 45.93311 15.83216 45.51385
#
# Poissons Ratio (x) = 0.38061 0.31563
# Poissons Ratio (y) = 1.10424 -0.44513
# Poissons Ratio (z) = 0.31854 -0.15484
#
# Static dielectric constant tensor:
#      x y z
#    x 2.059630 0.000000 -0.010200 
#    y 0.000000 1.882950 0.000000 
#    z -0.010200 0.000000 1.920310 
# 
# From -- ./inp_files/6226.got.cif
#   From: 2010.05.17/outbox.cif.g08.bks.cpg/sg14_4_cif.got.tgz:6226.got - 2010.06.03 17:49:19.
