data_PCOD9246145
_publ_section_title
;
Structure prediction by ZEFSAII (Michael W. Deem and Ramdas Pophale) SiO2 
 PCOD9246145
Probable space group: P 21/C
;
_chemical_formula_sum "Si O2"
_cell_formula_units_Z 20
_cell_length_a 6.942587
_cell_length_b 26.992264
_cell_length_c 5.224678
_cell_angle_alpha 90.000000
_cell_angle_beta 114.447856
_cell_angle_gamma 90.000000
_cell_volume 891.298115
_symmetry_space_group_name_H-M "P 21/C"
_symmetry_group_IT_number 14
_symmetry_cell_setting 'monoclinic'
loop_
_space_group_symop_operation_xyz
x,y,z
-x,1/2+y,1/2-z
-x,-y,-z
x,1/2-y,1/2+z
loop_
_atom_site_type_symbol
_atom_site_label
_atom_site_fract_x
_atom_site_fract_y
_atom_site_fract_z
Si Si1 0.648187 0.364379 0.844380
Si Si2 0.076638 0.459322 0.742292
Si Si3 0.644542 0.024957 0.296434
Si Si4 0.927173 0.144529 0.996827
Si Si5 0.700897 0.781860 0.732420
O O1 0.561891 0.420496 0.818119
O O2 0.746376 0.356483 0.615962
O O3 0.471621 0.323843 0.804989
O O4 0.826703 0.358438 0.160944
O O5 0.000000 0.500000 0.500000
O O6 0.883000 0.459728 0.836830
O O7 0.068936 0.404673 0.621564
O O8 0.293992 0.481599 0.971444
O O9 0.500000 0.000000 0.000000
O O10 0.071152 0.192507 0.110350
O O11 0.677190 0.760202 0.435338
#
# Coordination Sequence:
#
# PCOD9246145 Si02
#       5
#     4   4   4   4   4
#     4  11  25  45  69 103 138 180 228 284 343 416
#     4  10  21  40  63  97 137 176 225 270 327 426
#     4  10  23  38  64  99 139 183 220 271 342 403
#     4  11  25  45  72  99 142 182 227 284 351 405
#     4  12  28  47  72 101 131 179 238 294 349 408
#
# _framework density 22.43918
#
# number of rings (size 3 to 8) (size 9 to 14) (size 15 to 20)
#    0.000    1.200    2.000    2.400    2.800   10.400 
#    0.000    0.000    0.000    0.000    0.000    0.000 
#    0.000    0.000    0.000    0.000    0.000    0.000 
#
# Total GULP energy -111857.894925 kJ/mol
# GULP energy per Si atom -5592.894746 kJ/mol
# Density = 2.238811 g / cm^3
# Si number density = 22.439180 Si / 1000 Ang^3
#
#
#
# Elastic Constant Matrix: (Units=GPa)
#
#
# Indices 1 2 3 4 5 6 
#
# 1 52.1108 17.9870 -21.0906 0.0000 3.1327 0.0000
# 2 17.9870 84.9590 -4.3717 0.0000 11.9436 0.0000
# 3 -21.0906 -4.3717 92.2920 0.0000 16.7054 0.0000
# 4 0.0000 0.0000 0.0000 45.8886 0.0000 6.5180
# 5 3.1327 11.9436 16.7054 0.0000 35.7780 0.0000
# 6 0.0000 0.0000 0.0000 6.5180 0.0000 58.6549
#
#
#
# Elastic Compliance Matrix: (Units=1/GPa)
#
#
# Indices 1 2 3 4 5 6 
#
# 1 0.023117 -0.004138 0.005683 0.000000 -0.003296 0.000000
# 2 -0.004138 0.013272 0.000458 0.000000 -0.004282 0.000000
# 3 0.005683 0.000458 0.013406 0.000000 -0.006910 0.000000
# 4 0.000000 0.000000 0.000000 0.022141 0.000000 -0.002460
# 5 -0.003296 -0.004282 -0.006910 0.000000 0.032895 0.000000
# 6 0.000000 0.000000 0.000000 -0.002460 0.000000 0.017322
#
#
# Mechanical properties :
#
#
# Convention : Reuss Voigt Hill
#
# Bulk Modulus (GPa) = 18.58700 23.82346 21.20523
# Shear Modulus (GPa) = 36.74282 43.85345 40.29813
#
# Velocity S-wave (km/s) = 4.05092 4.42557 4.24238
# Velocity P-wave (km/s) = 5.49374 6.06252 5.78513
#
# Compressibility (1/GPa) = 0.05380103
#
# Stress axis : x y z
#
# Youngs Moduli (GPa) = 43.25906 75.34629 74.59132
#
# Poissons Ratio (x) = 0.31180 -0.42392
# Poissons Ratio (y) = 0.17902 -0.03417
# Poissons Ratio (z) = -0.24585 -0.03451
#
# Static dielectric constant tensor:
#      x y z
#    x 1.017450 0.000000 0.059590 
#    y 0.000000 1.771850 0.000000 
#    z 0.059590 0.000000 1.763690 
# 
# From -- ./inp_files/1852.got.cif
#   From: 2010.05.17/outbox.cif.g08.bks.cpg/sg14_1_cif.got.tgz:1852.got - 2010.06.03 17:49:19.
