data_PCOD9246977
_publ_section_title
;
Structure prediction by ZEFSAII (Michael W. Deem and Ramdas Pophale) SiO2 
 PCOD9246977
Probable space group: P 21/C
;
_chemical_formula_sum "Si O2"
_cell_formula_units_Z 20
_cell_length_a 12.175303
_cell_length_b 11.268047
_cell_length_c 14.951463
_cell_angle_alpha 90.000000
_cell_angle_beta 153.080841
_cell_angle_gamma 90.000000
_cell_volume 928.654494
_symmetry_space_group_name_H-M "P 21/C"
_symmetry_group_IT_number 14
_symmetry_cell_setting 'monoclinic'
loop_
_space_group_symop_operation_xyz
x,y,z
-x,1/2+y,1/2-z
-x,-y,-z
x,1/2-y,1/2+z
loop_
_atom_site_type_symbol
_atom_site_label
_atom_site_fract_x
_atom_site_fract_y
_atom_site_fract_z
Si Si1 0.112765 0.320696 0.554932
Si Si2 0.611435 0.053973 0.741835
Si Si3 0.623793 0.470074 0.765031
Si Si4 0.874192 0.602372 0.801760
Si Si5 0.713182 0.761660 0.010128
O O1 0.330701 0.414838 0.733171
O O2 0.129618 0.210992 0.632281
O O3 0.129247 0.272834 0.465386
O O4 0.857477 0.384102 0.388505
O O5 0.384591 0.129637 0.538570
O O6 0.562686 0.051374 0.814083
O O7 0.679607 0.515381 0.706478
O O8 0.526001 0.337237 0.688048
O O9 0.870114 0.464323 0.001424
O O10 0.830545 0.661563 0.674606
#
# Coordination Sequence:
#
# PCOD9246977 Si02
#       5
#     4   4   4   4   4
#     4  10  22  43  62  96 131 165 216 267 311 391
#     4  10  21  43  65  88 134 165 205 269 321 371
#     4  10  22  43  64  91 130 166 209 270 312 383
#     4  11  22  41  67  94 125 169 214 261 318 382
#     4  11  22  42  65  94 123 172 211 260 324 381
#
# _framework density 21.536536000000002
#
# number of rings (size 3 to 8) (size 9 to 14) (size 15 to 20)
#    0.000    1.600    4.000    0.600    0.000    0.800 
#   21.600    0.000    0.000    0.000    0.000    0.000 
#    0.000    0.000    0.000    0.000    0.000    0.000 
#
# Total GULP energy -111474.967958 kJ/mol
# GULP energy per Si atom -5573.748398 kJ/mol
# Density = 2.148752 g / cm^3
# Si number density = 21.536536 Si / 1000 Ang^3
#
#
#
# Elastic Constant Matrix: (Units=GPa)
#
#
# Indices 1 2 3 4 5 6 
#
# 1 116.0151 36.1497 39.5752 0.0000 11.3829 0.0000
# 2 36.1497 73.1316 13.6027 0.0000 10.6184 0.0000
# 3 39.5752 13.6027 47.1539 0.0000 2.6578 0.0000
# 4 0.0000 0.0000 0.0000 38.1462 0.0000 2.8652
# 5 11.3829 10.6184 2.6578 0.0000 13.5190 0.0000
# 6 0.0000 0.0000 0.0000 2.8652 0.0000 36.4545
#
#
#
# Elastic Compliance Matrix: (Units=1/GPa)
#
#
# Indices 1 2 3 4 5 6 
#
# 1 0.014023 -0.004072 -0.010223 0.000000 -0.006599 0.000000
# 2 -0.004072 0.017325 -0.001018 0.000000 -0.009979 0.000000
# 3 -0.010223 -0.001018 0.029881 0.000000 0.003532 0.000000
# 4 0.000000 0.000000 0.000000 0.026371 0.000000 -0.002073
# 5 -0.006599 -0.009979 0.003532 0.000000 0.086670 0.000000
# 6 0.000000 0.000000 0.000000 -0.002073 0.000000 0.027594
#
#
# Mechanical properties :
#
#
# Convention : Reuss Voigt Hill
#
# Bulk Modulus (GPa) = 32.67491 46.10616 39.39054
# Shear Modulus (GPa) = 20.60237 27.42215 24.01226
#
# Velocity S-wave (km/s) = 3.09629 3.57218 3.34272
# Velocity P-wave (km/s) = 5.29032 6.20232 5.76439
#
# Compressibility (1/GPa) = 0.03060452
#
# Stress axis : x y z
#
# Youngs Moduli (GPa) = 71.31121 57.71976 33.46581
#
# Poissons Ratio (x) = 0.23504 0.34211
# Poissons Ratio (y) = 0.29039 0.03406
# Poissons Ratio (z) = 0.72898 0.05874
#
# Static dielectric constant tensor:
#      x y z
#    x 1.804870 0.000000 0.029570 
#    y 0.000000 1.813360 0.000000 
#    z 0.029570 0.000000 1.800510 
# 
# From -- ./inp_files/28883.got.cif
#   From: 2010.05.17/outbox.cif.g08.bks.cpg/sg14_15_cif.got.tgz:28883.got - 2010.06.03 17:49:19.
