data_PCOD9246027
_publ_section_title
;
Structure prediction by ZEFSAII (Michael W. Deem and Ramdas Pophale) SiO2 
 PCOD9246027
Probable space group: P 21/C
;
_chemical_formula_sum "Si O2"
_cell_formula_units_Z 32
_cell_length_a 8.470382
_cell_length_b 12.041186
_cell_length_c 28.058828
_cell_angle_alpha 90.000000
_cell_angle_beta 37.035156
_cell_angle_gamma 90.000000
_cell_volume 1723.686245
_symmetry_space_group_name_H-M "P 21/C"
_symmetry_group_IT_number 14
_symmetry_cell_setting 'monoclinic'
loop_
_space_group_symop_operation_xyz
x,y,z
-x,1/2+y,1/2-z
-x,-y,-z
x,1/2-y,1/2+z
loop_
_atom_site_type_symbol
_atom_site_label
_atom_site_fract_x
_atom_site_fract_y
_atom_site_fract_z
Si Si1 0.340997 0.282706 0.137347
Si Si2 0.254493 0.782017 0.220418
Si Si3 0.337568 0.109327 0.052725
Si Si4 0.262209 0.884206 0.800282
Si Si5 0.619067 0.736875 0.051016
Si Si6 0.231253 0.972344 0.306206
Si Si7 0.797169 0.302084 0.104163
Si Si8 0.327029 0.979674 0.588113
O O1 0.397136 0.183348 0.085728
O O2 0.558224 0.291178 0.125549
O O3 0.335954 0.403088 0.113283
O O4 0.041822 0.266192 0.227318
O O5 0.323323 0.673759 0.235092
O O6 0.465087 0.802711 0.128877
O O7 0.248059 0.879929 0.260797
O O8 0.034366 0.071402 0.130893
O O9 0.373159 0.195684 0.000438
O O10 0.500000 0.000000 0.000000
O O11 0.242799 0.791969 0.846178
O O12 0.494614 0.965516 0.757374
O O13 0.457898 0.622755 0.083782
O O14 0.923164 0.713445 0.988840
O O15 0.188270 0.913693 0.367727
O O16 0.973520 0.042859 0.354873
O O17 0.500000 0.000000 0.500000
#
# Coordination Sequence:
#
# PCOD9246027 Si02
#       8
#     4   4   4   4   4   4   4   4
#     4  10  22  40  59  88 119 152 196 241 295 349
#     4   9  22  40  57  86 121 151 194 241 293 352
#     4  10  22  42  61  82 119 160 195 237 293 357
#     4   9  21  41  59  81 121 155 190 243 292 346
#     4  11  22  40  61  87 118 155 197 242 293 347
#     4  10  21  40  59  85 121 156 194 243 296 344
#     4  10  22  38  60  87 118 153 194 244 291 346
#     4  11  20  39  63  85 119 155 191 246 299 343
#
# _framework density 18.564862000000002
#
# number of rings (size 3 to 8) (size 9 to 14) (size 15 to 20)
#    0.000    2.000    2.500    1.500    3.500    4.500 
#    6.750    2.500    0.000    0.000    0.000    0.000 
#    0.000    0.000    0.000    0.000    0.000    0.000 
#
# Total GULP energy -178447.895382 kJ/mol
# GULP energy per Si atom -5576.496731 kJ/mol
# Density = 1.852261 g / cm^3
# Si number density = 18.564862 Si / 1000 Ang^3
#
#
#
# Elastic Constant Matrix: (Units=GPa)
#
#
# Indices 1 2 3 4 5 6 
#
# 1 111.7013 12.3106 43.6336 0.0000 -27.2403 0.0000
# 2 12.3106 45.6133 7.6769 0.0000 -20.7619 0.0000
# 3 43.6336 7.6769 103.5400 0.0000 -6.0468 0.0000
# 4 0.0000 0.0000 0.0000 25.5945 0.0000 -13.3307
# 5 -27.2403 -20.7619 -6.0468 0.0000 30.2343 0.0000
# 6 0.0000 0.0000 0.0000 -13.3307 0.0000 17.5026
#
#
#
# Elastic Compliance Matrix: (Units=1/GPa)
#
#
# Indices 1 2 3 4 5 6 
#
# 1 0.014083 0.003477 -0.005375 0.000000 0.014001 0.000000
# 2 0.003477 0.032874 -0.002430 0.000000 0.025221 0.000000
# 3 -0.005375 -0.002430 0.011862 0.000000 -0.004139 0.000000
# 4 0.000000 0.000000 0.000000 0.064761 0.000000 0.049325
# 5 0.014001 0.025221 -0.004139 0.000000 0.062181 0.000000
# 6 0.000000 0.000000 0.000000 0.049325 0.000000 0.094702
#
#
# Mechanical properties :
#
#
# Convention : Reuss Voigt Hill
#
# Bulk Modulus (GPa) = 19.93510 43.12185 31.52848
# Shear Modulus (GPa) = 16.34843 27.81519 22.08181
#
# Velocity S-wave (km/s) = 2.97073 3.87495 3.45257
# Velocity P-wave (km/s) = 4.74641 6.58015 5.73702
#
# Compressibility (1/GPa) = 0.05016277
#
# Stress axis : x y z
#
# Youngs Moduli (GPa) = 71.00590 30.41927 84.30509
#
# Poissons Ratio (x) = -0.10576 0.45315
# Poissons Ratio (y) = -0.24686 0.20483
# Poissons Ratio (z) = 0.38166 0.07391
#
# Static dielectric constant tensor:
#      x y z
#    x 1.639760 0.000000 0.001880 
#    y 0.000000 1.785810 0.000000 
#    z 0.001880 0.000000 1.632670 
# 
# From -- ./inp_files/61980.got.cif
#   From: 2010.05.17/outbox.cif.g08.bks.cpg/sg14_31_cif.got.tgz:61980.got - 2010.06.03 17:49:19.
