data_PCOD9246667
_publ_section_title
;
Structure prediction by ZEFSAII (Michael W. Deem and Ramdas Pophale) SiO2 
 PCOD9246667
Probable space group: P 21/C
;
_chemical_formula_sum "Si O2"
_cell_formula_units_Z 24
_cell_length_a 13.102067
_cell_length_b 10.492556
_cell_length_c 16.847115
_cell_angle_alpha 90.000000
_cell_angle_beta 23.917306
_cell_angle_gamma 90.000000
_cell_volume 938.964936
_symmetry_space_group_name_H-M "P 21/C"
_symmetry_group_IT_number 14
_symmetry_cell_setting 'monoclinic'
loop_
_space_group_symop_operation_xyz
x,y,z
-x,1/2+y,1/2-z
-x,-y,-z
x,1/2-y,1/2+z
loop_
_atom_site_type_symbol
_atom_site_label
_atom_site_fract_x
_atom_site_fract_y
_atom_site_fract_z
Si Si1 0.855398 0.201794 0.325075
Si Si2 0.140927 0.875631 0.370251
Si Si3 0.102836 0.433462 0.109992
Si Si4 0.542779 0.536083 0.697076
Si Si5 0.064741 0.995795 0.859591
Si Si6 0.680209 0.704229 0.749603
O O1 0.080188 0.303707 0.176457
O O2 0.586667 0.265213 0.537925
O O3 0.852553 0.136370 0.238990
O O4 0.896791 0.072187 0.349079
O O5 0.948381 0.772588 0.545365
O O6 0.126749 0.900426 0.286563
O O7 0.412076 0.890429 0.217826
O O8 0.000000 0.000000 0.500000
O O9 0.349545 0.440977 0.878362
O O10 0.809442 0.468630 0.494934
O O11 0.616148 0.640484 0.710721
O O12 0.281071 0.100320 0.707920
O O13 0.000000 0.000000 0.000000
#
# Coordination Sequence:
#
# PCOD9246667 Si02
#       6
#     4   4   4   4   4   4
#     4  11  24  44  69 106 147 185 241 301 357 417
#     4  10  22  42  66  98 138 182 234 291 356 423
#     4  10  23  43  68 103 144 191 239 295 358 423
#     4   9  21  42  68  98 131 181 239 290 347 426
#     4  10  21  41  69  96 128 179 235 289 344 416
#     4  10  22  42  67  99 137 184 234 286 349 427
#
# _framework density 25.560058999999999
#
# number of rings (size 3 to 8) (size 9 to 14) (size 15 to 20)
#    0.000    2.000    0.000    2.500    0.000   10.667 
#    0.000   15.833    0.000    0.000    0.000    0.000 
#    0.000    0.000    0.000    0.000    0.000    0.000 
#
# Total GULP energy -133691.428597 kJ/mol
# GULP energy per Si atom -5570.476192 kJ/mol
# Density = 2.550188 g / cm^3
# Si number density = 25.560059 Si / 1000 Ang^3
#
#
#
# Elastic Constant Matrix: (Units=GPa)
#
#
# Indices 1 2 3 4 5 6 
#
# 1 86.9645 6.3051 34.3685 0.0000 -16.6478 0.0000
# 2 6.3051 93.0518 8.1088 0.0000 -5.0790 0.0000
# 3 34.3685 8.1088 100.1750 0.0000 -15.7892 0.0000
# 4 0.0000 0.0000 0.0000 41.1880 0.0000 0.6366
# 5 -16.6478 -5.0790 -15.7892 0.0000 43.7833 0.0000
# 6 0.0000 0.0000 0.0000 0.6366 0.0000 30.8907
#
#
#
# Elastic Compliance Matrix: (Units=1/GPa)
#
#
# Indices 1 2 3 4 5 6 
#
# 1 0.013879 -0.000375 -0.004142 0.000000 0.003740 0.000000
# 2 -0.000375 0.010874 -0.000610 0.000000 0.000899 0.000000
# 3 -0.004142 -0.000610 0.011868 0.000000 0.002634 0.000000
# 4 0.000000 0.000000 0.000000 0.024287 0.000000 -0.000500
# 5 0.003740 0.000899 0.002634 0.000000 0.025316 0.000000
# 6 0.000000 0.000000 0.000000 -0.000500 0.000000 0.032383
#
#
# Mechanical properties :
#
#
# Convention : Reuss Voigt Hill
#
# Bulk Modulus (GPa) = 37.92543 41.97290 39.94917
# Shear Modulus (GPa) = 36.32408 38.59965 37.46187
#
# Velocity S-wave (km/s) = 3.77387 3.89029 3.83252
# Velocity P-wave (km/s) = 5.81889 6.05277 5.93698
#
# Compressibility (1/GPa) = 0.02636753
#
# Stress axis : x y z
#
# Youngs Moduli (GPa) = 72.05146 91.95961 84.25960
#
# Poissons Ratio (x) = 0.03452 0.34898
# Poissons Ratio (y) = 0.02705 0.05138
# Poissons Ratio (z) = 0.29842 0.05608
#
# Static dielectric constant tensor:
#      x y z
#    x 2.350490 0.000000 0.099840 
#    y 0.000000 2.182960 0.000000 
#    z 0.099840 0.000000 2.213250 
# 
# From -- ./inp_files/68511.got.cif
#   From: 2010.05.17/outbox.cif.g08.bks.cpg/sg14_35_cif.got.tgz:68511.got - 2010.06.03 17:49:19.
