data_PCOD9246340
_publ_section_title
;
Structure prediction by ZEFSAII (Michael W. Deem and Ramdas Pophale) SiO2 
 PCOD9246340
Probable space group: P 21/C
;
_chemical_formula_sum "Si O2"
_cell_formula_units_Z 20
_cell_length_a 13.710839
_cell_length_b 6.462531
_cell_length_c 17.880899
_cell_angle_alpha 90.000000
_cell_angle_beta 29.338697
_cell_angle_gamma 90.000000
_cell_volume 776.294817
_symmetry_space_group_name_H-M "P 21/C"
_symmetry_group_IT_number 14
_symmetry_cell_setting 'monoclinic'
loop_
_space_group_symop_operation_xyz
x,y,z
-x,1/2+y,1/2-z
-x,-y,-z
x,1/2-y,1/2+z
loop_
_atom_site_type_symbol
_atom_site_label
_atom_site_fract_x
_atom_site_fract_y
_atom_site_fract_z
Si Si1 0.775572 0.856072 0.468735
Si Si2 0.693463 0.268000 0.570948
Si Si3 0.458887 0.972441 0.117293
Si Si4 0.206036 0.622202 0.338985
Si Si5 0.085732 0.509469 0.276920
O O1 0.617141 0.694151 0.543555
O O2 0.963915 0.722125 0.367279
O O3 0.710325 0.023591 0.572267
O O4 0.823366 0.992499 0.364398
O O5 0.526844 0.331310 0.622001
O O6 0.677192 0.383376 0.661236
O O7 0.915067 0.337478 0.397066
O O8 0.251192 0.861075 0.280250
O O9 0.500000 0.000000 0.000000
O O10 0.248202 0.500258 0.233699
O O11 0.000000 0.500000 0.500000
#
# Coordination Sequence:
#
# PCOD9246340 Si02
#       5
#     4   4   4   4   4
#     4  11  22  41  70  99 139 189 239 305 368 451
#     4  10  23  42  65 100 142 187 239 305 369 443
#     4  11  26  44  69 107 146 194 246 306 382 458
#     4  10  24  45  69 104 143 191 248 310 376 451
#     4  10  21  40  68  99 135 181 246 297 366 442
#
# _framework density 25.763404999999999
#
# number of rings (size 3 to 8) (size 9 to 14) (size 15 to 20)
#    0.000    1.600    2.000    1.200    5.600    4.000 
#    0.000    4.000    0.000    0.000    0.000    0.000 
#    0.000    0.000    0.000    0.000    0.000    0.000 
#
# Total GULP energy -111457.765130 kJ/mol
# GULP energy per Si atom -5572.888257 kJ/mol
# Density = 2.570477 g / cm^3
# Si number density = 25.763405 Si / 1000 Ang^3
#
#
#
# Elastic Constant Matrix: (Units=GPa)
#
#
# Indices 1 2 3 4 5 6 
#
# 1 167.0167 37.2144 23.5179 0.0000 3.0339 0.0000
# 2 37.2144 108.2703 28.5375 0.0000 -21.8320 0.0000
# 3 23.5179 28.5375 62.3087 0.0000 0.3602 0.0000
# 4 0.0000 0.0000 0.0000 49.1980 0.0000 3.8638
# 5 3.0339 -21.8320 0.3602 0.0000 35.2720 0.0000
# 6 0.0000 0.0000 0.0000 3.8638 0.0000 25.3743
#
#
#
# Elastic Compliance Matrix: (Units=1/GPa)
#
#
# Indices 1 2 3 4 5 6 
#
# 1 0.006752 -0.002341 -0.001465 0.000000 -0.002015 0.000000
# 2 -0.002341 0.013084 -0.005157 0.000000 0.008353 0.000000
# 3 -0.001465 -0.005157 0.018983 0.000000 -0.003260 0.000000
# 4 0.000000 0.000000 0.000000 0.020572 0.000000 -0.003133
# 5 -0.002015 0.008353 -0.003260 0.000000 0.033728 0.000000
# 6 0.000000 0.000000 0.000000 -0.003133 0.000000 0.039887
#
#
# Mechanical properties :
#
#
# Convention : Reuss Voigt Hill
#
# Bulk Modulus (GPa) = 47.86244 57.34835 52.60540
# Shear Modulus (GPa) = 31.66636 38.52393 35.09515
#
# Velocity S-wave (km/s) = 3.50969 3.87110 3.69482
# Velocity P-wave (km/s) = 5.91962 6.50296 6.21813
#
# Compressibility (1/GPa) = 0.02089321
#
# Stress axis : x y z
#
# Youngs Moduli (GPa) = 148.10718 76.42684 52.67903
#
# Poissons Ratio (x) = 0.17891 0.07716
# Poissons Ratio (y) = 0.34671 0.27169
# Poissons Ratio (z) = 0.21692 0.39416
#
# Static dielectric constant tensor:
#      x y z
#    x 2.040940 0.000000 -0.049220 
#    y 0.000000 2.122710 0.000000 
#    z -0.049220 0.000000 2.123240 
# 
# From -- ./inp_files/67786.got.cif
#   From: 2010.05.17/outbox.cif.g08.bks.cpg/sg14_34_cif.got.tgz:67786.got - 2010.06.03 17:49:19.
