data_PCOD9246061
_publ_section_title
;
Structure prediction by ZEFSAII (Michael W. Deem and Ramdas Pophale) SiO2 
 PCOD9246061
Probable space group: P 21/C
;
_chemical_formula_sum "Si O2"
_cell_formula_units_Z 32
_cell_length_a 8.432328
_cell_length_b 21.642035
_cell_length_c 7.992139
_cell_angle_alpha 90.000000
_cell_angle_beta 83.961812
_cell_angle_gamma 90.000000
_cell_volume 1450.415536
_symmetry_space_group_name_H-M "P 21/C"
_symmetry_group_IT_number 14
_symmetry_cell_setting 'monoclinic'
loop_
_space_group_symop_operation_xyz
x,y,z
-x,1/2+y,1/2-z
-x,-y,-z
x,1/2-y,1/2+z
loop_
_atom_site_type_symbol
_atom_site_label
_atom_site_fract_x
_atom_site_fract_y
_atom_site_fract_z
Si Si1 0.164872 0.931782 0.158925
Si Si2 0.867820 0.205930 0.423286
Si Si3 0.044603 0.829112 0.947693
Si Si4 0.424506 0.434994 0.950783
Si Si5 0.629396 0.953832 0.914872
Si Si6 0.899760 0.617234 0.911339
Si Si7 0.408784 0.842271 0.310069
Si Si8 0.282556 0.164671 0.889150
O O1 0.083792 0.897501 0.009846
O O2 0.314379 0.889082 0.198208
O O3 0.039175 0.924723 0.321527
O O4 0.219025 0.001703 0.130447
O O5 0.894779 0.279079 0.424612
O O6 0.721329 0.193900 0.565456
O O7 0.018469 0.167441 0.478529
O O8 0.862125 0.183335 0.233742
O O9 0.853434 0.814410 0.962590
O O10 0.440756 0.427361 0.750301
O O11 0.500000 0.500000 0.000000
O O12 0.236013 0.426342 0.999363
O O13 0.503606 0.383772 0.059394
O O14 0.666926 0.901244 0.042399
O O15 0.500000 0.000000 0.000000
O O16 0.819220 0.654341 0.767294
O O17 0.547678 0.806557 0.189331
#
# Coordination Sequence:
#
# PCOD9246061 Si02
#       8
#     4   4   4   4   4   4   4   4
#     4  10  21  40  61  93 128 165 209 257 309 382
#     4  11  23  45  67  91 123 166 210 271 316 369
#     4  11  24  43  67  92 126 162 213 262 319 375
#     4  11  21  39  60  92 129 167 206 256 311 373
#     4  12  22  36  63  93 135 169 203 258 313 369
#     4   9  21  40  61  88 124 162 216 254 313 371
#     4  10  21  41  64  93 126 166 213 259 311 374
#     4  10  21  41  63  94 128 166 207 258 309 380
#
# _framework density 22.062640999999999
#
# number of rings (size 3 to 8) (size 9 to 14) (size 15 to 20)
#    0.000    1.500    2.500    3.750    1.750    2.500 
#    2.250    7.500    0.000    0.000    0.000    0.000 
#    0.000    0.000    0.000    0.000    0.000    0.000 
#
# Total GULP energy -178589.330203 kJ/mol
# GULP energy per Si atom -5580.916569 kJ/mol
# Density = 2.201243 g / cm^3
# Si number density = 22.062641 Si / 1000 Ang^3
#
#
#
# Elastic Constant Matrix: (Units=GPa)
#
#
# Indices 1 2 3 4 5 6 
#
# 1 95.7795 9.0994 12.6988 0.0000 -17.8389 0.0000
# 2 9.0994 45.8993 3.5664 0.0000 3.4800 0.0000
# 3 12.6988 3.5664 77.5350 0.0000 5.7524 0.0000
# 4 0.0000 0.0000 0.0000 29.6514 0.0000 2.4690
# 5 -17.8389 3.4800 5.7524 0.0000 39.3117 0.0000
# 6 0.0000 0.0000 0.0000 2.4690 0.0000 25.2216
#
#
#
# Elastic Compliance Matrix: (Units=1/GPa)
#
#
# Indices 1 2 3 4 5 6 
#
# 1 0.012136 -0.002687 -0.002315 0.000000 0.006084 0.000000
# 2 -0.002687 0.022588 -0.000364 0.000000 -0.003166 0.000000
# 3 -0.002315 -0.000364 0.013516 0.000000 -0.002996 0.000000
# 4 0.000000 0.000000 0.000000 0.034002 0.000000 -0.003329
# 5 0.006084 -0.003166 -0.002996 0.000000 0.028917 0.000000
# 6 0.000000 0.000000 0.000000 -0.003329 0.000000 0.039974
#
#
# Mechanical properties :
#
#
# Convention : Reuss Voigt Hill
#
# Bulk Modulus (GPa) = 26.66226 29.99366 28.32796
# Shear Modulus (GPa) = 28.67484 31.76023 30.21754
#
# Velocity S-wave (km/s) = 3.60905 3.79825 3.70486
# Velocity P-wave (km/s) = 5.42937 5.73236 5.58292
#
# Compressibility (1/GPa) = 0.03750620
#
# Stress axis : x y z
#
# Youngs Moduli (GPa) = 82.39916 44.27153 73.98832
#
# Poissons Ratio (x) = 0.11897 0.17131
# Poissons Ratio (y) = 0.22143 0.02693
# Poissons Ratio (z) = 0.19079 0.01611
#
# Static dielectric constant tensor:
#      x y z
#    x 1.893140 0.000000 -0.052390 
#    y 0.000000 1.773310 0.000000 
#    z -0.052390 0.000000 1.828780 
# 
# From -- ./inp_files/10666.got.cif
#   From: 2010.05.17/outbox.cif.g08.bks.cpg/sg14_6_cif.got.tgz:10666.got - 2010.06.03 17:49:19.
