data_PCOD9246817
_publ_section_title
;
Structure prediction by ZEFSAII (Michael W. Deem and Ramdas Pophale) SiO2 
 PCOD9246817
Probable space group: P 21/C
;
_chemical_formula_sum "Si O2"
_cell_formula_units_Z 28
_cell_length_a 7.116773
_cell_length_b 10.670936
_cell_length_c 21.767514
_cell_angle_alpha 90.000000
_cell_angle_beta 129.910919
_cell_angle_gamma 90.000000
_cell_volume 1267.984991
_symmetry_space_group_name_H-M "P 21/C"
_symmetry_group_IT_number 14
_symmetry_cell_setting 'monoclinic'
loop_
_space_group_symop_operation_xyz
x,y,z
-x,1/2+y,1/2-z
-x,-y,-z
x,1/2-y,1/2+z
loop_
_atom_site_type_symbol
_atom_site_label
_atom_site_fract_x
_atom_site_fract_y
_atom_site_fract_z
Si Si1 0.272219 0.622626 0.612233
Si Si2 0.542182 0.449225 0.576684
Si Si3 0.078961 0.499074 0.687113
Si Si4 0.482499 0.424928 0.147524
Si Si5 0.807927 0.118017 0.460647
Si Si6 0.302545 0.832266 0.421229
Si Si7 0.748151 0.786793 0.291927
O O1 0.347271 0.512481 0.580886
O O2 0.090178 0.565878 0.623998
O O3 0.142094 0.741379 0.552738
O O4 0.525806 0.664995 0.701542
O O5 0.500000 0.500000 0.500000
O O6 0.588946 0.302471 0.575903
O O7 0.807682 0.494425 0.655488
O O8 0.252748 0.577826 0.767284
O O9 0.192283 0.360292 0.702249
O O10 0.372950 0.563411 0.129624
O O11 0.518750 0.415729 0.082292
O O12 0.327542 0.325249 0.153910
O O13 0.706261 0.143603 0.507974
O O14 0.000000 0.000000 0.500000
O O15 0.018905 0.846558 0.340600
#
# Coordination Sequence:
#
# PCOD9246817 Si02
#       7
#     4   4   4   4   4   4   4
#     4  11  23  43  64  91 133 169 212 271 322 388
#     4  11  23  41  63  94 127 165 216 267 322 381
#     4  10  23  41  66  94 121 171 217 261 322 390
#     4  11  22  41  64  92 125 169 213 257 332 379
#     4  12  24  43  63  96 132 170 214 268 328 388
#     4  11  23  41  64  93 127 168 214 269 319 388
#     4  10  21  42  66  91 128 162 216 267 313 391
#
# _framework density 22.082279
#
# number of rings (size 3 to 8) (size 9 to 14) (size 15 to 20)
#    0.000    1.143    4.286    2.143    0.000    1.714 
#    2.571    1.429    0.000    0.000    0.000    0.000 
#    0.000    0.000    0.000    0.000    0.000    0.000 
#
# Total GULP energy -156018.591475 kJ/mol
# GULP energy per Si atom -5572.092553 kJ/mol
# Density = 2.203202 g / cm^3
# Si number density = 22.082279 Si / 1000 Ang^3
#
#
#
# Elastic Constant Matrix: (Units=GPa)
#
#
# Indices 1 2 3 4 5 6 
#
# 1 68.4816 31.2038 4.5863 0.0000 -18.0672 0.0000
# 2 31.2038 44.8412 4.1277 0.0000 10.3913 0.0000
# 3 4.5863 4.1277 46.8442 0.0000 -5.5609 0.0000
# 4 0.0000 0.0000 0.0000 34.7700 0.0000 1.3735
# 5 -18.0672 10.3913 -5.5609 0.0000 32.2471 0.0000
# 6 0.0000 0.0000 0.0000 1.3735 0.0000 27.7945
#
#
#
# Elastic Compliance Matrix: (Units=1/GPa)
#
#
# Indices 1 2 3 4 5 6 
#
# 1 0.040005 -0.036181 0.003386 0.000000 0.034657 0.000000
# 2 -0.036181 0.057275 -0.006230 0.000000 -0.039802 0.000000
# 3 0.003386 -0.006230 0.022489 0.000000 0.007782 0.000000
# 4 0.000000 0.000000 0.000000 0.028817 0.000000 -0.001424
# 5 0.034657 -0.039802 0.007782 0.000000 0.064595 0.000000
# 6 0.000000 0.000000 0.000000 -0.001424 0.000000 0.036049
#
#
# Mechanical properties :
#
#
# Convention : Reuss Voigt Hill
#
# Bulk Modulus (GPa) = 23.97001 26.66696 25.31848
# Shear Modulus (GPa) = 14.65474 26.97895 20.81684
#
# Velocity S-wave (km/s) = 2.57892 3.49914 3.07366
# Velocity P-wave (km/s) = 4.44367 5.33176 4.90785
#
# Compressibility (1/GPa) = 0.04171880
#
# Stress axis : x y z
#
# Youngs Moduli (GPa) = 24.99683 17.45950 44.46685
#
# Poissons Ratio (x) = 0.63171 -0.15055
# Poissons Ratio (y) = 0.90442 0.27701
# Poissons Ratio (z) = -0.08463 0.10876
#
# Static dielectric constant tensor:
#      x y z
#    x 1.803490 0.000000 0.043080 
#    y 0.000000 1.609720 0.000000 
#    z 0.043080 0.000000 1.874150 
# 
# From -- ./inp_files/63373.got.cif
#   From: 2010.05.17/outbox.cif.g08.bks.cpg/sg14_32_cif.got.tgz:63373.got - 2010.06.03 17:49:19.
