data_PCOD9246816
_publ_section_title
;
Structure prediction by ZEFSAII (Michael W. Deem and Ramdas Pophale) SiO2 
 PCOD9246816
Probable space group: P 21/C
;
_chemical_formula_sum "Si O2"
_cell_formula_units_Z 24
_cell_length_a 11.091311
_cell_length_b 13.662837
_cell_length_c 9.346113
_cell_angle_alpha 90.000000
_cell_angle_beta 44.742434
_cell_angle_gamma 90.000000
_cell_volume 996.962174
_symmetry_space_group_name_H-M "P 21/C"
_symmetry_group_IT_number 14
_symmetry_cell_setting 'monoclinic'
loop_
_space_group_symop_operation_xyz
x,y,z
-x,1/2+y,1/2-z
-x,-y,-z
x,1/2-y,1/2+z
loop_
_atom_site_type_symbol
_atom_site_label
_atom_site_fract_x
_atom_site_fract_y
_atom_site_fract_z
Si Si1 0.960572 0.166402 0.001746
Si Si2 0.379208 0.927158 0.686600
Si Si3 0.847710 0.149533 0.767757
Si Si4 0.308571 0.048062 0.180759
Si Si5 0.715200 0.889295 0.092999
Si Si6 0.515015 0.799735 0.792283
O O1 0.807019 0.104616 0.207651
O O2 0.930872 0.276078 0.084541
O O3 0.942294 0.153146 0.844807
O O4 0.135181 0.127349 0.920871
O O5 0.468954 0.830935 0.670017
O O6 0.500000 0.000000 0.500000
O O7 0.339309 0.997762 0.854876
O O8 0.819995 0.043733 0.717094
O O9 0.656352 0.186166 0.970972
O O10 0.338177 0.122974 0.286076
O O11 0.248148 0.120818 0.104707
O O12 0.500000 0.000000 0.000000
O O13 0.570479 0.811726 0.252080
#
# Coordination Sequence:
#
# PCOD9246816 Si02
#       6
#     4   4   4   4   4   4
#     4  11  25  42  66 101 131 180 210 282 335 391
#     4  11  24  42  67  97 125 174 221 274 326 403
#     4  10  23  43  66  93 135 175 219 264 339 396
#     4  10  21  42  66  89 129 172 215 271 333 381
#     4  12  24  42  66  95 135 165 224 274 332 385
#     4  10  24  40  69  95 121 178 222 271 323 400
#
# _framework density 24.073129000000002
#
# number of rings (size 3 to 8) (size 9 to 14) (size 15 to 20)
#    0.000    1.333    5.000    1.500   14.000    1.333 
#    0.000    0.833    0.000    0.000    0.000    0.000 
#    0.000    0.000    0.000    0.000    0.000    0.000 
#
# Total GULP energy -134000.493316 kJ/mol
# GULP energy per Si atom -5583.353888 kJ/mol
# Density = 2.401834 g / cm^3
# Si number density = 24.073129 Si / 1000 Ang^3
#
#
#
# Elastic Constant Matrix: (Units=GPa)
#
#
# Indices 1 2 3 4 5 6 
#
# 1 125.0749 27.7666 5.7030 0.0000 -6.0598 0.0000
# 2 27.7666 80.1100 -1.8864 0.0000 -5.8919 0.0000
# 3 5.7030 -1.8864 30.3686 0.0000 -1.7844 0.0000
# 4 0.0000 0.0000 0.0000 23.6534 0.0000 3.1618
# 5 -6.0598 -5.8919 -1.7844 0.0000 16.7792 0.0000
# 6 0.0000 0.0000 0.0000 3.1618 0.0000 39.2422
#
#
#
# Elastic Compliance Matrix: (Units=1/GPa)
#
#
# Indices 1 2 3 4 5 6 
#
# 1 0.008825 -0.002955 -0.001725 0.000000 0.001966 0.000000
# 2 -0.002955 0.013838 0.001648 0.000000 0.003967 0.000000
# 3 -0.001725 0.001648 0.033562 0.000000 0.003525 0.000000
# 4 0.000000 0.000000 0.000000 0.042737 0.000000 -0.003443
# 5 0.001966 0.003967 0.003525 0.000000 0.062075 0.000000
# 6 0.000000 0.000000 0.000000 -0.003443 0.000000 0.025760
#
#
# Mechanical properties :
#
#
# Convention : Reuss Voigt Hill
#
# Bulk Modulus (GPa) = 19.93632 33.19109 26.56370
# Shear Modulus (GPa) = 23.85688 29.53299 26.69494
#
# Velocity S-wave (km/s) = 3.15146 3.50637 3.33364
# Velocity P-wave (km/s) = 4.64131 5.49640 5.08686
#
# Compressibility (1/GPa) = 0.05015971
#
# Stress axis : x y z
#
# Youngs Moduli (GPa) = 113.31299 72.26698 29.79539
#
# Poissons Ratio (x) = 0.21354 0.05141
# Poissons Ratio (y) = 0.33482 -0.04909
# Poissons Ratio (z) = 0.19550 -0.11906
#
# Static dielectric constant tensor:
#      x y z
#    x 1.949360 0.000000 0.030660 
#    y 0.000000 1.902900 0.000000 
#    z 0.030660 0.000000 2.016170 
# 
# From -- ./inp_files/17957.got.cif
#   From: 2010.05.17/outbox.cif.g08.bks.cpg/sg14_9_cif.got.tgz:17957.got - 2010.06.03 17:49:19.
