data_PCOD9246271
_publ_section_title
;
Structure prediction by ZEFSAII (Michael W. Deem and Ramdas Pophale) SiO2 
 PCOD9246271
Probable space group: P 21/C
;
_chemical_formula_sum "Si O2"
_cell_formula_units_Z 30
_cell_length_a 4.901724
_cell_length_b 8.232324
_cell_length_c 33.720438
_cell_angle_alpha 90.000000
_cell_angle_beta 88.452261
_cell_angle_gamma 90.000000
_cell_volume 1360.210246
_symmetry_space_group_name_H-M "P 21/C"
_symmetry_group_IT_number 14
_symmetry_cell_setting 'monoclinic'
loop_
_space_group_symop_operation_xyz
x,y,z
-x,1/2+y,1/2-z
-x,-y,-z
x,1/2-y,1/2+z
loop_
_atom_site_type_symbol
_atom_site_label
_atom_site_fract_x
_atom_site_fract_y
_atom_site_fract_z
Si Si1 0.657503 0.296190 0.000727
Si Si2 0.339626 0.766598 0.722969
Si Si3 0.838902 0.544275 0.716910
Si Si4 0.275731 0.034449 0.561463
Si Si5 0.015481 0.118792 0.056209
Si Si6 0.500000 0.000000 0.000000
Si Si7 0.233927 0.088771 0.873055
Si Si8 0.266854 0.808801 0.633159
O O1 0.544070 0.408876 0.035957
O O2 0.788079 0.134245 0.021513
O O3 0.828528 0.394140 0.968313
O O4 0.416104 0.191053 0.982723
O O5 0.641956 0.697186 0.727217
O O6 0.312015 0.845360 0.679309
O O7 0.142867 0.609067 0.723063
O O8 0.245475 0.893170 0.756145
O O9 0.797614 0.510190 0.670406
O O10 0.092238 0.194051 0.564655
O O11 0.329421 0.954942 0.603285
O O12 0.873097 0.030700 0.092985
O O13 0.285247 0.032754 0.039904
O O14 0.538011 0.155551 0.876673
O O15 0.039888 0.247522 0.872570
#
# Coordination Sequence:
#
# PCOD9246271 Si02
#       8
#     4   4   4   4   4   2   4   4
#     4  10  22  39  58  84 119 157 210 261 315 371
#     4  10  21  40  66  95 133 164 218 248 325 376
#     4  10  21  41  63  99 127 173 201 269 306 389
#     4  10  23  39  58  86 122 154 210 260 320 359
#     4  11  23  39  61  88 118 164 212 266 314 374
#     4  10  22  38  58  86 110 156 212 252 308 378
#     4  10  24  41  65  88 131 160 216 252 316 373
#     4  10  23  43  63  92 124 172 202 262 311 382
#
# _framework density 22.055413999999999
#
# number of rings (size 3 to 8) (size 9 to 14) (size 15 to 20)
#    0.000    1.867    0.000    2.400    7.467    1.067 
#    4.800    0.000    0.000    0.000    0.000    0.000 
#    0.000    0.000    0.000    0.000    0.000    0.000 
#
# Total GULP energy -167352.649924 kJ/mol
# GULP energy per Si atom -5578.421664 kJ/mol
# Density = 2.200521 g / cm^3
# Si number density = 22.055414 Si / 1000 Ang^3
#
#
#
# Elastic Constant Matrix: (Units=GPa)
#
#
# Indices 1 2 3 4 5 6 
#
# 1 66.3380 -0.6231 19.7385 0.0000 -9.2243 0.0000
# 2 -0.6231 88.1238 69.1931 0.0000 -10.4035 0.0000
# 3 19.7385 69.1931 128.0896 0.0000 -26.1101 0.0000
# 4 0.0000 0.0000 0.0000 46.4684 0.0000 -17.5217
# 5 -9.2243 -10.4035 -26.1101 0.0000 27.5281 0.0000
# 6 0.0000 0.0000 0.0000 -17.5217 0.0000 31.1685
#
#
#
# Elastic Compliance Matrix: (Units=1/GPa)
#
#
# Indices 1 2 3 4 5 6 
#
# 1 0.016691 0.003469 -0.003767 0.000000 0.003331 0.000000
# 2 0.003469 0.020669 -0.012237 0.000000 -0.002632 0.000000
# 3 -0.003767 -0.012237 0.017105 0.000000 0.010337 0.000000
# 4 0.000000 0.000000 0.000000 0.027309 0.000000 0.015352
# 5 0.003331 -0.002632 0.010337 0.000000 0.046252 0.000000
# 6 0.000000 0.000000 0.000000 0.015352 0.000000 0.040714
#
#
# Mechanical properties :
#
#
# Convention : Reuss Voigt Hill
#
# Bulk Modulus (GPa) = 34.01839 51.01871 42.51855
# Shear Modulus (GPa) = 24.55702 33.98252 29.26977
#
# Velocity S-wave (km/s) = 3.34042 3.92953 3.64689
# Velocity P-wave (km/s) = 5.50776 6.61594 6.08712
#
# Compressibility (1/GPa) = 0.02939586
#
# Stress axis : x y z
#
# Youngs Moduli (GPa) = 59.91280 48.38067 58.46323
#
# Poissons Ratio (x) = -0.16784 0.22023
# Poissons Ratio (y) = -0.20784 0.71539
# Poissons Ratio (z) = 0.22569 0.59202
#
# Static dielectric constant tensor:
#      x y z
#    x 1.972030 0.000000 0.079980 
#    y 0.000000 1.908400 0.000000 
#    z 0.079980 0.000000 1.828590 
# 
# From -- ./inp_files/78709.got.cif
#   From: 2010.05.17/outbox.cif.g08.bks.cpg/sg14_40_cif.got.tgz:78709.got - 2010.06.03 17:49:19.
