data_PCOD9246885
_publ_section_title
;
Structure prediction by ZEFSAII (Michael W. Deem and Ramdas Pophale) SiO2 
 PCOD9246885
Probable space group: P 21/C
;
_chemical_formula_sum "Si O2"
_cell_formula_units_Z 24
_cell_length_a 22.764746
_cell_length_b 8.779434
_cell_length_c 9.647208
_cell_angle_alpha 90.000000
_cell_angle_beta 31.442796
_cell_angle_gamma 90.000000
_cell_volume 1005.790916
_symmetry_space_group_name_H-M "P 21/C"
_symmetry_group_IT_number 14
_symmetry_cell_setting 'monoclinic'
loop_
_space_group_symop_operation_xyz
x,y,z
-x,1/2+y,1/2-z
-x,-y,-z
x,1/2-y,1/2+z
loop_
_atom_site_type_symbol
_atom_site_label
_atom_site_fract_x
_atom_site_fract_y
_atom_site_fract_z
Si Si1 0.210198 0.764902 0.239565
Si Si2 0.553264 0.645319 0.818426
Si Si3 0.068854 0.787614 0.768782
Si Si4 0.895337 0.932562 0.488881
Si Si5 0.305057 0.334877 0.745858
Si Si6 0.391974 0.887963 0.204331
O O1 0.176673 0.726503 0.463558
O O2 0.111265 0.700962 0.339292
O O3 0.191850 0.948122 0.262164
O O4 0.329097 0.696724 0.955889
O O5 0.639203 0.719984 0.757813
O O6 0.614522 0.639956 0.548085
O O7 0.500000 0.500000 0.000000
O O8 0.447294 0.755858 0.005032
O O9 0.044769 0.947682 0.737892
O O10 0.973041 0.662357 0.935390
O O11 0.820411 0.809337 0.556231
O O12 0.299597 0.499678 0.829332
O O13 0.500000 0.000000 0.000000
#
# Coordination Sequence:
#
# PCOD9246885 Si02
#       6
#     4   4   4   4   4   4
#     4  10  21  42  68  95 137 177 228 286 337 408
#     4  11  24  41  70 101 134 179 229 284 338 413
#     4  10  23  41  70  96 135 182 229 284 346 408
#     4  10  23  44  66 100 135 178 234 281 347 409
#     4  11  23  45  64  98 137 176 225 286 342 411
#     4  10  21  42  68  96 132 180 222 273 343 405
#
# _framework density 23.861818
#
# number of rings (size 3 to 8) (size 9 to 14) (size 15 to 20)
#    1.000    0.667    1.667    2.500    0.000    6.000 
#    9.000    0.000    0.000    0.000    0.000    0.000 
#    0.000    0.000    0.000    0.000    0.000    0.000 
#
# Total GULP energy -133829.170094 kJ/mol
# GULP energy per Si atom -5576.215421 kJ/mol
# Density = 2.380751 g / cm^3
# Si number density = 23.861818 Si / 1000 Ang^3
#
#
#
# Elastic Constant Matrix: (Units=GPa)
#
#
# Indices 1 2 3 4 5 6 
#
# 1 85.9718 33.2108 8.1281 0.0000 -2.9446 0.0000
# 2 33.2108 91.4199 30.6683 0.0000 -2.1432 0.0000
# 3 8.1281 30.6683 65.4575 0.0000 -0.7593 0.0000
# 4 0.0000 0.0000 0.0000 45.9445 0.0000 -10.5573
# 5 -2.9446 -2.1432 -0.7593 0.0000 39.7176 0.0000
# 6 0.0000 0.0000 0.0000 -10.5573 0.0000 20.9888
#
#
#
# Elastic Compliance Matrix: (Units=1/GPa)
#
#
# Indices 1 2 3 4 5 6 
#
# 1 0.013583 -0.005166 0.000742 0.000000 0.000742 0.000000
# 2 -0.005166 0.014957 -0.006363 0.000000 0.000302 0.000000
# 3 0.000742 -0.006363 0.018167 0.000000 0.000059 0.000000
# 4 0.000000 0.000000 0.000000 0.024610 0.000000 0.012379
# 5 0.000742 0.000302 0.000059 0.000000 0.025250 0.000000
# 6 0.000000 0.000000 0.000000 0.012379 0.000000 0.053871
#
#
# Mechanical properties :
#
#
# Convention : Reuss Voigt Hill
#
# Bulk Modulus (GPa) = 39.78729 42.98484 41.38606
# Shear Modulus (GPa) = 27.71821 32.71965 30.21893
#
# Velocity S-wave (km/s) = 3.41194 3.70701 3.56253
# Velocity P-wave (km/s) = 5.67733 6.03123 5.85695
#
# Compressibility (1/GPa) = 0.02513366
#
# Stress axis : x y z
#
# Youngs Moduli (GPa) = 73.62396 66.85969 55.04606
#
# Poissons Ratio (x) = 0.34539 -0.04086
# Poissons Ratio (y) = 0.38033 0.35023
# Poissons Ratio (z) = -0.05465 0.42540
#
# Static dielectric constant tensor:
#      x y z
#    x 1.939460 0.000000 -0.100900 
#    y 0.000000 1.772910 0.000000 
#    z -0.100900 0.000000 1.918520 
# 
# From -- ./inp_files/36086.got.cif
#   From: 2010.05.17/outbox.cif.g08.bks.cpg/sg14_19_cif.got.tgz:36086.got - 2010.06.03 17:49:19.
