data_PCOD9246934
_publ_section_title
;
Structure prediction by ZEFSAII (Michael W. Deem and Ramdas Pophale) SiO2 
 PCOD9246934
Probable space group: P 21/C
;
_chemical_formula_sum "Si O2"
_cell_formula_units_Z 28
_cell_length_a 9.549937
_cell_length_b 8.189608
_cell_length_c 26.884579
_cell_angle_alpha 90.000000
_cell_angle_beta 146.267047
_cell_angle_gamma 90.000000
_cell_volume 1167.649197
_symmetry_space_group_name_H-M "P 21/C"
_symmetry_group_IT_number 14
_symmetry_cell_setting 'monoclinic'
loop_
_space_group_symop_operation_xyz
x,y,z
-x,1/2+y,1/2-z
-x,-y,-z
x,1/2-y,1/2+z
loop_
_atom_site_type_symbol
_atom_site_label
_atom_site_fract_x
_atom_site_fract_y
_atom_site_fract_z
Si Si1 0.559307 0.700119 0.888717
Si Si2 0.274544 0.552668 0.709429
Si Si3 0.589768 0.097711 0.477899
Si Si4 0.442589 0.208965 0.796837
Si Si5 0.835786 0.038740 0.217983
Si Si6 0.854599 0.686005 0.637123
Si Si7 0.930063 0.176824 0.501407
O O1 0.419362 0.644935 0.797029
O O2 0.549233 0.544711 0.923327
O O3 0.399112 0.846312 0.864309
O O4 0.827239 0.769549 0.948091
O O5 0.310569 0.363289 0.732244
O O6 0.426478 0.595085 0.705068
O O7 0.993252 0.633300 0.627336
O O8 0.436289 0.267965 0.441042
O O9 0.868629 0.155533 0.541892
O O10 0.500000 0.000000 0.500000
O O11 0.247657 0.109856 0.772270
O O12 0.671229 0.265118 0.900150
O O13 0.935514 0.960994 0.197198
O O14 0.026709 0.148768 0.305307
O O15 0.000000 0.000000 0.500000
#
# Coordination Sequence:
#
# PCOD9246934 Si02
#       7
#     4   4   4   4   4   4   4
#     4  10  22  43  66  97 131 175 223 276 332 398
#     4  11  23  38  67  97 132 165 225 278 331 399
#     4  11  23  41  68  96 130 183 221 263 340 406
#     4  12  23  43  65 104 126 177 226 274 340 402
#     4  11  22  41  68  93 131 173 213 282 332 395
#     4  11  22  39  63  94 131 168 217 271 336 388
#     4  10  21  42  71  89 138 175 219 272 335 405
#
# _framework density 23.979804999999999
#
# number of rings (size 3 to 8) (size 9 to 14) (size 15 to 20)
#    0.000    1.143    4.286    4.286    4.000    1.714 
#    0.000    2.143    0.000    0.000    0.000    0.000 
#    0.000    0.000    0.000    0.000    0.000    0.000 
#
# Total GULP energy -156270.849790 kJ/mol
# GULP energy per Si atom -5581.101778 kJ/mol
# Density = 2.392523 g / cm^3
# Si number density = 23.979805 Si / 1000 Ang^3
#
#
#
# Elastic Constant Matrix: (Units=GPa)
#
#
# Indices 1 2 3 4 5 6 
#
# 1 110.4619 -15.5149 19.7942 0.0000 11.5035 0.0000
# 2 -15.5149 71.8793 6.9062 0.0000 5.1686 0.0000
# 3 19.7942 6.9062 21.2980 0.0000 7.9078 0.0000
# 4 0.0000 0.0000 0.0000 27.9696 0.0000 13.9697
# 5 11.5035 5.1686 7.9078 0.0000 35.9361 0.0000
# 6 0.0000 0.0000 0.0000 13.9697 0.0000 38.6461
#
#
#
# Elastic Compliance Matrix: (Units=1/GPa)
#
#
# Indices 1 2 3 4 5 6 
#
# 1 0.011848 0.003798 -0.011578 0.000000 -0.001791 0.000000
# 2 0.003798 0.015620 -0.007960 0.000000 -0.001711 0.000000
# 3 -0.011578 -0.007960 0.063697 0.000000 -0.009166 0.000000
# 4 0.000000 0.000000 0.000000 0.043630 0.000000 -0.015771
# 5 -0.001791 -0.001711 -0.009166 0.000000 0.030664 0.000000
# 6 0.000000 0.000000 0.000000 -0.015771 0.000000 0.031577
#
#
# Mechanical properties :
#
#
# Convention : Reuss Voigt Hill
#
# Bulk Modulus (GPa) = 16.75426 25.11223 20.93325
# Shear Modulus (GPa) = 20.12804 33.34060 26.73432
#
# Velocity S-wave (km/s) = 2.90034 3.73280 3.34259
# Velocity P-wave (km/s) = 4.26825 5.39197 4.86268
#
# Compressibility (1/GPa) = 0.05968632
#
# Stress axis : x y z
#
# Youngs Moduli (GPa) = 84.40520 64.02076 15.69923
#
# Poissons Ratio (x) = -0.24318 0.18176
# Poissons Ratio (y) = -0.32061 0.12497
# Poissons Ratio (z) = 0.97722 0.50961
#
# Static dielectric constant tensor:
#      x y z
#    x 1.948870 0.000000 0.075690 
#    y 0.000000 1.971420 0.000000 
#    z 0.075690 0.000000 2.080980 
# 
# From -- ./inp_files/70177.got.cif
#   From: 2010.05.17/outbox.cif.g08.bks.cpg/sg14_36_cif.got.tgz:70177.got - 2010.06.03 17:49:19.
