data_PCOD9246364
_publ_section_title
;
Structure prediction by ZEFSAII (Michael W. Deem and Ramdas Pophale) SiO2 
 PCOD9246364
Probable space group: P 21/C
;
_chemical_formula_sum "Si O2"
_cell_formula_units_Z 28
_cell_length_a 19.731083
_cell_length_b 5.071788
_cell_length_c 13.389890
_cell_angle_alpha 90.000000
_cell_angle_beta 81.350425
_cell_angle_gamma 90.000000
_cell_volume 1324.711564
_symmetry_space_group_name_H-M "P 21/C"
_symmetry_group_IT_number 14
_symmetry_cell_setting 'monoclinic'
loop_
_space_group_symop_operation_xyz
x,y,z
-x,1/2+y,1/2-z
-x,-y,-z
x,1/2-y,1/2+z
loop_
_atom_site_type_symbol
_atom_site_label
_atom_site_fract_x
_atom_site_fract_y
_atom_site_fract_z
Si Si1 0.761246 0.301549 0.268016
Si Si2 0.463935 0.526669 0.796544
Si Si3 0.431856 0.162658 0.985812
Si Si4 0.914153 0.521822 0.223865
Si Si5 0.017618 0.527589 0.380447
Si Si6 0.319722 0.309204 0.166355
Si Si7 0.341992 0.872986 0.846537
O O1 0.837573 0.411043 0.249010
O O2 0.717176 0.532011 0.327149
O O3 0.733673 0.240345 0.160150
O O4 0.738422 0.038191 0.333363
O O5 0.615734 0.696798 0.921269
O O6 0.391520 0.655399 0.787244
O O7 0.489958 0.290448 0.720782
O O8 0.458046 0.387739 0.904373
O O9 0.377832 0.967290 0.939824
O O10 0.500000 0.000000 0.000000
O O11 0.927878 0.811138 0.174110
O O12 0.951289 0.503315 0.323286
O O13 0.953450 0.317660 0.144373
O O14 0.000000 0.500000 0.500000
O O15 0.344308 0.378151 0.272617
#
# Coordination Sequence:
#
# PCOD9246364 Si02
#       7
#     4   4   4   4   4   4   4
#     4  10  23  45  71  94 139 185 218 282 345 401
#     4  12  27  46  70  92 126 170 219 282 359 417
#     4  12  29  46  73 101 129 176 234 292 364 421
#     4  10  21  42  70 102 146 185 228 280 339 404
#     4  10  21  40  70 108 145 182 232 281 330 402
#     4  10  26  47  68  95 137 170 231 284 340 419
#     4  10  26  46  68  93 138 167 226 281 353 408
#
# _framework density 21.136675
#
# number of rings (size 3 to 8) (size 9 to 14) (size 15 to 20)
#    0.857    0.571    1.429    2.143    8.000    0.571 
#    2.571    0.714    0.000    0.000    0.000    0.000 
#    0.000    0.000    0.000    0.000    0.000    0.000 
#
# Total GULP energy -156101.372435 kJ/mol
# GULP energy per Si atom -5575.049016 kJ/mol
# Density = 2.108857 g / cm^3
# Si number density = 21.136675 Si / 1000 Ang^3
#
#
#
# Elastic Constant Matrix: (Units=GPa)
#
#
# Indices 1 2 3 4 5 6 
#
# 1 84.0272 -12.8978 17.1412 0.0000 3.4530 0.0000
# 2 -12.8978 86.2462 -6.4668 0.0000 2.7590 0.0000
# 3 17.1412 -6.4668 71.9598 0.0000 -9.4306 0.0000
# 4 0.0000 0.0000 0.0000 23.6841 0.0000 -3.6260
# 5 3.4530 2.7590 -9.4306 0.0000 10.9264 0.0000
# 6 0.0000 0.0000 0.0000 -3.6260 0.0000 29.1989
#
#
#
# Elastic Compliance Matrix: (Units=1/GPa)
#
#
# Indices 1 2 3 4 5 6 
#
# 1 0.013375 0.001957 -0.004092 0.000000 -0.008253 0.000000
# 2 0.001957 0.012011 0.000152 0.000000 -0.003521 0.000000
# 3 -0.004092 0.000152 0.016969 0.000000 0.015901 0.000000
# 4 0.000000 0.000000 0.000000 0.043041 0.000000 0.005345
# 5 -0.008253 -0.003521 0.015901 0.000000 0.108743 0.000000
# 6 0.000000 0.000000 0.000000 0.005345 0.000000 0.034912
#
#
# Mechanical properties :
#
#
# Convention : Reuss Voigt Hill
#
# Bulk Modulus (GPa) = 26.04817 26.42073 26.23445
# Shear Modulus (GPa) = 20.34069 29.05895 24.69982
#
# Velocity S-wave (km/s) = 3.10553 3.71187 3.42215
# Velocity P-wave (km/s) = 5.02091 5.55857 5.29657
#
# Compressibility (1/GPa) = 0.03839041
#
# Stress axis : x y z
#
# Youngs Moduli (GPa) = 74.76522 83.25395 58.93161
#
# Poissons Ratio (x) = -0.16296 0.24113
# Poissons Ratio (y) = -0.14635 -0.00894
# Poissons Ratio (z) = 0.30592 -0.01264
#
# Static dielectric constant tensor:
#      x y z
#    x 1.805470 0.000000 0.049770 
#    y 0.000000 1.697000 0.000000 
#    z 0.049770 0.000000 1.823760 
# 
# From -- ./inp_files/47842.got.cif
#   From: 2010.05.17/outbox.cif.g08.bks.cpg/sg14_24_cif.got.tgz:47842.got - 2010.06.03 17:49:19.
