data_PCOD9246150
_publ_section_title
;
Structure prediction by ZEFSAII (Michael W. Deem and Ramdas Pophale) SiO2 
 PCOD9246150
Probable space group: P 21/C
;
_chemical_formula_sum "Si O2"
_cell_formula_units_Z 32
_cell_length_a 14.249047
_cell_length_b 21.702194
_cell_length_c 8.847832
_cell_angle_alpha 90.000000
_cell_angle_beta 151.978160
_cell_angle_gamma 90.000000
_cell_volume 1285.425229
_symmetry_space_group_name_H-M "P 21/C"
_symmetry_group_IT_number 14
_symmetry_cell_setting 'monoclinic'
loop_
_space_group_symop_operation_xyz
x,y,z
-x,1/2+y,1/2-z
-x,-y,-z
x,1/2-y,1/2+z
loop_
_atom_site_type_symbol
_atom_site_label
_atom_site_fract_x
_atom_site_fract_y
_atom_site_fract_z
Si Si1 0.839770 0.841079 0.850817
Si Si2 0.215547 0.924235 0.210145
Si Si3 0.833309 0.167559 0.446322
Si Si4 0.192365 0.252353 0.428711
Si Si5 0.540259 0.325613 0.780645
Si Si6 0.731790 0.939176 0.209213
Si Si7 0.208274 0.930480 0.852087
Si Si8 0.739374 0.950738 0.568128
O O1 0.848180 0.815866 0.689460
O O2 0.684724 0.896999 0.610504
O O3 0.795510 0.777456 0.881294
O O4 0.017531 0.865057 0.217105
O O5 0.297297 0.858611 0.381758
O O6 0.302189 0.981959 0.426258
O O7 0.266857 0.928204 0.108452
O O8 0.978974 0.936466 0.896992
O O9 0.661670 0.196724 0.306252
O O10 0.736793 0.122730 0.187706
O O11 0.988360 0.213032 0.586230
O O12 0.402045 0.275259 0.660522
O O13 0.392849 0.382110 0.530694
O O14 0.675508 0.945879 0.304694
O O15 0.966562 0.925811 0.516390
O O16 0.716454 0.005334 0.108251
#
# Coordination Sequence:
#
# PCOD9246150 Si02
#       8
#     4   4   4   4   4   4   4   4
#     4  10  23  46  72  91 135 184 223 287 353 410
#     4  10  22  37  69 105 147 174 230 279 353 418
#     4  10  23  45  69  96 139 172 236 281 349 408
#     4  10  25  46  69 100 132 180 232 294 340 409
#     4  12  23  46  70 109 134 188 231 295 334 425
#     4  10  22  35  68  95 149 177 231 267 347 413
#     4  10  21  40  64 103 139 194 212 286 347 419
#     4  10  21  41  67 103 139 192 219 277 356 433
#
# _framework density 24.894486000000001
#
# number of rings (size 3 to 8) (size 9 to 14) (size 15 to 20)
#    0.750    1.000    2.500    0.750    8.750    2.500 
#    4.500    0.000    0.000    0.000    0.000    0.000 
#    0.000    0.000    0.000    0.000    0.000    0.000 
#
# Total GULP energy -178542.320287 kJ/mol
# GULP energy per Si atom -5579.447509 kJ/mol
# Density = 2.483783 g / cm^3
# Si number density = 24.894486 Si / 1000 Ang^3
#
#
#
# Elastic Constant Matrix: (Units=GPa)
#
#
# Indices 1 2 3 4 5 6 
#
# 1 92.5255 12.1882 40.1662 0.0000 5.1185 0.0000
# 2 12.1882 60.7634 3.3537 0.0000 -3.8154 0.0000
# 3 40.1662 3.3537 57.9533 0.0000 12.9395 0.0000
# 4 0.0000 0.0000 0.0000 32.0377 0.0000 -6.1540
# 5 5.1185 -3.8154 12.9395 0.0000 52.4653 0.0000
# 6 0.0000 0.0000 0.0000 -6.1540 0.0000 34.3011
#
#
#
# Elastic Compliance Matrix: (Units=1/GPa)
#
#
# Indices 1 2 3 4 5 6 
#
# 1 0.015902 -0.002514 -0.011100 0.000000 0.001003 0.000000
# 2 -0.002514 0.017023 0.000451 0.000000 0.001372 0.000000
# 3 -0.011100 0.000451 0.026111 0.000000 -0.005324 0.000000
# 4 0.000000 0.000000 0.000000 0.032327 0.000000 0.005800
# 5 0.001003 0.001372 -0.005324 0.000000 0.020375 0.000000
# 6 0.000000 0.000000 0.000000 0.005800 0.000000 0.030194
#
#
# Mechanical properties :
#
#
# Convention : Reuss Voigt Hill
#
# Bulk Modulus (GPa) = 30.57171 35.85092 33.21131
# Shear Modulus (GPa) = 27.90775 34.12977 31.01876
#
# Velocity S-wave (km/s) = 3.35183 3.70669 3.53372
# Velocity P-wave (km/s) = 5.22368 5.72292 5.47899
#
# Compressibility (1/GPa) = 0.03270998
#
# Stress axis : x y z
#
# Youngs Moduli (GPa) = 62.88481 58.74471 38.29802
#
# Poissons Ratio (x) = 0.14769 0.42511
# Poissons Ratio (y) = 0.15810 -0.01727
# Poissons Ratio (z) = 0.69802 -0.02650
#
# Static dielectric constant tensor:
#      x y z
#    x 2.025040 0.000000 0.058210 
#    y 0.000000 2.009930 0.000000 
#    z 0.058210 0.000000 2.021740 
# 
# From -- ./inp_files/17045.got.cif
#   From: 2010.05.17/outbox.cif.g08.bks.cpg/sg14_9_cif.got.tgz:17045.got - 2010.06.03 17:49:19.
