data_PCOD9246614
_publ_section_title
;
Structure prediction by ZEFSAII (Michael W. Deem and Ramdas Pophale) SiO2 
 PCOD9246614
Probable space group: P 21/C
;
_chemical_formula_sum "Si O2"
_cell_formula_units_Z 28
_cell_length_a 7.879193
_cell_length_b 9.495253
_cell_length_c 23.447762
_cell_angle_alpha 90.000000
_cell_angle_beta 44.897512
_cell_angle_gamma 90.000000
_cell_volume 1238.216087
_symmetry_space_group_name_H-M "P 21/C"
_symmetry_group_IT_number 14
_symmetry_cell_setting 'monoclinic'
loop_
_space_group_symop_operation_xyz
x,y,z
-x,1/2+y,1/2-z
-x,-y,-z
x,1/2-y,1/2+z
loop_
_atom_site_type_symbol
_atom_site_label
_atom_site_fract_x
_atom_site_fract_y
_atom_site_fract_z
Si Si1 0.396156 0.284205 0.659533
Si Si2 0.480666 0.958778 0.206582
Si Si3 0.520281 0.510645 0.162418
Si Si4 0.883756 0.744978 0.560518
Si Si5 0.666048 0.155075 0.985658
Si Si6 0.102074 0.739475 0.269407
Si Si7 0.812602 0.837425 0.950211
O O1 0.484013 0.376365 0.691320
O O2 0.491579 0.126478 0.631081
O O3 0.497023 0.368488 0.581296
O O4 0.109390 0.271917 0.726120
O O5 0.459769 0.948258 0.278931
O O6 0.709550 0.873773 0.129241
O O7 0.252568 0.883352 0.231632
O O8 0.744413 0.608097 0.094167
O O9 0.288471 0.612094 0.217391
O O10 0.922124 0.696652 0.485949
O O11 0.119203 0.752293 0.543650
O O12 0.788177 0.004799 0.944308
O O13 0.471475 0.208386 0.985820
O O14 0.969971 0.728570 0.362293
#
# Coordination Sequence:
#
# PCOD9246614 Si02
#       7
#     4   4   4   4   4   4   4
#     4  11  22  42  64  92 128 166 214 261 317 385
#     4  11  23  42  64  93 122 169 213 256 320 381
#     4  11  25  41  62  96 129 165 212 262 325 378
#     4  11  23  42  66  93 129 168 209 269 316 376
#     4  10  22  38  67  97 123 174 213 262 318 385
#     4  10  23  42  65  93 123 165 213 269 315 372
#     4  10  21  41  67  95 127 165 223 259 317 389
#
# _framework density 22.613178999999999
#
# number of rings (size 3 to 8) (size 9 to 14) (size 15 to 20)
#    0.000    1.429    1.429    3.857    4.000    0.571 
#   12.857    1.429    0.000    0.000    0.000    0.000 
#    0.000    0.000    0.000    0.000    0.000    0.000 
#
# Total GULP energy -156571.239562 kJ/mol
# GULP energy per Si atom -5591.829984 kJ/mol
# Density = 2.256171 g / cm^3
# Si number density = 22.613179 Si / 1000 Ang^3
#
#
#
# Elastic Constant Matrix: (Units=GPa)
#
#
# Indices 1 2 3 4 5 6 
#
# 1 60.7765 22.3617 3.8485 0.0000 -23.7666 0.0000
# 2 22.3617 106.7004 18.1444 0.0000 -18.4294 0.0000
# 3 3.8485 18.1444 48.7964 0.0000 -15.4124 0.0000
# 4 0.0000 0.0000 0.0000 -167.6308 0.0000 -191.1655
# 5 -23.7666 -18.4294 -15.4124 0.0000 39.5398 0.0000
# 6 0.0000 0.0000 0.0000 -191.1655 0.0000 -179.0870
#
#
#
# Elastic Compliance Matrix: (Units=1/GPa)
#
#
# Indices 1 2 3 4 5 6 
#
# 1 0.022665 -0.003014 0.003641 0.000000 0.013638 0.000000
# 2 -0.003014 0.010894 -0.003172 0.000000 0.002030 0.000000
# 3 0.003641 -0.003172 0.024644 0.000000 0.010316 0.000000
# 4 0.000000 0.000000 0.000000 0.027452 0.000000 -0.029303
# 5 0.013638 0.002030 0.010316 0.000000 0.038456 0.000000
# 6 0.000000 0.000000 0.000000 -0.029303 0.000000 0.025696
#
#
# Mechanical properties :
#
#
# Convention : Reuss Voigt Hill
#
# Bulk Modulus (GPa) = 18.82785 33.88693 26.35739
# Shear Modulus (GPa) = 28.96884 -49.97435 -10.50275
#
# Velocity S-wave (km/s) = 3.58307 -4.70613 -2.15745
# Velocity P-wave (km/s) = 5.04599 3.80948 2.33985
#
# Compressibility (1/GPa) = 0.05311282
#
# Stress axis : x y z
#
# Youngs Moduli (GPa) = 44.12064 91.79746 40.57803
#
# Poissons Ratio (x) = 0.27663 -0.14773
# Poissons Ratio (y) = 0.13296 0.12871
# Poissons Ratio (z) = -0.16062 0.29117
#
# Static dielectric constant tensor:
#      x y z
#    x 1.893520 0.000000 -0.031270 
#    y 0.000000 1.789540 0.000000 
#    z -0.031270 0.000000 1.818760 
# 
# From -- ./inp_files/76437.got.cif
#   From: 2010.05.17/outbox.cif.g08.bks.cpg/sg14_39_cif.got.tgz:76437.got - 2010.06.03 17:49:19.
