data_PCOD9246323
_publ_section_title
;
Structure prediction by ZEFSAII (Michael W. Deem and Ramdas Pophale) SiO2 
 PCOD9246323
Probable space group: P 21/C
;
_chemical_formula_sum "Si O2"
_cell_formula_units_Z 24
_cell_length_a 11.943978
_cell_length_b 9.190671
_cell_length_c 8.489723
_cell_angle_alpha 90.000000
_cell_angle_beta 86.975672
_cell_angle_gamma 90.000000
_cell_volume 930.645835
_symmetry_space_group_name_H-M "P 21/C"
_symmetry_group_IT_number 14
_symmetry_cell_setting 'monoclinic'
loop_
_space_group_symop_operation_xyz
x,y,z
-x,1/2+y,1/2-z
-x,-y,-z
x,1/2-y,1/2+z
loop_
_atom_site_type_symbol
_atom_site_label
_atom_site_fract_x
_atom_site_fract_y
_atom_site_fract_z
Si Si1 0.459780 0.881882 0.877320
Si Si2 0.690587 0.622039 0.180116
Si Si3 0.175739 0.251529 0.083534
Si Si4 0.056548 0.823390 0.073953
Si Si5 0.611397 0.093680 0.453921
Si Si6 0.892400 0.464313 0.736545
O O1 0.573997 0.841518 0.773346
O O2 0.376688 0.917124 0.736131
O O3 0.410118 0.755958 0.988637
O O4 0.500000 0.000000 0.000000
O O5 0.789325 0.628790 0.297685
O O6 0.724588 0.741802 0.049625
O O7 0.691479 0.474354 0.080854
O O8 0.175243 0.405269 0.176408
O O9 0.056961 0.227706 0.010127
O O10 0.101418 0.678877 0.154937
O O11 0.008775 0.945569 0.196610
O O12 0.133002 0.900358 0.935956
O O13 0.500000 0.000000 0.500000
#
# Coordination Sequence:
#
# PCOD9246323 Si02
#       6
#     4   4   4   4   4   4
#     4  11  23  45  73 100 137 185 242 284 346 432
#     4  11  24  40  68 103 140 178 233 295 364 412
#     4  12  23  43  66 106 141 181 231 305 367 418
#     4  11  23  43  74 101 135 188 247 283 362 435
#     4  10  21  40  68 101 129 183 232 278 337 432
#     4  11  23  43  71 101 135 187 242 290 349 445
#
# _framework density 25.788542
#
# number of rings (size 3 to 8) (size 9 to 14) (size 15 to 20)
#    0.000    1.000    3.333    4.500    0.000    2.667 
#    0.000    3.333    0.000    0.000    0.000    0.000 
#    0.000    0.000    0.000    0.000    0.000    0.000 
#
# Total GULP energy -134171.951358 kJ/mol
# GULP energy per Si atom -5590.497973 kJ/mol
# Density = 2.572985 g / cm^3
# Si number density = 25.788542 Si / 1000 Ang^3
#
#
#
# Elastic Constant Matrix: (Units=GPa)
#
#
# Indices 1 2 3 4 5 6 
#
# 1 52.0660 6.1167 37.5878 0.0000 -15.5181 0.0000
# 2 6.1167 116.2144 56.0329 0.0000 18.3282 0.0000
# 3 37.5878 56.0329 160.3042 0.0000 1.6066 0.0000
# 4 0.0000 0.0000 0.0000 65.3944 0.0000 10.2094
# 5 -15.5181 18.3282 1.6066 0.0000 40.6777 0.0000
# 6 0.0000 0.0000 0.0000 10.2094 0.0000 35.5089
#
#
#
# Elastic Compliance Matrix: (Units=1/GPa)
#
#
# Indices 1 2 3 4 5 6 
#
# 1 0.026999 0.000023 -0.006444 0.000000 0.010544 0.000000
# 2 0.000023 0.011253 -0.003890 0.000000 -0.004908 0.000000
# 3 -0.006444 -0.003890 0.009119 0.000000 -0.001066 0.000000
# 4 0.000000 0.000000 0.000000 0.016010 0.000000 -0.004603
# 5 0.010544 -0.004908 -0.001066 0.000000 0.030859 0.000000
# 6 0.000000 0.000000 0.000000 -0.004603 0.000000 0.029485
#
#
# Mechanical properties :
#
#
# Convention : Reuss Voigt Hill
#
# Bulk Modulus (GPa) = 37.38382 58.67325 48.02854
# Shear Modulus (GPa) = 32.62342 43.57268 38.09805
#
# Velocity S-wave (km/s) = 3.56059 4.11495 3.84777
# Velocity P-wave (km/s) = 5.60638 6.73633 6.19716
#
# Compressibility (1/GPa) = 0.02674954
#
# Stress axis : x y z
#
# Youngs Moduli (GPa) = 37.03904 88.86551 109.65541
#
# Poissons Ratio (x) = -0.00207 0.70666
# Poissons Ratio (y) = -0.00086 0.42652
# Poissons Ratio (z) = 0.23869 0.34566
#
# Static dielectric constant tensor:
#      x y z
#    x 2.137770 0.000000 -0.000230 
#    y 0.000000 1.936530 0.000000 
#    z -0.000230 0.000000 2.094200 
# 
# From -- ./inp_files/15134.got.cif
#   From: 2010.05.17/outbox.cif.g08.bks.cpg/sg14_8_cif.got.tgz:15134.got - 2010.06.03 17:49:19.
