data_PCOD9246757
_publ_section_title
;
Structure prediction by ZEFSAII (Michael W. Deem and Ramdas Pophale) SiO2 
 PCOD9246757
Probable space group: P 21/C
;
_chemical_formula_sum "Si O2"
_cell_formula_units_Z 32
_cell_length_a 14.376286
_cell_length_b 8.458299
_cell_length_c 10.514429
_cell_angle_alpha 90.000000
_cell_angle_beta 87.033575
_cell_angle_gamma 90.000000
_cell_volume 1276.830061
_symmetry_space_group_name_H-M "P 21/C"
_symmetry_group_IT_number 14
_symmetry_cell_setting 'monoclinic'
loop_
_space_group_symop_operation_xyz
x,y,z
-x,1/2+y,1/2-z
-x,-y,-z
x,1/2-y,1/2+z
loop_
_atom_site_type_symbol
_atom_site_label
_atom_site_fract_x
_atom_site_fract_y
_atom_site_fract_z
Si Si1 0.105986 0.683853 0.146775
Si Si2 0.447638 0.887879 0.607778
Si Si3 0.821626 0.659154 0.800127
Si Si4 0.098394 0.315145 0.950926
Si Si5 0.502024 0.956065 0.149456
Si Si6 0.818637 0.102700 0.677326
Si Si7 0.281224 0.694466 0.483565
Si Si8 0.692212 0.592699 0.367598
O O1 0.153720 0.524716 0.193835
O O2 0.097274 0.801334 0.267934
O O3 0.180606 0.772767 0.052668
O O4 0.006682 0.667952 0.088269
O O5 0.506352 0.732317 0.643593
O O6 0.358045 0.803944 0.548309
O O7 0.500000 0.000000 0.500000
O O8 0.432604 0.977302 0.743312
O O9 0.847613 0.708825 0.655609
O O10 0.720118 0.723285 0.856909
O O11 0.887701 0.736510 0.905381
O O12 0.147321 0.487074 0.935399
O O13 0.401698 0.033235 0.192487
O O14 0.500000 0.000000 0.000000
O O15 0.736654 0.226783 0.650819
O O16 0.774905 0.983356 0.780720
O O17 0.304440 0.509554 0.501301
#
# Coordination Sequence:
#
# PCOD9246757 Si02
#       8
#     4   4   4   4   4   4   4   4
#     4  11  23  38  67  92 129 184 224 280 343 411
#     4  11  24  45  72 104 140 184 235 290 353 421
#     4  11  24  43  67 100 135 178 233 289 339 410
#     4  11  24  43  64  99 141 176 233 288 346 406
#     4  11  24  45  70 102 142 183 229 289 356 428
#     4  10  21  42  63  93 133 181 226 282 344 413
#     4  10  22  41  66  92 131 180 224 279 349 403
#     4   9  23  43  61  96 136 172 224 283 337 414
#
# _framework density 25.062066999999999
#
# number of rings (size 3 to 8) (size 9 to 14) (size 15 to 20)
#    0.000    1.500    1.250    2.625    3.500    7.000 
#    4.500    2.500    0.000    0.000    0.000    0.000 
#    0.000    0.000    0.000    0.000    0.000    0.000 
#
# Total GULP energy -178556.111156 kJ/mol
# GULP energy per Si atom -5579.878474 kJ/mol
# Density = 2.500502 g / cm^3
# Si number density = 25.062067 Si / 1000 Ang^3
#
#
#
# Elastic Constant Matrix: (Units=GPa)
#
#
# Indices 1 2 3 4 5 6 
#
# 1 76.9978 28.7884 10.0030 0.0000 9.6354 0.0000
# 2 28.7884 76.0538 30.4877 0.0000 9.4483 0.0000
# 3 10.0030 30.4877 106.6765 0.0000 10.7939 0.0000
# 4 0.0000 0.0000 0.0000 47.2286 0.0000 14.9299
# 5 9.6354 9.4483 10.7939 0.0000 36.3310 0.0000
# 6 0.0000 0.0000 0.0000 14.9299 0.0000 32.5805
#
#
#
# Elastic Compliance Matrix: (Units=1/GPa)
#
#
# Indices 1 2 3 4 5 6 
#
# 1 0.015390 -0.005667 0.000454 0.000000 -0.002743 0.000000
# 2 -0.005667 0.017194 -0.004209 0.000000 -0.001718 0.000000
# 3 0.000454 -0.004209 0.010759 0.000000 -0.002222 0.000000
# 4 0.000000 0.000000 0.000000 0.024760 0.000000 -0.011346
# 5 -0.002743 -0.001718 -0.002222 0.000000 0.029359 0.000000
# 6 0.000000 0.000000 0.000000 -0.011346 0.000000 0.035893
#
#
# Mechanical properties :
#
#
# Convention : Reuss Voigt Hill
#
# Bulk Modulus (GPa) = 40.81552 44.25402 42.53477
# Shear Modulus (GPa) = 31.17852 35.92461 33.55156
#
# Velocity S-wave (km/s) = 3.53094 3.79017 3.66285
# Velocity P-wave (km/s) = 5.73973 6.07041 5.90739
#
# Compressibility (1/GPa) = 0.02450048
#
# Stress axis : x y z
#
# Youngs Moduli (GPa) = 64.97549 58.15880 92.94280
#
# Poissons Ratio (x) = 0.32958 -0.04219
# Poissons Ratio (y) = 0.36821 0.39118
# Poissons Ratio (z) = -0.02950 0.24478
#
# Static dielectric constant tensor:
#      x y z
#    x 1.618650 0.000000 -0.586720 
#    y 0.000000 1.829920 0.000000 
#    z -0.586720 0.000000 1.290640 
# 
# From -- ./inp_files/31833.got.cif
#   From: 2010.05.17/outbox.cif.g08.bks.cpg/sg14_16_cif.got.tgz:31833.got - 2010.06.03 17:49:19.
