data_PCOD9246611
_publ_section_title
;
Structure prediction by ZEFSAII (Michael W. Deem and Ramdas Pophale) SiO2 
 PCOD9246611
Probable space group: P 21/C
;
_chemical_formula_sum "Si O2"
_cell_formula_units_Z 32
_cell_length_a 28.724692
_cell_length_b 9.281642
_cell_length_c 18.416243
_cell_angle_alpha 90.000000
_cell_angle_beta 15.835752
_cell_angle_gamma 90.000000
_cell_volume 1339.842982
_symmetry_space_group_name_H-M "P 21/C"
_symmetry_group_IT_number 14
_symmetry_cell_setting 'monoclinic'
loop_
_space_group_symop_operation_xyz
x,y,z
-x,1/2+y,1/2-z
-x,-y,-z
x,1/2-y,1/2+z
loop_
_atom_site_type_symbol
_atom_site_label
_atom_site_fract_x
_atom_site_fract_y
_atom_site_fract_z
Si Si1 0.363021 0.774159 0.131428
Si Si2 0.983740 0.854166 0.703279
Si Si3 0.118830 0.192509 0.766844
Si Si4 0.500965 0.176175 0.917408
Si Si5 0.526826 0.945267 0.762602
Si Si6 0.446987 0.481652 0.940710
Si Si7 0.043622 0.093737 0.033610
Si Si8 0.887816 0.667917 0.965260
O O1 0.161434 0.768450 0.445345
O O2 0.454996 0.623138 0.977807
O O3 0.436132 0.845919 0.094760
O O4 0.388214 0.862777 0.018960
O O5 0.926977 0.838206 0.705392
O O6 0.851380 0.758027 0.947069
O O7 0.016977 0.015645 0.680289
O O8 0.318062 0.166976 0.479277
O O9 0.022678 0.167865 0.986658
O O10 0.058860 0.053977 0.809713
O O11 0.529638 0.342558 0.853631
O O12 0.296968 0.146573 0.221189
O O13 0.579586 0.076669 0.736511
O O14 0.486312 0.997189 0.742118
O O15 0.243197 0.449234 0.240837
O O16 0.004859 0.214898 0.150428
#
# Coordination Sequence:
#
# PCOD9246611 Si02
#       8
#     4   4   4   4   4   4   4   4
#     4  12  24  41  65  99 129 170 215 268 320 386
#     4  12  25  41  66  92 130 168 216 266 324 383
#     4  10  21  41  67  94 126 171 212 263 324 386
#     4  11  24  43  67  96 133 169 213 268 319 391
#     4  11  23  42  69  94 129 173 216 260 328 391
#     4  10  22  43  66  95 132 169 213 268 323 378
#     4   9  20  41  67  93 125 168 217 259 317 393
#     4  11  25  42  65  92 128 171 215 266 325 383
#
# _framework density 23.883396000000001
#
# number of rings (size 3 to 8) (size 9 to 14) (size 15 to 20)
#    0.000    1.250    2.500    3.000    5.250    0.500 
#    2.250    0.000    0.000    0.000    0.000    0.000 
#    0.000    0.000    0.000    0.000    0.000    0.000 
#
# Total GULP energy -178909.922128 kJ/mol
# GULP energy per Si atom -5590.935066 kJ/mol
# Density = 2.382904 g / cm^3
# Si number density = 23.883396 Si / 1000 Ang^3
#
#
#
# Elastic Constant Matrix: (Units=GPa)
#
#
# Indices 1 2 3 4 5 6 
#
# 1 78.4414 28.2824 4.8624 0.0000 20.4796 0.0000
# 2 28.2824 92.5788 8.3110 0.0000 26.2685 0.0000
# 3 4.8624 8.3110 43.6832 0.0000 14.3252 0.0000
# 4 0.0000 0.0000 0.0000 19.7302 0.0000 9.0300
# 5 20.4796 26.2685 14.3252 0.0000 31.9301 0.0000
# 6 0.0000 0.0000 0.0000 9.0300 0.0000 42.0258
#
#
#
# Elastic Compliance Matrix: (Units=1/GPa)
#
#
# Indices 1 2 3 4 5 6 
#
# 1 0.015853 -0.002475 0.001610 0.000000 -0.008853 0.000000
# 2 -0.002475 0.014542 0.001069 0.000000 -0.010855 0.000000
# 3 0.001610 0.001069 0.027128 0.000000 -0.014082 0.000000
# 4 0.000000 0.000000 0.000000 0.056211 0.000000 -0.012078
# 5 -0.008853 -0.010855 -0.014082 0.000000 0.052245 0.000000
# 6 0.000000 0.000000 0.000000 -0.012078 0.000000 0.026390
#
#
# Mechanical properties :
#
#
# Convention : Reuss Voigt Hill
#
# Bulk Modulus (GPa) = 17.26272 33.06834 25.16553
# Shear Modulus (GPa) = 23.66615 30.28707 26.97661
#
# Velocity S-wave (km/s) = 3.15128 3.56493 3.36447
# Velocity P-wave (km/s) = 4.52596 5.55165 5.06484
#
# Compressibility (1/GPa) = 0.05792831
#
# Stress axis : x y z
#
# Youngs Moduli (GPa) = 63.08146 68.76646 36.86275
#
# Poissons Ratio (x) = 0.17022 -0.05934
# Poissons Ratio (y) = 0.15614 -0.03939
# Poissons Ratio (z) = -0.10154 -0.07349
#
# Static dielectric constant tensor:
#      x y z
#    x 1.943230 0.000000 0.038340 
#    y 0.000000 1.919910 0.000000 
#    z 0.038340 0.000000 1.882970 
# 
# From -- ./inp_files/62640.got.cif
#   From: 2010.05.17/outbox.cif.g08.bks.cpg/sg14_32_cif.got.tgz:62640.got - 2010.06.03 17:49:19.
