data_PCOD9246445
_publ_section_title
;
Structure prediction by ZEFSAII (Michael W. Deem and Ramdas Pophale) SiO2 
 PCOD9246445
Probable space group: P 21/C
;
_chemical_formula_sum "Si O2"
_cell_formula_units_Z 24
_cell_length_a 15.115650
_cell_length_b 16.882795
_cell_length_c 9.074147
_cell_angle_alpha 90.000000
_cell_angle_beta 25.382542
_cell_angle_gamma 90.000000
_cell_volume 992.635517
_symmetry_space_group_name_H-M "P 21/C"
_symmetry_group_IT_number 14
_symmetry_cell_setting 'monoclinic'
loop_
_space_group_symop_operation_xyz
x,y,z
-x,1/2+y,1/2-z
-x,-y,-z
x,1/2-y,1/2+z
loop_
_atom_site_type_symbol
_atom_site_label
_atom_site_fract_x
_atom_site_fract_y
_atom_site_fract_z
Si Si1 0.203033 0.393426 0.783049
Si Si2 0.865530 0.377327 0.492813
Si Si3 0.860073 0.228107 0.680159
Si Si4 0.773695 0.020100 0.394075
Si Si5 0.589235 0.466576 0.711485
Si Si6 0.361921 0.839299 0.247964
O O1 0.266314 0.466496 0.582500
O O2 0.407784 0.350973 0.536921
O O3 0.070422 0.421964 0.125419
O O4 0.049406 0.330419 0.935946
O O5 0.945374 0.295342 0.438269
O O6 0.735339 0.412558 0.823703
O O7 0.714294 0.390067 0.580203
O O8 0.676877 0.190353 0.858129
O O9 0.765622 0.277643 0.958154
O O10 0.600788 0.955843 0.615392
O O11 0.737634 0.072683 0.590944
O O12 0.000000 0.000000 0.000000
O O13 0.500000 0.500000 0.000000
#
# Coordination Sequence:
#
# PCOD9246445 Si02
#       6
#     4   4   4   4   4   4
#     4  11  23  42  66  92 131 170 215 271 319 386
#     4  10  21  41  62  95 123 166 221 252 325 385
#     4  11  23  43  62  93 129 172 211 268 321 383
#     4   9  20  41  64  94 125 165 210 265 324 384
#     4   9  20  40  65  89 125 165 204 265 322 376
#     4  10  24  41  63  92 129 163 221 259 323 390
#
# _framework density 24.178058
#
# number of rings (size 3 to 8) (size 9 to 14) (size 15 to 20)
#    0.000    2.000    1.667    1.500    7.000    0.000 
#    9.000    1.667    0.000    0.000    0.000    0.000 
#    0.000    0.000    0.000    0.000    0.000    0.000 
#
# Total GULP energy -133748.114872 kJ/mol
# GULP energy per Si atom -5572.838120 kJ/mol
# Density = 2.412303 g / cm^3
# Si number density = 24.178058 Si / 1000 Ang^3
#
#
#
# Elastic Constant Matrix: (Units=GPa)
#
#
# Indices 1 2 3 4 5 6 
#
# 1 70.3937 16.9881 15.3545 0.0000 5.2222 0.0000
# 2 16.9881 63.2931 22.2614 0.0000 -15.6120 0.0000
# 3 15.3545 22.2614 103.3612 0.0000 -2.1163 0.0000
# 4 0.0000 0.0000 0.0000 43.0175 0.0000 -8.1650
# 5 5.2222 -15.6120 -2.1163 0.0000 53.0404 0.0000
# 6 0.0000 0.0000 0.0000 -8.1650 0.0000 37.1878
#
#
#
# Elastic Compliance Matrix: (Units=1/GPa)
#
#
# Indices 1 2 3 4 5 6 
#
# 1 0.015815 -0.004457 -0.001449 0.000000 -0.002927 0.000000
# 2 -0.004457 0.019718 -0.003460 0.000000 0.006105 0.000000
# 3 -0.001449 -0.003460 0.010626 0.000000 -0.000452 0.000000
# 4 0.000000 0.000000 0.000000 0.024257 0.000000 0.005326
# 5 -0.002927 0.006105 -0.000452 0.000000 0.020921 0.000000
# 6 0.000000 0.000000 0.000000 0.005326 0.000000 0.028060
#
#
# Mechanical properties :
#
#
# Convention : Reuss Voigt Hill
#
# Bulk Modulus (GPa) = 36.46026 38.47290 37.46658
# Shear Modulus (GPa) = 33.95098 38.81207 36.38152
#
# Velocity S-wave (km/s) = 3.75134 4.01092 3.88330
# Velocity P-wave (km/s) = 5.82031 6.11529 5.96962
#
# Compressibility (1/GPa) = 0.02742712
#
# Stress axis : x y z
#
# Youngs Moduli (GPa) = 63.23249 50.71399 94.10867
#
# Poissons Ratio (x) = 0.22603 0.13639
# Poissons Ratio (y) = 0.28182 0.32560
# Poissons Ratio (z) = 0.09164 0.17546
#
# Static dielectric constant tensor:
#      x y z
#    x 2.145590 0.000000 -0.041360 
#    y 0.000000 2.152340 0.000000 
#    z -0.041360 0.000000 1.895140 
# 
# From -- ./inp_files/26539.got.cif
#   From: 2010.05.17/outbox.cif.g08.bks.cpg/sg14_14_cif.got.tgz:26539.got - 2010.06.03 17:49:19.
