data_PCOD9246707
_publ_section_title
;
Structure prediction by ZEFSAII (Michael W. Deem and Ramdas Pophale) SiO2 
 PCOD9246707
Probable space group: P 21/C
;
_chemical_formula_sum "Si O2"
_cell_formula_units_Z 32
_cell_length_a 17.983747
_cell_length_b 5.772159
_cell_length_c 13.001393
_cell_angle_alpha 90.000000
_cell_angle_beta 87.264514
_cell_angle_gamma 90.000000
_cell_volume 1348.072343
_symmetry_space_group_name_H-M "P 21/C"
_symmetry_group_IT_number 14
_symmetry_cell_setting 'monoclinic'
loop_
_space_group_symop_operation_xyz
x,y,z
-x,1/2+y,1/2-z
-x,-y,-z
x,1/2-y,1/2+z
loop_
_atom_site_type_symbol
_atom_site_label
_atom_site_fract_x
_atom_site_fract_y
_atom_site_fract_z
Si Si1 0.072417 0.584864 0.362404
Si Si2 0.798876 0.871688 0.237382
Si Si3 0.325734 0.374918 0.655711
Si Si4 0.817879 0.482951 0.061123
Si Si5 0.418841 0.032707 0.955494
Si Si6 0.313135 0.762101 0.342626
Si Si7 0.944937 0.803699 0.459309
Si Si8 0.460599 0.241450 0.264960
O O1 0.119817 0.491446 0.262899
O O2 0.127972 0.778623 0.403669
O O3 0.062961 0.389971 0.450751
O O4 0.989540 0.692106 0.360360
O O5 0.752958 0.751621 0.331600
O O6 0.812176 0.671904 0.151866
O O7 0.739509 0.051389 0.192125
O O8 0.353634 0.451498 0.543269
O O9 0.322630 0.577125 0.741873
O O10 0.393543 0.215168 0.690272
O O11 0.734519 0.386058 0.063651
O O12 0.862865 0.587428 0.962480
O O13 0.390210 0.829565 0.882559
O O14 0.426312 0.255635 0.882031
O O15 0.500000 0.000000 0.000000
O O16 0.000000 0.000000 0.500000
O O17 0.508253 0.481939 0.258282
#
# Coordination Sequence:
#
# PCOD9246707 Si02
#       8
#     4   4   4   4   4   4   4   4
#     4   8  13  22  42  73 115 162 199 253 309 390
#     4   9  17  33  54  77 118 172 198 261 336 394
#     4  11  24  42  64  89 126 170 220 285 353 423
#     4   8  15  27  50  73 113 171 196 257 325 389
#     4  12  26  42  67  97 119 177 230 291 357 430
#     4  10  21  42  58  86 127 168 215 278 347 415
#     4   8  12  20  38  75 113 160 202 250 306 389
#     4  12  26  49  69  96 135 166 225 294 358 420
#
# _framework density 23.737598999999999
#
# number of rings (size 3 to 8) (size 9 to 14) (size 15 to 20)
#    0.000    2.250    2.500    0.750    0.000    0.500 
#    4.500    0.000    0.000    0.000    0.000    0.000 
#    0.000    0.000 2350.250    0.000    0.000    1.000 
#
# Total GULP energy -178355.839797 kJ/mol
# GULP energy per Si atom -5573.619994 kJ/mol
# Density = 2.368357 g / cm^3
# Si number density = 23.737599 Si / 1000 Ang^3
#
#
#
# Elastic Constant Matrix: (Units=GPa)
#
#
# Indices 1 2 3 4 5 6 
#
# 1 105.7264 64.7526 53.2778 0.0000 -34.4548 0.0000
# 2 64.7526 102.6336 45.2911 0.0000 -23.1262 0.0000
# 3 53.2778 45.2911 115.1216 0.0000 -38.7214 0.0000
# 4 0.0000 0.0000 0.0000 28.3707 0.0000 -22.3256
# 5 -34.4548 -23.1262 -38.7214 0.0000 50.5754 0.0000
# 6 0.0000 0.0000 0.0000 -22.3256 0.0000 58.0061
#
#
#
# Elastic Compliance Matrix: (Units=1/GPa)
#
#
# Indices 1 2 3 4 5 6 
#
# 1 0.018436 -0.008938 -0.002917 0.000000 0.006239 0.000000
# 2 -0.008938 0.016359 -0.002467 0.000000 -0.000497 0.000000
# 3 -0.002917 -0.002467 0.013413 0.000000 0.007154 0.000000
# 4 0.000000 0.000000 0.000000 0.050561 0.000000 0.019460
# 5 0.006239 -0.000497 0.007154 0.000000 0.029273 0.000000
# 6 0.000000 0.000000 0.000000 0.019460 0.000000 0.024730
#
#
# Mechanical properties :
#
#
# Convention : Reuss Voigt Hill
#
# Bulk Modulus (GPa) = 51.11368 72.23604 61.67486
# Shear Modulus (GPa) = 26.60463 38.06778 32.33620
#
# Velocity S-wave (km/s) = 3.35144 4.00896 3.69485
# Velocity P-wave (km/s) = 6.04613 7.20598 6.65138
#
# Compressibility (1/GPa) = 0.01956423
#
# Stress axis : x y z
#
# Youngs Moduli (GPa) = 54.24218 61.12805 74.55313
#
# Poissons Ratio (x) = 0.54638 0.21747
# Poissons Ratio (y) = 0.48483 0.18390
# Poissons Ratio (z) = 0.15822 0.15078
#
# Static dielectric constant tensor:
#      x y z
#    x 1.914600 0.000000 -0.066020 
#    y 0.000000 1.956420 0.000000 
#    z -0.066020 0.000000 1.967880 
# 
# From -- ./inp_files/49690.got.cif
#   From: 2010.05.17/outbox.cif.g08.bks.cpg/sg14_25_cif.got.tgz:49690.got - 2010.06.03 17:49:19.
