data_PCOD9246949
_publ_section_title
;
Structure prediction by ZEFSAII (Michael W. Deem and Ramdas Pophale) SiO2 
 PCOD9246949
Probable space group: P 21/C
;
_chemical_formula_sum "Si O2"
_cell_formula_units_Z 20
_cell_length_a 13.386484
_cell_length_b 16.157765
_cell_length_c 9.090540
_cell_angle_alpha 90.000000
_cell_angle_beta 30.978979
_cell_angle_gamma 90.000000
_cell_volume 1012.072299
_symmetry_space_group_name_H-M "P 21/C"
_symmetry_group_IT_number 14
_symmetry_cell_setting 'monoclinic'
loop_
_space_group_symop_operation_xyz
x,y,z
-x,1/2+y,1/2-z
-x,-y,-z
x,1/2-y,1/2+z
loop_
_atom_site_type_symbol
_atom_site_label
_atom_site_fract_x
_atom_site_fract_y
_atom_site_fract_z
Si Si1 0.021263 0.481857 0.145802
Si Si2 0.742223 0.361796 0.085931
Si Si3 0.407221 0.567809 0.222866
Si Si4 0.400603 0.382824 0.719339
Si Si5 0.371804 0.773628 0.570191
O O1 0.816397 0.453935 0.467120
O O2 0.100168 0.566568 0.118970
O O3 0.184551 0.412191 0.963750
O O4 0.000000 0.500000 0.000000
O O5 0.541024 0.401364 0.402460
O O6 0.777899 0.291776 0.166236
O O7 0.704712 0.316107 0.980357
O O8 0.515401 0.573186 0.241983
O O9 0.418741 0.656063 0.128231
O O10 0.500000 0.500000 0.000000
O O11 0.440880 0.284888 0.693517
#
# Coordination Sequence:
#
# PCOD9246949 Si02
#       5
#     4   4   4   4   4
#     4  12  25  43  74 107 135 189 238 285 350 425
#     4  10  21  42  73  97 142 182 234 290 351 410
#     4  12  26  45  69 106 144 181 234 291 351 414
#     4  10  22  45  69  97 139 183 233 285 350 408
#     4  10  21  43  70  98 142 185 224 296 342 410
#
# _framework density 19.761434000000001
#
# number of rings (size 3 to 8) (size 9 to 14) (size 15 to 20)
#    1.200    0.000    4.000    1.800    2.800    3.200 
#    3.600    4.000    0.000    0.000    0.000    0.000 
#    0.000    0.000    0.000    0.000    0.000    0.000 
#
# Total GULP energy -111640.559760 kJ/mol
# GULP energy per Si atom -5582.027988 kJ/mol
# Density = 1.971646 g / cm^3
# Si number density = 19.761434 Si / 1000 Ang^3
#
#
#
# Elastic Constant Matrix: (Units=GPa)
#
#
# Indices 1 2 3 4 5 6 
#
# 1 125.6042 56.5400 65.0836 0.0000 -1.8830 0.0000
# 2 56.5400 125.2658 48.7075 0.0000 -7.6123 0.0000
# 3 65.0836 48.7075 109.1850 0.0000 -16.4266 0.0000
# 4 0.0000 0.0000 0.0000 14.0968 0.0000 18.1812
# 5 -1.8830 -7.6123 -16.4266 0.0000 28.0685 0.0000
# 6 0.0000 0.0000 0.0000 18.1812 0.0000 41.9333
#
#
#
# Elastic Compliance Matrix: (Units=1/GPa)
#
#
# Indices 1 2 3 4 5 6 
#
# 1 0.012985 -0.003461 -0.006806 0.000000 -0.004050 0.000000
# 2 -0.003461 0.010581 -0.002479 0.000000 0.001187 0.000000
# 3 -0.006806 -0.002479 0.015518 0.000000 0.007953 0.000000
# 4 0.000000 0.000000 0.000000 0.160928 0.000000 -0.069774
# 5 -0.004050 0.001187 0.007953 0.000000 0.040331 0.000000
# 6 0.000000 0.000000 0.000000 -0.069774 0.000000 0.054100
#
#
# Mechanical properties :
#
#
# Convention : Reuss Voigt Hill
#
# Bulk Modulus (GPa) = 73.56504 77.85745 75.71125
# Shear Modulus (GPa) = 15.40997 29.46799 22.43898
#
# Velocity S-wave (km/s) = 2.79552 3.86578 3.37336
# Velocity P-wave (km/s) = 6.90849 7.70778 7.31906
#
# Compressibility (1/GPa) = 0.01359341
#
# Stress axis : x y z
#
# Youngs Moduli (GPa) = 77.01088 94.50878 64.44216
#
# Poissons Ratio (x) = 0.32708 0.43858
# Poissons Ratio (y) = 0.26652 0.15973
# Poissons Ratio (z) = 0.52412 0.23426
#
# Static dielectric constant tensor:
#      x y z
#    x 1.676180 0.000000 0.014820 
#    y 0.000000 1.737960 0.000000 
#    z 0.014820 0.000000 1.677980 
# 
# From -- ./inp_files/13855.got.cif
#   From: 2010.05.17/outbox.cif.g08.bks.cpg/sg14_7_cif.got.tgz:13855.got - 2010.06.03 17:49:19.
