data_PCOD9246694
_publ_section_title
;
Structure prediction by ZEFSAII (Michael W. Deem and Ramdas Pophale) SiO2 
 PCOD9246694
Probable space group: P 21/C
;
_chemical_formula_sum "Si O2"
_cell_formula_units_Z 24
_cell_length_a 6.957276
_cell_length_b 16.281408
_cell_length_c 13.711918
_cell_angle_alpha 90.000000
_cell_angle_beta 141.772288
_cell_angle_gamma 90.000000
_cell_volume 961.106631
_symmetry_space_group_name_H-M "P 21/C"
_symmetry_group_IT_number 14
_symmetry_cell_setting 'monoclinic'
loop_
_space_group_symop_operation_xyz
x,y,z
-x,1/2+y,1/2-z
-x,-y,-z
x,1/2-y,1/2+z
loop_
_atom_site_type_symbol
_atom_site_label
_atom_site_fract_x
_atom_site_fract_y
_atom_site_fract_z
Si Si1 0.492794 0.226075 0.877186
Si Si2 0.171444 0.467909 0.906565
Si Si3 0.842432 0.971354 0.111978
Si Si4 0.313830 0.163528 0.601114
Si Si5 0.904643 0.636774 0.301803
Si Si6 0.008523 0.201474 0.858046
O O1 0.394148 0.171954 0.745842
O O2 0.428308 0.320332 0.816673
O O3 0.232586 0.219212 0.856926
O O4 0.817413 0.194314 0.049378
O O5 0.066896 0.387541 0.801563
O O6 0.964927 0.537592 0.773366
O O7 0.500000 0.500000 0.000000
O O8 0.211404 0.427688 0.027808
O O9 0.035241 0.044283 0.136821
O O10 0.876862 0.889023 0.065298
O O11 0.500000 0.000000 0.000000
O O12 0.070287 0.231658 0.466202
O O13 0.647769 0.189423 0.686529
#
# Coordination Sequence:
#
# PCOD9246694 Si02
#       6
#     4   4   4   4   4   4
#     4  12  24  44  69 105 139 182 243 290 355 432
#     4  10  21  43  70 100 136 188 233 284 364 414
#     4  10  21  41  72  96 134 195 228 282 373 412
#     4  12  26  42  71 107 134 190 240 287 361 428
#     4  10  23  42  70  98 145 184 232 295 361 412
#     4  12  23  44  72  95 147 182 231 303 345 428
#
# _framework density 24.971215000000001
#
# number of rings (size 3 to 8) (size 9 to 14) (size 15 to 20)
#    1.000    0.000    5.000    2.000    2.333    0.000 
#    0.000    8.333    0.000    0.000    0.000    0.000 
#    0.000    0.000    0.000    0.000    0.000    0.000 
#
# Total GULP energy -133764.960657 kJ/mol
# GULP energy per Si atom -5573.540027 kJ/mol
# Density = 2.491438 g / cm^3
# Si number density = 24.971215 Si / 1000 Ang^3
#
#
#
# Elastic Constant Matrix: (Units=GPa)
#
#
# Indices 1 2 3 4 5 6 
#
# 1 53.8437 10.0729 7.0644 0.0000 -11.0371 0.0000
# 2 10.0729 118.2904 16.7809 0.0000 9.1129 0.0000
# 3 7.0644 16.7809 103.4188 0.0000 -3.2667 0.0000
# 4 0.0000 0.0000 0.0000 29.3047 0.0000 7.3039
# 5 -11.0371 9.1129 -3.2667 0.0000 29.4279 0.0000
# 6 0.0000 0.0000 0.0000 7.3039 0.0000 29.9871
#
#
#
# Elastic Compliance Matrix: (Units=1/GPa)
#
#
# Indices 1 2 3 4 5 6 
#
# 1 0.020839 -0.002314 -0.000781 0.000000 0.008446 0.000000
# 2 -0.002314 0.009154 -0.001449 0.000000 -0.003864 0.000000
# 3 -0.000781 -0.001449 0.009998 0.000000 0.001266 0.000000
# 4 0.000000 0.000000 0.000000 0.036330 0.000000 -0.008849
# 5 0.008446 -0.003864 0.001266 0.000000 0.038486 0.000000
# 6 0.000000 0.000000 0.000000 -0.008849 0.000000 0.035503
#
#
# Mechanical properties :
#
#
# Convention : Reuss Voigt Hill
#
# Bulk Modulus (GPa) = 32.36109 38.15438 35.25773
# Shear Modulus (GPa) = 29.46385 33.85293 31.65839
#
# Velocity S-wave (km/s) = 3.43871 3.68595 3.56447
# Velocity P-wave (km/s) = 5.36226 5.78165 5.57590
#
# Compressibility (1/GPa) = 0.03090131
#
# Stress axis : x y z
#
# Youngs Moduli (GPa) = 47.98702 109.24077 100.02068
#
# Poissons Ratio (x) = 0.25282 0.07813
# Poissons Ratio (y) = 0.11106 0.14496
# Poissons Ratio (z) = 0.03749 0.15832
#
# Static dielectric constant tensor:
#      x y z
#    x 2.043620 0.000000 -0.051120 
#    y 0.000000 2.133090 0.000000 
#    z -0.051120 0.000000 2.022200 
# 
# From -- ./inp_files/56190.got.cif
#   From: 2010.05.17/outbox.cif.g08.bks.cpg/sg14_29_cif.got.tgz:56190.got - 2010.06.03 17:49:19.
