data_PCOD9246615
_publ_section_title
;
Structure prediction by ZEFSAII (Michael W. Deem and Ramdas Pophale) SiO2 
 PCOD9246615
Probable space group: P 21/C
;
_chemical_formula_sum "Si O2"
_cell_formula_units_Z 28
_cell_length_a 8.752877
_cell_length_b 10.982454
_cell_length_c 13.837193
_cell_angle_alpha 90.000000
_cell_angle_beta 124.886278
_cell_angle_gamma 90.000000
_cell_volume 1091.101217
_symmetry_space_group_name_H-M "P 21/C"
_symmetry_group_IT_number 14
_symmetry_cell_setting 'monoclinic'
loop_
_space_group_symop_operation_xyz
x,y,z
-x,1/2+y,1/2-z
-x,-y,-z
x,1/2-y,1/2+z
loop_
_atom_site_type_symbol
_atom_site_label
_atom_site_fract_x
_atom_site_fract_y
_atom_site_fract_z
Si Si1 0.839465 0.326936 0.376832
Si Si2 0.575395 0.590247 0.760370
Si Si3 0.545364 0.906837 0.930125
Si Si4 0.020231 0.105149 0.327611
Si Si5 0.402749 0.273035 0.895638
Si Si6 0.670273 0.027698 0.484650
Si Si7 0.086835 0.967518 0.908995
O O1 0.619102 0.343054 0.289167
O O2 0.902867 0.358972 0.509842
O O3 0.926840 0.203508 0.365191
O O4 0.905419 0.448734 0.342652
O O5 0.543132 0.458232 0.698673
O O6 0.657950 0.672669 0.705174
O O7 0.672653 0.566176 0.896289
O O8 0.521985 0.780174 0.974952
O O9 0.500000 0.000000 0.000000
O O10 0.764389 0.933883 0.998561
O O11 0.209981 0.161663 0.351481
O O12 0.884388 0.079199 0.188804
O O13 0.115747 0.981066 0.403092
O O14 0.580151 0.345878 0.918172
O O15 0.500000 0.000000 0.500000
#
# Coordination Sequence:
#
# PCOD9246615 Si02
#       7
#     4   4   4   4   4   4   4
#     4  10  21  42  66  93 127 177 217 275 322 389
#     4  10  22  42  66  95 127 174 225 267 321 403
#     4   9  19  41  67  92 122 166 228 268 312 397
#     4  11  23  41  66  98 135 171 210 279 341 387
#     4  10  21  42  65  95 126 176 213 272 330 390
#     4  10  23  41  62  98 132 169 218 269 333 397
#     4  10  21  41  67  95 129 170 228 261 331 403
#
# _framework density 25.662144999999999
#
# number of rings (size 3 to 8) (size 9 to 14) (size 15 to 20)
#    0.000    2.000    1.429    1.714    2.000    2.286 
#   28.286    0.714    0.000    0.000    0.000    0.000 
#    0.000    0.000    0.000    0.000    0.000    0.000 
#
# Total GULP energy -156249.141512 kJ/mol
# GULP energy per Si atom -5580.326483 kJ/mol
# Density = 2.560374 g / cm^3
# Si number density = 25.662145 Si / 1000 Ang^3
#
#
#
# Elastic Constant Matrix: (Units=GPa)
#
#
# Indices 1 2 3 4 5 6 
#
# 1 70.8694 19.6553 11.7913 0.0000 0.4580 0.0000
# 2 19.6553 71.4085 24.8352 0.0000 -8.2335 0.0000
# 3 11.7913 24.8352 107.8938 0.0000 -24.7205 0.0000
# 4 0.0000 0.0000 0.0000 31.2406 0.0000 -10.8740
# 5 0.4580 -8.2335 -24.7205 0.0000 29.5149 0.0000
# 6 0.0000 0.0000 0.0000 -10.8740 0.0000 41.2891
#
#
#
# Elastic Compliance Matrix: (Units=1/GPa)
#
#
# Indices 1 2 3 4 5 6 
#
# 1 0.015480 -0.004088 -0.001320 0.000000 -0.002487 0.000000
# 2 -0.004088 0.016365 -0.002796 0.000000 0.002287 0.000000
# 3 -0.001320 -0.002796 0.012229 0.000000 0.009483 0.000000
# 4 0.000000 0.000000 0.000000 0.035240 0.000000 0.009281
# 5 -0.002487 0.002287 0.009483 0.000000 0.042500 0.000000
# 6 0.000000 0.000000 0.000000 0.009281 0.000000 0.026664
#
#
# Mechanical properties :
#
#
# Convention : Reuss Voigt Hill
#
# Bulk Modulus (GPa) = 36.14756 40.30392 38.22574
# Shear Modulus (GPa) = 28.71737 33.33489 31.02613
#
# Velocity S-wave (km/s) = 3.34886 3.60806 3.48087
# Velocity P-wave (km/s) = 5.39163 5.75301 5.57525
#
# Compressibility (1/GPa) = 0.02766438
#
# Stress axis : x y z
#
# Youngs Moduli (GPa) = 64.59889 61.10422 81.77228
#
# Poissons Ratio (x) = 0.24982 0.10797
# Poissons Ratio (y) = 0.26411 0.22866
# Poissons Ratio (z) = 0.08530 0.17087
#
# Static dielectric constant tensor:
#      x y z
#    x 2.142880 0.000000 0.025870 
#    y 0.000000 2.243590 0.000000 
#    z 0.025870 0.000000 2.051240 
# 
# From -- ./inp_files/40158.got.cif
#   From: 2010.05.17/outbox.cif.g08.bks.cpg/sg14_21_cif.got.tgz:40158.got - 2010.06.03 17:49:19.
