data_PCOD9246679
_publ_section_title
;
Structure prediction by ZEFSAII (Michael W. Deem and Ramdas Pophale) SiO2 
 PCOD9246679
Probable space group: P 21/C
;
_chemical_formula_sum "Si O2"
_cell_formula_units_Z 28
_cell_length_a 9.380325
_cell_length_b 8.822012
_cell_length_c 14.215416
_cell_angle_alpha 90.000000
_cell_angle_beta 113.378194
_cell_angle_gamma 90.000000
_cell_volume 1079.799629
_symmetry_space_group_name_H-M "P 21/C"
_symmetry_group_IT_number 14
_symmetry_cell_setting 'monoclinic'
loop_
_space_group_symop_operation_xyz
x,y,z
-x,1/2+y,1/2-z
-x,-y,-z
x,1/2-y,1/2+z
loop_
_atom_site_type_symbol
_atom_site_label
_atom_site_fract_x
_atom_site_fract_y
_atom_site_fract_z
Si Si1 0.637749 0.250420 0.903527
Si Si2 0.323398 0.546413 0.922213
Si Si3 0.117909 0.226041 0.426836
Si Si4 0.672517 0.585117 0.633562
Si Si5 0.119798 0.544325 0.614017
Si Si6 0.564627 0.214805 0.185333
Si Si7 0.212092 0.278995 0.154750
O O1 0.466909 0.203714 0.890729
O O2 0.723699 0.099984 0.893691
O O3 0.620710 0.342679 0.802201
O O4 0.724336 0.336804 0.008192
O O5 0.198490 0.412645 0.893695
O O6 0.347848 0.637076 0.831927
O O7 0.500000 0.500000 0.000000
O O8 0.235212 0.365558 0.434018
O O9 0.115881 0.179800 0.536129
O O10 0.955574 0.305790 0.358029
O O11 0.600484 0.418665 0.621379
O O12 0.782368 0.613251 0.753538
O O13 0.152294 0.385868 0.672724
O O14 0.000000 0.500000 0.500000
O O15 0.386757 0.260431 0.158197
#
# Coordination Sequence:
#
# PCOD9246679 Si02
#       7
#     4   4   4   4   4   4   4
#     4  11  24  42  70  98 139 179 235 291 353 413
#     4  12  24  41  69 105 140 179 234 299 345 417
#     4  11  24  44  67  98 140 184 230 283 354 417
#     4  11  23  40  72 101 130 181 238 294 346 411
#     4  10  24  44  68  97 141 187 226 284 357 432
#     4  11  24  38  71 106 135 176 240 295 355 404
#     4  10  21  41  70  95 139 178 234 291 351 413
#
# _framework density 25.930734000000001
#
# number of rings (size 3 to 8) (size 9 to 14) (size 15 to 20)
#    0.000    1.143    4.286    0.857    8.000    1.714 
#    2.571    0.000    0.000    0.000    0.000    0.000 
#    0.000    0.000    0.000    0.000    0.000    0.000 
#
# Total GULP energy -156637.701657 kJ/mol
# GULP energy per Si atom -5594.203631 kJ/mol
# Density = 2.587171 g / cm^3
# Si number density = 25.930734 Si / 1000 Ang^3
#
#
#
# Elastic Constant Matrix: (Units=GPa)
#
#
# Indices 1 2 3 4 5 6 
#
# 1 78.9277 14.4329 17.7659 0.0000 -5.3928 0.0000
# 2 14.4329 93.1002 16.0544 0.0000 -11.8409 0.0000
# 3 17.7659 16.0544 104.0748 0.0000 -21.3602 0.0000
# 4 0.0000 0.0000 0.0000 42.3050 0.0000 -4.4337
# 5 -5.3928 -11.8409 -21.3602 0.0000 22.7201 0.0000
# 6 0.0000 0.0000 0.0000 -4.4337 0.0000 53.8622
#
#
#
# Elastic Compliance Matrix: (Units=1/GPa)
#
#
# Indices 1 2 3 4 5 6 
#
# 1 0.013448 -0.001688 -0.001934 0.000000 0.000494 0.000000
# 2 -0.001688 0.011754 -0.000434 0.000000 0.005317 0.000000
# 3 -0.001934 -0.000434 0.012223 0.000000 0.010807 0.000000
# 4 0.000000 0.000000 0.000000 0.023844 0.000000 0.001963
# 5 0.000494 0.005317 0.010807 0.000000 0.057062 0.000000
# 6 0.000000 0.000000 0.000000 0.001963 0.000000 0.018727
#
#
# Mechanical properties :
#
#
# Convention : Reuss Voigt Hill
#
# Bulk Modulus (GPa) = 34.11405 41.40099 37.75752
# Shear Modulus (GPa) = 32.27036 38.96741 35.61889
#
# Velocity S-wave (km/s) = 3.53155 3.88074 3.71025
# Velocity P-wave (km/s) = 5.46018 6.00673 5.73996
#
# Compressibility (1/GPa) = 0.02931343
#
# Stress axis : x y z
#
# Youngs Moduli (GPa) = 74.36276 85.07803 81.81003
#
# Poissons Ratio (x) = 0.14365 0.15820
# Poissons Ratio (y) = 0.12556 0.03547
# Poissons Ratio (z) = 0.14380 0.03689
#
# Static dielectric constant tensor:
#      x y z
#    x 1.995860 0.000000 0.036850 
#    y 0.000000 2.081350 0.000000 
#    z 0.036850 0.000000 2.072490 
# 
# From -- ./inp_files/43460.got.cif
#   From: 2010.05.17/outbox.cif.g08.bks.cpg/sg14_22_cif.got.tgz:43460.got - 2010.06.03 17:49:19.
