data_PCOD9246402
_publ_section_title
;
Structure prediction by ZEFSAII (Michael W. Deem and Ramdas Pophale) SiO2 
 PCOD9246402
Probable space group: P 21/C
;
_chemical_formula_sum "Si O2"
_cell_formula_units_Z 32
_cell_length_a 8.541987
_cell_length_b 24.747334
_cell_length_c 14.879848
_cell_angle_alpha 90.000000
_cell_angle_beta 31.093973
_cell_angle_gamma 90.000000
_cell_volume 1624.457786
_symmetry_space_group_name_H-M "P 21/C"
_symmetry_group_IT_number 14
_symmetry_cell_setting 'monoclinic'
loop_
_space_group_symop_operation_xyz
x,y,z
-x,1/2+y,1/2-z
-x,-y,-z
x,1/2-y,1/2+z
loop_
_atom_site_type_symbol
_atom_site_label
_atom_site_fract_x
_atom_site_fract_y
_atom_site_fract_z
Si Si1 0.476569 0.390576 0.003310
Si Si2 0.204700 0.305753 0.813825
Si Si3 0.149895 0.462431 0.301922
Si Si4 0.510041 0.689848 0.855726
Si Si5 0.886803 0.572608 0.355480
Si Si6 0.177064 0.397037 0.958686
Si Si7 0.492968 0.413307 0.625383
Si Si8 0.530402 0.593349 0.704540
O O1 0.380798 0.336902 0.104560
O O2 0.391914 0.438947 0.112429
O O3 0.313309 0.401029 0.989810
O O4 0.835649 0.389935 0.810955
O O5 0.344049 0.246946 0.738507
O O6 0.403254 0.349780 0.660833
O O7 0.853535 0.304881 0.959152
O O8 0.201740 0.334413 0.913461
O O9 0.845743 0.425980 0.448028
O O10 0.045563 0.520982 0.322578
O O11 0.302936 0.454799 0.323603
O O12 0.577173 0.646152 0.744167
O O13 0.688236 0.557877 0.365756
O O14 0.675727 0.598516 0.535322
O O15 0.638930 0.572670 0.211016
O O16 0.828888 0.414809 0.126244
#
# Coordination Sequence:
#
# PCOD9246402 Si02
#       8
#     4   4   4   4   4   4   4   4
#     4  11  22  40  61  90 125 160 205 256 303 365
#     4   9  21  40  63  86 121 154 198 248 313 363
#     4  11  23  38  63  91 121 171 208 252 308 359
#     4  10  21  41  64  88 119 158 197 253 313 366
#     4  12  22  40  61  90 126 164 211 254 306 362
#     4   9  21  42  60  87 126 158 196 253 307 358
#     4  10  21  41  60  87 124 159 202 259 301 366
#     4  10  22  40  61  90 125 157 204 256 301 366
#
# _framework density 19.698881
#
# number of rings (size 3 to 8) (size 9 to 14) (size 15 to 20)
#    0.750    1.000    1.250    3.375    3.500    0.000 
#    2.250    3.125    0.000    0.000    0.000    0.000 
#    0.000    0.000    0.000    0.000    0.000    0.000 
#
# Total GULP energy -178558.905401 kJ/mol
# GULP energy per Si atom -5579.965794 kJ/mol
# Density = 1.965405 g / cm^3
# Si number density = 19.698881 Si / 1000 Ang^3
#
#
#
# Elastic Constant Matrix: (Units=GPa)
#
#
# Indices 1 2 3 4 5 6 
#
# 1 79.9599 -18.4185 16.7155 0.0000 12.8113 0.0000
# 2 -18.4185 52.3209 8.0637 0.0000 0.2846 0.0000
# 3 16.7155 8.0637 83.9934 0.0000 13.7559 0.0000
# 4 0.0000 0.0000 0.0000 24.3176 0.0000 -7.3754
# 5 12.8113 0.2846 13.7559 0.0000 30.3653 0.0000
# 6 0.0000 0.0000 0.0000 -7.3754 0.0000 14.4314
#
#
#
# Elastic Compliance Matrix: (Units=1/GPa)
#
#
# Indices 1 2 3 4 5 6 
#
# 1 0.015261 0.005823 -0.002736 0.000000 -0.005254 0.000000
# 2 0.005823 0.021636 -0.003025 0.000000 -0.001289 0.000000
# 3 -0.002736 -0.003025 0.013552 0.000000 -0.004957 0.000000
# 4 0.000000 0.000000 0.000000 0.048666 0.000000 0.024872
# 5 -0.005254 -0.001289 -0.004957 0.000000 0.037407 0.000000
# 6 0.000000 0.000000 0.000000 0.024872 0.000000 0.082005
#
#
# Mechanical properties :
#
#
# Convention : Reuss Voigt Hill
#
# Bulk Modulus (GPa) = 19.77314 25.44395 22.60855
# Shear Modulus (GPa) = 21.25310 27.81710 24.53510
#
# Velocity S-wave (km/s) = 3.28822 3.76189 3.53300
# Velocity P-wave (km/s) = 4.94733 5.64035 5.30517
#
# Compressibility (1/GPa) = 0.05057366
#
# Stress axis : x y z
#
# Youngs Moduli (GPa) = 65.52573 46.21980 73.78826
#
# Poissons Ratio (x) = -0.26912 0.20186
# Poissons Ratio (y) = -0.38153 0.22319
# Poissons Ratio (z) = 0.17925 0.13980
#
# Static dielectric constant tensor:
#      x y z
#    x 1.674090 0.000000 0.003250 
#    y 0.000000 1.696140 0.000000 
#    z 0.003250 0.000000 1.679820 
# 
# From -- ./inp_files/10822.got.cif
#   From: 2010.05.17/outbox.cif.g08.bks.cpg/sg14_6_cif.got.tgz:10822.got - 2010.06.03 17:49:19.
