data_PCOD9246437
_publ_section_title
;
Structure prediction by ZEFSAII (Michael W. Deem and Ramdas Pophale) SiO2 
 PCOD9246437
Probable space group: P 21/C
;
_chemical_formula_sum "Si O2"
_cell_formula_units_Z 32
_cell_length_a 26.304061
_cell_length_b 10.704396
_cell_length_c 15.385750
_cell_angle_alpha 90.000000
_cell_angle_beta 157.488554
_cell_angle_gamma 90.000000
_cell_volume 1658.642152
_symmetry_space_group_name_H-M "P 21/C"
_symmetry_group_IT_number 14
_symmetry_cell_setting 'monoclinic'
loop_
_space_group_symop_operation_xyz
x,y,z
-x,1/2+y,1/2-z
-x,-y,-z
x,1/2-y,1/2+z
loop_
_atom_site_type_symbol
_atom_site_label
_atom_site_fract_x
_atom_site_fract_y
_atom_site_fract_z
Si Si1 0.544850 0.256756 0.713960
Si Si2 0.361848 0.254023 0.594369
Si Si3 0.890338 0.953542 0.133687
Si Si4 0.609885 0.515929 0.745396
Si Si5 0.598183 0.886553 0.664083
Si Si6 0.844756 0.199679 0.177497
Si Si7 0.062011 0.233392 0.157468
Si Si8 0.901427 0.022629 0.689877
O O1 0.447294 0.255564 0.642136
O O2 0.597370 0.396187 0.785874
O O3 0.464333 0.216493 0.499728
O O4 0.686291 0.184841 0.944970
O O5 0.389784 0.355593 0.714097
O O6 0.202509 0.249208 0.328111
O O7 0.403749 0.131867 0.713595
O O8 0.924267 0.826228 0.238962
O O9 0.995249 0.976363 0.224267
O O10 0.885142 0.076762 0.186533
O O11 0.744074 0.927696 0.864725
O O12 0.500000 0.500000 0.500000
O O13 0.754655 0.522494 0.930918
O O14 0.500000 0.000000 0.500000
O O15 0.878296 0.333610 0.183987
O O16 0.936026 0.215412 0.406337
O O17 0.053603 0.086759 0.171309
#
# Coordination Sequence:
#
# PCOD9246437 Si02
#       8
#     4   4   4   4   4   4   4   4
#     4  11  24  40  65  92 123 169 204 260 320 366
#     4  10  24  40  64  93 124 168 208 254 319 370
#     4  11  23  40  66  90 123 166 207 256 319 367
#     4  10  21  41  62  89 129 158 214 261 300 378
#     4  11  23  42  62  92 130 157 213 263 308 378
#     4  11  23  41  60  93 127 157 213 255 303 382
#     4  10  23  42  60  91 128 159 208 259 301 382
#     4  10  23  40  62  92 122 166 206 251 317 368
#
# _framework density 19.292888999999999
#
# number of rings (size 3 to 8) (size 9 to 14) (size 15 to 20)
#    0.000    1.500    2.500    1.500    3.500    3.000 
#    0.000    0.000    0.000    0.000    0.000    0.000 
#    0.000    0.000    0.000    0.000    0.000    0.000 
#
# Total GULP energy -178363.173174 kJ/mol
# GULP energy per Si atom -5573.849162 kJ/mol
# Density = 1.924898 g / cm^3
# Si number density = 19.292889 Si / 1000 Ang^3
#
#
#
# Elastic Constant Matrix: (Units=GPa)
#
#
# Indices 1 2 3 4 5 6 
#
# 1 113.9155 12.3023 31.0219 0.0000 31.4123 0.0000
# 2 12.3023 86.7665 -0.1406 0.0000 5.7392 0.0000
# 3 31.0219 -0.1406 91.7990 0.0000 3.2535 0.0000
# 4 0.0000 0.0000 0.0000 23.4240 0.0000 0.9519
# 5 31.4123 5.7392 3.2535 0.0000 18.2573 0.0000
# 6 0.0000 0.0000 0.0000 0.9519 0.0000 20.5567
#
#
#
# Elastic Compliance Matrix: (Units=1/GPa)
#
#
# Indices 1 2 3 4 5 6 
#
# 1 0.018977 -0.000615 -0.005297 0.000000 -0.031514 0.000000
# 2 -0.000615 0.011792 0.000322 0.000000 -0.002706 0.000000
# 3 -0.005297 0.000322 0.012443 0.000000 0.006795 0.000000
# 4 0.000000 0.000000 0.000000 0.042772 0.000000 -0.001980
# 5 -0.031514 -0.002706 0.006795 0.000000 0.108633 0.000000
# 6 0.000000 0.000000 0.000000 -0.001980 0.000000 0.048738
#
#
# Mechanical properties :
#
#
# Convention : Reuss Voigt Hill
#
# Bulk Modulus (GPa) = 31.21876 42.09426 36.65651
# Shear Modulus (GPa) = 18.85278 29.06741 23.96010
#
# Velocity S-wave (km/s) = 3.12939 3.88576 3.52790
# Velocity P-wave (km/s) = 5.41055 6.48059 5.96959
#
# Compressibility (1/GPa) = 0.03203202
#
# Stress axis : x y z
#
# Youngs Moduli (GPa) = 52.69439 84.80403 80.36595
#
# Poissons Ratio (x) = 0.05214 0.42571
# Poissons Ratio (y) = 0.03240 -0.02586
# Poissons Ratio (z) = 0.27913 -0.02728
#
# Static dielectric constant tensor:
#      x y z
#    x 1.642460 0.000000 -0.006250 
#    y 0.000000 1.795980 0.000000 
#    z -0.006250 0.000000 1.691660 
# 
# From -- ./inp_files/35272.got.cif
#   From: 2010.05.17/outbox.cif.g08.bks.cpg/sg14_18_cif.got.tgz:35272.got - 2010.06.03 17:49:19.
