data_PCOD9246324
_publ_section_title
;
Structure prediction by ZEFSAII (Michael W. Deem and Ramdas Pophale) SiO2 
 PCOD9246324
Probable space group: P 21/C
;
_chemical_formula_sum "Si O2"
_cell_formula_units_Z 32
_cell_length_a 5.247102
_cell_length_b 24.066260
_cell_length_c 10.830131
_cell_angle_alpha 90.000000
_cell_angle_beta 101.788013
_cell_angle_gamma 90.000000
_cell_volume 1338.765933
_symmetry_space_group_name_H-M "P 21/C"
_symmetry_group_IT_number 14
_symmetry_cell_setting 'monoclinic'
loop_
_space_group_symop_operation_xyz
x,y,z
-x,1/2+y,1/2-z
-x,-y,-z
x,1/2-y,1/2+z
loop_
_atom_site_type_symbol
_atom_site_label
_atom_site_fract_x
_atom_site_fract_y
_atom_site_fract_z
Si Si1 0.499095 0.858340 0.923809
Si Si2 0.808039 0.162490 0.858328
Si Si3 0.752571 0.504836 0.884560
Si Si4 0.319836 0.689565 0.926935
Si Si5 0.092921 0.437349 0.493166
Si Si6 0.834925 0.741715 0.481379
Si Si7 0.063761 0.911570 0.749794
Si Si8 0.412622 0.089086 0.466964
O O1 0.608506 0.917306 0.989024
O O2 0.705035 0.811741 0.901438
O O3 0.312240 0.872294 0.791511
O O4 0.356495 0.833320 0.031072
O O5 0.669855 0.175049 0.717093
O O6 0.936608 0.100946 0.880211
O O7 0.028176 0.210120 0.891566
O O8 0.849371 0.475353 0.770699
O O9 0.520275 0.464061 0.903284
O O10 0.657075 0.566911 0.901770
O O11 0.000000 0.500000 0.000000
O O12 0.588623 0.720358 0.986288
O O13 0.060567 0.723470 0.935369
O O14 0.351831 0.631660 0.001471
O O15 0.000000 0.500000 0.500000
O O16 0.046631 0.412469 0.624575
O O17 0.847901 0.893222 0.630079
#
# Coordination Sequence:
#
# PCOD9246324 Si02
#       8
#     4   4   4   4   4   4   4   4
#     4  10  22  47  71  98 148 184 237 299 362 426
#     4  10  25  49  69 104 143 180 238 303 349 430
#     4   9  20  39  63  94 150 178 227 287 348 413
#     4  12  28  45  78 103 139 187 244 295 366 419
#     4  10  23  41  71 107 139 189 238 286 364 430
#     4  11  26  50  66 106 135 188 236 296 364 413
#     4  10  21  40  68 102 142 191 231 287 358 435
#     4  10  23  42  65 107 137 185 238 291 355 430
#
# _framework density 23.902611
#
# number of rings (size 3 to 8) (size 9 to 14) (size 15 to 20)
#    0.000    1.750    1.250    0.750    7.000    8.000 
#    9.000    0.000    0.000    0.000    0.000    0.000 
#    0.000    0.000    0.000    0.000    0.000    0.000 
#
# Total GULP energy -178469.200759 kJ/mol
# GULP energy per Si atom -5577.162524 kJ/mol
# Density = 2.384821 g / cm^3
# Si number density = 23.902611 Si / 1000 Ang^3
#
#
#
# Elastic Constant Matrix: (Units=GPa)
#
#
# Indices 1 2 3 4 5 6 
#
# 1 101.4958 29.1970 13.6882 0.0000 25.5332 0.0000
# 2 29.1970 84.0485 25.1247 0.0000 24.9467 0.0000
# 3 13.6882 25.1247 42.5956 0.0000 17.4941 0.0000
# 4 0.0000 0.0000 0.0000 15.4949 0.0000 -3.6077
# 5 25.5332 24.9467 17.4941 0.0000 27.8143 0.0000
# 6 0.0000 0.0000 0.0000 -3.6077 0.0000 38.2359
#
#
#
# Elastic Compliance Matrix: (Units=1/GPa)
#
#
# Indices 1 2 3 4 5 6 
#
# 1 0.012979 -0.001545 0.001435 0.000000 -0.011432 0.000000
# 2 -0.001545 0.017174 -0.005245 0.000000 -0.010687 0.000000
# 3 0.001435 -0.005245 0.033327 0.000000 -0.017575 0.000000
# 4 0.000000 0.000000 0.000000 0.065987 0.000000 0.006226
# 5 -0.011432 -0.010687 -0.017575 0.000000 0.067087 0.000000
# 6 0.000000 0.000000 0.000000 0.006226 0.000000 0.026741
#
#
# Mechanical properties :
#
#
# Convention : Reuss Voigt Hill
#
# Bulk Modulus (GPa) = 18.94900 40.46220 29.70560
# Shear Modulus (GPa) = 19.87326 26.98433 23.42879
#
# Velocity S-wave (km/s) = 2.88657 3.36360 3.13417
# Velocity P-wave (km/s) = 4.36515 5.66125 5.05491
#
# Compressibility (1/GPa) = 0.05277323
#
# Stress axis : x y z
#
# Youngs Moduli (GPa) = 77.04501 58.22652 30.00574
#
# Poissons Ratio (x) = 0.08994 -0.04307
# Poissons Ratio (y) = 0.11901 0.15737
# Poissons Ratio (z) = -0.11059 0.30537
#
# Static dielectric constant tensor:
#      x y z
#    x 2.144620 0.000000 -0.011670 
#    y 0.000000 2.037220 0.000000 
#    z -0.011670 0.000000 1.876570 
# 
# From -- ./inp_files/22138.got.cif
#   From: 2010.05.17/outbox.cif.g08.bks.cpg/sg14_12_cif.got.tgz:22138.got - 2010.06.03 17:49:19.
