data_PCOD9246640
_publ_section_title
;
Structure prediction by ZEFSAII (Michael W. Deem and Ramdas Pophale) SiO2 
 PCOD9246640
Probable space group: P 21/C
;
_chemical_formula_sum "Si O2"
_cell_formula_units_Z 32
_cell_length_a 5.291569
_cell_length_b 17.087923
_cell_length_c 14.241665
_cell_angle_alpha 90.000000
_cell_angle_beta 102.421989
_cell_angle_gamma 90.000000
_cell_volume 1257.612049
_symmetry_space_group_name_H-M "P 21/C"
_symmetry_group_IT_number 14
_symmetry_cell_setting 'monoclinic'
loop_
_space_group_symop_operation_xyz
x,y,z
-x,1/2+y,1/2-z
-x,-y,-z
x,1/2-y,1/2+z
loop_
_atom_site_type_symbol
_atom_site_label
_atom_site_fract_x
_atom_site_fract_y
_atom_site_fract_z
Si Si1 0.169948 0.733459 0.904026
Si Si2 0.862600 0.380786 0.938894
Si Si3 0.689199 0.266006 0.303380
Si Si4 0.819404 0.520045 0.598373
Si Si5 0.262637 0.333764 0.703731
Si Si6 0.627303 0.443279 0.300344
Si Si7 0.299281 0.044740 0.361094
Si Si8 0.489388 0.870660 0.958548
O O1 0.222635 0.723875 0.797969
O O2 0.403018 0.781903 0.971918
O O3 0.939743 0.795981 0.882532
O O4 0.101862 0.656283 0.955270
O O5 0.843294 0.301897 0.871018
O O6 0.582200 0.422185 0.910554
O O7 0.091009 0.439647 0.925955
O O8 0.396656 0.234545 0.273523
O O9 0.676178 0.354338 0.335849
O O10 0.650705 0.531660 0.680590
O O11 0.715233 0.440617 0.542990
O O12 0.736252 0.595915 0.531804
O O13 0.122611 0.514640 0.636029
O O14 0.182526 0.398230 0.770939
O O15 0.476533 0.369128 0.651559
O O16 0.651090 0.463837 0.191156
#
# Coordination Sequence:
#
# PCOD9246640 Si02
#       8
#     4   4   4   4   4   4   4   4
#     4  11  23  42  68  95 132 175 225 278 331 389
#     4  11  25  43  70  95 130 172 226 271 330 397
#     4  10  25  41  64  99 129 173 224 280 326 389
#     4  11  25  38  65 101 137 173 214 266 348 414
#     4  10  21  41  68  88 138 174 218 269 341 396
#     4  12  25  43  66  93 137 178 222 275 328 389
#     4  11  23  45  65  95 127 182 218 267 328 403
#     4  10  23  38  62 102 135 171 212 274 342 423
#
# _framework density 25.445048
#
# number of rings (size 3 to 8) (size 9 to 14) (size 15 to 20)
#    0.000    1.250    2.500    2.250   10.500    1.000 
#    0.000    1.250    0.000    0.000    0.000    0.000 
#    0.000    0.000    0.000    0.000    0.000    0.000 
#
# Total GULP energy -178887.971945 kJ/mol
# GULP energy per Si atom -5590.249123 kJ/mol
# Density = 2.538713 g / cm^3
# Si number density = 25.445048 Si / 1000 Ang^3
#
#
#
# Elastic Constant Matrix: (Units=GPa)
#
#
# Indices 1 2 3 4 5 6 
#
# 1 91.9664 26.1921 18.8108 0.0000 -22.0775 0.0000
# 2 26.1921 48.9859 -1.7997 0.0000 -8.6682 0.0000
# 3 18.8108 -1.7997 55.0245 0.0000 -17.6039 0.0000
# 4 0.0000 0.0000 0.0000 41.2198 0.0000 -13.6909
# 5 -22.0775 -8.6682 -17.6039 0.0000 33.3910 0.0000
# 6 0.0000 0.0000 0.0000 -13.6909 0.0000 23.2471
#
#
#
# Elastic Compliance Matrix: (Units=1/GPa)
#
#
# Indices 1 2 3 4 5 6 
#
# 1 0.015106 -0.007070 -0.003353 0.000000 0.006385 0.000000
# 2 -0.007070 0.025120 0.004606 0.000000 0.004275 0.000000
# 3 -0.003353 0.004606 0.023028 0.000000 0.011119 0.000000
# 4 0.000000 0.000000 0.000000 0.030160 0.000000 0.017762
# 5 0.006385 0.004275 0.011119 0.000000 0.041142 0.000000
# 6 0.000000 0.000000 0.000000 0.017762 0.000000 0.053476
#
#
# Mechanical properties :
#
#
# Convention : Reuss Voigt Hill
#
# Bulk Modulus (GPa) = 19.37216 31.37590 25.37403
# Shear Modulus (GPa) = 23.05518 29.75650 26.40584
#
# Velocity S-wave (km/s) = 3.01338 3.42342 3.22492
# Velocity P-wave (km/s) = 4.44265 5.28999 4.88473
#
# Compressibility (1/GPa) = 0.05162047
#
# Stress axis : x y z
#
# Youngs Moduli (GPa) = 66.20080 39.80892 43.42547
#
# Poissons Ratio (x) = 0.28145 0.14559
# Poissons Ratio (y) = 0.46805 -0.20003
# Poissons Ratio (z) = 0.22195 -0.18337
#
# Static dielectric constant tensor:
#      x y z
#    x 2.108550 0.000000 -0.044570 
#    y 0.000000 2.028580 0.000000 
#    z -0.044570 0.000000 2.061710 
# 
# From -- ./inp_files/37889.got.cif
#   From: 2010.05.17/outbox.cif.g08.bks.cpg/sg14_19_cif.got.tgz:37889.got - 2010.06.03 17:49:19.
