data_PCOD9246595
_publ_section_title
;
Structure prediction by ZEFSAII (Michael W. Deem and Ramdas Pophale) SiO2 
 PCOD9246595
Probable space group: P 21/C
;
_chemical_formula_sum "Si O2"
_cell_formula_units_Z 32
_cell_length_a 8.244511
_cell_length_b 27.003177
_cell_length_c 10.868229
_cell_angle_alpha 90.000000
_cell_angle_beta 150.445082
_cell_angle_gamma 90.000000
_cell_volume 1193.472192
_symmetry_space_group_name_H-M "P 21/C"
_symmetry_group_IT_number 14
_symmetry_cell_setting 'monoclinic'
loop_
_space_group_symop_operation_xyz
x,y,z
-x,1/2+y,1/2-z
-x,-y,-z
x,1/2-y,1/2+z
loop_
_atom_site_type_symbol
_atom_site_label
_atom_site_fract_x
_atom_site_fract_y
_atom_site_fract_z
Si Si1 0.601062 0.179714 0.666075
Si Si2 0.137187 0.259718 0.980821
Si Si3 0.962100 0.874942 0.202352
Si Si4 0.237321 0.040817 0.218662
Si Si5 0.261307 0.024960 0.529061
Si Si6 0.573566 0.444283 0.589688
Si Si7 0.733355 0.390705 0.448012
Si Si8 0.340974 0.819147 0.666917
O O1 0.261659 0.209416 0.444192
O O2 0.640837 0.162735 0.834635
O O3 0.721771 0.129963 0.678845
O O4 0.860703 0.217944 0.780870
O O5 0.449973 0.229087 0.241745
O O6 0.947492 0.297854 0.940047
O O7 0.781126 0.927250 0.094596
O O8 0.138278 0.853477 0.439914
O O9 0.632713 0.846066 0.935575
O O10 0.232984 0.030748 0.362304
O O11 0.568048 0.029463 0.360612
O O12 0.092710 0.096114 0.128482
O O13 0.000000 0.000000 0.000000
O O14 0.511777 0.065837 0.744483
O O15 0.933187 0.043174 0.381032
O O16 0.500000 0.500000 0.500000
O O17 0.674452 0.402483 0.552907
#
# Coordination Sequence:
#
# PCOD9246595 Si02
#       8
#     4   4   4   4   4   4   4   4
#     4  10  22  43  71 105 140 183 235 297 367 445
#     4   9  21  44  75 107 143 185 234 298 374 440
#     4  11  26  46  70 107 146 194 243 299 363 439
#     4   8  16  34  60  91 134 166 227 282 344 412
#     4   9  19  36  61  93 125 182 227 297 346 416
#     4  11  26  44  65  98 141 193 250 301 361 421
#     4  10  21  41  66  99 134 180 239 293 365 427
#     4  10  23  46  72 106 146 187 239 300 367 446
#
# _framework density 26.812522000000001
#
# number of rings (size 3 to 8) (size 9 to 14) (size 15 to 20)
#    0.000    2.250    0.000    0.750    3.500   10.500 
#   13.500    2.500    0.000    0.000    0.000    0.000 
#    0.000    0.000    0.000    0.000    0.000    0.000 
#
# Total GULP energy -178207.305641 kJ/mol
# GULP energy per Si atom -5568.978301 kJ/mol
# Density = 2.675150 g / cm^3
# Si number density = 26.812522 Si / 1000 Ang^3
#
#
#
# Elastic Constant Matrix: (Units=GPa)
#
#
# Indices 1 2 3 4 5 6 
#
# 1 111.7152 18.2811 35.1072 0.0000 34.7283 0.0000
# 2 18.2811 76.1434 24.9629 0.0000 8.0391 0.0000
# 3 35.1072 24.9629 131.1098 0.0000 18.1155 0.0000
# 4 0.0000 0.0000 0.0000 6.8956 0.0000 19.1645
# 5 34.7283 8.0391 18.1155 0.0000 46.9456 0.0000
# 6 0.0000 0.0000 0.0000 19.1645 0.0000 51.7813
#
#
#
# Elastic Compliance Matrix: (Units=1/GPa)
#
#
# Indices 1 2 3 4 5 6 
#
# 1 0.012314 -0.001478 -0.001893 0.000000 -0.008126 0.000000
# 2 -0.001478 0.014278 -0.002256 0.000000 -0.000481 0.000000
# 3 -0.001893 -0.002256 0.008785 0.000000 -0.001603 0.000000
# 4 0.000000 0.000000 0.000000 -5.068479 0.000000 1.875872
# 5 -0.008126 -0.000481 -0.001603 0.000000 0.028013 0.000000
# 6 0.000000 0.000000 0.000000 1.875872 0.000000 -0.674959
#
#
# Mechanical properties :
#
#
# Convention : Reuss Voigt Hill
#
# Bulk Modulus (GPa) = 41.45432 52.85231 47.15332
# Shear Modulus (GPa) = -0.88328 37.16564 18.14118
#
# Velocity S-wave (km/s) = -0.57458 3.72712 2.60396
# Velocity P-wave (km/s) = 3.87997 6.18680 5.16385
#
# Compressibility (1/GPa) = 0.02412294
#
# Stress axis : x y z
#
# Youngs Moduli (GPa) = 81.20729 70.03554 113.82706
#
# Poissons Ratio (x) = 0.10350 0.21550
# Poissons Ratio (y) = 0.12002 0.25684
# Poissons Ratio (z) = 0.15374 0.15803
#
# Static dielectric constant tensor:
#      x y z
#    x 2.704220 0.000000 0.314510 
#    y 0.000000 2.216350 0.000000 
#    z 0.314510 0.000000 2.593230 
# 
# From -- ./inp_files/27190.got.cif
#   From: 2010.05.17/outbox.cif.g08.bks.cpg/sg14_14_cif.got.tgz:27190.got - 2010.06.03 17:49:19.
