data_PCOD9246964
_publ_section_title
;
Structure prediction by ZEFSAII (Michael W. Deem and Ramdas Pophale) SiO2 
 PCOD9246964
Probable space group: P 21/C
;
_chemical_formula_sum "Si O2"
_cell_formula_units_Z 20
_cell_length_a 20.389122
_cell_length_b 8.882557
_cell_length_c 9.777016
_cell_angle_alpha 90.000000
_cell_angle_beta 156.535001
_cell_angle_gamma 90.000000
_cell_volume 705.069406
_symmetry_space_group_name_H-M "P 21/C"
_symmetry_group_IT_number 14
_symmetry_cell_setting 'monoclinic'
loop_
_space_group_symop_operation_xyz
x,y,z
-x,1/2+y,1/2-z
-x,-y,-z
x,1/2-y,1/2+z
loop_
_atom_site_type_symbol
_atom_site_label
_atom_site_fract_x
_atom_site_fract_y
_atom_site_fract_z
Si Si1 0.924996 0.753899 0.371475
Si Si2 0.770017 0.439380 0.590968
Si Si3 0.292782 0.018650 0.437743
Si Si4 0.216811 0.041304 0.586628
Si Si5 0.477964 0.747260 0.750387
O O1 0.790680 0.886778 0.088014
O O2 0.858876 0.637139 0.359664
O O3 0.930964 0.647859 0.249522
O O4 0.091079 0.841641 0.716167
O O5 0.818822 0.449456 0.846680
O O6 0.596285 0.357702 0.271633
O O7 0.269450 0.959707 0.547840
O O8 0.447774 0.131194 0.716377
O O9 0.340139 0.870852 0.443283
O O10 0.369048 0.151458 0.911058
#
# Coordination Sequence:
#
# PCOD9246964 Si02
#       5
#     4   4   4   4   4
#     4   9  23  44  63  86 132 169 207 264 310 378
#     4  11  22  44  63  95 129 164 212 265 312 368
#     4  10  22  41  63  93 127 168 209 258 315 372
#     4  10  21  43  62  92 127 165 207 262 310 385
#     4  12  21  39  68  93 127 164 210 265 312 373
#
# _framework density 28.366002000000002
#
# number of rings (size 3 to 8) (size 9 to 14) (size 15 to 20)
#    1.200    0.400    4.000    0.600    0.000    1.600 
#   10.800    0.000    0.000    0.000    0.000    0.000 
#    0.000    0.000    0.000    0.000    0.000    0.000 
#
# Total GULP energy -111758.946471 kJ/mol
# GULP energy per Si atom -5587.947324 kJ/mol
# Density = 2.830144 g / cm^3
# Si number density = 28.366002 Si / 1000 Ang^3
#
#
#
# Elastic Constant Matrix: (Units=GPa)
#
#
# Indices 1 2 3 4 5 6 
#
# 1 94.9600 34.4444 19.7777 0.0000 25.4488 0.0000
# 2 34.4444 191.0902 43.2883 0.0000 17.5308 0.0000
# 3 19.7777 43.2883 82.9995 0.0000 6.3362 0.0000
# 4 0.0000 0.0000 0.0000 51.1761 0.0000 11.8271
# 5 25.4488 17.5308 6.3362 0.0000 39.2857 0.0000
# 6 0.0000 0.0000 0.0000 11.8271 0.0000 51.4175
#
#
#
# Elastic Compliance Matrix: (Units=1/GPa)
#
#
# Indices 1 2 3 4 5 6 
#
# 1 0.013507 -0.001270 -0.001956 0.000000 -0.007868 0.000000
# 2 -0.001270 0.006243 -0.002839 0.000000 -0.001506 0.000000
# 3 -0.001956 -0.002839 0.013973 0.000000 0.000280 0.000000
# 4 0.000000 0.000000 0.000000 0.020637 0.000000 -0.004747
# 5 -0.007868 -0.001506 0.000280 0.000000 0.031178 0.000000
# 6 0.000000 0.000000 0.000000 -0.004747 0.000000 0.020541
#
#
# Mechanical properties :
#
#
# Convention : Reuss Voigt Hill
#
# Bulk Modulus (GPa) = 46.30600 62.67449 54.49025
# Shear Modulus (GPa) = 39.87039 46.47849 43.17444
#
# Velocity S-wave (km/s) = 3.75316 4.05226 3.90558
# Velocity P-wave (km/s) = 5.92803 6.63607 6.29201
#
# Compressibility (1/GPa) = 0.02159547
#
# Stress axis : x y z
#
# Youngs Moduli (GPa) = 74.03467 160.17467 71.56465
#
# Poissons Ratio (x) = 0.20340 0.13996
# Poissons Ratio (y) = 0.09402 0.20314
# Poissons Ratio (z) = 0.14479 0.45467
#
# Static dielectric constant tensor:
#      x y z
#    x 2.155630 0.000000 -0.005090 
#    y 0.000000 2.197190 0.000000 
#    z -0.005090 0.000000 2.284200 
# 
# From -- ./inp_files/51867.got.cif
#   From: 2010.05.17/outbox.cif.g08.bks.cpg/sg14_26_cif.got.tgz:51867.got - 2010.06.03 17:49:19.
