data_PCOD9246125
_publ_section_title
;
Structure prediction by ZEFSAII (Michael W. Deem and Ramdas Pophale) SiO2 
 PCOD9246125
Probable space group: P 21/C
;
_chemical_formula_sum "Si O2"
_cell_formula_units_Z 32
_cell_length_a 18.342639
_cell_length_b 8.516928
_cell_length_c 25.208313
_cell_angle_alpha 90.000000
_cell_angle_beta 155.774369
_cell_angle_gamma 90.000000
_cell_volume 1615.931448
_symmetry_space_group_name_H-M "P 21/C"
_symmetry_group_IT_number 14
_symmetry_cell_setting 'monoclinic'
loop_
_space_group_symop_operation_xyz
x,y,z
-x,1/2+y,1/2-z
-x,-y,-z
x,1/2-y,1/2+z
loop_
_atom_site_type_symbol
_atom_site_label
_atom_site_fract_x
_atom_site_fract_y
_atom_site_fract_z
Si Si1 0.514388 0.513518 0.572652
Si Si2 0.124845 0.578144 0.128280
Si Si3 0.949890 0.736680 0.604845
Si Si4 0.773448 0.320183 0.563624
Si Si5 0.605681 0.215345 0.751358
Si Si6 0.653820 0.998628 0.883318
Si Si7 0.332869 0.306138 0.990977
Si Si8 0.113988 0.957835 0.297034
O O1 0.500000 0.500000 0.500000
O O2 0.705266 0.509147 0.729916
O O3 0.395425 0.660971 0.510347
O O4 0.403362 0.363193 0.520484
O O5 0.215657 0.722402 0.156889
O O6 0.009860 0.636668 0.102102
O O7 0.000000 0.500000 0.000000
O O8 0.829309 0.607957 0.495463
O O9 0.827657 0.794535 0.572874
O O10 0.109027 0.649892 0.741444
O O11 0.696053 0.369311 0.455524
O O12 0.859106 0.153149 0.633885
O O13 0.928310 0.448413 0.676745
O O14 0.616352 0.094633 0.806032
O O15 0.498239 0.373709 0.699444
O O16 0.494911 0.128160 0.632168
O O17 0.266176 0.412191 0.899259
#
# Coordination Sequence:
#
# PCOD9246125 Si02
#       8
#     4   4   4   4   4   4   4   4
#     4  11  22  43  65  96 135 170 218 273 334 389
#     4  11  25  43  65  92 136 174 217 274 336 392
#     4  10  21  40  63  91 133 162 214 274 316 390
#     4  11  20  38  60  97 125 170 210 274 317 401
#     4  10  23  43  62  94 129 167 222 272 325 388
#     4  10  22  39  66  90 127 171 221 263 323 397
#     4  10  21  41  64  93 130 173 213 270 323 397
#     4  11  20  37  67  95 128 164 224 265 333 383
#
# _framework density 19.802821000000002
#
# number of rings (size 3 to 8) (size 9 to 14) (size 15 to 20)
#    0.000    1.500    6.250    0.750    5.250    0.500 
#    4.500    5.625    0.000    0.000    0.000    0.000 
#    0.000    0.000    0.000    0.000    0.000    0.000 
#
# Total GULP energy -178255.823785 kJ/mol
# GULP energy per Si atom -5570.494493 kJ/mol
# Density = 1.975775 g / cm^3
# Si number density = 19.802821 Si / 1000 Ang^3
#
#
#
# Elastic Constant Matrix: (Units=GPa)
#
#
# Indices 1 2 3 4 5 6 
#
# 1 76.0987 7.7524 36.7396 0.0000 -6.1636 0.0000
# 2 7.7524 39.7167 25.3738 0.0000 -5.4737 0.0000
# 3 36.7396 25.3738 106.6615 0.0000 -16.4304 0.0000
# 4 0.0000 0.0000 0.0000 31.7428 0.0000 -17.1580
# 5 -6.1636 -5.4737 -16.4304 0.0000 20.6384 0.0000
# 6 0.0000 0.0000 0.0000 -17.1580 0.0000 30.1680
#
#
#
# Elastic Compliance Matrix: (Units=1/GPa)
#
#
# Indices 1 2 3 4 5 6 
#
# 1 0.015773 0.000485 -0.005474 0.000000 0.000481 0.000000
# 2 0.000485 0.029825 -0.006863 0.000000 0.002591 0.000000
# 3 -0.005474 -0.006863 0.014089 0.000000 0.007762 0.000000
# 4 0.000000 0.000000 0.000000 0.045487 0.000000 0.025871
# 5 0.000481 0.002591 0.007762 0.000000 0.055463 0.000000
# 6 0.000000 0.000000 0.000000 0.025871 0.000000 0.047862
#
#
# Mechanical properties :
#
#
# Convention : Reuss Voigt Hill
#
# Bulk Modulus (GPa) = 27.79083 40.24537 34.01810
# Shear Modulus (GPa) = 20.47501 26.68391 23.57946
#
# Velocity S-wave (km/s) = 3.21899 3.67479 3.45441
# Velocity P-wave (km/s) = 5.28016 6.19456 5.75555
#
# Compressibility (1/GPa) = 0.03598309
#
# Stress axis : x y z
#
# Youngs Moduli (GPa) = 63.39795 33.52845 70.97540
#
# Poissons Ratio (x) = -0.01626 0.38855
# Poissons Ratio (y) = -0.03074 0.48711
# Poissons Ratio (z) = 0.34707 0.23011
#
# Static dielectric constant tensor:
#      x y z
#    x 1.708930 0.000000 0.004640 
#    y 0.000000 1.732320 0.000000 
#    z 0.004640 0.000000 1.757600 
# 
# From -- ./inp_files/78012.got.cif
#   From: 2010.05.17/outbox.cif.g08.bks.cpg/sg14_40_cif.got.tgz:78012.got - 2010.06.03 17:49:19.
