data_PCOD9246014
_publ_section_title
;
Structure prediction by ZEFSAII (Michael W. Deem and Ramdas Pophale) SiO2 
 PCOD9246014
Probable space group: P 21/C
;
_chemical_formula_sum "Si O2"
_cell_formula_units_Z 32
_cell_length_a 9.201140
_cell_length_b 12.183959
_cell_length_c 15.560876
_cell_angle_alpha 90.000000
_cell_angle_beta 119.717334
_cell_angle_gamma 90.000000
_cell_volume 1515.042172
_symmetry_space_group_name_H-M "P 21/C"
_symmetry_group_IT_number 14
_symmetry_cell_setting 'monoclinic'
loop_
_space_group_symop_operation_xyz
x,y,z
-x,1/2+y,1/2-z
-x,-y,-z
x,1/2-y,1/2+z
loop_
_atom_site_type_symbol
_atom_site_label
_atom_site_fract_x
_atom_site_fract_y
_atom_site_fract_z
Si Si1 0.154192 0.940418 0.093611
Si Si2 0.074377 0.492878 0.335989
Si Si3 0.336672 0.767611 0.617937
Si Si4 0.008023 0.932582 0.375541
Si Si5 0.271151 0.478355 0.068874
Si Si6 0.228207 0.732498 0.405767
Si Si7 0.627991 0.936542 0.972747
Si Si8 0.480466 0.780424 0.341016
O O1 0.173836 0.809404 0.090382
O O2 0.316362 0.987704 0.092191
O O3 0.109070 0.975367 0.176800
O O4 0.000000 0.000000 0.000000
O O5 0.068944 0.474241 0.234472
O O6 0.155138 0.611257 0.377738
O O7 0.205766 0.413296 0.422361
O O8 0.362454 0.741331 0.523797
O O9 0.458953 0.734489 0.731965
O O10 0.316480 0.898756 0.613986
O O11 0.868277 0.934742 0.406860
O O12 0.077127 0.810942 0.386308
O O13 0.169742 0.003969 0.450723
O O14 0.421192 0.392312 0.110389
O O15 0.303833 0.776084 0.339041
O O16 0.564847 0.825490 0.910461
O O17 0.500000 0.000000 0.000000
#
# Coordination Sequence:
#
# PCOD9246014 Si02
#       8
#     4   4   4   4   4   4   4   4
#     4  10  21  39  69  99 126 175 229 285 332 394
#     4  11  22  41  72  95 130 177 233 286 344 397
#     4  11  23  43  69  95 144 177 226 284 344 405
#     4  10  24  43  64  94 134 178 222 281 345 403
#     4  10  26  44  65  96 140 180 226 279 348 414
#     4  11  23  44  64  96 137 176 226 293 335 408
#     4  11  23  41  66 101 134 168 228 286 332 405
#     4  12  26  42  70 101 139 185 223 279 350 414
#
# _framework density 21.121524999999998
#
# number of rings (size 3 to 8) (size 9 to 14) (size 15 to 20)
#    0.000    1.250    3.750    1.500    3.500    7.000 
#    2.250    0.000    0.000    0.000    0.000    0.000 
#    0.000    0.000    0.000    0.000    0.000    0.000 
#
# Total GULP energy -178458.108282 kJ/mol
# GULP energy per Si atom -5576.815884 kJ/mol
# Density = 2.107345 g / cm^3
# Si number density = 21.121525 Si / 1000 Ang^3
#
#
#
# Elastic Constant Matrix: (Units=GPa)
#
#
# Indices 1 2 3 4 5 6 
#
# 1 61.2088 29.9721 -3.7833 0.0000 -6.3556 0.0000
# 2 29.9721 131.4044 30.0868 0.0000 14.4079 0.0000
# 3 -3.7833 30.0868 116.7119 0.0000 7.8988 0.0000
# 4 0.0000 0.0000 0.0000 25.8302 0.0000 3.1763
# 5 -6.3556 14.4079 7.8988 0.0000 15.9134 0.0000
# 6 0.0000 0.0000 0.0000 3.1763 0.0000 32.4130
#
#
#
# Elastic Compliance Matrix: (Units=1/GPa)
#
#
# Indices 1 2 3 4 5 6 
#
# 1 0.021115 -0.006659 0.001472 0.000000 0.013731 0.000000
# 2 -0.006659 0.010895 -0.002253 0.000000 -0.011406 0.000000
# 3 0.001472 -0.002253 0.009332 0.000000 -0.002005 0.000000
# 4 0.000000 0.000000 0.000000 0.039187 0.000000 -0.003840
# 5 0.013731 -0.011406 -0.002005 0.000000 0.079646 0.000000
# 6 0.000000 0.000000 0.000000 -0.003840 0.000000 0.031228
#
#
# Mechanical properties :
#
#
# Convention : Reuss Voigt Hill
#
# Bulk Modulus (GPa) = 37.78841 46.87514 42.33177
# Shear Modulus (GPa) = 23.24473 31.70128 27.47301
#
# Velocity S-wave (km/s) = 3.32101 3.87835 3.61045
# Velocity P-wave (km/s) = 5.71273 6.50359 6.12095
#
# Compressibility (1/GPa) = 0.02646314
#
# Stress axis : x y z
#
# Youngs Moduli (GPa) = 47.36033 91.78378 107.15613
#
# Poissons Ratio (x) = 0.61115 -0.15770
# Poissons Ratio (y) = 0.31535 0.24138
# Poissons Ratio (z) = -0.06970 0.20675
#
# Static dielectric constant tensor:
#      x y z
#    x 1.813420 0.000000 0.000060 
#    y 0.000000 1.777220 0.000000 
#    z 0.000060 0.000000 1.813820 
# 
# From -- ./inp_files/40368.got.cif
#   From: 2010.05.17/outbox.cif.g08.bks.cpg/sg14_21_cif.got.tgz:40368.got - 2010.06.03 17:49:19.
