data_PCOD9246283
_publ_section_title
;
Structure prediction by ZEFSAII (Michael W. Deem and Ramdas Pophale) SiO2 
 PCOD9246283
Probable space group: P 21/C
;
_chemical_formula_sum "Si O2"
_cell_formula_units_Z 18
_cell_length_a 4.951163
_cell_length_b 9.094529
_cell_length_c 14.351010
_cell_angle_alpha 90.000000
_cell_angle_beta 108.532873
_cell_angle_gamma 90.000000
_cell_volume 612.693165
_symmetry_space_group_name_H-M "P 21/C"
_symmetry_group_IT_number 14
_symmetry_cell_setting 'monoclinic'
loop_
_space_group_symop_operation_xyz
x,y,z
-x,1/2+y,1/2-z
-x,-y,-z
x,1/2-y,1/2+z
loop_
_atom_site_type_symbol
_atom_site_label
_atom_site_fract_x
_atom_site_fract_y
_atom_site_fract_z
Si Si1 0.277141 0.931369 0.109770
Si Si2 0.391603 0.887948 0.646528
Si Si3 0.500000 0.000000 0.500000
Si Si4 0.962869 0.063502 0.718329
Si Si5 0.346396 0.803762 0.919714
O O1 0.439286 0.782958 0.166069
O O2 0.058540 0.945686 0.172296
O O3 0.462381 0.075957 0.113300
O O4 0.211285 0.881775 0.996642
O O5 0.245769 0.919164 0.532667
O O6 0.689843 0.967421 0.649101
O O7 0.228681 0.983670 0.702650
O O8 0.570345 0.825568 0.469832
O O9 0.889776 0.225082 0.672129
#
# Coordination Sequence:
#
# PCOD9246283 Si02
#       5
#     4   4   2   4   4
#     4  10  21  40  67 100 136 178 236 288 340 414
#     4  10  23  40  65  94 132 179 227 281 346 412
#     4   8  18  38  62  90 128 168 212 268 338 402
#     4  11  23  43  67  97 139 184 229 286 352 412
#     4   9  20  40  68 100 135 180 228 284 347 412
#
# _framework density 29.378488999999998
#
# number of rings (size 3 to 8) (size 9 to 14) (size 15 to 20)
#    0.000    2.222    0.000    1.333    0.000   13.333 
#    0.000    8.889    0.000   36.000    0.000    0.000 
#    0.000    0.000    0.000    0.000    0.000    0.000 
#
# Total GULP energy -100317.094736 kJ/mol
# GULP energy per Si atom -5573.171930 kJ/mol
# Density = 2.931162 g / cm^3
# Si number density = 29.378489 Si / 1000 Ang^3
#
#
#
# Elastic Constant Matrix: (Units=GPa)
#
#
# Indices 1 2 3 4 5 6 
#
# 1 74.8798 75.8788 67.3165 0.0000 -13.8077 0.0000
# 2 75.8788 282.3923 112.1940 0.0000 -39.7928 0.0000
# 3 67.3165 112.1940 217.6806 0.0000 -49.8017 0.0000
# 4 0.0000 0.0000 0.0000 61.3118 0.0000 -14.8843
# 5 -13.8077 -39.7928 -49.8017 0.0000 47.7172 0.0000
# 6 0.0000 0.0000 0.0000 -14.8843 0.0000 43.7274
#
#
#
# Elastic Compliance Matrix: (Units=1/GPa)
#
#
# Indices 1 2 3 4 5 6 
#
# 1 0.021732 -0.004147 -0.005170 0.000000 -0.002566 0.000000
# 2 -0.004147 0.005356 -0.000960 0.000000 0.002265 0.000000
# 3 -0.005170 -0.000960 0.008095 0.000000 0.006152 0.000000
# 4 0.000000 0.000000 0.000000 0.017779 0.000000 0.006052
# 5 -0.002566 0.002265 0.006152 0.000000 0.028524 0.000000
# 6 0.000000 0.000000 0.000000 0.006052 0.000000 0.024929
#
#
# Mechanical properties :
#
#
# Convention : Reuss Voigt Hill
#
# Bulk Modulus (GPa) = 68.35847 120.63682 94.49764
# Shear Modulus (GPa) = 37.92354 51.85551 44.88952
#
# Velocity S-wave (km/s) = 3.59675 4.20585 3.91317
# Velocity P-wave (km/s) = 6.36927 8.04597 7.25621
#
# Compressibility (1/GPa) = 0.01462877
#
# Stress axis : x y z
#
# Youngs Moduli (GPa) = 46.01592 186.70901 123.53332
#
# Poissons Ratio (x) = 0.77424 0.63868
# Poissons Ratio (y) = 0.19082 0.11859
# Poissons Ratio (z) = 0.23791 0.17925
#
# Static dielectric constant tensor:
#      x y z
#    x 1.158350 0.000000 -2.375290 
#    y 0.000000 2.628630 0.000000 
#    z -2.375290 0.000000 -3.025870 
# 
# From -- ./inp_files/52516.got.cif
#   From: 2010.05.17/outbox.cif.g08.bks.cpg/sg14_27_cif.got.tgz:52516.got - 2010.06.03 17:49:19.
