data_PCOD9246717
_publ_section_title
;
Structure prediction by ZEFSAII (Michael W. Deem and Ramdas Pophale) SiO2 
 PCOD9246717
Probable space group: P 21/C
;
_chemical_formula_sum "Si O2"
_cell_formula_units_Z 32
_cell_length_a 5.273496
_cell_length_b 11.262514
_cell_length_c 22.093198
_cell_angle_alpha 90.000000
_cell_angle_beta 77.160575
_cell_angle_gamma 90.000000
_cell_volume 1279.368593
_symmetry_space_group_name_H-M "P 21/C"
_symmetry_group_IT_number 14
_symmetry_cell_setting 'monoclinic'
loop_
_space_group_symop_operation_xyz
x,y,z
-x,1/2+y,1/2-z
-x,-y,-z
x,1/2-y,1/2+z
loop_
_atom_site_type_symbol
_atom_site_label
_atom_site_fract_x
_atom_site_fract_y
_atom_site_fract_z
Si Si1 0.291896 0.095199 0.657159
Si Si2 0.832682 0.579582 0.554478
Si Si3 0.029475 0.812909 0.809118
Si Si4 0.095324 0.324117 0.940058
Si Si5 0.598826 0.131757 0.745954
Si Si6 0.682262 0.427076 0.035439
Si Si7 0.078098 0.402618 0.815467
Si Si8 0.261591 0.546264 0.629055
O O1 0.097525 0.200430 0.651655
O O2 0.325457 0.103713 0.728406
O O3 0.535519 0.120746 0.602032
O O4 0.195184 0.962300 0.649992
O O5 0.758744 0.713312 0.537453
O O6 0.553393 0.521998 0.587131
O O7 0.000000 0.500000 0.500000
O O8 0.055100 0.606576 0.594339
O O9 0.912120 0.929342 0.846242
O O10 0.322188 0.762317 0.783828
O O11 0.945822 0.831513 0.744416
O O12 0.151039 0.463969 0.947111
O O13 0.164916 0.321076 0.865349
O O14 0.819551 0.325024 0.989507
O O15 0.662847 0.117342 0.813198
O O16 0.756012 0.020040 0.708349
O O17 0.500000 0.500000 0.000000
#
# Coordination Sequence:
#
# PCOD9246717 Si02
#       8
#     4   4   4   4   4   4   4   4
#     4  11  23  40  70 102 140 183 240 304 371 440
#     4  12  30  52  75 106 147 203 255 301 364 448
#     4  10  25  40  72 103 149 189 236 311 368 444
#     4  11  25  43  72  98 143 187 241 308 360 443
#     4  10  23  41  69 105 142 182 239 302 371 436
#     4  11  24  42  68 105 134 184 240 308 373 425
#     4  10  21  42  61 103 137 182 237 287 371 434
#     4  11  28  49  74 108 149 196 253 298 375 443
#
# _framework density 25.012336999999999
#
# number of rings (size 3 to 8) (size 9 to 14) (size 15 to 20)
#    0.000    1.250    2.500    1.125   12.250    3.000 
#    0.000    0.000    0.000    0.000    0.000    0.000 
#    0.000    0.000    0.000    0.000    0.000    0.000 
#
# Total GULP energy -178185.548544 kJ/mol
# GULP energy per Si atom -5568.298392 kJ/mol
# Density = 2.495541 g / cm^3
# Si number density = 25.012337 Si / 1000 Ang^3
#
#
#
# Elastic Constant Matrix: (Units=GPa)
#
#
# Indices 1 2 3 4 5 6 
#
# 1 62.2009 -6.5397 6.1775 0.0000 -4.3860 0.0000
# 2 -6.5397 85.0014 15.3206 0.0000 -21.8563 0.0000
# 3 6.1775 15.3206 72.9610 0.0000 -12.1671 0.0000
# 4 0.0000 0.0000 0.0000 23.1173 0.0000 -8.7058
# 5 -4.3860 -21.8563 -12.1671 0.0000 31.7309 0.0000
# 6 0.0000 0.0000 0.0000 -8.7058 0.0000 27.7063
#
#
#
# Elastic Compliance Matrix: (Units=1/GPa)
#
#
# Indices 1 2 3 4 5 6 
#
# 1 0.016709 0.002417 -0.001346 0.000000 0.003459 0.000000
# 2 0.002417 0.014792 -0.001662 0.000000 0.009885 0.000000
# 3 -0.001346 -0.001662 0.014900 0.000000 0.004382 0.000000
# 4 0.000000 0.000000 0.000000 0.049063 0.000000 0.015417
# 5 0.003459 0.009885 0.004382 0.000000 0.040483 0.000000
# 6 0.000000 0.000000 0.000000 0.015417 0.000000 0.040937
#
#
# Mechanical properties :
#
#
# Convention : Reuss Voigt Hill
#
# Bulk Modulus (GPa) = 22.11437 27.78668 24.95053
# Shear Modulus (GPa) = 25.88834 30.19124 28.03979
#
# Velocity S-wave (km/s) = 3.22067 3.47804 3.35182
# Velocity P-wave (km/s) = 4.76349 5.22133 4.99766
#
# Compressibility (1/GPa) = 0.04521946
#
# Stress axis : x y z
#
# Youngs Moduli (GPa) = 59.84943 67.60441 67.11541
#
# Poissons Ratio (x) = -0.16342 0.09031
# Poissons Ratio (y) = -0.14468 0.11156
# Poissons Ratio (z) = 0.08053 0.11237
#
# Static dielectric constant tensor:
#      x y z
#    x 2.228000 0.000000 -0.129030 
#    y 0.000000 2.071030 0.000000 
#    z -0.129030 0.000000 2.072680 
# 
# From -- ./inp_files/71228.got.cif
#   From: 2010.05.17/outbox.cif.g08.bks.cpg/sg14_36_cif.got.tgz:71228.got - 2010.06.03 17:49:19.
