data_PCOD9246108
_publ_section_title
;
Structure prediction by ZEFSAII (Michael W. Deem and Ramdas Pophale) SiO2 
 PCOD9246108
Probable space group: P 21/C
;
_chemical_formula_sum "Si O2"
_cell_formula_units_Z 26
_cell_length_a 15.420279
_cell_length_b 5.008670
_cell_length_c 31.270078
_cell_angle_alpha 90.000000
_cell_angle_beta 25.511175
_cell_angle_gamma 90.000000
_cell_volume 1040.172837
_symmetry_space_group_name_H-M "P 21/C"
_symmetry_group_IT_number 14
_symmetry_cell_setting 'monoclinic'
loop_
_space_group_symop_operation_xyz
x,y,z
-x,1/2+y,1/2-z
-x,-y,-z
x,1/2-y,1/2+z
loop_
_atom_site_type_symbol
_atom_site_label
_atom_site_fract_x
_atom_site_fract_y
_atom_site_fract_z
Si Si1 0.054587 0.864272 0.054717
Si Si2 0.930532 0.640636 0.899181
Si Si3 0.540602 0.859745 0.836922
Si Si4 0.917683 0.312086 0.263416
Si Si5 0.463151 0.537807 0.792579
Si Si6 0.447604 0.638971 0.117147
Si Si7 0.000000 0.000000 0.500000
O O1 0.006249 0.653361 0.113847
O O2 0.975054 0.750499 0.045642
O O3 0.998429 0.160067 0.094735
O O4 0.297636 0.872181 0.944313
O O5 0.006153 0.718842 0.819030
O O6 0.687289 0.650207 0.004708
O O7 0.587242 0.702246 0.772747
O O8 0.604440 0.661507 0.846465
O O9 0.602010 0.158022 0.821477
O O10 0.682169 0.237913 0.365034
O O11 0.966309 0.604871 0.258309
O O12 0.561332 0.262841 0.733429
O O13 0.238420 0.468978 0.907883
#
# Coordination Sequence:
#
# PCOD9246108 Si02
#       7
#     4   4   4   4   4   4   2
#     4   9  20  38  63  90 122 164 206 249 303 365
#     4  10  22  41  62  88 120 161 205 241 304 380
#     4   9  19  38  60  86 119 158 208 249 296 373
#     4  12  26  41  62  93 120 149 201 257 307 374
#     4  11  24  39  60  93 129 171 220 265 319 378
#     4  10  21  40  63  83 117 159 191 250 311 359
#     4  10  24  42  64  96 138 170 214 280 316 356
#
# _framework density 24.995846
#
# number of rings (size 3 to 8) (size 9 to 14) (size 15 to 20)
#    0.000    1.846    0.000    2.769    0.000   11.077 
#    0.000    0.000    0.000    0.000    0.000    0.000 
#    0.000    0.000    0.000    0.000    0.000    0.000 
#
# Total GULP energy -145122.322143 kJ/mol
# GULP energy per Si atom -5581.627775 kJ/mol
# Density = 2.493895 g / cm^3
# Si number density = 24.995846 Si / 1000 Ang^3
#
#
#
# Elastic Constant Matrix: (Units=GPa)
#
#
# Indices 1 2 3 4 5 6 
#
# 1 88.6805 4.3848 30.2108 0.0000 -23.8971 0.0000
# 2 4.3848 102.2316 20.7299 0.0000 -1.0767 0.0000
# 3 30.2108 20.7299 59.0436 0.0000 -6.6671 0.0000
# 4 0.0000 0.0000 0.0000 21.5297 0.0000 2.1115
# 5 -23.8971 -1.0767 -6.6671 0.0000 35.3209 0.0000
# 6 0.0000 0.0000 0.0000 2.1115 0.0000 41.1973
#
#
#
# Elastic Compliance Matrix: (Units=1/GPa)
#
#
# Indices 1 2 3 4 5 6 
#
# 1 0.016456 0.000949 -0.007656 0.000000 0.009718 0.000000
# 2 0.000949 0.010591 -0.004184 0.000000 0.000175 0.000000
# 3 -0.007656 -0.004184 0.022197 0.000000 -0.001118 0.000000
# 4 0.000000 0.000000 0.000000 0.046682 0.000000 -0.002393
# 5 0.009718 0.000175 -0.001118 0.000000 0.034681 0.000000
# 6 0.000000 0.000000 0.000000 -0.002393 0.000000 0.024396
#
#
# Mechanical properties :
#
#
# Convention : Reuss Voigt Hill
#
# Bulk Modulus (GPa) = 36.41436 40.06741 38.24089
# Shear Modulus (GPa) = 26.89030 32.58493 29.73762
#
# Velocity S-wave (km/s) = 3.28348 3.61448 3.45295
# Velocity P-wave (km/s) = 5.38283 5.78651 5.58831
#
# Compressibility (1/GPa) = 0.02746169
#
# Stress axis : x y z
#
# Youngs Moduli (GPa) = 60.76659 94.41685 45.05118
#
# Poissons Ratio (x) = -0.08960 0.34492
# Poissons Ratio (y) = -0.05767 0.18851
# Poissons Ratio (z) = 0.46524 0.39507
#
# Static dielectric constant tensor:
#      x y z
#    x 1.948120 0.000000 0.003460 
#    y 0.000000 1.926310 0.000000 
#    z 0.003460 0.000000 2.079110 
# 
# From -- ./inp_files/52152.got.cif
#   From: 2010.05.17/outbox.cif.g08.bks.cpg/sg14_27_cif.got.tgz:52152.got - 2010.06.03 17:49:19.
