data_PCOD9246461
_publ_section_title
;
Structure prediction by ZEFSAII (Michael W. Deem and Ramdas Pophale) SiO2 
 PCOD9246461
Probable space group: P 21/C
;
_chemical_formula_sum "Si O2"
_cell_formula_units_Z 32
_cell_length_a 28.079207
_cell_length_b 7.928386
_cell_length_c 14.049802
_cell_angle_alpha 90.000000
_cell_angle_beta 29.166854
_cell_angle_gamma 90.000000
_cell_volume 1524.350669
_symmetry_space_group_name_H-M "P 21/C"
_symmetry_group_IT_number 14
_symmetry_cell_setting 'monoclinic'
loop_
_space_group_symop_operation_xyz
x,y,z
-x,1/2+y,1/2-z
-x,-y,-z
x,1/2-y,1/2+z
loop_
_atom_site_type_symbol
_atom_site_label
_atom_site_fract_x
_atom_site_fract_y
_atom_site_fract_z
Si Si1 0.343346 0.318406 0.219108
Si Si2 0.619185 0.555342 0.635642
Si Si3 0.015283 0.786519 0.049335
Si Si4 0.131273 0.135194 0.843141
Si Si5 0.797955 0.111576 0.719699
Si Si6 0.499690 0.291265 0.320205
Si Si7 0.857624 0.832143 0.480656
Si Si8 0.315936 0.967094 0.574796
O O1 0.373062 0.393955 0.268193
O O2 0.235733 0.239891 0.412343
O O3 0.337639 0.451705 0.140466
O O4 0.424612 0.187285 0.038364
O O5 0.724683 0.506953 0.407364
O O6 0.565789 0.690171 0.660739
O O7 0.553489 0.386827 0.740454
O O8 0.930651 0.751605 0.120626
O O9 0.955048 0.824688 0.249797
O O10 0.097908 0.645607 0.913248
O O11 0.077747 0.955898 0.923088
O O12 0.124092 0.214837 0.959706
O O13 0.245443 0.089293 0.636731
O O14 0.742557 0.290734 0.804770
O O15 0.824931 0.015106 0.575621
O O16 0.587510 0.421548 0.151991
#
# Coordination Sequence:
#
# PCOD9246461 Si02
#       8
#     4   4   4   4   4   4   4   4
#     4  11  23  41  65  93 127 172 210 254 326 380
#     4  11  24  43  65  95 127 169 213 261 319 383
#     4  10  21  41  63  90 121 170 204 258 321 377
#     4   9  21  41  60  87 128 163 208 254 322 372
#     4  10  22  42  61  95 129 158 217 265 307 374
#     4  11  21  41  67  89 129 167 207 270 315 369
#     4  11  22  38  63  91 126 163 209 267 308 371
#     4   9  21  41  62  90 129 168 203 264 313 369
#
# _framework density 20.992543999999999
#
# number of rings (size 3 to 8) (size 9 to 14) (size 15 to 20)
#    0.000    1.750    2.500    1.125    1.750    0.500 
#   15.750    0.625    0.000    0.000    0.000    0.000 
#    0.000    0.000    0.000    0.000    0.000    0.000 
#
# Total GULP energy -178610.060178 kJ/mol
# GULP energy per Si atom -5581.564381 kJ/mol
# Density = 2.094476 g / cm^3
# Si number density = 20.992544 Si / 1000 Ang^3
#
#
#
# Elastic Constant Matrix: (Units=GPa)
#
#
# Indices 1 2 3 4 5 6 
#
# 1 102.2893 18.9508 61.0558 0.0000 -20.6516 0.0000
# 2 18.9508 47.6850 12.9260 0.0000 -19.7917 0.0000
# 3 61.0558 12.9260 125.5088 0.0000 -32.6899 0.0000
# 4 0.0000 0.0000 0.0000 -17.5016 0.0000 -7.1922
# 5 -20.6516 -19.7917 -32.6899 0.0000 24.9407 0.0000
# 6 0.0000 0.0000 0.0000 -7.1922 0.0000 21.9917
#
#
#
# Elastic Compliance Matrix: (Units=1/GPa)
#
#
# Indices 1 2 3 4 5 6 
#
# 1 0.014467 -0.003825 -0.006551 0.000000 0.000358 0.000000
# 2 -0.003825 0.034423 0.006993 0.000000 0.033314 0.000000
# 3 -0.006551 0.006993 0.015892 0.000000 0.020954 0.000000
# 4 0.000000 0.000000 0.000000 -0.050368 0.000000 -0.016472
# 5 0.000358 0.033314 0.020954 0.000000 0.094292 0.000000
# 6 0.000000 0.000000 0.000000 -0.016472 0.000000 0.040085
#
#
# Mechanical properties :
#
#
# Convention : Reuss Voigt Hill
#
# Bulk Modulus (GPa) = 17.23696 51.26092 34.24894
# Shear Modulus (GPa) = 28.58858 18.05621 23.32239
#
# Velocity S-wave (km/s) = 3.69432 2.93597 3.33676
# Velocity P-wave (km/s) = 5.14064 5.99707 5.58529
#
# Compressibility (1/GPa) = 0.05801485
#
# Stress axis : x y z
#
# Youngs Moduli (GPa) = 69.12215 29.05066 62.92541
#
# Poissons Ratio (x) = 0.11113 0.41220
# Poissons Ratio (y) = 0.26442 -0.44002
# Poissons Ratio (z) = 0.45280 -0.20314
#
# Static dielectric constant tensor:
#      x y z
#    x 1.734710 0.000000 -0.032660 
#    y 0.000000 1.790130 0.000000 
#    z -0.032660 0.000000 1.769330 
# 
# From -- ./inp_files/51911.got.cif
#   From: 2010.05.17/outbox.cif.g08.bks.cpg/sg14_26_cif.got.tgz:51911.got - 2010.06.03 17:49:19.
