data_PCOD9246625
_publ_section_title
;
Structure prediction by ZEFSAII (Michael W. Deem and Ramdas Pophale) SiO2 
 PCOD9246625
Probable space group: P 21/C
;
_chemical_formula_sum "Si O2"
_cell_formula_units_Z 24
_cell_length_a 18.518503
_cell_length_b 12.385172
_cell_length_c 13.883807
_cell_angle_alpha 90.000000
_cell_angle_beta 160.535671
_cell_angle_gamma 90.000000
_cell_volume 1061.078349
_symmetry_space_group_name_H-M "P 21/C"
_symmetry_group_IT_number 14
_symmetry_cell_setting 'monoclinic'
loop_
_space_group_symop_operation_xyz
x,y,z
-x,1/2+y,1/2-z
-x,-y,-z
x,1/2-y,1/2+z
loop_
_atom_site_type_symbol
_atom_site_label
_atom_site_fract_x
_atom_site_fract_y
_atom_site_fract_z
Si Si1 0.704073 0.801654 0.155511
Si Si2 0.569475 0.425657 0.997920
Si Si3 0.750944 0.463774 0.685027
Si Si4 0.129221 0.767879 0.556953
Si Si5 0.786448 0.750096 0.979287
Si Si6 0.547094 0.616360 0.838352
O O1 0.768464 0.782364 0.346200
O O2 0.918877 0.779842 0.361646
O O3 0.626861 0.923931 0.043467
O O4 0.540689 0.711831 0.908841
O O5 0.745480 0.339636 0.255197
O O6 0.500000 0.500000 0.000000
O O7 0.365936 0.355995 0.702733
O O8 0.643283 0.510019 0.009362
O O9 0.682678 0.413418 0.497308
O O10 0.725420 0.371405 0.733203
O O11 0.000000 0.500000 0.000000
O O12 0.026263 0.770141 0.321676
O O13 0.685734 0.658577 0.922131
#
# Coordination Sequence:
#
# PCOD9246625 Si02
#       6
#     4   4   4   4   4   4
#     4  10  23  44  67 101 142 178 237 284 356 419
#     4  12  24  45  72 101 141 189 235 283 357 418
#     4  10  21  41  67  97 135 183 230 288 351 412
#     4  10  24  44  68 101 142 181 232 291 352 417
#     4  11  24  46  66 106 139 182 237 290 353 424
#     4  11  22  42  70  94 142 178 232 293 344 421
#
# _framework density 22.618499
#
# number of rings (size 3 to 8) (size 9 to 14) (size 15 to 20)
#    0.000    1.333    3.333    3.000    0.000    7.333 
#    3.000    0.000    0.000    0.000    0.000    0.000 
#    0.000    0.000    0.000    0.000    0.000    0.000 
#
# Total GULP energy -134183.433657 kJ/mol
# GULP energy per Si atom -5590.976402 kJ/mol
# Density = 2.256702 g / cm^3
# Si number density = 22.618499 Si / 1000 Ang^3
#
#
#
# Elastic Constant Matrix: (Units=GPa)
#
#
# Indices 1 2 3 4 5 6 
#
# 1 87.6489 38.1804 34.6351 0.0000 -32.6436 0.0000
# 2 38.1804 191.1465 81.2785 0.0000 -32.3945 0.0000
# 3 34.6351 81.2785 139.2719 0.0000 -44.8061 0.0000
# 4 0.0000 0.0000 0.0000 43.6731 0.0000 -13.4042
# 5 -32.6436 -32.3945 -44.8061 0.0000 49.4180 0.0000
# 6 0.0000 0.0000 0.0000 -13.4042 0.0000 29.0253
#
#
#
# Elastic Compliance Matrix: (Units=1/GPa)
#
#
# Indices 1 2 3 4 5 6 
#
# 1 0.015521 -0.001538 0.000017 0.000000 0.009260 0.000000
# 2 -0.001538 0.007165 -0.003692 0.000000 0.000334 0.000000
# 3 0.000017 -0.003692 0.012079 0.000000 0.008543 0.000000
# 4 0.000000 0.000000 0.000000 0.026679 0.000000 0.012321
# 5 0.009260 0.000334 0.008543 0.000000 0.034316 0.000000
# 6 0.000000 0.000000 0.000000 0.012321 0.000000 0.040142
#
#
# Mechanical properties :
#
#
# Convention : Reuss Voigt Hill
#
# Bulk Modulus (GPa) = 41.08649 80.69504 60.89076
# Shear Modulus (GPa) = 32.37465 42.02148 37.19807
#
# Velocity S-wave (km/s) = 3.78740 4.31494 4.05975
# Velocity P-wave (km/s) = 6.10985 7.78325 6.99676
#
# Compressibility (1/GPa) = 0.02433890
#
# Stress axis : x y z
#
# Youngs Moduli (GPa) = 64.42816 139.56484 82.78972
#
# Poissons Ratio (x) = 0.21466 -0.00138
# Poissons Ratio (y) = 0.09910 0.30563
# Poissons Ratio (z) = -0.00107 0.51523
#
# Static dielectric constant tensor:
#      x y z
#    x 1.856330 0.000000 0.028110 
#    y 0.000000 1.886670 0.000000 
#    z 0.028110 0.000000 1.895790 
# 
# From -- ./inp_files/50473.got.cif
#   From: 2010.05.17/outbox.cif.g08.bks.cpg/sg14_26_cif.got.tgz:50473.got - 2010.06.03 17:49:19.
