data_PCOD9246151
_publ_section_title
;
Structure prediction by ZEFSAII (Michael W. Deem and Ramdas Pophale) SiO2 
 PCOD9246151
Probable space group: P 21/C
;
_chemical_formula_sum "Si O2"
_cell_formula_units_Z 20
_cell_length_a 9.573518
_cell_length_b 18.537235
_cell_length_c 13.502722
_cell_angle_alpha 90.000000
_cell_angle_beta 26.543128
_cell_angle_gamma 90.000000
_cell_volume 1070.829506
_symmetry_space_group_name_H-M "P 21/C"
_symmetry_group_IT_number 14
_symmetry_cell_setting 'monoclinic'
loop_
_space_group_symop_operation_xyz
x,y,z
-x,1/2+y,1/2-z
-x,-y,-z
x,1/2-y,1/2+z
loop_
_atom_site_type_symbol
_atom_site_label
_atom_site_fract_x
_atom_site_fract_y
_atom_site_fract_z
Si Si1 0.747939 0.673491 0.767533
Si Si2 0.902522 0.046397 0.468788
Si Si3 0.009923 0.319041 0.786942
Si Si4 0.223866 0.107363 0.955098
Si Si5 0.143547 0.020828 0.712887
O O1 0.871714 0.656384 0.578046
O O2 0.868472 0.604113 0.751832
O O3 0.884537 0.743934 0.733395
O O4 0.364619 0.678174 0.003088
O O5 0.079112 0.119424 0.325353
O O6 0.935003 0.997255 0.350475
O O7 0.557974 0.075754 0.711786
O O8 0.000000 0.000000 0.500000
O O9 0.195892 0.343113 0.570464
O O10 0.033558 0.034958 0.102965
O O11 0.500000 0.000000 0.500000
#
# Coordination Sequence:
#
# PCOD9246151 Si02
#       5
#     4   4   4   4   4
#     4  11  23  39  61  91 122 165 204 256 311 370
#     4  10  23  40  61  93 123 158 207 253 308 367
#     4  10  24  40  57  92 127 156 210 250 310 374
#     4  10  21  40  64  82 124 159 203 256 301 361
#     4  11  20  40  65  90 113 161 217 247 293 380
#
# _framework density 18.677109999999999
#
# number of rings (size 3 to 8) (size 9 to 14) (size 15 to 20)
#    0.000    1.600    6.000    0.600    0.000   11.200 
#    0.000    0.000    0.000    0.000    0.000    0.000 
#    0.000    0.000    0.000    0.000    0.000    0.000 
#
# Total GULP energy -111422.699007 kJ/mol
# GULP energy per Si atom -5571.134950 kJ/mol
# Density = 1.863460 g / cm^3
# Si number density = 18.677110 Si / 1000 Ang^3
#
#
#
# Elastic Constant Matrix: (Units=GPa)
#
#
# Indices 1 2 3 4 5 6 
#
# 1 69.7726 81.8175 28.3644 0.0000 25.8363 0.0000
# 2 81.8175 190.7061 39.1757 0.0000 31.2842 0.0000
# 3 28.3644 39.1757 79.7038 0.0000 30.8447 0.0000
# 4 0.0000 0.0000 0.0000 17.3906 0.0000 1.3803
# 5 25.8363 31.2842 30.8447 0.0000 26.3552 0.0000
# 6 0.0000 0.0000 0.0000 1.3803 0.0000 49.8913
#
#
#
# Elastic Compliance Matrix: (Units=1/GPa)
#
#
# Indices 1 2 3 4 5 6 
#
# 1 0.036713 -0.012266 0.002298 0.000000 -0.024119 0.000000
# 2 -0.012266 0.010616 -0.001151 0.000000 0.000770 0.000000
# 3 0.002298 -0.001151 0.023100 0.000000 -0.027921 0.000000
# 4 0.000000 0.000000 0.000000 0.057629 0.000000 -0.001594
# 5 -0.024119 0.000770 -0.027921 0.000000 0.093351 0.000000
# 6 0.000000 0.000000 0.000000 -0.001594 0.000000 0.020088
#
#
# Mechanical properties :
#
#
# Convention : Reuss Voigt Hill
#
# Bulk Modulus (GPa) = 20.75090 70.98863 45.86977
# Shear Modulus (GPa) = 17.87001 31.44910 24.65955
#
# Velocity S-wave (km/s) = 3.09655 4.10790 3.63755
# Velocity P-wave (km/s) = 4.89074 7.78400 6.50038
#
# Compressibility (1/GPa) = 0.04819067
#
# Stress axis : x y z
#
# Youngs Moduli (GPa) = 27.23832 94.19497 43.29078
#
# Poissons Ratio (x) = 1.15541 -0.09947
# Poissons Ratio (y) = 0.33411 0.04982
# Poissons Ratio (z) = -0.06259 0.10840
#
# Static dielectric constant tensor:
#      x y z
#    x 1.631450 0.000000 -0.052500 
#    y 0.000000 1.673760 0.000000 
#    z -0.052500 0.000000 1.625120 
# 
# From -- ./inp_files/5457.got.cif
#   From: 2010.05.17/outbox.cif.g08.bks.cpg/sg14_3_cif.got.tgz:5457.got - 2010.06.03 17:49:19.
