data_PCOD9246384
_publ_section_title
;
Structure prediction by ZEFSAII (Michael W. Deem and Ramdas Pophale) SiO2 
 PCOD9246384
Probable space group: P 21/C
;
_chemical_formula_sum "Si O2"
_cell_formula_units_Z 20
_cell_length_a 17.123469
_cell_length_b 7.590506
_cell_length_c 11.810107
_cell_angle_alpha 90.000000
_cell_angle_beta 151.820943
_cell_angle_gamma 90.000000
_cell_volume 724.884134
_symmetry_space_group_name_H-M "P 21/C"
_symmetry_group_IT_number 14
_symmetry_cell_setting 'monoclinic'
loop_
_space_group_symop_operation_xyz
x,y,z
-x,1/2+y,1/2-z
-x,-y,-z
x,1/2-y,1/2+z
loop_
_atom_site_type_symbol
_atom_site_label
_atom_site_fract_x
_atom_site_fract_y
_atom_site_fract_z
Si Si1 0.134322 0.772328 0.678387
Si Si2 0.227352 0.479886 0.105038
Si Si3 0.339219 0.007369 0.094268
Si Si4 0.536017 0.735741 0.446284
Si Si5 0.061944 0.037008 0.922399
O O1 0.143349 0.593585 0.617239
O O2 0.992143 0.717817 0.585984
O O3 0.119208 0.924919 0.565335
O O4 0.287341 0.842152 0.947279
O O5 0.367979 0.626982 0.256383
O O6 0.337575 0.319236 0.293399
O O7 0.110059 0.457819 0.846860
O O8 0.487718 0.936031 0.361021
O O9 0.384866 0.160999 0.067685
O O10 0.183295 0.047439 0.972314
#
# Coordination Sequence:
#
# PCOD9246384 Si02
#       5
#     4   4   4   4   4
#     4  10  21  40  72  99 139 175 238 286 344 413
#     4  10  21  44  72  99 137 189 230 297 343 416
#     4  11  23  46  69 107 144 184 234 288 349 425
#     4  10  22  44  72 100 147 183 233 286 357 417
#     4  11  21  41  72 102 139 183 231 296 343 415
#
# _framework density 27.590615
#
# number of rings (size 3 to 8) (size 9 to 14) (size 15 to 20)
#    0.000    1.600    4.000    0.000    0.000    3.200 
#   10.800    3.000    4.400    0.000    0.000    0.000 
#    0.000    0.000    0.000    0.000    0.000    0.000 
#
# Total GULP energy -112191.876749 kJ/mol
# GULP energy per Si atom -5609.593837 kJ/mol
# Density = 2.752782 g / cm^3
# Si number density = 27.590615 Si / 1000 Ang^3
#
#
#
# Elastic Constant Matrix: (Units=GPa)
#
#
# Indices 1 2 3 4 5 6 
#
# 1 143.4368 8.6732 60.0040 0.0000 5.0832 0.0000
# 2 8.6732 78.8688 54.3796 0.0000 -8.2689 0.0000
# 3 60.0040 54.3796 153.1716 0.0000 -3.7908 0.0000
# 4 0.0000 0.0000 0.0000 46.8334 0.0000 6.3452
# 5 5.0832 -8.2689 -3.7908 0.0000 41.2247 0.0000
# 6 0.0000 0.0000 0.0000 6.3452 0.0000 35.4609
#
#
#
# Elastic Compliance Matrix: (Units=1/GPa)
#
#
# Indices 1 2 3 4 5 6 
#
# 1 0.008576 0.001692 -0.003987 0.000000 -0.001085 0.000000
# 2 0.001692 0.017458 -0.006795 0.000000 0.002668 0.000000
# 3 -0.003987 -0.006795 0.010505 0.000000 0.000095 0.000000
# 4 0.000000 0.000000 0.000000 0.021883 0.000000 -0.003916
# 5 -0.001085 0.002668 0.000095 0.000000 0.024935 0.000000
# 6 0.000000 0.000000 0.000000 -0.003916 0.000000 0.028901
#
#
# Mechanical properties :
#
#
# Convention : Reuss Voigt Hill
#
# Bulk Modulus (GPa) = 54.46765 69.06564 61.76664
# Shear Modulus (GPa) = 36.61476 41.53182 39.07329
#
# Velocity S-wave (km/s) = 3.64685 3.88401 3.76730
# Velocity P-wave (km/s) = 6.12511 6.72315 6.43108
#
# Compressibility (1/GPa) = 0.01835952
#
# Stress axis : x y z
#
# Youngs Moduli (GPa) = 116.60749 57.28034 95.19015
#
# Poissons Ratio (x) = -0.09694 0.37954
# Poissons Ratio (y) = -0.19734 0.64681
# Poissons Ratio (z) = 0.46493 0.38922
#
# Static dielectric constant tensor:
#      x y z
#    x 2.119320 0.000000 -0.003740 
#    y 0.000000 2.166750 0.000000 
#    z -0.003740 0.000000 2.088070 
# 
# From -- ./inp_files/33707.got.cif
#   From: 2010.05.17/outbox.cif.g08.bks.cpg/sg14_17_cif.got.tgz:33707.got - 2010.06.03 17:49:19.
