data_PCOD9246999
_publ_section_title
;
Structure prediction by ZEFSAII (Michael W. Deem and Ramdas Pophale) SiO2 
 PCOD9246999
Probable space group: P 21/C
;
_chemical_formula_sum "Si O2"
_cell_formula_units_Z 24
_cell_length_a 11.660426
_cell_length_b 7.370485
_cell_length_c 10.798016
_cell_angle_alpha 90.000000
_cell_angle_beta 102.991303
_cell_angle_gamma 90.000000
_cell_volume 904.260577
_symmetry_space_group_name_H-M "P 21/C"
_symmetry_group_IT_number 14
_symmetry_cell_setting 'monoclinic'
loop_
_space_group_symop_operation_xyz
x,y,z
-x,1/2+y,1/2-z
-x,-y,-z
x,1/2-y,1/2+z
loop_
_atom_site_type_symbol
_atom_site_label
_atom_site_fract_x
_atom_site_fract_y
_atom_site_fract_z
Si Si1 0.646653 0.750232 0.070338
Si Si2 0.615063 0.276965 0.396786
Si Si3 0.237026 0.566897 0.764263
Si Si4 0.288092 0.396192 0.153612
Si Si5 0.085522 0.307062 0.545234
Si Si6 0.845094 0.115908 0.100076
O O1 0.509620 0.773285 0.068233
O O2 0.713162 0.558643 0.113917
O O3 0.699596 0.868029 0.196846
O O4 0.659163 0.761141 0.924462
O O5 0.641946 0.386534 0.278281
O O6 0.717426 0.352650 0.509676
O O7 0.644164 0.074482 0.363771
O O8 0.148573 0.442629 0.661380
O O9 0.169577 0.753799 0.783592
O O10 0.151458 0.381170 0.084023
O O11 0.115036 0.405956 0.421019
O O12 0.950030 0.292397 0.545640
#
# Coordination Sequence:
#
# PCOD9246999 Si02
#       6
#     4   4   4   4   4   4
#     4  11  24  44  66 100 143 172 231 282 331 407
#     4  11  23  39  68  97 128 181 223 273 343 400
#     4  10  22  42  63  98 132 179 220 278 344 401
#     4  11  24  43  68  99 134 180 221 284 334 396
#     4   9  23  43  61  99 132 166 231 280 330 409
#     4  10  21  43  66  88 133 170 219 281 339 397
#
# _framework density 26.541024
#
# number of rings (size 3 to 8) (size 9 to 14) (size 15 to 20)
#    0.000    1.667    1.667    1.500    4.667    2.000 
#   15.000    3.333    0.000    0.000    0.000    0.000 
#    0.000    0.000    0.000    0.000    0.000    0.000 
#
# Total GULP energy -133933.505050 kJ/mol
# GULP energy per Si atom -5580.562710 kJ/mol
# Density = 2.648062 g / cm^3
# Si number density = 26.541024 Si / 1000 Ang^3
#
#
#
# Elastic Constant Matrix: (Units=GPa)
#
#
# Indices 1 2 3 4 5 6 
#
# 1 113.5414 1.9551 36.8229 0.0000 -5.8023 0.0000
# 2 1.9551 83.0266 25.1769 0.0000 -1.2739 0.0000
# 3 36.8229 25.1769 106.9303 0.0000 -28.0888 0.0000
# 4 0.0000 0.0000 0.0000 41.7015 0.0000 -7.3982
# 5 -5.8023 -1.2739 -28.0888 0.0000 31.7958 0.0000
# 6 0.0000 0.0000 0.0000 -7.3982 0.0000 21.3986
#
#
#
# Elastic Compliance Matrix: (Units=1/GPa)
#
#
# Indices 1 2 3 4 5 6 
#
# 1 0.010051 0.001001 -0.004173 0.000000 -0.001812 0.000000
# 2 0.001001 0.013270 -0.004273 0.000000 -0.003061 0.000000
# 3 -0.004173 -0.004273 0.015040 0.000000 0.012354 0.000000
# 4 0.000000 0.000000 0.000000 0.025547 0.000000 0.008832
# 5 -0.001812 -0.003061 0.012354 0.000000 0.041911 0.000000
# 6 0.000000 0.000000 0.000000 0.008832 0.000000 0.049786
#
#
# Mechanical properties :
#
#
# Convention : Reuss Voigt Hill
#
# Bulk Modulus (GPa) = 42.60627 47.93425 45.27026
# Shear Modulus (GPa) = 28.03987 34.94871 31.49429
#
# Velocity S-wave (km/s) = 3.25387 3.63268 3.44848
# Velocity P-wave (km/s) = 5.49588 5.97452 5.74019
#
# Compressibility (1/GPa) = 0.02347073
#
# Stress axis : x y z
#
# Youngs Moduli (GPa) = 99.49446 75.36058 66.48891
#
# Poissons Ratio (x) = -0.07543 0.27744
# Poissons Ratio (y) = -0.09958 0.28410
# Poissons Ratio (z) = 0.41517 0.32201
#
# Static dielectric constant tensor:
#      x y z
#    x 2.033880 0.000000 -0.015090 
#    y 0.000000 2.280870 0.000000 
#    z -0.015090 0.000000 2.156760 
# 
# From -- ./inp_files/28102.got.cif
#   From: 2010.05.17/outbox.cif.g08.bks.cpg/sg14_15_cif.got.tgz:28102.got - 2010.06.03 17:49:19.
