data_PCOD9246202
_publ_section_title
;
Structure prediction by ZEFSAII (Michael W. Deem and Ramdas Pophale) SiO2 
 PCOD9246202
Probable space group: P 21/C
;
_chemical_formula_sum "Si O2"
_cell_formula_units_Z 24
_cell_length_a 7.619410
_cell_length_b 7.909749
_cell_length_c 14.378232
_cell_angle_alpha 90.000000
_cell_angle_beta 94.109561
_cell_angle_gamma 90.000000
_cell_volume 864.313812
_symmetry_space_group_name_H-M "P 21/C"
_symmetry_group_IT_number 14
_symmetry_cell_setting 'monoclinic'
loop_
_space_group_symop_operation_xyz
x,y,z
-x,1/2+y,1/2-z
-x,-y,-z
x,1/2-y,1/2+z
loop_
_atom_site_type_symbol
_atom_site_label
_atom_site_fract_x
_atom_site_fract_y
_atom_site_fract_z
Si Si1 0.665700 0.164461 0.934688
Si Si2 0.234107 0.964143 0.702442
Si Si3 0.291530 0.278803 0.889203
Si Si4 0.008796 0.205330 0.750055
Si Si5 0.421923 0.359676 0.685618
Si Si6 0.302504 0.647550 0.891088
O O1 0.724091 0.324225 0.872788
O O2 0.453372 0.180925 0.940653
O O3 0.688673 0.988664 0.881967
O O4 0.747504 0.207252 0.037286
O O5 0.155171 0.149823 0.678223
O O6 0.392536 0.959138 0.781633
O O7 0.051945 0.903144 0.746396
O O8 0.106965 0.191618 0.855014
O O9 0.357430 0.329197 0.787718
O O10 0.281306 0.463318 0.936179
O O11 0.821459 0.146998 0.702996
O O12 0.502364 0.193719 0.637945
#
# Coordination Sequence:
#
# PCOD9246202 Si02
#       6
#     4   4   4   4   4   4
#     4  11  23  40  63  96 128 159 208 270 323 361
#     4  10  22  38  66  87 123 172 210 259 305 386
#     4  11  21  40  64  90 120 170 217 249 309 391
#     4  11  21  40  61  89 123 168 219 251 310 385
#     4  10  21  40  65  89 118 169 215 248 306 386
#     4  11  24  40  62  96 130 160 206 272 321 364
#
# _framework density 27.767692
#
# number of rings (size 3 to 8) (size 9 to 14) (size 15 to 20)
#    0.000    1.333    3.333    4.000    2.333    0.667 
#    0.000    0.833    0.000    0.000    0.000    0.000 
#    0.000    0.000    0.000    0.000    0.000    0.000 
#
# Total GULP energy -133770.480451 kJ/mol
# GULP energy per Si atom -5573.770019 kJ/mol
# Density = 2.770449 g / cm^3
# Si number density = 27.767692 Si / 1000 Ang^3
#
#
#
# Elastic Constant Matrix: (Units=GPa)
#
#
# Indices 1 2 3 4 5 6 
#
# 1 70.6461 -14.4238 13.3530 0.0000 13.5813 0.0000
# 2 -14.4238 53.3654 22.6547 0.0000 13.9873 0.0000
# 3 13.3530 22.6547 88.8395 0.0000 -1.8547 0.0000
# 4 0.0000 0.0000 0.0000 44.6168 0.0000 5.6467
# 5 13.5813 13.9873 -1.8547 0.0000 21.4581 0.0000
# 6 0.0000 0.0000 0.0000 5.6467 0.0000 53.9535
#
#
#
# Elastic Compliance Matrix: (Units=1/GPa)
#
#
# Indices 1 2 3 4 5 6 
#
# 1 0.024918 0.017909 -0.008901 0.000000 -0.028214 0.000000
# 2 0.017909 0.039308 -0.013511 0.000000 -0.038125 0.000000
# 3 -0.008901 -0.013511 0.016371 0.000000 0.015856 0.000000
# 4 0.000000 0.000000 0.000000 0.022714 0.000000 -0.002377
# 5 -0.028214 -0.038125 0.015856 0.000000 0.090682 0.000000
# 6 0.000000 0.000000 0.000000 -0.002377 0.000000 0.018783
#
#
# Mechanical properties :
#
#
# Convention : Reuss Voigt Hill
#
# Bulk Modulus (GPa) = 13.96874 28.44654 21.20764
# Shear Modulus (GPa) = 20.35449 36.75682 28.55565
#
# Velocity S-wave (km/s) = 2.71039 3.64225 3.21031
# Velocity P-wave (km/s) = 3.85181 5.28722 4.62553
#
# Compressibility (1/GPa) = 0.07158841
#
# Stress axis : x y z
#
# Youngs Moduli (GPa) = 40.13177 25.44028 61.08477
#
# Poissons Ratio (x) = -0.45560 0.54372
# Poissons Ratio (y) = -0.71871 0.82534
# Poissons Ratio (z) = 0.35722 0.34374
#
# Static dielectric constant tensor:
#      x y z
#    x 2.320550 0.000000 -0.043540 
#    y 0.000000 2.521760 0.000000 
#    z -0.043540 0.000000 2.053710 
# 
# From -- ./inp_files/38895.got.cif
#   From: 2010.05.17/outbox.cif.g08.bks.cpg/sg14_20_cif.got.tgz:38895.got - 2010.06.03 17:49:19.
