data_PCOD9246305
_publ_section_title
;
Structure prediction by ZEFSAII (Michael W. Deem and Ramdas Pophale) SiO2 
 PCOD9246305
Probable space group: P 21/C
;
_chemical_formula_sum "Si O2"
_cell_formula_units_Z 32
_cell_length_a 5.367726
_cell_length_b 20.236501
_cell_length_c 12.793804
_cell_angle_alpha 90.000000
_cell_angle_beta 81.433296
_cell_angle_gamma 90.000000
_cell_volume 1374.209187
_symmetry_space_group_name_H-M "P 21/C"
_symmetry_group_IT_number 14
_symmetry_cell_setting 'monoclinic'
loop_
_space_group_symop_operation_xyz
x,y,z
-x,1/2+y,1/2-z
-x,-y,-z
x,1/2-y,1/2+z
loop_
_atom_site_type_symbol
_atom_site_label
_atom_site_fract_x
_atom_site_fract_y
_atom_site_fract_z
Si Si1 0.044098 0.255524 0.714332
Si Si2 0.495851 0.501642 0.813870
Si Si3 0.322890 0.639410 0.793707
Si Si4 0.979934 0.137350 0.067631
Si Si5 0.307149 0.214870 0.879392
Si Si6 0.593333 0.692581 0.964829
Si Si7 0.799460 0.943617 0.479826
Si Si8 0.486673 0.442227 0.586405
O O1 0.899906 0.186270 0.728211
O O2 0.898351 0.313623 0.666716
O O3 0.152579 0.267426 0.820534
O O4 0.280814 0.243285 0.623994
O O5 0.304226 0.560888 0.794065
O O6 0.715535 0.538425 0.866071
O O7 0.544639 0.465862 0.701617
O O8 0.398533 0.454809 0.912695
O O9 0.551159 0.663357 0.704419
O O10 0.380779 0.656991 0.910960
O O11 0.207825 0.090392 0.095682
O O12 0.723488 0.104421 0.044487
O O13 0.113980 0.176690 0.965479
O O14 0.491395 0.261291 0.935364
O O15 0.801573 0.636294 0.978082
O O16 0.000000 0.000000 0.500000
O O17 0.500000 0.500000 0.500000
#
# Coordination Sequence:
#
# PCOD9246305 Si02
#       8
#     4   4   4   4   4   4   4   4
#     4  10  23  39  66  96 127 178 219 290 344 413
#     4  10  24  40  67  99 131 187 233 286 353 422
#     4  10  21  41  64  93 130 171 223 277 344 415
#     4  11  28  46  71 106 142 182 243 291 352 427
#     4  10  23  39  66  95 132 179 222 282 352 411
#     4   9  21  38  58  92 127 162 220 273 346 408
#     4  10  21  40  67  95 134 175 229 296 351 416
#     4  12  28  49  72 104 148 194 240 294 350 427
#
# _framework density 23.28612
#
# number of rings (size 3 to 8) (size 9 to 14) (size 15 to 20)
#    0.000    1.750    0.000    1.875   12.250    1.000 
#    0.000    1.250    0.000    0.000    0.000    0.000 
#    0.000    0.000    0.000    0.000    0.000    0.000 
#
# Total GULP energy -178436.627035 kJ/mol
# GULP energy per Si atom -5576.144595 kJ/mol
# Density = 2.323312 g / cm^3
# Si number density = 23.286120 Si / 1000 Ang^3
#
#
#
# Elastic Constant Matrix: (Units=GPa)
#
#
# Indices 1 2 3 4 5 6 
#
# 1 50.7210 -6.1794 5.4518 0.0000 -5.1539 0.0000
# 2 -6.1794 54.5046 25.3733 0.0000 -2.2870 0.0000
# 3 5.4518 25.3733 116.7318 0.0000 3.4559 0.0000
# 4 0.0000 0.0000 0.0000 35.5552 0.0000 8.6099
# 5 -5.1539 -2.2870 3.4559 0.0000 13.9366 0.0000
# 6 0.0000 0.0000 0.0000 8.6099 0.0000 32.3338
#
#
#
# Elastic Compliance Matrix: (Units=1/GPa)
#
#
# Indices 1 2 3 4 5 6 
#
# 1 0.021314 0.003763 -0.002080 0.000000 0.009016 0.000000
# 2 0.003763 0.021359 -0.005000 0.000000 0.006137 0.000000
# 3 -0.002080 -0.005000 0.009870 0.000000 -0.004037 0.000000
# 4 0.000000 0.000000 0.000000 0.030064 0.000000 -0.008005
# 5 0.009016 0.006137 -0.004037 0.000000 0.077096 0.000000
# 6 0.000000 0.000000 0.000000 -0.008005 0.000000 0.033059
#
#
# Mechanical properties :
#
#
# Convention : Reuss Voigt Hill
#
# Bulk Modulus (GPa) = 21.78248 30.13875 25.96062
# Shear Modulus (GPa) = 23.28844 29.51925 26.40384
#
# Velocity S-wave (km/s) = 3.16587 3.56431 3.37098
# Velocity P-wave (km/s) = 4.76846 5.46900 5.13070
#
# Compressibility (1/GPa) = 0.04590846
#
# Stress axis : x y z
#
# Youngs Moduli (GPa) = 46.91783 46.81893 101.31536
#
# Poissons Ratio (x) = -0.17619 0.21077
# Poissons Ratio (y) = -0.17656 0.50659
# Poissons Ratio (z) = 0.09760 0.23410
#
# Static dielectric constant tensor:
#      x y z
#    x 1.960540 0.000000 -0.005780 
#    y 0.000000 1.934240 0.000000 
#    z -0.005780 0.000000 1.864300 
# 
# From -- ./inp_files/21788.got.cif
#   From: 2010.05.17/outbox.cif.g08.bks.cpg/sg14_11_cif.got.tgz:21788.got - 2010.06.03 17:49:19.
