data_PCOD9246060
_publ_section_title
;
Structure prediction by ZEFSAII (Michael W. Deem and Ramdas Pophale) SiO2 
 PCOD9246060
Probable space group: P 21/C
;
_chemical_formula_sum "Si O2"
_cell_formula_units_Z 28
_cell_length_a 20.276622
_cell_length_b 5.580844
_cell_length_c 17.285983
_cell_angle_alpha 90.000000
_cell_angle_beta 146.960881
_cell_angle_gamma 90.000000
_cell_volume 1066.484601
_symmetry_space_group_name_H-M "P 21/C"
_symmetry_group_IT_number 14
_symmetry_cell_setting 'monoclinic'
loop_
_space_group_symop_operation_xyz
x,y,z
-x,1/2+y,1/2-z
-x,-y,-z
x,1/2-y,1/2+z
loop_
_atom_site_type_symbol
_atom_site_label
_atom_site_fract_x
_atom_site_fract_y
_atom_site_fract_z
Si Si1 0.377407 0.038706 0.696059
Si Si2 0.762795 0.397555 0.592908
Si Si3 0.118623 0.372241 0.148285
Si Si4 0.070696 0.001083 0.214143
Si Si5 0.387725 0.375531 0.430864
Si Si6 0.504196 0.460386 0.151207
Si Si7 0.860075 0.743100 0.570425
O O1 0.425996 0.286883 0.782944
O O2 0.430896 0.038826 0.660492
O O3 0.233099 0.063537 0.551617
O O4 0.412328 0.778540 0.763452
O O5 0.862462 0.509110 0.748284
O O6 0.642583 0.475918 0.519123
O O7 0.778169 0.532332 0.527809
O O8 0.804136 0.127416 0.638301
O O9 0.092290 0.105681 0.151046
O O10 0.259154 0.386943 0.258389
O O11 0.000000 0.500000 0.000000
O O12 0.054561 0.162952 0.275883
O O13 0.947762 0.852513 0.091369
O O14 0.500000 0.500000 0.500000
O O15 0.419894 0.110307 0.494633
#
# Coordination Sequence:
#
# PCOD9246060 Si02
#       7
#     4   4   4   4   4   4   4
#     4  10  22  37  63  94 133 169 218 275 343 405
#     4   9  21  39  62  91 128 167 215 273 338 393
#     4   9  22  43  65  93 128 173 222 281 328 397
#     4  11  21  37  66  94 133 168 224 274 351 413
#     4  10  22  44  66  91 129 180 227 273 333 409
#     4  10  21  40  61  92 129 173 215 276 339 403
#     4  11  21  36  61 100 126 176 211 279 342 419
#
# _framework density 26.254480999999998
#
# number of rings (size 3 to 8) (size 9 to 14) (size 15 to 20)
#    0.857    1.143    2.857    0.000    2.000    4.000 
#    2.571    2.857    0.000    0.000    0.000    0.000 
#    0.000    0.000    0.000    0.000    0.000    0.000 
#
# Total GULP energy -156291.653710 kJ/mol
# GULP energy per Si atom -5581.844775 kJ/mol
# Density = 2.619472 g / cm^3
# Si number density = 26.254481 Si / 1000 Ang^3
#
#
#
# Elastic Constant Matrix: (Units=GPa)
#
#
# Indices 1 2 3 4 5 6 
#
# 1 101.9755 24.8155 15.5459 0.0000 35.5636 0.0000
# 2 24.8155 72.7301 37.3240 0.0000 14.0827 0.0000
# 3 15.5459 37.3240 137.8354 0.0000 21.2556 0.0000
# 4 0.0000 0.0000 0.0000 50.7047 0.0000 -1.5929
# 5 35.5636 14.0827 21.2556 0.0000 47.6467 0.0000
# 6 0.0000 0.0000 0.0000 -1.5929 0.0000 36.5299
#
#
#
# Elastic Compliance Matrix: (Units=1/GPa)
#
#
# Indices 1 2 3 4 5 6 
#
# 1 0.013881 -0.003269 0.000825 0.000000 -0.009762 0.000000
# 2 -0.003269 0.017147 -0.004155 0.000000 -0.000774 0.000000
# 3 0.000825 -0.004155 0.008798 0.000000 -0.003313 0.000000
# 4 0.000000 0.000000 0.000000 0.019749 0.000000 0.000861
# 5 -0.009762 -0.000774 -0.003313 0.000000 0.029981 0.000000
# 6 0.000000 0.000000 0.000000 0.000861 0.000000 0.027412
#
#
# Mechanical properties :
#
#
# Convention : Reuss Voigt Hill
#
# Bulk Modulus (GPa) = 37.55518 51.99019 44.77269
# Shear Modulus (GPa) = 35.96016 42.63329 39.29672
#
# Velocity S-wave (km/s) = 3.70493 4.03407 3.87300
# Velocity P-wave (km/s) = 5.71291 6.44544 6.09020
#
# Compressibility (1/GPa) = 0.02662748
#
# Stress axis : x y z
#
# Youngs Moduli (GPa) = 72.04266 58.31848 113.66268
#
# Poissons Ratio (x) = 0.19066 -0.09379
# Poissons Ratio (y) = 0.23553 0.47228
# Poissons Ratio (z) = -0.05945 0.24232
#
# Static dielectric constant tensor:
#      x y z
#    x 2.034820 0.000000 -0.035130 
#    y 0.000000 2.691600 0.000000 
#    z -0.035130 0.000000 2.149450 
# 
# From -- ./inp_files/70077.got.cif
#   From: 2010.05.17/outbox.cif.g08.bks.cpg/sg14_36_cif.got.tgz:70077.got - 2010.06.03 17:49:19.
