data_PCOD9246505
_publ_section_title
;
Structure prediction by ZEFSAII (Michael W. Deem and Ramdas Pophale) SiO2 
 PCOD9246505
Probable space group: P 21/C
;
_chemical_formula_sum "Si O2"
_cell_formula_units_Z 26
_cell_length_a 20.125434
_cell_length_b 8.006346
_cell_length_c 10.379732
_cell_angle_alpha 90.000000
_cell_angle_beta 34.438739
_cell_angle_gamma 90.000000
_cell_volume 945.839328
_symmetry_space_group_name_H-M "P 21/C"
_symmetry_group_IT_number 14
_symmetry_cell_setting 'monoclinic'
loop_
_space_group_symop_operation_xyz
x,y,z
-x,1/2+y,1/2-z
-x,-y,-z
x,1/2-y,1/2+z
loop_
_atom_site_type_symbol
_atom_site_label
_atom_site_fract_x
_atom_site_fract_y
_atom_site_fract_z
Si Si1 0.768254 0.496606 0.041252
Si Si2 0.627067 0.807206 0.286596
Si Si3 0.680904 0.305959 0.403002
Si Si4 0.000000 0.000000 0.000000
Si Si5 0.157810 0.983973 0.149044
Si Si6 0.930704 0.690755 0.981721
Si Si7 0.535620 0.997108 0.652044
O O1 0.660897 0.623413 0.183298
O O2 0.725493 0.330676 0.185215
O O3 0.833104 0.610683 0.048644
O O4 0.868340 0.476958 0.776036
O O5 0.528211 0.887134 0.354407
O O6 0.584378 0.832275 0.500865
O O7 0.738900 0.928417 0.092513
O O8 0.781747 0.371497 0.337202
O O9 0.639263 0.125668 0.520501
O O10 0.571099 0.433897 0.590500
O O11 0.942267 0.886182 0.976057
O O12 0.056785 0.881704 0.240776
O O13 0.091219 0.131315 0.335445
#
# Coordination Sequence:
#
# PCOD9246505 Si02
#       7
#     4   4   4   2   4   4   4
#     4  11  25  42  66  98 141 175 225 283 342 402
#     4  10  21  41  64  92 131 176 213 285 335 396
#     4  10  22  42  66  97 128 176 222 286 343 402
#     4  12  26  42  66 106 132 184 234 270 338 424
#     4   9  20  42  63  89 132 173 218 273 333 404
#     4  10  23  41  65  93 134 177 224 273 331 412
#     4  10  22  41  68  95 128 174 233 274 350 402
#
# _framework density 27.488810000000001
#
# number of rings (size 3 to 8) (size 9 to 14) (size 15 to 20)
#    0.000    1.846    1.538    0.923    4.308    3.077 
#    2.769    0.000    0.000    0.000    0.000    0.000 
#    0.000    0.000    0.000    0.000    0.000    0.000 
#
# Total GULP energy -145174.284908 kJ/mol
# GULP energy per Si atom -5583.626343 kJ/mol
# Density = 2.742624 g / cm^3
# Si number density = 27.488810 Si / 1000 Ang^3
#
#
#
# Elastic Constant Matrix: (Units=GPa)
#
#
# Indices 1 2 3 4 5 6 
#
# 1 28.2410 16.6913 8.5758 0.0000 -9.5285 0.0000
# 2 16.6913 115.6035 36.1254 0.0000 7.8050 0.0000
# 3 8.5758 36.1254 151.1316 0.0000 22.0206 0.0000
# 4 0.0000 0.0000 0.0000 44.2480 0.0000 -8.8238
# 5 -9.5285 7.8050 22.0206 0.0000 34.8981 0.0000
# 6 0.0000 0.0000 0.0000 -8.8238 0.0000 34.9910
#
#
#
# Elastic Compliance Matrix: (Units=1/GPa)
#
#
# Indices 1 2 3 4 5 6 
#
# 1 0.045795 -0.006651 -0.003356 0.000000 0.016109 0.000000
# 2 -0.006651 0.010332 -0.001642 0.000000 -0.003091 0.000000
# 3 -0.003356 -0.001642 0.008017 0.000000 -0.005608 0.000000
# 4 0.000000 0.000000 0.000000 0.023797 0.000000 0.006001
# 5 0.016109 -0.003091 -0.005608 0.000000 0.037283 0.000000
# 6 0.000000 0.000000 0.000000 0.006001 0.000000 0.030092
#
#
# Mechanical properties :
#
#
# Convention : Reuss Voigt Hill
#
# Bulk Modulus (GPa) = 24.48225 46.41791 35.45008
# Shear Modulus (GPa) = 26.01079 38.39966 32.20522
#
# Velocity S-wave (km/s) = 3.07943 3.74159 3.42654
# Velocity P-wave (km/s) = 4.64429 5.96563 5.34594
#
# Compressibility (1/GPa) = 0.04084592
#
# Stress axis : x y z
#
# Youngs Moduli (GPa) = 21.83667 96.78362 124.73905
#
# Poissons Ratio (x) = 0.64369 0.41861
# Poissons Ratio (y) = 0.14523 0.20483
# Poissons Ratio (z) = 0.07328 0.15892
#
# Static dielectric constant tensor:
#      x y z
#    x 2.249680 0.000000 -0.002510 
#    y 0.000000 2.209900 0.000000 
#    z -0.002510 0.000000 2.031710 
# 
# From -- ./inp_files/35707.got.cif
#   From: 2010.05.17/outbox.cif.g08.bks.cpg/sg14_18_cif.got.tgz:35707.got - 2010.06.03 17:49:19.
