data_PCOD9246400
_publ_section_title
;
Structure prediction by ZEFSAII (Michael W. Deem and Ramdas Pophale) SiO2 
 PCOD9246400
Probable space group: P 21/C
;
_chemical_formula_sum "Si O2"
_cell_formula_units_Z 28
_cell_length_a 13.049733
_cell_length_b 9.127688
_cell_length_c 10.864040
_cell_angle_alpha 90.000000
_cell_angle_beta 126.059622
_cell_angle_gamma 90.000000
_cell_volume 1046.122902
_symmetry_space_group_name_H-M "P 21/C"
_symmetry_group_IT_number 14
_symmetry_cell_setting 'monoclinic'
loop_
_space_group_symop_operation_xyz
x,y,z
-x,1/2+y,1/2-z
-x,-y,-z
x,1/2-y,1/2+z
loop_
_atom_site_type_symbol
_atom_site_label
_atom_site_fract_x
_atom_site_fract_y
_atom_site_fract_z
Si Si1 0.223075 0.546643 0.583104
Si Si2 0.462914 0.660188 0.023278
Si Si3 0.150060 0.527990 0.143709
Si Si4 0.406500 0.691116 0.248932
Si Si5 0.214816 0.993301 0.351822
Si Si6 0.932415 0.261237 0.700336
Si Si7 0.218350 0.296961 0.386330
O O1 0.344580 0.648981 0.685430
O O2 0.183529 0.484175 0.686403
O O3 0.114635 0.652476 0.452267
O O4 0.249973 0.419668 0.506000
O O5 0.475809 0.792090 0.932135
O O6 0.311809 0.641580 0.929576
O O7 0.500000 0.500000 0.000000
O O8 0.496581 0.673094 0.192266
O O9 0.281517 0.582766 0.166411
O O10 0.130981 0.657037 0.229942
O O11 0.199341 0.378760 0.243615
O O12 0.000000 0.500000 0.000000
O O13 0.287016 0.141443 0.439753
O O14 0.095835 0.912563 0.328725
O O15 0.080983 0.269303 0.821675
#
# Coordination Sequence:
#
# PCOD9246400 Si02
#       7
#     4   4   4   4   4   4   4
#     4  10  21  41  60  86 134 179 226 277 353 415
#     4  11  25  49  76 103 133 187 242 305 375 428
#     4  11  23  37  66 100 139 195 236 275 357 443
#     4  11  22  49  77  99 143 188 240 302 366 443
#     4  11  23  42  65  93 137 178 228 298 346 423
#     4  11  21  38  61  92 137 194 233 276 349 436
#     4  11  25  34  57 102 139 178 236 290 345 422
#
# _framework density 26.765495000000001
#
# number of rings (size 3 to 8) (size 9 to 14) (size 15 to 20)
#    0.000    1.143    4.286    3.429    4.000    1.143 
#    7.714    0.714    0.000    0.000    0.000    0.000 
#    0.000    0.000    0.000    0.000    0.000    0.000 
#
# Total GULP energy -156279.424482 kJ/mol
# GULP energy per Si atom -5581.408017 kJ/mol
# Density = 2.670458 g / cm^3
# Si number density = 26.765495 Si / 1000 Ang^3
#
#
#
# Elastic Constant Matrix: (Units=GPa)
#
#
# Indices 1 2 3 4 5 6 
#
# 1 71.5023 22.4864 31.5989 0.0000 -23.5660 0.0000
# 2 22.4864 153.9850 21.3419 0.0000 -10.4458 0.0000
# 3 31.5989 21.3419 79.0746 0.0000 -17.5855 0.0000
# 4 0.0000 0.0000 0.0000 43.2323 0.0000 2.2134
# 5 -23.5660 -10.4458 -17.5855 0.0000 50.3353 0.0000
# 6 0.0000 0.0000 0.0000 2.2134 0.0000 -33.2346
#
#
#
# Elastic Compliance Matrix: (Units=1/GPa)
#
#
# Indices 1 2 3 4 5 6 
#
# 1 0.019224 -0.001554 -0.005782 0.000000 0.006658 0.000000
# 2 -0.001554 0.006904 -0.001177 0.000000 0.000294 0.000000
# 3 -0.005782 -0.001177 0.015850 0.000000 0.002586 0.000000
# 4 0.000000 0.000000 0.000000 0.023052 0.000000 0.001535
# 5 0.006658 0.000294 0.002586 0.000000 0.023948 0.000000
# 6 0.000000 0.000000 0.000000 0.001535 0.000000 -0.029987
#
#
# Mechanical properties :
#
#
# Convention : Reuss Voigt Hill
#
# Bulk Modulus (GPa) = 40.07805 50.60180 45.33993
# Shear Modulus (GPa) = 59.28772 27.34224 43.31498
#
# Velocity S-wave (km/s) = 4.71157 3.19963 4.02719
# Velocity P-wave (km/s) = 6.67868 5.70937 6.21296
#
# Compressibility (1/GPa) = 0.02495132
#
# Stress axis : x y z
#
# Youngs Moduli (GPa) = 52.01886 144.84001 63.09323
#
# Poissons Ratio (x) = 0.22512 0.36480
# Poissons Ratio (y) = 0.08085 0.07426
# Poissons Ratio (z) = 0.30077 0.17047
#
# Static dielectric constant tensor:
#      x y z
#    x 4.076750 0.000000 0.478500 
#    y 0.000000 2.211910 0.000000 
#    z 0.478500 0.000000 2.369230 
# 
# From -- ./inp_files/31896.got.cif
#   From: 2010.05.17/outbox.cif.g08.bks.cpg/sg14_16_cif.got.tgz:31896.got - 2010.06.03 17:49:19.
