data_PCOD9246388
_publ_section_title
;
Structure prediction by ZEFSAII (Michael W. Deem and Ramdas Pophale) SiO2 
 PCOD9246388
Probable space group: P 21/C
;
_chemical_formula_sum "Si O2"
_cell_formula_units_Z 18
_cell_length_a 10.364341
_cell_length_b 9.714100
_cell_length_c 14.339935
_cell_angle_alpha 90.000000
_cell_angle_beta 153.641552
_cell_angle_gamma 90.000000
_cell_volume 641.003216
_symmetry_space_group_name_H-M "P 21/C"
_symmetry_group_IT_number 14
_symmetry_cell_setting 'monoclinic'
loop_
_space_group_symop_operation_xyz
x,y,z
-x,1/2+y,1/2-z
-x,-y,-z
x,1/2-y,1/2+z
loop_
_atom_site_type_symbol
_atom_site_label
_atom_site_fract_x
_atom_site_fract_y
_atom_site_fract_z
Si Si1 0.000000 0.000000 0.500000
Si Si2 0.900186 0.297935 0.368214
Si Si3 0.558068 0.484679 0.882517
Si Si4 0.126323 0.466681 0.353315
Si Si5 0.453952 0.204897 0.920191
O O1 0.032275 0.167715 0.504293
O O2 0.735515 0.028334 0.403283
O O3 0.676424 0.234539 0.148538
O O4 0.116574 0.380774 0.441281
O O5 0.700804 0.405987 0.293465
O O6 0.436846 0.342421 0.848060
O O7 0.808923 0.528930 0.121945
O O8 0.376725 0.579774 0.519990
O O9 0.191397 0.366186 0.307031
#
# Coordination Sequence:
#
# PCOD9246388 Si02
#       5
#     2   4   4   4   4
#     4  12  26  50  66 104 162 200 248 308 376 446
#     4  11  24  43  70 107 146 200 254 307 372 454
#     4  11  25  42  74 105 151 196 253 302 381 446
#     4  10  21  42  75 113 143 191 252 314 374 441
#     4  10  21  40  75 109 145 188 247 317 372 443
#
# _framework density 28.080984000000001
#
# number of rings (size 3 to 8) (size 9 to 14) (size 15 to 20)
#    0.000    1.333    2.222    4.000    9.333    1.778 
#    0.000    1.111    0.000    0.000    0.000    0.000 
#    0.000    0.000    0.000    0.000    0.000    0.000 
#
# Total GULP energy -100550.834219 kJ/mol
# GULP energy per Si atom -5586.157457 kJ/mol
# Density = 2.801707 g / cm^3
# Si number density = 28.080984 Si / 1000 Ang^3
#
#
#
# Elastic Constant Matrix: (Units=GPa)
#
#
# Indices 1 2 3 4 5 6 
#
# 1 287.0856 118.8140 -21.8938 0.0000 21.5390 0.0000
# 2 118.8140 159.6762 25.4534 0.0000 13.3740 0.0000
# 3 -21.8938 25.4534 100.3377 0.0000 18.4363 0.0000
# 4 0.0000 0.0000 0.0000 32.1613 0.0000 -8.0815
# 5 21.5390 13.3740 18.4363 0.0000 42.8516 0.0000
# 6 0.0000 0.0000 0.0000 -8.0815 0.0000 51.1477
#
#
#
# Elastic Compliance Matrix: (Units=1/GPa)
#
#
# Indices 1 2 3 4 5 6 
#
# 1 0.005795 -0.004547 0.002923 0.000000 -0.002751 0.000000
# 2 -0.004547 0.010178 -0.003703 0.000000 0.000702 0.000000
# 3 0.002923 -0.003703 0.012597 0.000000 -0.005733 0.000000
# 4 0.000000 0.000000 0.000000 0.032379 0.000000 0.005116
# 5 -0.002751 0.000702 -0.005733 0.000000 0.026967 0.000000
# 6 0.000000 0.000000 0.000000 0.005116 0.000000 0.020360
#
#
# Mechanical properties :
#
#
# Convention : Reuss Voigt Hill
#
# Bulk Modulus (GPa) = 55.81778 87.98298 71.90038
# Shear Modulus (GPa) = 40.03185 53.54715 46.78950
#
# Velocity S-wave (km/s) = 3.77979 4.37152 4.08638
# Velocity P-wave (km/s) = 6.24257 7.54190 6.92278
#
# Compressibility (1/GPa) = 0.01791544
#
# Stress axis : x y z
#
# Youngs Moduli (GPa) = 172.57427 98.25323 79.38315
#
# Poissons Ratio (x) = 0.44679 -0.23207
# Poissons Ratio (y) = 0.78475 0.29397
# Poissons Ratio (z) = -0.50451 0.36385
#
# Static dielectric constant tensor:
#      x y z
#    x 2.133830 0.000000 -0.112000 
#    y 0.000000 2.112200 0.000000 
#    z -0.112000 0.000000 2.357180 
# 
# From -- ./inp_files/57202.got.cif
#   From: 2010.05.17/outbox.cif.g08.bks.cpg/sg14_29_cif.got.tgz:57202.got - 2010.06.03 17:49:19.
