data_PCOD9246598
_publ_section_title
;
Structure prediction by ZEFSAII (Michael W. Deem and Ramdas Pophale) SiO2 
 PCOD9246598
Probable space group: P 21/C
;
_chemical_formula_sum "Si O2"
_cell_formula_units_Z 28
_cell_length_a 8.929452
_cell_length_b 8.752335
_cell_length_c 20.861447
_cell_angle_alpha 90.000000
_cell_angle_beta 126.794949
_cell_angle_gamma 90.000000
_cell_volume 1305.595518
_symmetry_space_group_name_H-M "P 21/C"
_symmetry_group_IT_number 14
_symmetry_cell_setting 'monoclinic'
loop_
_space_group_symop_operation_xyz
x,y,z
-x,1/2+y,1/2-z
-x,-y,-z
x,1/2-y,1/2+z
loop_
_atom_site_type_symbol
_atom_site_label
_atom_site_fract_x
_atom_site_fract_y
_atom_site_fract_z
Si Si1 0.961554 0.492416 0.605432
Si Si2 0.395564 0.501185 0.160126
Si Si3 0.717667 0.769920 0.782603
Si Si4 0.223070 0.002299 0.800215
Si Si5 0.654585 0.583251 0.996900
Si Si6 0.591216 0.940058 0.958016
Si Si7 0.938907 0.334628 0.853869
O O1 0.866419 0.500678 0.652128
O O2 0.797020 0.486680 0.510376
O O3 0.106450 0.354534 0.640035
O O4 0.055177 0.658222 0.625511
O O5 0.393138 0.336592 0.195042
O O6 0.581210 0.598815 0.221045
O O7 0.354265 0.491288 0.074794
O O8 0.219425 0.584845 0.145813
O O9 0.790952 0.658642 0.744313
O O10 0.445970 0.976560 0.864918
O O11 0.123796 0.868574 0.734764
O O12 0.607331 0.759955 0.972016
O O13 0.500000 0.500000 0.000000
O O14 0.859488 0.588446 0.081293
O O15 0.500000 0.000000 0.000000
#
# Coordination Sequence:
#
# PCOD9246598 Si02
#       7
#     4   4   4   4   4   4   4
#     4  10  21  41  67 100 134 178 234 283 348 399
#     4  11  26  45  67 101 142 179 235 274 359 409
#     4  11  25  42  69  99 135 190 225 294 346 418
#     4  10  22  40  69  99 137 179 236 286 340 407
#     4  11  26  43  72 102 138 183 231 288 343 411
#     4   9  22  41  62 100 136 173 223 285 348 397
#     4  10  23  44  64 100 136 179 231 281 346 411
#
# _framework density 21.446152000000001
#
# number of rings (size 3 to 8) (size 9 to 14) (size 15 to 20)
#    0.000    1.714    0.000    2.143   14.000    4.571 
#    2.571    1.429    0.000    0.000    0.000    0.000 
#    0.000    0.000    0.000    0.000    0.000    0.000 
#
# Total GULP energy -156529.490310 kJ/mol
# GULP energy per Si atom -5590.338940 kJ/mol
# Density = 2.139734 g / cm^3
# Si number density = 21.446152 Si / 1000 Ang^3
#
#
#
# Elastic Constant Matrix: (Units=GPa)
#
#
# Indices 1 2 3 4 5 6 
#
# 1 27.4076 -0.3462 -6.1484 0.0000 0.1008 0.0000
# 2 -0.3462 47.3223 21.1053 0.0000 22.5577 0.0000
# 3 -6.1484 21.1053 107.3066 0.0000 21.2622 0.0000
# 4 0.0000 0.0000 0.0000 31.7577 0.0000 8.4798
# 5 0.1008 22.5577 21.2622 0.0000 40.2452 0.0000
# 6 0.0000 0.0000 0.0000 8.4798 0.0000 76.0805
#
#
#
# Elastic Compliance Matrix: (Units=1/GPa)
#
#
# Indices 1 2 3 4 5 6 
#
# 1 0.037029 -0.000209 0.002410 0.000000 -0.001249 0.000000
# 2 -0.000209 0.029587 -0.002843 0.000000 -0.015081 0.000000
# 3 0.002410 -0.002843 0.010836 0.000000 -0.004137 0.000000
# 4 0.000000 0.000000 0.000000 0.032454 0.000000 -0.003617
# 5 -0.001249 -0.015081 -0.004137 0.000000 0.035490 0.000000
# 6 0.000000 0.000000 0.000000 -0.003617 0.000000 0.013547
#
#
# Mechanical properties :
#
#
# Convention : Reuss Voigt Hill
#
# Bulk Modulus (GPa) = 13.12859 23.47311 18.30085
# Shear Modulus (GPa) = 26.93737 40.77840 33.85788
#
# Velocity S-wave (km/s) = 3.54792 4.36527 3.97765
# Velocity P-wave (km/s) = 4.78734 6.03128 5.44495
#
# Compressibility (1/GPa) = 0.07616963
#
# Stress axis : x y z
#
# Youngs Moduli (GPa) = 27.00597 33.79853 92.28359
#
# Poissons Ratio (x) = 0.00705 -0.22242
# Poissons Ratio (y) = 0.00563 0.26236
# Poissons Ratio (z) = -0.06509 0.09609
#
# Static dielectric constant tensor:
#      x y z
#    x 1.782100 0.000000 0.016870 
#    y 0.000000 1.906570 0.000000 
#    z 0.016870 0.000000 1.758610 
# 
# From -- ./inp_files/65030.got.cif
#   From: 2010.05.17/outbox.cif.g08.bks.cpg/sg14_33_cif.got.tgz:65030.got - 2010.06.03 17:49:19.
