data_PCOD9246698
_publ_section_title
;
Structure prediction by ZEFSAII (Michael W. Deem and Ramdas Pophale) SiO2 
 PCOD9246698
Probable space group: P 21/C
;
_chemical_formula_sum "Si O2"
_cell_formula_units_Z 32
_cell_length_a 11.430304
_cell_length_b 14.342511
_cell_length_c 8.355946
_cell_angle_alpha 90.000000
_cell_angle_beta 78.085950
_cell_angle_gamma 90.000000
_cell_volume 1340.358458
_symmetry_space_group_name_H-M "P 21/C"
_symmetry_group_IT_number 14
_symmetry_cell_setting 'monoclinic'
loop_
_space_group_symop_operation_xyz
x,y,z
-x,1/2+y,1/2-z
-x,-y,-z
x,1/2-y,1/2+z
loop_
_atom_site_type_symbol
_atom_site_label
_atom_site_fract_x
_atom_site_fract_y
_atom_site_fract_z
Si Si1 0.241731 0.023850 0.841687
Si Si2 0.914885 0.355664 0.682119
Si Si3 0.810477 0.867990 0.814502
Si Si4 0.411043 0.889861 0.948769
Si Si5 0.689416 0.578566 0.030127
Si Si6 0.778703 0.224385 0.514260
Si Si7 0.607731 0.765170 0.370521
Si Si8 0.419469 0.592717 0.794542
O O1 0.129266 0.953084 0.879222
O O2 0.247786 0.066224 0.661290
O O3 0.359674 0.959167 0.831144
O O4 0.232584 0.089118 0.001751
O O5 0.893080 0.270821 0.565790
O O6 0.821587 0.332350 0.849559
O O7 0.048151 0.359117 0.708353
O O8 0.775023 0.922516 0.661382
O O9 0.741848 0.770445 0.806721
O O10 0.308551 0.810653 0.998208
O O11 0.418758 0.942255 0.114393
O O12 0.529025 0.828527 0.893826
O O13 0.599974 0.493512 0.084069
O O14 0.618498 0.676552 0.033726
O O15 0.696895 0.157251 0.643579
O O16 0.534321 0.840992 0.287606
#
# Coordination Sequence:
#
# PCOD9246698 Si02
#       8
#     4   4   4   4   4   4   4   4
#     4  11  26  49  75 106 141 193 248 294 356 431
#     4  11  24  45  74 107 146 192 242 298 355 423
#     4  12  29  50  70 105 154 194 234 298 369 426
#     4  10  22  45  76 102 144 186 243 300 357 427
#     4  12  27  48  73 107 146 190 243 292 364 434
#     4  10  21  41  73 107 136 188 248 296 352 416
#     4  11  28  44  72 110 147 193 234 299 372 427
#     4  11  21  46  75 103 144 188 243 302 351 430
#
# _framework density 23.874210000000001
#
# number of rings (size 3 to 8) (size 9 to 14) (size 15 to 20)
#    0.000    1.000    3.750    1.500    5.250    3.000 
#    0.000    0.000    0.000    0.000    0.000    0.000 
#    0.000    0.000    0.000    0.000    0.000    0.000 
#
# Total GULP energy -178963.059080 kJ/mol
# GULP energy per Si atom -5592.595596 kJ/mol
# Density = 2.381987 g / cm^3
# Si number density = 23.874210 Si / 1000 Ang^3
#
#
#
# Elastic Constant Matrix: (Units=GPa)
#
#
# Indices 1 2 3 4 5 6 
#
# 1 108.4720 34.2771 13.6954 0.0000 23.3574 0.0000
# 2 34.2771 102.3069 30.9676 0.0000 5.8687 0.0000
# 3 13.6954 30.9676 135.2963 0.0000 14.2652 0.0000
# 4 0.0000 0.0000 0.0000 39.5873 0.0000 3.4521
# 5 23.3574 5.8687 14.2652 0.0000 35.4287 0.0000
# 6 0.0000 0.0000 0.0000 3.4521 0.0000 25.6367
#
#
#
# Elastic Compliance Matrix: (Units=1/GPa)
#
#
# Indices 1 2 3 4 5 6 
#
# 1 0.011934 -0.003700 0.000422 0.000000 -0.007425 0.000000
# 2 -0.003700 0.011671 -0.002454 0.000000 0.001494 0.000000
# 3 0.000422 -0.002454 0.008247 0.000000 -0.003192 0.000000
# 4 0.000000 0.000000 0.000000 0.025561 0.000000 -0.003442
# 5 -0.007425 0.001494 -0.003192 0.000000 0.034158 0.000000
# 6 0.000000 0.000000 0.000000 -0.003442 0.000000 0.039470
#
#
# Mechanical properties :
#
#
# Convention : Reuss Voigt Hill
#
# Bulk Modulus (GPa) = 49.05232 55.99503 52.52368
# Shear Modulus (GPa) = 33.48916 37.93953 35.71435
#
# Velocity S-wave (km/s) = 3.74937 3.99073 3.87193
# Velocity P-wave (km/s) = 6.27172 6.68877 6.48360
#
# Compressibility (1/GPa) = 0.02038640
#
# Stress axis : x y z
#
# Youngs Moduli (GPa) = 83.79662 85.67948 121.25851
#
# Poissons Ratio (x) = 0.31702 -0.05114
# Poissons Ratio (y) = 0.31005 0.29762
# Poissons Ratio (z) = -0.03534 0.21030
#
# Static dielectric constant tensor:
#      x y z
#    x 1.878840 0.000000 0.013210 
#    y 0.000000 1.952740 0.000000 
#    z 0.013210 0.000000 1.960060 
# 
# From -- ./inp_files/13320.got.cif
#   From: 2010.05.17/outbox.cif.g08.bks.cpg/sg14_7_cif.got.tgz:13320.got - 2010.06.03 17:49:19.
