data_PCOD9246165
_publ_section_title
;
Structure prediction by ZEFSAII (Michael W. Deem and Ramdas Pophale) SiO2 
 PCOD9246165
Probable space group: P 21/C
;
_chemical_formula_sum "Si O2"
_cell_formula_units_Z 28
_cell_length_a 11.700288
_cell_length_b 9.538105
_cell_length_c 21.332449
_cell_angle_alpha 90.000000
_cell_angle_beta 145.167192
_cell_angle_gamma 90.000000
_cell_volume 1359.800354
_symmetry_space_group_name_H-M "P 21/C"
_symmetry_group_IT_number 14
_symmetry_cell_setting 'monoclinic'
loop_
_space_group_symop_operation_xyz
x,y,z
-x,1/2+y,1/2-z
-x,-y,-z
x,1/2-y,1/2+z
loop_
_atom_site_type_symbol
_atom_site_label
_atom_site_fract_x
_atom_site_fract_y
_atom_site_fract_z
Si Si1 0.736869 0.782009 0.257440
Si Si2 0.645925 0.059176 0.619184
Si Si3 0.610303 0.472625 0.783067
Si Si4 0.212056 0.726023 0.234976
Si Si5 0.636037 0.384135 0.928301
Si Si6 0.026228 0.967156 0.323822
Si Si7 0.159489 0.501954 0.628204
O O1 0.505990 0.750816 0.135830
O O2 0.842761 0.641946 0.331552
O O3 0.844034 0.858151 0.247556
O O4 0.724342 0.892163 0.308578
O O5 0.530015 0.000358 0.627244
O O6 0.500000 0.000000 0.500000
O O7 0.681099 0.219600 0.653512
O O8 0.864296 0.011758 0.693215
O O9 0.634454 0.355115 0.740852
O O10 0.707311 0.414784 0.890552
O O11 0.380379 0.504144 0.695960
O O12 0.043430 0.614461 0.178575
O O13 0.133435 0.861537 0.161129
O O14 0.810963 0.395392 0.056762
O O15 0.000000 0.500000 0.500000
#
# Coordination Sequence:
#
# PCOD9246165 Si02
#       7
#     4   4   4   4   4   4   4
#     4  10  22  38  61  92 126 169 208 275 328 382
#     4  10  22  42  64  89 123 177 217 265 323 387
#     4  10  22  39  62  90 133 165 210 273 326 398
#     4  11  23  41  64  96 124 170 219 272 324 393
#     4  10  21  40  64  90 130 173 211 263 340 382
#     4  10  25  39  68  90 126 174 230 265 323 400
#     4  11  23  34  60  94 131 163 212 269 336 390
#
# _framework density 20.591258
#
# number of rings (size 3 to 8) (size 9 to 14) (size 15 to 20)
#    0.000    1.714    2.857    1.714    8.000    2.286 
#    0.000    0.000    0.000    3.429    0.000    0.000 
#    0.000    0.000    0.000    0.000    0.000    0.000 
#
# Total GULP energy -155971.673848 kJ/mol
# GULP energy per Si atom -5570.416923 kJ/mol
# Density = 2.054439 g / cm^3
# Si number density = 20.591258 Si / 1000 Ang^3
#
#
#
# Elastic Constant Matrix: (Units=GPa)
#
#
# Indices 1 2 3 4 5 6 
#
# 1 98.4837 37.7560 -0.0348 0.0000 3.8283 0.0000
# 2 37.7560 119.1411 22.0956 0.0000 -1.4365 0.0000
# 3 -0.0348 22.0956 69.0812 0.0000 -13.9487 0.0000
# 4 0.0000 0.0000 0.0000 11.8061 0.0000 -5.0686
# 5 3.8283 -1.4365 -13.9487 0.0000 12.4795 0.0000
# 6 0.0000 0.0000 0.0000 -5.0686 0.0000 35.8334
#
#
#
# Elastic Compliance Matrix: (Units=1/GPa)
#
#
# Indices 1 2 3 4 5 6 
#
# 1 0.011773 -0.003875 0.000550 0.000000 -0.003443 0.000000
# 2 -0.003875 0.010274 -0.003628 0.000000 -0.001684 0.000000
# 3 0.000550 -0.003628 0.020041 0.000000 0.021814 0.000000
# 4 0.000000 0.000000 0.000000 0.090178 0.000000 0.012756
# 5 -0.003443 -0.001684 0.021814 0.000000 0.105376 0.000000
# 6 0.000000 0.000000 0.000000 0.012756 0.000000 0.029711
#
#
# Mechanical properties :
#
#
# Convention : Reuss Voigt Hill
#
# Bulk Modulus (GPa) = 35.48218 45.14882 40.31550
# Shear Modulus (GPa) = 17.20262 27.14975 22.17619
#
# Velocity S-wave (km/s) = 2.89352 3.63507 3.28528
# Velocity P-wave (km/s) = 5.33220 6.29222 5.83200
#
# Compressibility (1/GPa) = 0.02818316
#
# Stress axis : x y z
#
# Youngs Moduli (GPa) = 84.93738 97.33507 49.89750
#
# Poissons Ratio (x) = 0.37713 -0.02744
# Poissons Ratio (y) = 0.32909 0.18103
# Poissons Ratio (z) = -0.04672 0.35314
#
# Static dielectric constant tensor:
#      x y z
#    x 1.790660 0.000000 -0.032140 
#    y 0.000000 1.774960 0.000000 
#    z -0.032140 0.000000 1.778990 
# 
# From -- ./inp_files/67084.got.cif
#   From: 2010.05.17/outbox.cif.g08.bks.cpg/sg14_34_cif.got.tgz:67084.got - 2010.06.03 17:49:19.
