data_PCOD9246693
_publ_section_title
;
Structure prediction by ZEFSAII (Michael W. Deem and Ramdas Pophale) SiO2 
 PCOD9246693
Probable space group: P 21/C
;
_chemical_formula_sum "Si O2"
_cell_formula_units_Z 22
_cell_length_a 4.900077
_cell_length_b 20.868787
_cell_length_c 8.972014
_cell_angle_alpha 90.000000
_cell_angle_beta 68.233489
_cell_angle_gamma 90.000000
_cell_volume 852.053326
_symmetry_space_group_name_H-M "P 21/C"
_symmetry_group_IT_number 14
_symmetry_cell_setting 'monoclinic'
loop_
_space_group_symop_operation_xyz
x,y,z
-x,1/2+y,1/2-z
-x,-y,-z
x,1/2-y,1/2+z
loop_
_atom_site_type_symbol
_atom_site_label
_atom_site_fract_x
_atom_site_fract_y
_atom_site_fract_z
Si Si1 0.587253 0.802395 0.468681
Si Si2 0.000000 0.000000 0.500000
Si Si3 0.911204 0.103131 0.957853
Si Si4 0.691949 0.012903 0.242337
Si Si5 0.726185 0.406148 0.167202
Si Si6 0.955641 0.759707 0.121141
O O1 0.461973 0.862107 0.399139
O O2 0.837239 0.774069 0.309126
O O3 0.746033 0.794141 0.594248
O O4 0.291467 0.760996 0.546476
O O5 0.049677 0.078331 0.544836
O O6 0.152165 0.974612 0.635332
O O7 0.735271 0.111159 0.837734
O O8 0.151204 0.047855 0.871437
O O9 0.056105 0.171293 0.960880
O O10 0.714411 0.072721 0.127602
O O11 0.364014 0.983426 0.332513
#
# Coordination Sequence:
#
# PCOD9246693 Si02
#       6
#     4   2   4   4   4   4
#     4  12  27  47  77 101 154 197 256 310 385 439
#     4  10  24  38  64 108 142 180 242 302 388 448
#     4  10  22  42  70 100 137 186 257 298 371 455
#     4  10  21  41  71  99 140 190 236 309 381 448
#     4  11  22  45  68 100 148 193 241 316 382 457
#     4  12  26  49  71 111 142 206 254 317 371 461
#
# _framework density 25.819982
#
# number of rings (size 3 to 8) (size 9 to 14) (size 15 to 20)
#    0.000    1.091    1.818    4.364    2.545    2.909 
#    3.273    0.000    0.000    0.000    0.000    0.000 
#    0.000    0.000    0.000    0.000    0.000    0.000 
#
# Total GULP energy -122754.162409 kJ/mol
# GULP energy per Si atom -5579.734655 kJ/mol
# Density = 2.576121 g / cm^3
# Si number density = 25.819982 Si / 1000 Ang^3
#
#
#
# Elastic Constant Matrix: (Units=GPa)
#
#
# Indices 1 2 3 4 5 6 
#
# 1 98.3889 22.8111 24.8985 0.0000 -10.0714 0.0000
# 2 22.8111 53.7227 31.4214 0.0000 4.0682 0.0000
# 3 24.8985 31.4214 85.2793 0.0000 -4.8168 0.0000
# 4 0.0000 0.0000 0.0000 39.2998 0.0000 -11.1818
# 5 -10.0714 4.0682 -4.8168 0.0000 50.2097 0.0000
# 6 0.0000 0.0000 0.0000 -11.1818 0.0000 45.8328
#
#
#
# Elastic Compliance Matrix: (Units=1/GPa)
#
#
# Indices 1 2 3 4 5 6 
#
# 1 0.011843 -0.004185 -0.001772 0.000000 0.002545 0.000000
# 2 -0.004185 0.025597 -0.008420 0.000000 -0.003721 0.000000
# 3 -0.001772 -0.008420 0.015448 0.000000 0.001809 0.000000
# 4 0.000000 0.000000 0.000000 0.027343 0.000000 0.006671
# 5 0.002545 -0.003721 0.001809 0.000000 0.020902 0.000000
# 6 0.000000 0.000000 0.000000 0.006671 0.000000 0.023446
#
#
# Mechanical properties :
#
#
# Convention : Reuss Voigt Hill
#
# Bulk Modulus (GPa) = 41.43375 43.96143 42.69759
# Shear Modulus (GPa) = 30.98317 37.61913 34.30115
#
# Velocity S-wave (km/s) = 3.46781 3.82118 3.64878
# Velocity P-wave (km/s) = 5.66713 6.04414 5.85867
#
# Compressibility (1/GPa) = 0.02413492
#
# Stress axis : x y z
#
# Youngs Moduli (GPa) = 84.43878 39.06651 64.73324
#
# Poissons Ratio (x) = 0.16349 0.11471
# Poissons Ratio (y) = 0.35336 0.54504
# Poissons Ratio (z) = 0.14963 0.32893
#
# Static dielectric constant tensor:
#      x y z
#    x 2.111510 0.000000 -0.144900 
#    y 0.000000 2.251140 0.000000 
#    z -0.144900 0.000000 2.057770 
# 
# From -- ./inp_files/5902.got.cif
#   From: 2010.05.17/outbox.cif.g08.bks.cpg/sg14_3_cif.got.tgz:5902.got - 2010.06.03 17:49:19.
