data_PCOD9246727
_publ_section_title
;
Structure prediction by ZEFSAII (Michael W. Deem and Ramdas Pophale) SiO2 
 PCOD9246727
Probable space group: P 21/C
;
_chemical_formula_sum "Si O2"
_cell_formula_units_Z 32
_cell_length_a 10.398891
_cell_length_b 13.356538
_cell_length_c 14.202393
_cell_angle_alpha 90.000000
_cell_angle_beta 40.877222
_cell_angle_gamma 90.000000
_cell_volume 1290.959068
_symmetry_space_group_name_H-M "P 21/C"
_symmetry_group_IT_number 14
_symmetry_cell_setting 'monoclinic'
loop_
_space_group_symop_operation_xyz
x,y,z
-x,1/2+y,1/2-z
-x,-y,-z
x,1/2-y,1/2+z
loop_
_atom_site_type_symbol
_atom_site_label
_atom_site_fract_x
_atom_site_fract_y
_atom_site_fract_z
Si Si1 0.814661 0.567652 0.077963
Si Si2 0.948582 0.258032 0.122409
Si Si3 0.402047 0.533232 0.276137
Si Si4 0.618969 0.268548 0.180426
Si Si5 0.277444 0.317046 0.675041
Si Si6 0.260370 0.717899 0.586160
Si Si7 0.700557 0.996432 0.950839
Si Si8 0.796500 0.854060 0.161455
O O1 0.631855 0.508524 0.135006
O O2 0.740964 0.618628 0.217254
O O3 0.000000 0.500000 0.000000
O O4 0.882792 0.658111 0.972780
O O5 0.758688 0.314325 0.181506
O O6 0.863627 0.224808 0.268271
O O7 0.030306 0.172847 0.006773
O O8 0.400213 0.653189 0.274424
O O9 0.345377 0.500953 0.413661
O O10 0.252384 0.470024 0.295544
O O11 0.407556 0.314008 0.274126
O O12 0.742084 0.264113 0.015857
O O13 0.503484 0.288424 0.526605
O O14 0.206606 0.392419 0.633815
O O15 0.177519 0.212808 0.759561
O O16 0.193183 0.601567 0.626882
O O17 0.500000 0.000000 0.000000
#
# Coordination Sequence:
#
# PCOD9246727 Si02
#       8
#     4   4   4   4   4   4   4   4
#     4  11  19  32  57  95 118 149 212 268 306 358
#     4  11  22  37  61  93 120 163 211 262 310 376
#     4  11  20  38  61  85 126 164 205 254 319 372
#     4  10  21  42  62  84 130 169 197 268 321 367
#     4   9  17  34  52  82 124 149 193 259 315 357
#     4   9  18  35  58  88 125 152 210 256 312 380
#     4   9  15  29  57  86 106 156 199 249 307 360
#     4  10  22  38  57  93 120 159 210 253 314 384
#
# _framework density 24.787772
#
# number of rings (size 3 to 8) (size 9 to 14) (size 15 to 20)
#    0.000    2.000    6.250    1.500    5.250    0.500 
#    4.500    0.000    8.250    3.000    0.000    0.000 
#    0.000    0.000    0.000    0.000    0.000    0.000 
#
# Total GULP energy -178783.675631 kJ/mol
# GULP energy per Si atom -5586.989863 kJ/mol
# Density = 2.473135 g / cm^3
# Si number density = 24.787772 Si / 1000 Ang^3
#
#
#
# Elastic Constant Matrix: (Units=GPa)
#
#
# Indices 1 2 3 4 5 6 
#
# 1 46.1133 0.3357 15.1541 0.0000 -14.9284 0.0000
# 2 0.3357 69.6937 22.8572 0.0000 -2.6401 0.0000
# 3 15.1541 22.8572 132.5816 0.0000 -16.1583 0.0000
# 4 0.0000 0.0000 0.0000 29.8607 0.0000 -9.4903
# 5 -14.9284 -2.6401 -16.1583 0.0000 29.1473 0.0000
# 6 0.0000 0.0000 0.0000 -9.4903 0.0000 37.1911
#
#
#
# Elastic Compliance Matrix: (Units=1/GPa)
#
#
# Indices 1 2 3 4 5 6 
#
# 1 0.026308 0.000883 -0.001617 0.000000 0.012658 0.000000
# 2 0.000883 0.015238 -0.002686 0.000000 0.000343 0.000000
# 3 -0.001617 -0.002686 0.008644 0.000000 0.003721 0.000000
# 4 0.000000 0.000000 0.000000 0.036444 0.000000 0.009300
# 5 0.012658 0.000343 0.003721 0.000000 0.042885 0.000000
# 6 0.000000 0.000000 0.000000 0.009300 0.000000 0.029261
#
#
# Mechanical properties :
#
#
# Convention : Reuss Voigt Hill
#
# Bulk Modulus (GPa) = 23.06754 36.12029 29.59392
# Shear Modulus (GPa) = 27.76677 33.24259 30.50468
#
# Velocity S-wave (km/s) = 3.35054 3.66606 3.51185
# Velocity P-wave (km/s) = 4.92893 5.70293 5.33000
#
# Compressibility (1/GPa) = 0.04335095
#
# Stress axis : x y z
#
# Youngs Moduli (GPa) = 38.01066 65.62444 115.68924
#
# Poissons Ratio (x) = -0.05794 0.18702
# Poissons Ratio (y) = -0.03356 0.31076
# Poissons Ratio (z) = 0.06145 0.17628
#
# Static dielectric constant tensor:
#      x y z
#    x 2.028260 0.000000 -0.016140 
#    y 0.000000 2.089720 0.000000 
#    z -0.016140 0.000000 1.971220 
# 
# From -- ./inp_files/45069.got.cif
#   From: 2010.05.17/outbox.cif.g08.bks.cpg/sg14_23_cif.got.tgz:45069.got - 2010.06.03 17:49:19.
