data_PCOD9246106
_publ_section_title
;
Structure prediction by ZEFSAII (Michael W. Deem and Ramdas Pophale) SiO2 
 PCOD9246106
Probable space group: P 21/C
;
_chemical_formula_sum "Si O2"
_cell_formula_units_Z 32
_cell_length_a 12.003762
_cell_length_b 12.377261
_cell_length_c 22.364069
_cell_angle_alpha 90.000000
_cell_angle_beta 26.150576
_cell_angle_gamma 90.000000
_cell_volume 1464.424683
_symmetry_space_group_name_H-M "P 21/C"
_symmetry_group_IT_number 14
_symmetry_cell_setting 'monoclinic'
loop_
_space_group_symop_operation_xyz
x,y,z
-x,1/2+y,1/2-z
-x,-y,-z
x,1/2-y,1/2+z
loop_
_atom_site_type_symbol
_atom_site_label
_atom_site_fract_x
_atom_site_fract_y
_atom_site_fract_z
Si Si1 0.917034 0.020313 0.107413
Si Si2 0.527396 0.637708 0.779377
Si Si3 0.523074 0.781214 0.028870
Si Si4 0.637729 0.815108 0.803197
Si Si5 0.529756 0.281721 0.809688
Si Si6 0.013684 0.201932 0.768862
Si Si7 0.718964 0.011221 0.963034
Si Si8 0.758581 0.928226 0.618895
O O1 0.751770 0.129520 0.195091
O O2 0.795188 0.901411 0.177887
O O3 0.148041 0.033816 0.041252
O O4 0.000000 0.000000 0.000000
O O5 0.448686 0.720079 0.869935
O O6 0.466414 0.698773 0.747148
O O7 0.443584 0.518126 0.801727
O O8 0.471620 0.761718 0.123452
O O9 0.258882 0.754116 0.122747
O O10 0.762366 0.713984 0.888261
O O11 0.598961 0.908105 0.987836
O O12 0.726103 0.870604 0.698271
O O13 0.862896 0.768341 0.735517
O O14 0.485047 0.902745 0.914647
O O15 0.263905 0.341277 0.922785
O O16 0.934683 0.078840 0.823657
O O17 0.000000 0.000000 0.500000
#
# Coordination Sequence:
#
# PCOD9246106 Si02
#       8
#     4   4   4   4   4   4   4   4
#     4  11  21  39  69 107 137 186 236 296 369 444
#     4  10  21  40  63 100 141 171 228 287 364 433
#     4  12  27  50  73 103 145 193 252 306 362 433
#     4  11  24  44  72 103 139 188 237 293 372 439
#     4  10  23  42  65 101 141 185 231 296 362 425
#     4  12  27  47  73 103 137 197 250 304 361 434
#     4  12  25  48  74 101 141 191 245 298 370 440
#     4  10  23  38  65 103 137 177 223 290 359 433
#
# _framework density 21.851585
#
# number of rings (size 3 to 8) (size 9 to 14) (size 15 to 20)
#    0.000    1.000    2.500    4.875    1.750    5.000 
#    0.000    1.250    0.000    0.000    0.000    0.000 
#    0.000    0.000    0.000    0.000    0.000    0.000 
#
# Total GULP energy -178204.645482 kJ/mol
# GULP energy per Si atom -5568.895171 kJ/mol
# Density = 2.180185 g / cm^3
# Si number density = 21.851585 Si / 1000 Ang^3
#
#
#
# Elastic Constant Matrix: (Units=GPa)
#
#
# Indices 1 2 3 4 5 6 
#
# 1 130.8391 51.8499 27.6233 0.0000 -3.5633 0.0000
# 2 51.8499 104.4834 31.8218 0.0000 2.9924 0.0000
# 3 27.6233 31.8218 68.9086 0.0000 -2.6214 0.0000
# 4 0.0000 0.0000 0.0000 30.8587 0.0000 0.7677
# 5 -3.5633 2.9924 -2.6214 0.0000 31.5985 0.0000
# 6 0.0000 0.0000 0.0000 0.7677 0.0000 42.0473
#
#
#
# Elastic Compliance Matrix: (Units=1/GPa)
#
#
# Indices 1 2 3 4 5 6 
#
# 1 0.009790 -0.004326 -0.001875 0.000000 0.001358 0.000000
# 2 -0.004326 0.013119 -0.004404 0.000000 -0.002096 0.000000
# 3 -0.001875 -0.004404 0.017360 0.000000 0.001646 0.000000
# 4 0.000000 0.000000 0.000000 0.032420 0.000000 -0.000592
# 5 0.001358 -0.002096 0.001646 0.000000 0.032135 0.000000
# 6 0.000000 0.000000 0.000000 -0.000592 0.000000 0.023794
#
#
# Mechanical properties :
#
#
# Convention : Reuss Voigt Hill
#
# Bulk Modulus (GPa) = 52.46877 58.53567 55.50222
# Shear Modulus (GPa) = 32.01398 33.76331 32.88864
#
# Velocity S-wave (km/s) = 3.83177 3.93507 3.88376
# Velocity P-wave (km/s) = 6.60607 6.89147 6.75028
#
# Compressibility (1/GPa) = 0.01905896
#
# Stress axis : x y z
#
# Youngs Moduli (GPa) = 102.14218 76.22505 57.60392
#
# Poissons Ratio (x) = 0.32977 0.10801
# Poissons Ratio (y) = 0.44189 0.25368
# Poissons Ratio (z) = 0.19153 0.33568
#
# Static dielectric constant tensor:
#      x y z
#    x 1.749550 0.000000 0.013440 
#    y 0.000000 1.983580 0.000000 
#    z 0.013440 0.000000 1.841470 
# 
# From -- ./inp_files/67395.got.cif
#   From: 2010.05.17/outbox.cif.g08.bks.cpg/sg14_34_cif.got.tgz:67395.got - 2010.06.03 17:49:19.
