data_PCOD9246856
_publ_section_title
;
Structure prediction by ZEFSAII (Michael W. Deem and Ramdas Pophale) SiO2 
 PCOD9246856
Probable space group: P 21/C
;
_chemical_formula_sum "Si O2"
_cell_formula_units_Z 28
_cell_length_a 10.103532
_cell_length_b 5.082761
_cell_length_c 20.893533
_cell_angle_alpha 90.000000
_cell_angle_beta 111.753819
_cell_angle_gamma 90.000000
_cell_volume 996.551890
_symmetry_space_group_name_H-M "P 21/C"
_symmetry_group_IT_number 14
_symmetry_cell_setting 'monoclinic'
loop_
_space_group_symop_operation_xyz
x,y,z
-x,1/2+y,1/2-z
-x,-y,-z
x,1/2-y,1/2+z
loop_
_atom_site_type_symbol
_atom_site_label
_atom_site_fract_x
_atom_site_fract_y
_atom_site_fract_z
Si Si1 0.063198 0.714698 0.608724
Si Si2 0.826036 0.403204 0.503487
Si Si3 0.636848 0.698800 0.907247
Si Si4 0.431640 0.196709 0.879578
Si Si5 0.901977 0.216031 0.743546
Si Si6 0.217360 0.980047 0.404334
Si Si7 0.597075 0.626616 0.763299
O O1 0.969894 0.462334 0.569178
O O2 0.150170 0.755857 0.558790
O O3 0.146511 0.695839 0.690930
O O4 0.939474 0.921520 0.604249
O O5 0.765398 0.686060 0.471677
O O6 0.733130 0.227787 0.534364
O O7 0.521792 0.932353 0.898300
O O8 0.687368 0.692517 0.841991
O O9 0.544909 0.435989 0.898356
O O10 0.321722 0.274303 0.914337
O O11 0.345122 0.178183 0.796816
O O12 0.792007 0.154571 0.667201
O O13 0.976084 0.493106 0.741710
O O14 0.466188 0.834189 0.744774
#
# Coordination Sequence:
#
# PCOD9246856 Si02
#       7
#     4   4   4   4   4   4   4
#     4  10  24  45  66  98 132 180 226 280 333 406
#     4  11  24  43  69  93 141 175 228 272 344 398
#     4  10  23  41  64 100 131 181 215 273 334 409
#     4  10  23  40  67  96 137 170 225 273 332 400
#     4  10  21  42  67  95 129 170 224 274 330 389
#     4  11  24  41  70  97 138 174 225 282 341 396
#     4   8  16  36  58  87 126 165 215 258 314 386
#
# _framework density 28.096882000000001
#
# number of rings (size 3 to 8) (size 9 to 14) (size 15 to 20)
#    0.000    2.000    1.429    0.429    6.000    1.143 
#    0.000    0.000    3.143    0.000    0.000    0.000 
#    0.000    0.000    0.000    0.000    0.000    0.000 
#
# Total GULP energy -156981.016367 kJ/mol
# GULP energy per Si atom -5606.464870 kJ/mol
# Density = 2.803293 g / cm^3
# Si number density = 28.096882 Si / 1000 Ang^3
#
#
#
# Elastic Constant Matrix: (Units=GPa)
#
#
# Indices 1 2 3 4 5 6 
#
# 1 70.9336 45.7290 47.1307 0.0000 -13.8277 0.0000
# 2 45.7290 119.9574 26.8676 0.0000 -2.3862 0.0000
# 3 47.1307 26.8676 208.6315 0.0000 -24.4002 0.0000
# 4 0.0000 0.0000 0.0000 39.2193 0.0000 -8.9611
# 5 -13.8277 -2.3862 -24.4002 0.0000 39.0777 0.0000
# 6 0.0000 0.0000 0.0000 -8.9611 0.0000 42.8462
#
#
#
# Elastic Compliance Matrix: (Units=1/GPa)
#
#
# Indices 1 2 3 4 5 6 
#
# 1 0.022343 -0.007641 -0.003445 0.000000 0.005289 0.000000
# 2 -0.007641 0.011198 0.000052 0.000000 -0.001988 0.000000
# 3 -0.003445 0.000052 0.005850 0.000000 0.002437 0.000000
# 4 0.000000 0.000000 0.000000 0.026777 0.000000 0.005600
# 5 0.005289 -0.001988 0.002437 0.000000 0.028862 0.000000
# 6 0.000000 0.000000 0.000000 0.005600 0.000000 0.024511
#
#
# Mechanical properties :
#
#
# Convention : Reuss Voigt Hill
#
# Bulk Modulus (GPa) = 57.72775 70.99747 64.36261
# Shear Modulus (GPa) = 33.92521 42.88165 38.40343
#
# Velocity S-wave (km/s) = 3.47859 3.91091 3.70107
# Velocity P-wave (km/s) = 6.06009 6.76145 6.42036
#
# Compressibility (1/GPa) = 0.01732269
#
# Stress axis : x y z
#
# Youngs Moduli (GPa) = 44.75596 89.30211 170.94835
#
# Poissons Ratio (x) = 0.68233 0.58891
# Poissons Ratio (y) = 0.34197 -0.00881
# Poissons Ratio (z) = 0.15418 -0.00460
#
# Static dielectric constant tensor:
#      x y z
#    x 2.133100 0.000000 0.001530 
#    y 0.000000 2.206170 0.000000 
#    z 0.001530 0.000000 2.261540 
# 
# From -- ./inp_files/66517.got.cif
#   From: 2010.05.17/outbox.cif.g08.bks.cpg/sg14_34_cif.got.tgz:66517.got - 2010.06.03 17:49:19.
