data_PCOD9246875
_publ_section_title
;
Structure prediction by ZEFSAII (Michael W. Deem and Ramdas Pophale) SiO2 
 PCOD9246875
Probable space group: P 21/C
;
_chemical_formula_sum "Si O2"
_cell_formula_units_Z 26
_cell_length_a 9.216712
_cell_length_b 18.382108
_cell_length_c 8.487749
_cell_angle_alpha 90.000000
_cell_angle_beta 46.718847
_cell_angle_gamma 90.000000
_cell_volume 1046.873560
_symmetry_space_group_name_H-M "P 21/C"
_symmetry_group_IT_number 14
_symmetry_cell_setting 'monoclinic'
loop_
_space_group_symop_operation_xyz
x,y,z
-x,1/2+y,1/2-z
-x,-y,-z
x,1/2-y,1/2+z
loop_
_atom_site_type_symbol
_atom_site_label
_atom_site_fract_x
_atom_site_fract_y
_atom_site_fract_z
Si Si1 0.631116 0.087966 0.962820
Si Si2 0.711651 0.213786 0.119599
Si Si3 0.870658 0.774775 0.023282
Si Si4 0.000000 0.500000 0.000000
Si Si5 0.794902 0.644768 0.266669
Si Si6 0.353154 0.514012 0.862232
Si Si7 0.510842 0.343304 0.074712
O O1 0.741646 0.153763 0.961261
O O2 0.431547 0.119844 0.029997
O O3 0.539051 0.032226 0.159371
O O4 0.744337 0.046606 0.736202
O O5 0.625265 0.286471 0.105374
O O6 0.563344 0.179737 0.359304
O O7 0.911319 0.225352 0.067501
O O8 0.869818 0.801229 0.845738
O O9 0.785929 0.694622 0.118627
O O10 0.720823 0.830572 0.220187
O O11 0.929995 0.574782 0.153760
O O12 0.847501 0.528586 0.957061
O O13 0.417642 0.576081 0.932065
#
# Coordination Sequence:
#
# PCOD9246875 Si02
#       7
#     4   4   4   2   4   4   4
#     4  10  22  43  66  93 133 179 222 282 346 415
#     4  12  25  41  67 100 133 175 230 282 350 408
#     4  12  24  42  70 103 135 185 229 296 353 421
#     4  10  22  40  72 102 128 190 236 278 338 442
#     4  11  23  44  68  99 139 179 239 287 359 415
#     4  10  21  42  68  92 134 179 227 278 344 416
#     4  12  24  43  67  99 140 175 227 296 344 417
#
# _framework density 24.835854000000001
#
# number of rings (size 3 to 8) (size 9 to 14) (size 15 to 20)
#    0.000    0.923    3.077    4.615    0.000    1.846 
#    2.769    0.769    0.000    0.000    0.000    0.000 
#    0.000    0.000    0.000    0.000    0.000    0.000 
#
# Total GULP energy -145304.381541 kJ/mol
# GULP energy per Si atom -5588.630059 kJ/mol
# Density = 2.477933 g / cm^3
# Si number density = 24.835854 Si / 1000 Ang^3
#
#
#
# Elastic Constant Matrix: (Units=GPa)
#
#
# Indices 1 2 3 4 5 6 
#
# 1 85.1191 25.0257 28.5568 0.0000 -0.3480 0.0000
# 2 25.0257 91.9449 23.1238 0.0000 10.8064 0.0000
# 3 28.5568 23.1238 90.0188 0.0000 -2.3166 0.0000
# 4 0.0000 0.0000 0.0000 37.6444 0.0000 15.7919
# 5 -0.3480 10.8064 -2.3166 0.0000 26.8562 0.0000
# 6 0.0000 0.0000 0.0000 15.7919 0.0000 42.2139
#
#
#
# Elastic Compliance Matrix: (Units=1/GPa)
#
#
# Indices 1 2 3 4 5 6 
#
# 1 0.013837 -0.002988 -0.003594 0.000000 0.001072 0.000000
# 2 -0.002988 0.012968 -0.002524 0.000000 -0.005474 0.000000
# 3 -0.003594 -0.002524 0.012951 0.000000 0.002086 0.000000
# 4 0.000000 0.000000 0.000000 0.031509 0.000000 -0.011787
# 5 0.001072 -0.005474 0.002086 0.000000 0.039632 0.000000
# 6 0.000000 0.000000 0.000000 -0.011787 0.000000 0.028098
#
#
# Mechanical properties :
#
#
# Convention : Reuss Voigt Hill
#
# Bulk Modulus (GPa) = 46.41965 46.72171 46.57068
# Shear Modulus (GPa) = 30.41561 34.03467 32.22514
#
# Velocity S-wave (km/s) = 3.50332 3.70589 3.60603
# Velocity P-wave (km/s) = 5.92414 6.09627 6.01082
#
# Compressibility (1/GPa) = 0.02154260
#
# Stress axis : x y z
#
# Youngs Moduli (GPa) = 72.26970 77.11536 77.21353
#
# Poissons Ratio (x) = 0.23043 0.27753
# Poissons Ratio (y) = 0.21595 0.19489
# Poissons Ratio (z) = 0.25976 0.19464
#
# Static dielectric constant tensor:
#      x y z
#    x 2.087820 0.000000 -0.124730 
#    y 0.000000 2.020250 0.000000 
#    z -0.124730 0.000000 2.229390 
# 
# From -- ./inp_files/10306.got.cif
#   From: 2010.05.17/outbox.cif.g08.bks.cpg/sg14_6_cif.got.tgz:10306.got - 2010.06.03 17:49:19.
