data_PCOD9246997
_publ_section_title
;
Structure prediction by ZEFSAII (Michael W. Deem and Ramdas Pophale) SiO2 
 PCOD9246997
Probable space group: P 21/C
;
_chemical_formula_sum "Si O2"
_cell_formula_units_Z 28
_cell_length_a 7.283147
_cell_length_b 16.725150
_cell_length_c 11.817330
_cell_angle_alpha 90.000000
_cell_angle_beta 126.693722
_cell_angle_gamma 90.000000
_cell_volume 1154.241768
_symmetry_space_group_name_H-M "P 21/C"
_symmetry_group_IT_number 14
_symmetry_cell_setting 'monoclinic'
loop_
_space_group_symop_operation_xyz
x,y,z
-x,1/2+y,1/2-z
-x,-y,-z
x,1/2-y,1/2+z
loop_
_atom_site_type_symbol
_atom_site_label
_atom_site_fract_x
_atom_site_fract_y
_atom_site_fract_z
Si Si1 0.876089 0.328657 0.956087
Si Si2 0.288077 0.358767 0.955718
Si Si3 0.687319 0.957895 0.152224
Si Si4 0.292824 0.694449 0.747583
Si Si5 0.836594 0.781670 0.230838
Si Si6 0.398386 0.517919 0.122422
Si Si7 0.876866 0.480007 0.339086
O O1 0.706651 0.261341 0.848020
O O2 0.746533 0.403893 0.961930
O O3 0.030537 0.359603 0.909991
O O4 0.060634 0.289867 0.107048
O O5 0.270268 0.303339 0.838606
O O6 0.333428 0.462624 0.766653
O O7 0.366000 0.448021 0.018884
O O8 0.680771 0.860476 0.150309
O O9 0.935078 0.977639 0.189752
O O10 0.672969 0.987966 0.277019
O O11 0.500000 0.000000 0.000000
O O12 0.066833 0.710190 0.739439
O O13 0.244812 0.605392 0.686441
O O14 0.525341 0.692472 0.903297
O O15 0.000000 0.500000 0.500000
#
# Coordination Sequence:
#
# PCOD9246997 Si02
#       7
#     4   4   4   4   4   4   4
#     4  11  23  43  69 100 139 184 235 297 361 423
#     4  10  22  44  67  95 141 183 232 295 353 424
#     4  11  22  40  73 106 140 188 241 289 365 435
#     4   9  23  42  63  96 140 176 234 294 351 420
#     4  10  23  43  64  98 138 179 236 287 357 429
#     4  11  23  43  72 106 145 188 239 305 354 433
#     4  10  21  43  66 107 145 183 240 295 359 434
#
# _framework density 24.258347000000001
#
# number of rings (size 3 to 8) (size 9 to 14) (size 15 to 20)
#    0.000    1.714    2.857    0.429    2.000    2.286 
#    7.714    2.143    0.000    0.000    0.000    0.000 
#    0.000    0.000    0.000    0.000    0.000    0.000 
#
# Total GULP energy -156609.300978 kJ/mol
# GULP energy per Si atom -5593.189321 kJ/mol
# Density = 2.420313 g / cm^3
# Si number density = 24.258347 Si / 1000 Ang^3
#
#
#
# Elastic Constant Matrix: (Units=GPa)
#
#
# Indices 1 2 3 4 5 6 
#
# 1 112.2559 53.2627 29.3767 0.0000 5.2802 0.0000
# 2 53.2627 162.5093 74.8053 0.0000 8.9477 0.0000
# 3 29.3767 74.8053 106.9834 0.0000 2.1451 0.0000
# 4 0.0000 0.0000 0.0000 30.1800 0.0000 -4.2064
# 5 5.2802 8.9477 2.1451 0.0000 39.1402 0.0000
# 6 0.0000 0.0000 0.0000 -4.2064 0.0000 26.4367
#
#
#
# Elastic Compliance Matrix: (Units=1/GPa)
#
#
# Indices 1 2 3 4 5 6 
#
# 1 0.010603 -0.003102 -0.000729 0.000000 -0.000681 0.000000
# 2 -0.003102 0.010100 -0.006179 0.000000 -0.001552 0.000000
# 3 -0.000729 -0.006179 0.013853 0.000000 0.000752 0.000000
# 4 0.000000 0.000000 0.000000 0.033886 0.000000 0.005392
# 5 -0.000681 -0.001552 0.000752 0.000000 0.025955 0.000000
# 6 0.000000 0.000000 0.000000 0.005392 0.000000 0.038684
#
#
# Mechanical properties :
#
#
# Convention : Reuss Voigt Hill
#
# Bulk Modulus (GPa) = 68.79639 77.40422 73.10030
# Shear Modulus (GPa) = 31.65635 34.10496 32.88066
#
# Velocity S-wave (km/s) = 3.61635 3.75361 3.68562
# Velocity P-wave (km/s) = 6.77191 7.12486 6.95063
#
# Compressibility (1/GPa) = 0.01453565
#
# Stress axis : x y z
#
# Youngs Moduli (GPa) = 94.31419 99.00903 72.18673
#
# Poissons Ratio (x) = 0.30714 0.05260
# Poissons Ratio (y) = 0.29258 0.44606
# Poissons Ratio (z) = 0.06872 0.61180
#
# Static dielectric constant tensor:
#      x y z
#    x 2.022530 0.000000 -0.096790 
#    y 0.000000 1.959710 0.000000 
#    z -0.096790 0.000000 1.967000 
# 
# From -- ./inp_files/29847.got.cif
#   From: 2010.05.17/outbox.cif.g08.bks.cpg/sg14_15_cif.got.tgz:29847.got - 2010.06.03 17:49:19.
