data_PCOD9246487
_publ_section_title
;
Structure prediction by ZEFSAII (Michael W. Deem and Ramdas Pophale) SiO2 
 PCOD9246487
Probable space group: P 21/C
;
_chemical_formula_sum "Si O2"
_cell_formula_units_Z 20
_cell_length_a 7.003922
_cell_length_b 13.790373
_cell_length_c 9.646084
_cell_angle_alpha 90.000000
_cell_angle_beta 105.898488
_cell_angle_gamma 90.000000
_cell_volume 896.045140
_symmetry_space_group_name_H-M "P 21/C"
_symmetry_group_IT_number 14
_symmetry_cell_setting 'monoclinic'
loop_
_space_group_symop_operation_xyz
x,y,z
-x,1/2+y,1/2-z
-x,-y,-z
x,1/2-y,1/2+z
loop_
_atom_site_type_symbol
_atom_site_label
_atom_site_fract_x
_atom_site_fract_y
_atom_site_fract_z
Si Si1 0.879038 0.268018 0.532097
Si Si2 0.295811 0.649308 0.768877
Si Si3 0.435120 0.453727 0.843936
Si Si4 0.330574 0.231466 0.190007
Si Si5 0.599671 0.416056 0.607085
O O1 0.755055 0.184451 0.586160
O O2 0.836655 0.286429 0.361911
O O3 0.794134 0.367533 0.583360
O O4 0.106249 0.247829 0.610160
O O5 0.280629 0.533801 0.753149
O O6 0.520111 0.678745 0.769126
O O7 0.347059 0.345315 0.821154
O O8 0.616300 0.448312 0.770220
O O9 0.500000 0.500000 0.000000
O O10 0.432302 0.167765 0.088061
O O11 0.500000 0.500000 0.500000
#
# Coordination Sequence:
#
# PCOD9246487 Si02
#       5
#     4   4   4   4   4
#     4  11  22  41  61  92 126 166 210 256 318 373
#     4  11  23  39  65  90 127 166 208 259 312 374
#     4  10  21  41  64  88 127 166 203 262 312 364
#     4   9  23  41  62  90 129 158 214 257 311 376
#     4   9  19  39  62  85 120 162 202 259 311 368
#
# _framework density 22.320302999999999
#
# number of rings (size 3 to 8) (size 9 to 14) (size 15 to 20)
#    1.200    0.800    2.000    1.200    0.000    8.000 
#    3.600    1.000    0.000    0.000    0.000    0.000 
#    0.000    0.000    0.000    0.000    0.000    0.000 
#
# Total GULP energy -111471.181886 kJ/mol
# GULP energy per Si atom -5573.559094 kJ/mol
# Density = 2.226950 g / cm^3
# Si number density = 22.320303 Si / 1000 Ang^3
#
#
#
# Elastic Constant Matrix: (Units=GPa)
#
#
# Indices 1 2 3 4 5 6 
#
# 1 64.1683 7.9703 18.1850 0.0000 22.3953 0.0000
# 2 7.9703 71.5777 -4.3713 0.0000 1.9253 0.0000
# 3 18.1850 -4.3713 74.4348 0.0000 -3.7462 0.0000
# 4 0.0000 0.0000 0.0000 28.8968 0.0000 -2.8189
# 5 22.3953 1.9253 -3.7462 0.0000 42.1126 0.0000
# 6 0.0000 0.0000 0.0000 -2.8189 0.0000 9.2138
#
#
#
# Elastic Compliance Matrix: (Units=1/GPa)
#
#
# Indices 1 2 3 4 5 6 
#
# 1 0.021812 -0.002477 -0.006080 0.000000 -0.012027 0.000000
# 2 -0.002477 0.014316 0.001486 0.000000 0.000795 0.000000
# 3 -0.006080 0.001486 0.015235 0.000000 0.004520 0.000000
# 4 0.000000 0.000000 0.000000 0.035671 0.000000 0.010913
# 5 -0.012027 0.000795 0.004520 0.000000 0.030508 0.000000
# 6 0.000000 0.000000 0.000000 0.010913 0.000000 0.111871
#
#
# Mechanical properties :
#
#
# Convention : Reuss Voigt Hill
#
# Bulk Modulus (GPa) = 26.86595 28.19432 27.53014
# Shear Modulus (GPa) = 19.53425 28.60442 24.06933
#
# Velocity S-wave (km/s) = 2.96155 3.58375 3.28740
# Velocity P-wave (km/s) = 4.87412 5.45742 5.17400
#
# Compressibility (1/GPa) = 0.03722184
#
# Stress axis : x y z
#
# Youngs Moduli (GPa) = 45.84592 69.85207 65.63982
#
# Poissons Ratio (x) = 0.17300 0.39907
# Poissons Ratio (y) = 0.11354 -0.09753
# Poissons Ratio (z) = 0.27873 -0.10378
#
# Static dielectric constant tensor:
#      x y z
#    x 1.804410 0.000000 -0.048410 
#    y 0.000000 1.845600 0.000000 
#    z -0.048410 0.000000 1.922310 
# 
# From -- ./inp_files/13637.got.cif
#   From: 2010.05.17/outbox.cif.g08.bks.cpg/sg14_7_cif.got.tgz:13637.got - 2010.06.03 17:49:19.
