data_PCOD9246236
_publ_section_title
;
Structure prediction by ZEFSAII (Michael W. Deem and Ramdas Pophale) SiO2 
 PCOD9246236
Probable space group: P 21/C
;
_chemical_formula_sum "Si O2"
_cell_formula_units_Z 24
_cell_length_a 8.468202
_cell_length_b 9.765997
_cell_length_c 30.882111
_cell_angle_alpha 90.000000
_cell_angle_beta 29.625726
_cell_angle_gamma 90.000000
_cell_volume 1262.506713
_symmetry_space_group_name_H-M "P 21/C"
_symmetry_group_IT_number 14
_symmetry_cell_setting 'monoclinic'
loop_
_space_group_symop_operation_xyz
x,y,z
-x,1/2+y,1/2-z
-x,-y,-z
x,1/2-y,1/2+z
loop_
_atom_site_type_symbol
_atom_site_label
_atom_site_fract_x
_atom_site_fract_y
_atom_site_fract_z
Si Si1 0.704894 0.396451 0.069410
Si Si2 0.451351 0.145564 0.534142
Si Si3 0.657642 0.535360 0.759187
Si Si4 0.758271 0.281521 0.680433
Si Si5 0.014417 0.121974 0.031262
Si Si6 0.641459 0.114839 0.934111
O O1 0.542624 0.376090 0.061932
O O2 0.456473 0.448866 0.164485
O O3 0.857194 0.252754 0.046761
O O4 0.000000 0.500000 0.000000
O O5 0.680413 0.251611 0.454505
O O6 0.098812 0.213092 0.612572
O O7 0.500000 0.000000 0.500000
O O8 0.610893 0.382703 0.751311
O O9 0.462869 0.653927 0.780179
O O10 0.030396 0.565689 0.664324
O O11 0.827972 0.380530 0.622077
O O12 0.379334 0.142448 0.959537
O O13 0.000000 0.000000 0.000000
O O14 0.500000 0.000000 0.000000
#
# Coordination Sequence:
#
# PCOD9246236 Si02
#       6
#     4   4   4   4   4   4
#     4  11  25  44  64  96 133 170 217 273 322 391
#     4  11  23  45  68  93 132 175 218 268 333 386
#     4  11  24  44  64 100 130 168 227 266 328 392
#     4  10  24  42  65  96 130 175 217 267 329 390
#     4  10  21  40  65  96 126 165 216 264 325 381
#     4  11  21  42  69  95 129 172 214 267 325 391
#
# _framework density 19.009798
#
# number of rings (size 3 to 8) (size 9 to 14) (size 15 to 20)
#    0.000    1.333    3.333    4.000    4.667    0.000 
#    9.000    0.000    0.000    0.000    0.000    0.000 
#    0.000    0.000    0.000    0.000    0.000    0.000 
#
# Total GULP energy -133973.158459 kJ/mol
# GULP energy per Si atom -5582.214936 kJ/mol
# Density = 1.896653 g / cm^3
# Si number density = 19.009798 Si / 1000 Ang^3
#
#
#
# Elastic Constant Matrix: (Units=GPa)
#
#
# Indices 1 2 3 4 5 6 
#
# 1 144.8412 42.7956 60.1496 0.0000 26.0936 0.0000
# 2 42.7956 111.7214 42.9888 0.0000 30.0641 0.0000
# 3 60.1496 42.9888 118.4759 0.0000 7.5856 0.0000
# 4 0.0000 0.0000 0.0000 41.1579 0.0000 3.5842
# 5 26.0936 30.0641 7.5856 0.0000 28.2010 0.0000
# 6 0.0000 0.0000 0.0000 3.5842 0.0000 34.2281
#
#
#
# Elastic Compliance Matrix: (Units=1/GPa)
#
#
# Indices 1 2 3 4 5 6 
#
# 1 0.010369 0.000142 -0.004774 0.000000 -0.008462 0.000000
# 2 0.000142 0.014451 -0.004397 0.000000 -0.014354 0.000000
# 3 -0.004774 -0.004397 0.012085 0.000000 0.005854 0.000000
# 4 0.000000 0.000000 0.000000 0.024520 0.000000 -0.002568
# 5 -0.008462 -0.014354 0.005854 0.000000 0.057017 0.000000
# 6 0.000000 0.000000 0.000000 -0.002568 0.000000 0.029485
#
#
# Mechanical properties :
#
#
# Convention : Reuss Voigt Hill
#
# Bulk Modulus (GPa) = 53.05724 74.10075 63.57899
# Shear Modulus (GPa) = 29.02480 35.99104 32.50792
#
# Velocity S-wave (km/s) = 3.91171 4.35591 4.13977
# Velocity P-wave (km/s) = 6.95507 8.02269 7.50788
#
# Compressibility (1/GPa) = 0.01884757
#
# Stress axis : x y z
#
# Youngs Moduli (GPa) = 96.44027 69.19982 82.74844
#
# Poissons Ratio (x) = -0.00983 0.39505
# Poissons Ratio (y) = -0.01370 0.36381
# Poissons Ratio (z) = 0.46042 0.30424
#
# Static dielectric constant tensor:
#      x y z
#    x 1.619030 0.000000 -0.008460 
#    y 0.000000 1.657110 0.000000 
#    z -0.008460 0.000000 1.649390 
# 
# From -- ./inp_files/79427.got.cif
#   From: 2010.05.17/outbox.cif.g08.bks.cpg/sg14_40_cif.got.tgz:79427.got - 2010.06.03 17:49:19.
