data_PCOD9246109
_publ_section_title
;
Structure prediction by ZEFSAII (Michael W. Deem and Ramdas Pophale) SiO2 
 PCOD9246109
Probable space group: P 21/C
;
_chemical_formula_sum "Si O2"
_cell_formula_units_Z 32
_cell_length_a 19.330793
_cell_length_b 5.365945
_cell_length_c 31.974065
_cell_angle_alpha 90.000000
_cell_angle_beta 153.875611
_cell_angle_gamma 90.000000
_cell_volume 1460.372095
_symmetry_space_group_name_H-M "P 21/C"
_symmetry_group_IT_number 14
_symmetry_cell_setting 'monoclinic'
loop_
_space_group_symop_operation_xyz
x,y,z
-x,1/2+y,1/2-z
-x,-y,-z
x,1/2-y,1/2+z
loop_
_atom_site_type_symbol
_atom_site_label
_atom_site_fract_x
_atom_site_fract_y
_atom_site_fract_z
Si Si1 0.049584 0.133132 0.944470
Si Si2 0.050460 0.300810 0.253676
Si Si3 0.505247 0.395937 0.807042
Si Si4 0.577304 0.748154 0.560443
Si Si5 0.634620 0.826927 0.186465
Si Si6 0.996015 0.339267 0.128394
Si Si7 0.740212 0.607532 0.879036
Si Si8 0.735609 0.280868 0.804391
O O1 0.038230 0.392001 0.911479
O O2 0.874127 0.096821 0.867224
O O3 0.161696 0.181254 0.044689
O O4 0.093272 0.895521 0.940471
O O5 0.237075 0.256555 0.349300
O O6 0.976597 0.347019 0.167659
O O7 0.020061 0.550541 0.264028
O O8 0.467946 0.315845 0.834284
O O9 0.677463 0.435233 0.882673
O O10 0.413143 0.206333 0.727834
O O11 0.407078 0.650603 0.750115
O O12 0.500000 0.500000 0.500000
O O13 0.558929 0.718745 0.600518
O O14 0.500000 0.000000 0.500000
O O15 0.819499 0.772337 0.278970
O O16 0.659003 0.096582 0.221606
O O17 0.818676 0.468890 0.882315
#
# Coordination Sequence:
#
# PCOD9246109 Si02
#       8
#     4   4   4   4   4   4   4   4
#     4  11  23  40  63  96 122 162 219 271 306 371
#     4  11  23  45  72  98 137 180 217 274 350 414
#     4  11  21  40  60  85 126 173 214 251 331 386
#     4  11  25  45  72 106 137 174 229 285 336 408
#     4   9  22  41  66  89 124 175 213 262 323 401
#     4  10  22  42  66  92 126 167 214 259 327 390
#     4  11  24  37  59  89 124 168 210 269 313 376
#     4  10  21  40  63  86 122 169 218 254 320 387
#
# _framework density 21.912226
#
# number of rings (size 3 to 8) (size 9 to 14) (size 15 to 20)
#    0.000    1.500    2.500    1.875    3.500    2.500 
#    6.750    0.000    0.000    0.000    0.000    0.000 
#    0.000    0.000    0.000    0.000    0.000    0.000 
#
# Total GULP energy -178496.463372 kJ/mol
# GULP energy per Si atom -5578.014480 kJ/mol
# Density = 2.186235 g / cm^3
# Si number density = 21.912226 Si / 1000 Ang^3
#
#
#
# Elastic Constant Matrix: (Units=GPa)
#
#
# Indices 1 2 3 4 5 6 
#
# 1 132.5051 38.1184 36.4215 0.0000 -34.9815 0.0000
# 2 38.1184 92.6131 34.7257 0.0000 -18.5713 0.0000
# 3 36.4215 34.7257 62.8282 0.0000 -27.5851 0.0000
# 4 0.0000 0.0000 0.0000 19.8634 0.0000 5.0271
# 5 -34.9815 -18.5713 -27.5851 0.0000 26.7313 0.0000
# 6 0.0000 0.0000 0.0000 5.0271 0.0000 20.6560
#
#
#
# Elastic Compliance Matrix: (Units=1/GPa)
#
#
# Indices 1 2 3 4 5 6 
#
# 1 0.011883 -0.002235 0.000901 0.000000 0.014927 0.000000
# 2 -0.002235 0.014183 -0.006402 0.000000 0.000322 0.000000
# 3 0.000901 -0.006402 0.031993 0.000000 0.029746 0.000000
# 4 0.000000 0.000000 0.000000 0.053648 0.000000 -0.013056
# 5 0.014927 0.000322 0.029746 0.000000 0.087863 0.000000
# 6 0.000000 0.000000 0.000000 -0.013056 0.000000 0.051590
#
#
# Mechanical properties :
#
#
# Convention : Reuss Voigt Hill
#
# Bulk Modulus (GPa) = 23.48223 56.27530 39.87876
# Shear Modulus (GPa) = 17.80457 25.36219 21.58338
#
# Velocity S-wave (km/s) = 2.85360 3.40581 3.14186
# Velocity P-wave (km/s) = 4.64727 6.41903 5.60362
#
# Compressibility (1/GPa) = 0.04258539
#
# Stress axis : x y z
#
# Youngs Moduli (GPa) = 84.15271 70.50927 31.25729
#
# Poissons Ratio (x) = 0.15762 -0.02816
# Poissons Ratio (y) = 0.18812 0.20010
# Poissons Ratio (z) = -0.07580 0.45138
#
# Static dielectric constant tensor:
#      x y z
#    x 1.831160 0.000000 0.015340 
#    y 0.000000 1.878540 0.000000 
#    z 0.015340 0.000000 1.904670 
# 
# From -- ./inp_files/80339.got.cif
#   From: 2010.05.17/outbox.cif.g08.bks.cpg/sg14_41_cif.got.tgz:80339.got - 2010.06.03 17:49:19.
