data_PCOD9246279
_publ_section_title
;
Structure prediction by ZEFSAII (Michael W. Deem and Ramdas Pophale) SiO2 
 PCOD9246279
Probable space group: P 21/C
;
_chemical_formula_sum "Si O2"
_cell_formula_units_Z 28
_cell_length_a 5.228661
_cell_length_b 10.561722
_cell_length_c 25.391374
_cell_angle_alpha 90.000000
_cell_angle_beta 51.386111
_cell_angle_gamma 90.000000
_cell_volume 1095.639590
_symmetry_space_group_name_H-M "P 21/C"
_symmetry_group_IT_number 14
_symmetry_cell_setting 'monoclinic'
loop_
_space_group_symop_operation_xyz
x,y,z
-x,1/2+y,1/2-z
-x,-y,-z
x,1/2-y,1/2+z
loop_
_atom_site_type_symbol
_atom_site_label
_atom_site_fract_x
_atom_site_fract_y
_atom_site_fract_z
Si Si1 0.954230 0.437232 0.672104
Si Si2 0.403607 0.370987 0.904788
Si Si3 0.407341 0.921062 0.959759
Si Si4 0.832213 0.918774 0.462131
Si Si5 0.844029 0.626237 0.593301
Si Si6 0.336328 0.692212 0.817367
Si Si7 0.933017 0.543834 0.789203
O O1 0.921183 0.560116 0.638769
O O2 0.664136 0.337616 0.700429
O O3 0.008742 0.474455 0.724981
O O4 0.277208 0.367702 0.608938
O O5 0.386598 0.247102 0.871014
O O6 0.739556 0.446266 0.852358
O O7 0.115406 0.474250 0.934191
O O8 0.309819 0.324843 0.974963
O O9 0.274670 0.015007 0.931014
O O10 0.156461 0.825138 0.019039
O O11 0.500000 0.000000 0.000000
O O12 0.028999 0.835493 0.395241
O O13 0.500000 0.000000 0.500000
O O14 0.663671 0.647715 0.804798
O O15 0.238637 0.604503 0.779970
#
# Coordination Sequence:
#
# PCOD9246279 Si02
#       7
#     4   4   4   4   4   4   4
#     4  11  27  43  73  98 143 190 233 299 359 430
#     4  10  23  40  67 101 139 181 238 295 350 425
#     4   9  22  41  60 103 134 182 232 282 361 415
#     4  10  21  40  66  98 134 184 232 293 353 404
#     4  10  23  42  67 102 141 180 238 294 362 421
#     4  11  27  47  72 102 145 183 245 290 352 437
#     4  11  27  48  67 107 137 196 237 287 363 423
#
# _framework density 25.55585
#
# number of rings (size 3 to 8) (size 9 to 14) (size 15 to 20)
#    0.000    1.714    1.429    0.000   14.000    1.143 
#    2.571    0.000    0.000    0.000    0.000    0.000 
#    0.000    0.000    0.000    0.000    0.000    0.000 
#
# Total GULP energy -156351.939621 kJ/mol
# GULP energy per Si atom -5583.997844 kJ/mol
# Density = 2.549768 g / cm^3
# Si number density = 25.555850 Si / 1000 Ang^3
#
#
#
# Elastic Constant Matrix: (Units=GPa)
#
#
# Indices 1 2 3 4 5 6 
#
# 1 44.7797 -8.2886 5.9959 0.0000 2.6461 0.0000
# 2 -8.2886 69.5268 6.0630 0.0000 4.0108 0.0000
# 3 5.9959 6.0630 122.5507 0.0000 7.9210 0.0000
# 4 0.0000 0.0000 0.0000 16.7766 0.0000 12.1200
# 5 2.6461 4.0108 7.9210 0.0000 37.3398 0.0000
# 6 0.0000 0.0000 0.0000 12.1200 0.0000 40.9144
#
#
#
# Elastic Compliance Matrix: (Units=1/GPa)
#
#
# Indices 1 2 3 4 5 6 
#
# 1 0.023137 0.002959 -0.001168 0.000000 -0.001710 0.000000
# 2 0.002959 0.014898 -0.000775 0.000000 -0.001645 0.000000
# 3 -0.001168 -0.000775 0.008359 0.000000 -0.001607 0.000000
# 4 0.000000 0.000000 0.000000 0.075836 0.000000 -0.022465
# 5 -0.001710 -0.001645 -0.001607 0.000000 0.027420 0.000000
# 6 0.000000 0.000000 0.000000 -0.022465 0.000000 0.031096
#
#
# Mechanical properties :
#
#
# Convention : Reuss Voigt Hill
#
# Bulk Modulus (GPa) = 20.65060 27.15533 23.90296
# Shear Modulus (GPa) = 25.65985 34.54529 30.10257
#
# Velocity S-wave (km/s) = 3.17214 3.68061 3.43580
# Velocity P-wave (km/s) = 4.63840 5.35831 5.01130
#
# Compressibility (1/GPa) = 0.04842475
#
# Stress axis : x y z
#
# Youngs Moduli (GPa) = 43.22160 67.12221 119.62766
#
# Poissons Ratio (x) = -0.19859 0.13971
# Poissons Ratio (y) = -0.12788 0.09277
# Poissons Ratio (z) = 0.05048 0.05205
#
# Static dielectric constant tensor:
#      x y z
#    x 2.232680 0.000000 0.033410 
#    y 0.000000 2.129480 0.000000 
#    z 0.033410 0.000000 2.071400 
# 
# From -- ./inp_files/63434.got.cif
#   From: 2010.05.17/outbox.cif.g08.bks.cpg/sg14_32_cif.got.tgz:63434.got - 2010.06.03 17:49:19.
