data_PCOD9246110
_publ_section_title
;
Structure prediction by ZEFSAII (Michael W. Deem and Ramdas Pophale) SiO2 
 PCOD9246110
Probable space group: P 21/C
;
_chemical_formula_sum "Si O2"
_cell_formula_units_Z 16
_cell_length_a 14.679321
_cell_length_b 4.889920
_cell_length_c 23.724904
_cell_angle_alpha 90.000000
_cell_angle_beta 19.465181
_cell_angle_gamma 90.000000
_cell_volume 567.494196
_symmetry_space_group_name_H-M "P 21/C"
_symmetry_group_IT_number 14
_symmetry_cell_setting 'monoclinic'
loop_
_space_group_symop_operation_xyz
x,y,z
-x,1/2+y,1/2-z
-x,-y,-z
x,1/2-y,1/2+z
loop_
_atom_site_type_symbol
_atom_site_label
_atom_site_fract_x
_atom_site_fract_y
_atom_site_fract_z
Si Si1 0.659114 0.251060 0.935008
Si Si2 0.965773 0.782399 0.377141
Si Si3 0.743053 0.719431 0.740331
Si Si4 0.527751 0.453113 0.270537
O O1 0.961331 0.261320 0.731449
O O2 0.500000 0.500000 0.000000
O O3 0.567213 0.261101 0.053324
O O4 0.500000 0.000000 0.000000
O O5 0.152624 0.582848 0.307354
O O6 0.668064 0.701990 0.571127
O O7 0.062863 0.083991 0.336136
O O8 0.737986 0.857398 0.682184
O O9 0.376846 0.694329 0.322604
#
# Coordination Sequence:
#
# PCOD9246110 Si02
#       4
#     4   4   4   4
#     4   8  16  34  60  86 110 142 190 242 302 360
#     4  10  21  40  63  87 119 156 197 254 307 351
#     4  10  21  40  63  87 119 156 197 254 307 351
#     4  12  26  40  58  90 124 164 214 242 286 370
#
# _framework density 28.194120999999999
#
# number of rings (size 3 to 8) (size 9 to 14) (size 15 to 20)
#    0.000    2.000    0.000    3.000    0.000    6.000 
#    0.000   17.500    0.000    0.000    0.000    0.000 
#    0.000    0.000    0.000    0.000    0.000    0.000 
#
# Total GULP energy -89577.747545 kJ/mol
# GULP energy per Si atom -5598.609222 kJ/mol
# Density = 2.812995 g / cm^3
# Si number density = 28.194121 Si / 1000 Ang^3
#
#
#
# Elastic Constant Matrix: (Units=GPa)
#
#
# Indices 1 2 3 4 5 6 
#
# 1 85.5271 30.4258 19.2242 0.0000 -3.2173 0.0000
# 2 30.4258 160.5326 18.2278 0.0000 3.4169 0.0000
# 3 19.2242 18.2278 106.5417 0.0000 16.3076 0.0000
# 4 0.0000 0.0000 0.0000 38.8094 0.0000 9.8605
# 5 -3.2173 3.4169 16.3076 0.0000 34.5369 0.0000
# 6 0.0000 0.0000 0.0000 9.8605 0.0000 55.0853
#
#
#
# Elastic Compliance Matrix: (Units=1/GPa)
#
#
# Indices 1 2 3 4 5 6 
#
# 1 0.013131 -0.002274 -0.002374 0.000000 0.002569 0.000000
# 2 -0.002274 0.006747 -0.000657 0.000000 -0.000569 0.000000
# 3 -0.002374 -0.000657 0.010726 0.000000 -0.005221 0.000000
# 4 0.000000 0.000000 0.000000 0.026995 0.000000 -0.004832
# 5 0.002569 -0.000569 -0.005221 0.000000 0.031715 0.000000
# 6 0.000000 0.000000 0.000000 -0.004832 0.000000 0.019019
#
#
# Mechanical properties :
#
#
# Convention : Reuss Voigt Hill
#
# Bulk Modulus (GPa) = 50.01200 54.26187 52.13694
# Shear Modulus (GPa) = 39.80688 44.66790 42.23739
#
# Velocity S-wave (km/s) = 3.76158 3.98464 3.87472
# Velocity P-wave (km/s) = 6.05334 6.36062 6.20888
#
# Compressibility (1/GPa) = 0.01999520
#
# Stress axis : x y z
#
# Youngs Moduli (GPa) = 76.15386 148.21519 93.23358
#
# Poissons Ratio (x) = 0.33703 0.22130
# Poissons Ratio (y) = 0.17317 0.06124
# Poissons Ratio (z) = 0.18076 0.09736
#
# Static dielectric constant tensor:
#      x y z
#    x 2.195480 0.000000 0.041400 
#    y 0.000000 2.080890 0.000000 
#    z 0.041400 0.000000 2.291700 
# 
# From -- ./inp_files/27309.got.cif
#   From: 2010.05.17/outbox.cif.g08.bks.cpg/sg14_14_cif.got.tgz:27309.got - 2010.06.03 17:49:19.
