data_PCOD9246276
_publ_section_title
;
Structure prediction by ZEFSAII (Michael W. Deem and Ramdas Pophale) SiO2 
 PCOD9246276
Probable space group: P 21/C
;
_chemical_formula_sum "Si O2"
_cell_formula_units_Z 16
_cell_length_a 15.484850
_cell_length_b 6.259659
_cell_length_c 13.479431
_cell_angle_alpha 90.000000
_cell_angle_beta 152.081903
_cell_angle_gamma 90.000000
_cell_volume 611.742891
_symmetry_space_group_name_H-M "P 21/C"
_symmetry_group_IT_number 14
_symmetry_cell_setting 'monoclinic'
loop_
_space_group_symop_operation_xyz
x,y,z
-x,1/2+y,1/2-z
-x,-y,-z
x,1/2-y,1/2+z
loop_
_atom_site_type_symbol
_atom_site_label
_atom_site_fract_x
_atom_site_fract_y
_atom_site_fract_z
Si Si1 0.123355 0.411214 0.746580
Si Si2 0.166226 0.884578 0.725466
Si Si3 0.230215 0.749218 0.002362
Si Si4 0.490877 0.227992 0.545797
O O1 0.097705 0.632694 0.661092
O O2 0.213732 0.511981 0.939698
O O3 0.937295 0.301890 0.594086
O O4 0.270638 0.258273 0.841378
O O5 0.206750 0.906045 0.884759
O O6 0.362482 0.869367 0.867792
O O7 0.000000 0.000000 0.500000
O O8 0.415514 0.779757 0.251279
O O9 0.500000 0.000000 0.500000
#
# Coordination Sequence:
#
# PCOD9246276 Si02
#       4
#     4   4   4   4
#     4   9  22  39  67  98 138 178 226 283 340 410
#     4   9  20  40  69  99 136 178 232 282 346 409
#     4  10  21  40  66  96 138 177 223 287 344 404
#     4  10  21  41  66  99 137 178 229 282 347 408
#
# _framework density 26.154779000000001
#
# number of rings (size 3 to 8) (size 9 to 14) (size 15 to 20)
#    1.500    1.000    0.000    1.500    0.000    6.000 
#    0.000    2.500    0.000    9.000    0.000    0.000 
#    0.000    0.000    0.000    0.000    0.000    0.000 
#
# Total GULP energy -89388.215469 kJ/mol
# GULP energy per Si atom -5586.763467 kJ/mol
# Density = 2.609525 g / cm^3
# Si number density = 26.154779 Si / 1000 Ang^3
#
#
#
# Elastic Constant Matrix: (Units=GPa)
#
#
# Indices 1 2 3 4 5 6 
#
# 1 169.0010 52.1019 91.4122 0.0000 21.1416 0.0000
# 2 52.1019 54.1082 38.6500 0.0000 25.4251 0.0000
# 3 91.4122 38.6500 218.1602 0.0000 30.9073 0.0000
# 4 0.0000 0.0000 0.0000 58.6429 0.0000 19.5147
# 5 21.1416 25.4251 30.9073 0.0000 60.5991 0.0000
# 6 0.0000 0.0000 0.0000 19.5147 0.0000 61.1103
#
#
#
# Elastic Compliance Matrix: (Units=1/GPa)
#
#
# Indices 1 2 3 4 5 6 
#
# 1 0.009765 -0.008020 -0.002873 0.000000 0.001423 0.000000
# 2 -0.008020 0.031474 -0.000799 0.000000 -0.010000 0.000000
# 3 -0.002873 -0.000799 0.006187 0.000000 -0.001818 0.000000
# 4 0.000000 0.000000 0.000000 0.019080 0.000000 -0.006093
# 5 0.001423 -0.010000 -0.001818 0.000000 0.021128 0.000000
# 6 0.000000 0.000000 0.000000 -0.006093 0.000000 0.018310
#
#
# Mechanical properties :
#
#
# Convention : Reuss Voigt Hill
#
# Bulk Modulus (GPa) = 41.59282 89.51084 65.55183
# Shear Modulus (GPa) = 36.40594 53.34416 44.87505
#
# Velocity S-wave (km/s) = 3.73492 4.52104 4.14665
# Velocity P-wave (km/s) = 5.87679 7.84544 6.93136
#
# Compressibility (1/GPa) = 0.02404261
#
# Stress axis : x y z
#
# Youngs Moduli (GPa) = 102.40206 31.77266 161.64193
#
# Poissons Ratio (x) = 0.25482 0.46433
# Poissons Ratio (y) = 0.82128 0.12911
# Poissons Ratio (z) = 0.29416 0.02538
#
# Static dielectric constant tensor:
#      x y z
#    x 2.103120 0.000000 -0.044490 
#    y 0.000000 2.908770 0.000000 
#    z -0.044490 0.000000 1.979150 
# 
# From -- ./inp_files/46324.got.cif
#   From: 2010.05.17/outbox.cif.g08.bks.cpg/sg14_24_cif.got.tgz:46324.got - 2010.06.03 17:49:19.
