data_PCOD9246055
_publ_section_title
;
Structure prediction by ZEFSAII (Michael W. Deem and Ramdas Pophale) SiO2 
 PCOD9246055
Probable space group: P 21/C
;
_chemical_formula_sum "Si O2"
_cell_formula_units_Z 24
_cell_length_a 8.884191
_cell_length_b 8.992876
_cell_length_c 30.858193
_cell_angle_alpha 90.000000
_cell_angle_beta 31.005870
_cell_angle_gamma 90.000000
_cell_volume 1269.990173
_symmetry_space_group_name_H-M "P 21/C"
_symmetry_group_IT_number 14
_symmetry_cell_setting 'monoclinic'
loop_
_space_group_symop_operation_xyz
x,y,z
-x,1/2+y,1/2-z
-x,-y,-z
x,1/2-y,1/2+z
loop_
_atom_site_type_symbol
_atom_site_label
_atom_site_fract_x
_atom_site_fract_y
_atom_site_fract_z
Si Si1 0.627157 0.931212 0.262340
Si Si2 0.832887 0.910427 0.078633
Si Si3 0.201614 0.588483 0.576322
Si Si4 0.662160 0.413565 0.921682
Si Si5 0.689278 0.919128 0.580589
Si Si6 0.328594 0.427854 0.752855
O O1 0.625559 0.751171 0.259212
O O2 0.958030 0.978654 0.168849
O O3 0.512425 0.989645 0.336233
O O4 0.424790 0.005202 0.275446
O O5 0.745320 0.746632 0.084519
O O6 0.040535 0.900331 0.069703
O O7 0.543651 0.998470 0.164926
O O8 0.000000 0.000000 0.000000
O O9 0.500000 0.500000 0.500000
O O10 0.283747 0.748995 0.573901
O O11 0.464972 0.413339 0.927780
O O12 0.989723 0.468529 0.829891
O O13 0.500000 0.500000 0.000000
O O14 0.000000 0.000000 0.500000
#
# Coordination Sequence:
#
# PCOD9246055 Si02
#       6
#     4   4   4   4   4   4
#     4  10  21  40  61  89 122 158 198 246 302 359
#     4  11  23  40  64  92 122 160 201 248 302 360
#     4  10  22  40  62  89 122 157 198 246 300 359
#     4  11  24  40  61  87 119 159 203 250 301 357
#     4  12  24  40  62  88 121 160 204 253 301 358
#     4  10  22  40  62  89 122 158 198 247 304 361
#
# _framework density 18.897784999999999
#
# number of rings (size 3 to 8) (size 9 to 14) (size 15 to 20)
#    0.000    1.333    0.000    7.000    0.000    9.333 
#    0.000    0.000    0.000    0.000    0.000    0.000 
#    0.000    0.000    0.000    0.000    0.000    0.000 
#
# Total GULP energy -134138.584038 kJ/mol
# GULP energy per Si atom -5589.107668 kJ/mol
# Density = 1.885477 g / cm^3
# Si number density = 18.897785 Si / 1000 Ang^3
#
#
#
# Elastic Constant Matrix: (Units=GPa)
#
#
# Indices 1 2 3 4 5 6 
#
# 1 140.9511 61.4782 114.5661 0.0000 -6.4789 0.0000
# 2 61.4782 101.4503 73.4071 0.0000 -2.9536 0.0000
# 3 114.5661 73.4071 185.1438 0.0000 -5.4525 0.0000
# 4 0.0000 0.0000 0.0000 37.7932 0.0000 2.3918
# 5 -6.4789 -2.9536 -5.4525 0.0000 41.4911 0.0000
# 6 0.0000 0.0000 0.0000 2.3918 0.0000 35.4012
#
#
#
# Elastic Compliance Matrix: (Units=1/GPa)
#
#
# Indices 1 2 3 4 5 6 
#
# 1 0.015086 -0.003336 -0.007981 0.000000 0.001069 0.000000
# 2 -0.003336 0.014563 -0.003709 0.000000 0.000028 0.000000
# 3 -0.007981 -0.003709 0.011811 0.000000 0.000042 0.000000
# 4 0.000000 0.000000 0.000000 0.026573 0.000000 -0.001795
# 5 0.001069 0.000028 0.000042 0.000000 0.024276 0.000000
# 6 0.000000 0.000000 0.000000 -0.001795 0.000000 0.028369
#
#
# Mechanical properties :
#
#
# Convention : Reuss Voigt Hill
#
# Bulk Modulus (GPa) = 87.65126 102.93868 95.29497
# Shear Modulus (GPa) = 32.35550 34.81003 33.58277
#
# Velocity S-wave (km/s) = 4.14228 4.29653 4.22011
# Velocity P-wave (km/s) = 8.32829 8.89961 8.61869
#
# Compressibility (1/GPa) = 0.01140885
#
# Stress axis : x y z
#
# Youngs Moduli (GPa) = 66.28791 68.66627 84.66325
#
# Poissons Ratio (x) = 0.22907 0.67568
# Poissons Ratio (y) = 0.22113 0.31402
# Poissons Ratio (z) = 0.52903 0.25468
#
# Static dielectric constant tensor:
#      x y z
#    x 1.633590 0.000000 -0.004380 
#    y 0.000000 1.618950 0.000000 
#    z -0.004380 0.000000 1.671220 
# 
# From -- ./inp_files/61679.got.cif
#   From: 2010.05.17/outbox.cif.g08.bks.cpg/sg14_31_cif.got.tgz:61679.got - 2010.06.03 17:49:19.
