data_PCOD9246570
_publ_section_title
;
Structure prediction by ZEFSAII (Michael W. Deem and Ramdas Pophale) SiO2 
 PCOD9246570
Probable space group: P 21/C
;
_chemical_formula_sum "Si O2"
_cell_formula_units_Z 24
_cell_length_a 7.040526
_cell_length_b 17.376192
_cell_length_c 7.834840
_cell_angle_alpha 90.000000
_cell_angle_beta 75.276273
_cell_angle_gamma 90.000000
_cell_volume 927.020488
_symmetry_space_group_name_H-M "P 21/C"
_symmetry_group_IT_number 14
_symmetry_cell_setting 'monoclinic'
loop_
_space_group_symop_operation_xyz
x,y,z
-x,1/2+y,1/2-z
-x,-y,-z
x,1/2-y,1/2+z
loop_
_atom_site_type_symbol
_atom_site_label
_atom_site_fract_x
_atom_site_fract_y
_atom_site_fract_z
Si Si1 0.733593 0.086631 0.957533
Si Si2 0.108174 0.682049 0.010113
Si Si3 0.130469 0.333298 0.384780
Si Si4 0.364696 0.711819 0.272320
Si Si5 0.718568 0.859558 0.488196
Si Si6 0.414589 0.048174 0.788938
O O1 0.647702 0.167583 0.045169
O O2 0.632748 0.049594 0.814752
O O3 0.685096 0.029903 0.126246
O O4 0.962150 0.103733 0.882210
O O5 0.288002 0.701706 0.837975
O O6 0.931650 0.621731 0.021484
O O7 0.981645 0.760722 0.020727
O O8 0.206347 0.678676 0.172234
O O9 0.228118 0.306375 0.186212
O O10 0.301745 0.384463 0.424142
O O11 0.569983 0.686778 0.141230
O O12 0.618829 0.929222 0.401609
#
# Coordination Sequence:
#
# PCOD9246570 Si02
#       6
#     4   4   4   4   4   4
#     4  10  21  41  66  91 119 162 208 248 307 361
#     4  11  23  43  58  91 126 160 204 251 304 371
#     4   9  21  39  62  88 120 159 204 243 302 363
#     4  11  25  37  63  89 123 163 201 254 307 360
#     4  10  24  38  62  91 122 162 202 250 306 357
#     4   9  21  41  67  87 122 161 207 250 301 366
#
# _framework density 25.889396000000001
#
# number of rings (size 3 to 8) (size 9 to 14) (size 15 to 20)
#    1.000    1.000    1.667    0.500    4.667    6.000 
#    0.000    0.833    0.000    0.000    0.000    0.000 
#    0.000    0.000    0.000    0.000    0.000    0.000 
#
# Total GULP energy -133736.812706 kJ/mol
# GULP energy per Si atom -5572.367196 kJ/mol
# Density = 2.583047 g / cm^3
# Si number density = 25.889396 Si / 1000 Ang^3
#
#
#
# Elastic Constant Matrix: (Units=GPa)
#
#
# Indices 1 2 3 4 5 6 
#
# 1 150.4342 3.5942 18.6986 0.0000 2.3874 0.0000
# 2 3.5942 49.7129 -5.0809 0.0000 -2.4387 0.0000
# 3 18.6986 -5.0809 108.5175 0.0000 -20.5017 0.0000
# 4 0.0000 0.0000 0.0000 26.4006 0.0000 0.6249
# 5 2.3874 -2.4387 -20.5017 0.0000 38.2270 0.0000
# 6 0.0000 0.0000 0.0000 0.6249 0.0000 10.4222
#
#
#
# Elastic Compliance Matrix: (Units=1/GPa)
#
#
# Indices 1 2 3 4 5 6 
#
# 1 0.006865 -0.000706 -0.001453 0.000000 -0.001253 0.000000
# 2 -0.000706 0.020423 0.001483 0.000000 0.002142 0.000000
# 3 -0.001453 0.001483 0.010649 0.000000 0.005896 0.000000
# 4 0.000000 0.000000 0.000000 0.037932 0.000000 -0.002274
# 5 -0.001253 0.002142 0.005896 0.000000 0.029537 0.000000
# 6 0.000000 0.000000 0.000000 -0.002274 0.000000 0.096086
#
#
# Mechanical properties :
#
#
# Convention : Reuss Voigt Hill
#
# Bulk Modulus (GPa) = 27.33417 38.12095 32.72756
# Shear Modulus (GPa) = 23.25169 34.44014 28.84592
#
# Velocity S-wave (km/s) = 3.00011 3.65126 3.34158
# Velocity P-wave (km/s) = 4.75204 5.70369 5.24947
#
# Compressibility (1/GPa) = 0.03658425
#
# Stress axis : x y z
#
# Youngs Moduli (GPa) = 145.67202 48.96396 93.90731
#
# Poissons Ratio (x) = 0.03458 0.13641
# Poissons Ratio (y) = 0.10288 -0.13923
# Poissons Ratio (z) = 0.21161 -0.07260
#
# Static dielectric constant tensor:
#      x y z
#    x 2.113040 0.000000 -0.038890 
#    y 0.000000 2.099610 0.000000 
#    z -0.038890 0.000000 2.067130 
# 
# From -- ./inp_files/26872.got.cif
#   From: 2010.05.17/outbox.cif.g08.bks.cpg/sg14_14_cif.got.tgz:26872.got - 2010.06.03 17:49:19.
