data_PCOD9246723
_publ_section_title
;
Structure prediction by ZEFSAII (Michael W. Deem and Ramdas Pophale) SiO2 
 PCOD9246723
Probable space group: P 21/C
;
_chemical_formula_sum "Si O2"
_cell_formula_units_Z 32
_cell_length_a 22.332059
_cell_length_b 7.823387
_cell_length_c 11.089232
_cell_angle_alpha 90.000000
_cell_angle_beta 132.590374
_cell_angle_gamma 90.000000
_cell_volume 1426.353695
_symmetry_space_group_name_H-M "P 21/C"
_symmetry_group_IT_number 14
_symmetry_cell_setting 'monoclinic'
loop_
_space_group_symop_operation_xyz
x,y,z
-x,1/2+y,1/2-z
-x,-y,-z
x,1/2-y,1/2+z
loop_
_atom_site_type_symbol
_atom_site_label
_atom_site_fract_x
_atom_site_fract_y
_atom_site_fract_z
Si Si1 0.096051 0.462762 0.859623
Si Si2 0.664008 0.102710 0.010971
Si Si3 0.841549 0.533610 0.796043
Si Si4 0.091034 0.449385 0.365663
Si Si5 0.418793 0.909158 0.853495
Si Si6 0.483178 0.562926 0.842471
Si Si7 0.342780 0.509314 0.039579
Si Si8 0.825253 0.568312 0.280441
O O1 0.103115 0.255775 0.872466
O O2 0.139465 0.516708 0.793737
O O3 0.001720 0.511898 0.728100
O O4 0.132254 0.532698 0.035859
O O5 0.624092 0.150979 0.084520
O O6 0.746925 0.002605 0.142650
O O7 0.595822 0.998903 0.840764
O O8 0.683248 0.291072 0.986953
O O9 0.888092 0.474127 0.737932
O O10 0.856135 0.736973 0.822949
O O11 0.146940 0.510268 0.554181
O O12 0.454472 0.757546 0.820009
O O13 0.356766 0.033483 0.698853
O O14 0.500000 0.000000 0.000000
O O15 0.568186 0.529934 0.892535
O O16 0.500000 0.500000 0.000000
O O17 0.271745 0.424276 0.867944
#
# Coordination Sequence:
#
# PCOD9246723 Si02
#       8
#     4   4   4   4   4   4   4   4
#     4  10  21  42  61  91 121 157 200 245 308 369
#     4  11  24  40  61  90 122 161 209 253 304 365
#     4  10  23  39  61  91 123 158 202 253 302 363
#     4  10  22  39  64  90 120 157 201 246 306 372
#     4  11  23  40  61  87 116 161 215 247 304 362
#     4  11  24  41  60  86 124 161 204 259 302 356
#     4  11  24  40  60  90 123 160 208 253 307 360
#     4  10  23  39  60  90 125 159 199 250 307 365
#
# _framework density 22.434829000000001
#
# number of rings (size 3 to 8) (size 9 to 14) (size 15 to 20)
#    0.000    1.500    2.500    1.500    3.500    3.000 
#    0.000    0.000    0.000    0.000    0.000    0.000 
#    0.000    0.000    0.000    0.000    0.000    0.000 
#
# Total GULP energy -178423.185630 kJ/mol
# GULP energy per Si atom -5575.724551 kJ/mol
# Density = 2.238377 g / cm^3
# Si number density = 22.434829 Si / 1000 Ang^3
#
#
#
# Elastic Constant Matrix: (Units=GPa)
#
#
# Indices 1 2 3 4 5 6 
#
# 1 55.2761 2.2238 13.0698 0.0000 -1.4660 0.0000
# 2 2.2238 16.9257 -8.3665 0.0000 -11.5936 0.0000
# 3 13.0698 -8.3665 129.2283 0.0000 -9.5773 0.0000
# 4 0.0000 0.0000 0.0000 22.8122 0.0000 9.0696
# 5 -1.4660 -11.5936 -9.5773 0.0000 35.3128 0.0000
# 6 0.0000 0.0000 0.0000 9.0696 0.0000 17.8708
#
#
#
# Elastic Compliance Matrix: (Units=1/GPa)
#
#
# Indices 1 2 3 4 5 6 
#
# 1 0.018778 -0.004502 -0.002288 0.000000 -0.001319 0.000000
# 2 -0.004502 0.083908 0.008078 0.000000 0.029552 0.000000
# 3 -0.002288 0.008078 0.008860 0.000000 0.004960 0.000000
# 4 0.000000 0.000000 0.000000 0.054917 0.000000 -0.027871
# 5 -0.001319 0.029552 0.004960 0.000000 0.039311 0.000000
# 6 0.000000 0.000000 0.000000 -0.027871 0.000000 0.070102
#
#
# Mechanical properties :
#
#
# Convention : Reuss Voigt Hill
#
# Bulk Modulus (GPa) = 8.76256 23.92049 16.34153
# Shear Modulus (GPa) = 16.05947 28.16600 22.11273
#
# Velocity S-wave (km/s) = 2.67840 3.54709 3.14290
# Velocity P-wave (km/s) = 3.67142 5.24034 4.52441
#
# Compressibility (1/GPa) = 0.11412184
#
# Stress axis : x y z
#
# Youngs Moduli (GPa) = 53.25315 11.91776 112.86354
#
# Poissons Ratio (x) = 0.05365 0.25828
# Poissons Ratio (y) = 0.23974 -0.91169
# Poissons Ratio (z) = 0.12187 -0.09627
#
# Static dielectric constant tensor:
#      x y z
#    x 1.842430 0.000000 -0.102760 
#    y 0.000000 2.147870 0.000000 
#    z -0.102760 0.000000 1.999640 
# 
# From -- ./inp_files/35753.got.cif
#   From: 2010.05.17/outbox.cif.g08.bks.cpg/sg14_18_cif.got.tgz:35753.got - 2010.06.03 17:49:19.
