data_PCOD9246316
_publ_section_title
;
Structure prediction by ZEFSAII (Michael W. Deem and Ramdas Pophale) SiO2 
 PCOD9246316
Probable space group: P 21/C
;
_chemical_formula_sum "Si O2"
_cell_formula_units_Z 26
_cell_length_a 8.025613
_cell_length_b 23.499184
_cell_length_c 5.390101
_cell_angle_alpha 90.000000
_cell_angle_beta 99.363425
_cell_angle_gamma 90.000000
_cell_volume 1003.003758
_symmetry_space_group_name_H-M "P 21/C"
_symmetry_group_IT_number 14
_symmetry_cell_setting 'monoclinic'
loop_
_space_group_symop_operation_xyz
x,y,z
-x,1/2+y,1/2-z
-x,-y,-z
x,1/2-y,1/2+z
loop_
_atom_site_type_symbol
_atom_site_label
_atom_site_fract_x
_atom_site_fract_y
_atom_site_fract_z
Si Si1 0.445371 0.386085 0.528086
Si Si2 0.071333 0.895100 0.366109
Si Si3 0.000000 0.000000 0.000000
Si Si4 0.310436 0.529379 0.205392
Si Si5 0.660586 0.221163 0.153518
Si Si6 0.968221 0.734035 0.756807
Si Si7 0.729721 0.589683 0.019060
O O1 0.537632 0.445905 0.596577
O O2 0.588954 0.338999 0.560845
O O3 0.344844 0.382715 0.247719
O O4 0.327262 0.381807 0.741130
O O5 0.246659 0.916503 0.525636
O O6 0.040579 0.829955 0.284462
O O7 0.930592 0.908772 0.541885
O O8 0.037405 0.937382 0.132673
O O9 0.165148 0.992668 0.854122
O O10 0.327660 0.476398 0.018212
O O11 0.605090 0.237238 0.417198
O O12 0.864576 0.225612 0.205352
O O13 0.872005 0.749418 0.483164
#
# Coordination Sequence:
#
# PCOD9246316 Si02
#       7
#     4   4   2   4   4   4   4
#     4  12  26  45  71 101 148 190 237 298 363 436
#     4  11  26  45  76 104 154 188 249 305 369 438
#     4  10  24  38  72 108 142 184 240 310 364 410
#     4  11  25  43  73 104 142 198 242 298 347 454
#     4  10  21  40  67  98 127 174 244 294 344 417
#     4  10  23  42  70 107 134 180 248 305 351 422
#     4  11  27  45  67 109 146 193 228 299 373 438
#
# _framework density 25.922138
#
# number of rings (size 3 to 8) (size 9 to 14) (size 15 to 20)
#    0.000    1.231    0.000    5.538   17.231    0.000 
#    0.000    4.615    0.000    0.000    0.000    0.000 
#    0.000    0.000    0.000    0.000    0.000    0.000 
#
# Total GULP energy -145186.321577 kJ/mol
# GULP energy per Si atom -5584.089291 kJ/mol
# Density = 2.586314 g / cm^3
# Si number density = 25.922138 Si / 1000 Ang^3
#
#
#
# Elastic Constant Matrix: (Units=GPa)
#
#
# Indices 1 2 3 4 5 6 
#
# 1 33.8418 9.4290 10.9645 0.0000 -4.1317 0.0000
# 2 9.4290 132.4634 32.9054 0.0000 -0.5666 0.0000
# 3 10.9645 32.9054 159.8438 0.0000 1.9138 0.0000
# 4 0.0000 0.0000 0.0000 89.5294 0.0000 -10.7753
# 5 -4.1317 -0.5666 1.9138 0.0000 30.5704 0.0000
# 6 0.0000 0.0000 0.0000 -10.7753 0.0000 42.1650
#
#
#
# Elastic Compliance Matrix: (Units=1/GPa)
#
#
# Indices 1 2 3 4 5 6 
#
# 1 0.031152 -0.001745 -0.001829 0.000000 0.004292 0.000000
# 2 -0.001745 0.008056 -0.001539 0.000000 0.000010 0.000000
# 3 -0.001829 -0.001539 0.006707 0.000000 -0.000696 0.000000
# 4 0.000000 0.000000 0.000000 0.011524 0.000000 0.002945
# 5 0.004292 0.000010 -0.000696 0.000000 0.033335 0.000000
# 6 0.000000 0.000000 0.000000 0.002945 0.000000 0.024469
#
#
# Mechanical properties :
#
#
# Convention : Reuss Voigt Hill
#
# Bulk Modulus (GPa) = 28.01969 48.08300 38.05134
# Shear Modulus (GPa) = 36.39958 50.64296 43.52127
#
# Velocity S-wave (km/s) = 3.75132 4.42481 4.10191
# Velocity P-wave (km/s) = 5.44020 6.68540 6.09469
#
# Compressibility (1/GPa) = 0.03568919
#
# Stress axis : x y z
#
# Youngs Moduli (GPa) = 32.10064 124.13499 149.10513
#
# Poissons Ratio (x) = 0.21658 0.27273
# Poissons Ratio (y) = 0.05601 0.22944
# Poissons Ratio (z) = 0.05872 0.19102
#
# Static dielectric constant tensor:
#      x y z
#    x 2.016520 0.000000 0.038280 
#    y 0.000000 2.023690 0.000000 
#    z 0.038280 0.000000 2.142870 
# 
# From -- ./inp_files/1659.got.cif
#   From: 2010.05.17/outbox.cif.g08.bks.cpg/sg14_1_cif.got.tgz:1659.got - 2010.06.03 17:49:19.
