data_PCOD9246744
_publ_section_title
;
Structure prediction by ZEFSAII (Michael W. Deem and Ramdas Pophale) SiO2 
 PCOD9246744
Probable space group: P 21/C
;
_chemical_formula_sum "Si O2"
_cell_formula_units_Z 28
_cell_length_a 5.300963
_cell_length_b 14.639623
_cell_length_c 17.841135
_cell_angle_alpha 90.000000
_cell_angle_beta 59.250700
_cell_angle_gamma 90.000000
_cell_volume 1189.895690
_symmetry_space_group_name_H-M "P 21/C"
_symmetry_group_IT_number 14
_symmetry_cell_setting 'monoclinic'
loop_
_space_group_symop_operation_xyz
x,y,z
-x,1/2+y,1/2-z
-x,-y,-z
x,1/2-y,1/2+z
loop_
_atom_site_type_symbol
_atom_site_label
_atom_site_fract_x
_atom_site_fract_y
_atom_site_fract_z
Si Si1 0.747011 0.525858 0.851532
Si Si2 0.927843 0.487601 0.597427
Si Si3 0.655434 0.740501 0.124070
Si Si4 0.799790 0.581532 0.003872
Si Si5 0.193758 0.187505 0.738346
Si Si6 0.926629 0.139423 0.226042
Si Si7 0.365167 0.911688 0.141472
O O1 0.524117 0.454376 0.924650
O O2 0.601352 0.604002 0.819836
O O3 0.945397 0.454270 0.772925
O O4 0.843201 0.586148 0.908567
O O5 0.916779 0.391331 0.641561
O O6 0.596969 0.527284 0.651122
O O7 0.000000 0.500000 0.500000
O O8 0.188491 0.539458 0.602295
O O9 0.848060 0.671268 0.046525
O O10 0.798146 0.787683 0.175098
O O11 0.376570 0.686204 0.201049
O O12 0.547632 0.822760 0.087580
O O13 0.000000 0.500000 0.000000
O O14 0.179131 0.285739 0.701462
O O15 0.885904 0.134967 0.769939
#
# Coordination Sequence:
#
# PCOD9246744 Si02
#       7
#     4   4   4   4   4   4   4
#     4  10  21  42  62  98 134 176 228 280 347 405
#     4  12  26  46  70 101 140 186 230 286 347 414
#     4  10  22  41  67 101 137 181 230 286 345 415
#     4  10  22  39  66  97 136 180 225 287 347 407
#     4  11  22  42  71 100 135 183 231 285 348 412
#     4  10  23  40  68 100 134 183 234 285 345 418
#     4  11  23  46  70  94 138 185 227 281 351 409
#
# _framework density 23.531472999999998
#
# number of rings (size 3 to 8) (size 9 to 14) (size 15 to 20)
#    0.000    1.429    2.857    1.286    2.000    6.857 
#    2.571    0.000    0.000    0.000    0.000    0.000 
#    0.000    0.000    0.000    0.000    0.000    0.000 
#
# Total GULP energy -156032.695274 kJ/mol
# GULP energy per Si atom -5572.596260 kJ/mol
# Density = 2.347791 g / cm^3
# Si number density = 23.531473 Si / 1000 Ang^3
#
#
#
# Elastic Constant Matrix: (Units=GPa)
#
#
# Indices 1 2 3 4 5 6 
#
# 1 86.7543 30.0109 20.6212 0.0000 21.4849 0.0000
# 2 30.0109 112.3337 17.5083 0.0000 19.0845 0.0000
# 3 20.6212 17.5083 98.6824 0.0000 31.3239 0.0000
# 4 0.0000 0.0000 0.0000 36.2105 0.0000 5.2736
# 5 21.4849 19.0845 31.3239 0.0000 32.1307 0.0000
# 6 0.0000 0.0000 0.0000 5.2736 0.0000 48.2976
#
#
#
# Elastic Compliance Matrix: (Units=1/GPa)
#
#
# Indices 1 2 3 4 5 6 
#
# 1 0.014401 -0.002459 0.000029 0.000000 -0.008197 0.000000
# 2 -0.002459 0.010323 0.000154 0.000000 -0.004638 0.000000
# 3 0.000029 0.000154 0.014677 0.000000 -0.014420 0.000000
# 4 0.000000 0.000000 0.000000 0.028063 0.000000 -0.003064
# 5 -0.008197 -0.004638 -0.014420 0.000000 0.053416 0.000000
# 6 0.000000 0.000000 0.000000 -0.003064 0.000000 0.021040
#
#
# Mechanical properties :
#
#
# Convention : Reuss Voigt Hill
#
# Bulk Modulus (GPa) = 28.69518 48.22792 38.46155
# Shear Modulus (GPa) = 31.62822 38.63643 35.13233
#
# Velocity S-wave (km/s) = 3.67015 4.05644 3.86812
# Velocity P-wave (km/s) = 5.49371 6.51760 6.02744
#
# Compressibility (1/GPa) = 0.03484906
#
# Stress axis : x y z
#
# Youngs Moduli (GPa) = 69.44163 96.87247 68.13287
#
# Poissons Ratio (x) = 0.23823 -0.00197
# Poissons Ratio (y) = 0.17077 -0.01052
# Poissons Ratio (z) = -0.00201 -0.01496
#
# Static dielectric constant tensor:
#      x y z
#    x 2.053640 0.000000 -0.118560 
#    y 0.000000 2.003490 0.000000 
#    z -0.118560 0.000000 2.104640 
# 
# From -- ./inp_files/53262.got.cif
#   From: 2010.05.17/outbox.cif.g08.bks.cpg/sg14_27_cif.got.tgz:53262.got - 2010.06.03 17:49:19.
