data_PCOD9246988
_publ_section_title
;
Structure prediction by ZEFSAII (Michael W. Deem and Ramdas Pophale) SiO2 
 PCOD9246988
Probable space group: P 21/C
;
_chemical_formula_sum "Si O2"
_cell_formula_units_Z 28
_cell_length_a 5.230083
_cell_length_b 17.580190
_cell_length_c 14.496987
_cell_angle_alpha 90.000000
_cell_angle_beta 124.760941
_cell_angle_gamma 90.000000
_cell_volume 1095.059186
_symmetry_space_group_name_H-M "P 21/C"
_symmetry_group_IT_number 14
_symmetry_cell_setting 'monoclinic'
loop_
_space_group_symop_operation_xyz
x,y,z
-x,1/2+y,1/2-z
-x,-y,-z
x,1/2-y,1/2+z
loop_
_atom_site_type_symbol
_atom_site_label
_atom_site_fract_x
_atom_site_fract_y
_atom_site_fract_z
Si Si1 0.439338 0.562585 0.266224
Si Si2 0.025623 0.177236 0.091503
Si Si3 0.161539 0.346797 0.119654
Si Si4 0.102549 0.657728 0.729479
Si Si5 0.234304 0.563112 0.584286
Si Si6 0.403166 0.564642 0.052023
Si Si7 0.089069 0.176721 0.324858
O O1 0.460749 0.485761 0.328485
O O2 0.524200 0.541474 0.178483
O O3 0.122977 0.607047 0.187575
O O4 0.666475 0.625324 0.359237
O O5 0.053040 0.263236 0.064448
O O6 0.025563 0.179613 0.202006
O O7 0.748473 0.130955 0.985943
O O8 0.087186 0.349879 0.214475
O O9 0.527264 0.346886 0.174296
O O10 0.960090 0.414416 0.034252
O O11 0.075867 0.596695 0.643245
O O12 0.013915 0.739634 0.667010
O O13 0.000000 0.500000 0.500000
O O14 0.572486 0.647508 0.075828
O O15 0.500000 0.500000 0.000000
#
# Coordination Sequence:
#
# PCOD9246988 Si02
#       7
#     4   4   4   4   4   4   4
#     4  10  21  43  65  97 141 182 236 302 368 423
#     4   9  21  42  65 100 134 180 240 295 366 429
#     4  11  25  45  72 107 142 191 244 300 363 448
#     4  11  25  47  72 106 146 189 243 307 368 435
#     4  10  23  44  71 103 143 190 247 306 376 442
#     4  11  26  42  71 104 146 197 247 303 372 448
#     4  10  23  43  69  98 143 187 239 310 362 440
#
# _framework density 25.569393999999999
#
# number of rings (size 3 to 8) (size 9 to 14) (size 15 to 20)
#    0.000    1.714    1.429    0.857    6.000    1.143 
#    7.714    0.000    0.000    0.000    0.000    0.000 
#    0.000    0.000    0.000    0.000    0.000    0.000 
#
# Total GULP energy -156632.279619 kJ/mol
# GULP energy per Si atom -5594.009986 kJ/mol
# Density = 2.551120 g / cm^3
# Si number density = 25.569394 Si / 1000 Ang^3
#
#
#
# Elastic Constant Matrix: (Units=GPa)
#
#
# Indices 1 2 3 4 5 6 
#
# 1 37.6428 12.0500 -0.0694 0.0000 6.7110 0.0000
# 2 12.0500 156.2262 51.8702 0.0000 10.2747 0.0000
# 3 -0.0694 51.8702 90.2756 0.0000 -1.7323 0.0000
# 4 0.0000 0.0000 0.0000 52.5485 0.0000 -0.5769
# 5 6.7110 10.2747 -1.7323 0.0000 24.9973 0.0000
# 6 0.0000 0.0000 0.0000 -0.5769 0.0000 32.8506
#
#
#
# Elastic Compliance Matrix: (Units=1/GPa)
#
#
# Indices 1 2 3 4 5 6 
#
# 1 0.028439 -0.002124 0.001114 0.000000 -0.006685 0.000000
# 2 -0.002124 0.008400 -0.004890 0.000000 -0.003221 0.000000
# 3 0.001114 -0.004890 0.013939 0.000000 0.002677 0.000000
# 4 0.000000 0.000000 0.000000 0.019034 0.000000 0.000334
# 5 -0.006685 -0.003221 0.002677 0.000000 0.043309 0.000000
# 6 0.000000 0.000000 0.000000 0.000334 0.000000 0.030447
#
#
# Mechanical properties :
#
#
# Convention : Reuss Voigt Hill
#
# Bulk Modulus (GPa) = 25.65503 45.76067 35.70785
# Shear Modulus (GPa) = 29.69821 36.76555 33.23188
#
# Velocity S-wave (km/s) = 3.41174 3.79604 3.60901
# Velocity P-wave (km/s) = 5.05720 6.09498 5.60018
#
# Compressibility (1/GPa) = 0.03897871
#
# Stress axis : x y z
#
# Youngs Moduli (GPa) = 35.16274 119.04437 71.74064
#
# Poissons Ratio (x) = 0.25282 -0.07991
# Poissons Ratio (y) = 0.07468 0.35081
# Poissons Ratio (z) = -0.03917 0.58213
#
# Static dielectric constant tensor:
#      x y z
#    x 2.128820 0.000000 -0.000120 
#    y 0.000000 2.048790 0.000000 
#    z -0.000120 0.000000 2.027970 
# 
# From -- ./inp_files/37907.got.cif
#   From: 2010.05.17/outbox.cif.g08.bks.cpg/sg14_19_cif.got.tgz:37907.got - 2010.06.03 17:49:19.
