data_PCOD9246491
_publ_section_title
;
Structure prediction by ZEFSAII (Michael W. Deem and Ramdas Pophale) SiO2 
 PCOD9246491
Probable space group: P 21/C
;
_chemical_formula_sum "Si O2"
_cell_formula_units_Z 24
_cell_length_a 13.516439
_cell_length_b 11.669504
_cell_length_c 13.676575
_cell_angle_alpha 90.000000
_cell_angle_beta 31.852415
_cell_angle_gamma 90.000000
_cell_volume 1138.430038
_symmetry_space_group_name_H-M "P 21/C"
_symmetry_group_IT_number 14
_symmetry_cell_setting 'monoclinic'
loop_
_space_group_symop_operation_xyz
x,y,z
-x,1/2+y,1/2-z
-x,-y,-z
x,1/2-y,1/2+z
loop_
_atom_site_type_symbol
_atom_site_label
_atom_site_fract_x
_atom_site_fract_y
_atom_site_fract_z
Si Si1 0.242911 0.869088 0.566608
Si Si2 0.438747 0.401632 0.476013
Si Si3 0.491157 0.949166 0.758762
Si Si4 0.034492 0.383661 0.529000
Si Si5 0.612208 0.755839 0.808326
Si Si6 0.758597 0.237945 0.125878
O O1 0.404898 0.799616 0.489389
O O2 0.179969 0.789221 0.529657
O O3 0.068099 0.895716 0.781492
O O4 0.353212 0.978191 0.429743
O O5 0.500000 0.500000 0.500000
O O6 0.376078 0.468805 0.430917
O O7 0.328459 0.312275 0.637847
O O8 0.615871 0.330116 0.289441
O O9 0.592888 0.854502 0.742321
O O10 0.355671 0.878487 0.801512
O O11 0.247182 0.341242 0.347008
O O12 0.000000 0.500000 0.500000
O O13 0.922774 0.286517 0.562607
#
# Coordination Sequence:
#
# PCOD9246491 Si02
#       6
#     4   4   4   4   4   4
#     4  10  22  43  62  89 132 160 212 261 303 379
#     4   9  18  38  66  89 117 165 210 249 311 371
#     4   9  20  38  68  90 118 175 207 254 322 364
#     4  12  26  39  61  98 126 168 211 254 319 372
#     4  10  21  41  66  87 126 168 207 259 315 367
#     4  10  21  41  64  90 128 164 206 264 311 364
#
# _framework density 21.081662999999999
#
# number of rings (size 3 to 8) (size 9 to 14) (size 15 to 20)
#    0.000    2.000    1.667    1.000    2.333    2.667 
#    9.000    7.500    0.000    0.000    0.000    0.000 
#    0.000    0.000    0.000    0.000    0.000    0.000 
#
# Total GULP energy -133974.381377 kJ/mol
# GULP energy per Si atom -5582.265891 kJ/mol
# Density = 2.103368 g / cm^3
# Si number density = 21.081663 Si / 1000 Ang^3
#
#
#
# Elastic Constant Matrix: (Units=GPa)
#
#
# Indices 1 2 3 4 5 6 
#
# 1 42.5149 3.2069 18.1268 0.0000 8.2848 0.0000
# 2 3.2069 78.8917 27.5636 0.0000 13.8062 0.0000
# 3 18.1268 27.5636 106.2667 0.0000 27.6469 0.0000
# 4 0.0000 0.0000 0.0000 26.9887 0.0000 10.2730
# 5 8.2848 13.8062 27.6469 0.0000 27.1843 0.0000
# 6 0.0000 0.0000 0.0000 10.2730 0.0000 27.5476
#
#
#
# Elastic Compliance Matrix: (Units=1/GPa)
#
#
# Indices 1 2 3 4 5 6 
#
# 1 0.025851 0.000996 -0.003381 0.000000 -0.004946 0.000000
# 2 0.000996 0.014419 -0.002619 0.000000 -0.004963 0.000000
# 3 -0.003381 -0.002619 0.013669 0.000000 -0.011541 0.000000
# 4 0.000000 0.000000 0.000000 0.043182 0.000000 -0.016103
# 5 -0.004946 -0.004963 -0.011541 0.000000 0.052551 0.000000
# 6 0.000000 0.000000 0.000000 -0.016103 0.000000 0.042306
#
#
# Mechanical properties :
#
#
# Convention : Reuss Voigt Hill
#
# Bulk Modulus (GPa) = 22.76292 36.16311 29.46301
# Shear Modulus (GPa) = 23.08085 28.26253 25.67169
#
# Velocity S-wave (km/s) = 3.31241 3.66542 3.49338
# Velocity P-wave (km/s) = 5.04484 5.92493 5.50251
#
# Compressibility (1/GPa) = 0.04393109
#
# Stress axis : x y z
#
# Youngs Moduli (GPa) = 38.68252 69.35497 73.15906
#
# Poissons Ratio (x) = -0.06908 0.24738
# Poissons Ratio (y) = -0.03853 0.19157
# Poissons Ratio (z) = 0.13080 0.18161
#
# Static dielectric constant tensor:
#      x y z
#    x 1.831850 0.000000 -0.027820 
#    y 0.000000 1.844350 0.000000 
#    z -0.027820 0.000000 1.782500 
# 
# From -- ./inp_files/46879.got.cif
#   From: 2010.05.17/outbox.cif.g08.bks.cpg/sg14_24_cif.got.tgz:46879.got - 2010.06.03 17:49:19.
