data_PCOD9246329
_publ_section_title
;
Structure prediction by ZEFSAII (Michael W. Deem and Ramdas Pophale) SiO2 
 PCOD9246329
Probable space group: P 21/C
;
_chemical_formula_sum "Si O2"
_cell_formula_units_Z 28
_cell_length_a 15.639893
_cell_length_b 5.229374
_cell_length_c 17.822288
_cell_angle_alpha 90.000000
_cell_angle_beta 58.027709
_cell_angle_gamma 90.000000
_cell_volume 1236.512733
_symmetry_space_group_name_H-M "P 21/C"
_symmetry_group_IT_number 14
_symmetry_cell_setting 'monoclinic'
loop_
_space_group_symop_operation_xyz
x,y,z
-x,1/2+y,1/2-z
-x,-y,-z
x,1/2-y,1/2+z
loop_
_atom_site_type_symbol
_atom_site_label
_atom_site_fract_x
_atom_site_fract_y
_atom_site_fract_z
Si Si1 0.608891 0.460909 0.287190
Si Si2 0.412940 0.274423 0.851118
Si Si3 0.131043 0.512548 0.538748
Si Si4 0.255530 0.918610 0.847843
Si Si5 0.743138 0.786117 0.310305
Si Si6 0.970826 0.710280 0.720247
Si Si7 0.751806 0.995456 0.467029
O O1 0.559490 0.638034 0.246164
O O2 0.518457 0.267969 0.343813
O O3 0.705509 0.356010 0.196080
O O4 0.654932 0.582521 0.339522
O O5 0.338360 0.038536 0.865927
O O6 0.343917 0.454249 0.934631
O O7 0.151752 0.557065 0.441021
O O8 0.023269 0.597371 0.621254
O O9 0.167738 0.228066 0.544968
O O10 0.203622 0.723657 0.543385
O O11 0.256902 0.065059 0.768490
O O12 0.724920 0.946860 0.393273
O O13 0.857462 0.687697 0.264003
O O14 0.970981 0.456236 0.773019
#
# Coordination Sequence:
#
# PCOD9246329 Si02
#       7
#     4   4   4   4   4   4   4
#     4  11  21  40  65  97 133 176 225 277 333 398
#     4  10  21  40  68  93 128 188 222 264 340 414
#     4  11  22  44  69  97 129 186 224 269 330 416
#     4  10  23  40  67  94 137 170 226 279 334 391
#     4  11  26  40  65 103 135 171 225 294 326 390
#     4  12  24  44  71  97 134 183 223 271 346 403
#     4  11  23  42  69  98 135 175 229 271 333 401
#
# _framework density 22.64433
#
# number of rings (size 3 to 8) (size 9 to 14) (size 15 to 20)
#    0.000    1.143    5.714    0.000    4.000    1.143 
#    0.000    1.429    0.000    0.000    0.000    0.000 
#    0.000    0.000    0.000    0.000    0.000    0.000 
#
# Total GULP energy -156222.693346 kJ/mol
# GULP energy per Si atom -5579.381905 kJ/mol
# Density = 2.259279 g / cm^3
# Si number density = 22.644330 Si / 1000 Ang^3
#
#
#
# Elastic Constant Matrix: (Units=GPa)
#
#
# Indices 1 2 3 4 5 6 
#
# 1 70.7098 1.4111 6.9733 0.0000 0.2873 0.0000
# 2 1.4111 52.1211 -11.0982 0.0000 5.4252 0.0000
# 3 6.9733 -11.0982 75.6504 0.0000 4.0412 0.0000
# 4 0.0000 0.0000 0.0000 26.4426 0.0000 -5.6427
# 5 0.2873 5.4252 4.0412 0.0000 31.1643 0.0000
# 6 0.0000 0.0000 0.0000 -5.6427 0.0000 16.8164
#
#
#
# Elastic Compliance Matrix: (Units=1/GPa)
#
#
# Indices 1 2 3 4 5 6 
#
# 1 0.014297 -0.000710 -0.001432 0.000000 0.000177 0.000000
# 2 -0.000710 0.020310 0.003256 0.000000 -0.003951 0.000000
# 3 -0.001432 0.003256 0.013955 0.000000 -0.002363 0.000000
# 4 0.000000 0.000000 0.000000 0.040735 0.000000 0.013669
# 5 0.000177 -0.003951 -0.002363 0.000000 0.033081 0.000000
# 6 0.000000 0.000000 0.000000 0.013669 0.000000 0.064052
#
#
# Mechanical properties :
#
#
# Convention : Reuss Voigt Hill
#
# Bulk Modulus (GPa) = 19.68899 21.45041 20.56970
# Shear Modulus (GPa) = 24.85947 28.29766 26.57857
#
# Velocity S-wave (km/s) = 3.31694 3.53888 3.42971
# Velocity P-wave (km/s) = 4.83562 5.11777 4.97869
#
# Compressibility (1/GPa) = 0.05078981
#
# Stress axis : x y z
#
# Youngs Moduli (GPa) = 69.94497 49.23702 71.66103
#
# Poissons Ratio (x) = 0.03498 0.10259
# Poissons Ratio (y) = 0.04969 -0.23334
# Poissons Ratio (z) = 0.10013 -0.16032
#
# Static dielectric constant tensor:
#      x y z
#    x 1.872970 0.000000 -0.036570 
#    y 0.000000 1.942360 0.000000 
#    z -0.036570 0.000000 1.869720 
# 
# From -- ./inp_files/58392.got.cif
#   From: 2010.05.17/outbox.cif.g08.bks.cpg/sg14_30_cif.got.tgz:58392.got - 2010.06.03 17:49:19.
