data_PCOD9246089
_publ_section_title
;
Structure prediction by ZEFSAII (Michael W. Deem and Ramdas Pophale) SiO2 
 PCOD9246089
Probable space group: P 21/C
;
_chemical_formula_sum "Si O2"
_cell_formula_units_Z 32
_cell_length_a 11.069199
_cell_length_b 8.409191
_cell_length_c 29.534261
_cell_angle_alpha 90.000000
_cell_angle_beta 146.367533
_cell_angle_gamma 90.000000
_cell_volume 1522.646959
_symmetry_space_group_name_H-M "P 21/C"
_symmetry_group_IT_number 14
_symmetry_cell_setting 'monoclinic'
loop_
_space_group_symop_operation_xyz
x,y,z
-x,1/2+y,1/2-z
-x,-y,-z
x,1/2-y,1/2+z
loop_
_atom_site_type_symbol
_atom_site_label
_atom_site_fract_x
_atom_site_fract_y
_atom_site_fract_z
Si Si1 0.654411 0.309775 0.772435
Si Si2 0.159706 0.185439 0.449246
Si Si3 0.723028 0.638092 0.181598
Si Si4 0.664011 0.684236 0.754063
Si Si5 0.406204 0.170356 0.942658
Si Si6 0.788498 0.351759 0.652073
Si Si7 0.489830 0.186458 0.627937
Si Si8 0.850130 0.178394 0.584871
O O1 0.645977 0.495729 0.756424
O O2 0.521997 0.275118 0.776736
O O3 0.530134 0.214064 0.693639
O O4 0.909312 0.266159 0.860561
O O5 0.322775 0.271619 0.465354
O O6 0.257114 0.213205 0.530166
O O7 0.174394 0.998352 0.441376
O O8 0.663412 0.767308 0.201390
O O9 0.722357 0.720090 0.133044
O O10 0.561982 0.491252 0.137365
O O11 0.969804 0.581608 0.266253
O O12 0.904122 0.734139 0.847301
O O13 0.341781 0.990055 0.913826
O O14 0.655385 0.210859 0.007184
O O15 0.663892 0.302775 0.658040
O O16 0.816005 0.196353 0.628565
#
# Coordination Sequence:
#
# PCOD9246089 Si02
#       8
#     4   4   4   4   4   4   4   4
#     4  11  24  46  67  91 124 168 214 268 313 372
#     4  11  23  41  66  94 128 172 210 254 315 384
#     4  11  22  38  64  92 125 172 209 255 315 379
#     4  10  24  46  66  90 122 165 216 263 318 368
#     4  12  21  38  61  97 134 160 208 258 314 377
#     4  11  22  35  59  95 132 167 203 259 315 375
#     4  12  23  41  63  96 129 167 215 253 318 376
#     4  10  21  40  62  90 128 166 202 256 314 374
#
# _framework density 21.016034999999999
#
# number of rings (size 3 to 8) (size 9 to 14) (size 15 to 20)
#    0.000    1.000    2.500    5.250    0.000    3.000 
#    2.250    2.500    0.000    0.000    0.000    0.000 
#    0.000    0.000    0.000    0.000    0.000    0.000 
#
# Total GULP energy -178763.462210 kJ/mol
# GULP energy per Si atom -5586.358194 kJ/mol
# Density = 2.096820 g / cm^3
# Si number density = 21.016035 Si / 1000 Ang^3
#
#
#
# Elastic Constant Matrix: (Units=GPa)
#
#
# Indices 1 2 3 4 5 6 
#
# 1 33.2918 1.7518 27.2761 0.0000 16.7320 0.0000
# 2 1.7518 54.4360 22.4054 0.0000 12.6048 0.0000
# 3 27.2761 22.4054 122.6655 0.0000 6.9555 0.0000
# 4 0.0000 0.0000 0.0000 34.6971 0.0000 -4.9841
# 5 16.7320 12.6048 6.9555 0.0000 29.3024 0.0000
# 6 0.0000 0.0000 0.0000 -4.9841 0.0000 25.7060
#
#
#
# Elastic Compliance Matrix: (Units=1/GPa)
#
#
# Indices 1 2 3 4 5 6 
#
# 1 0.057432 0.011492 -0.012903 0.000000 -0.034675 0.000000
# 2 0.011492 0.024086 -0.006077 0.000000 -0.015480 0.000000
# 3 -0.012903 -0.006077 0.011723 0.000000 0.007199 0.000000
# 4 0.000000 0.000000 0.000000 0.029647 0.000000 0.005748
# 5 -0.034675 -0.015480 0.007199 0.000000 0.058877 0.000000
# 6 0.000000 0.000000 0.000000 0.005748 0.000000 0.040016
#
#
# Mechanical properties :
#
#
# Convention : Reuss Voigt Hill
#
# Bulk Modulus (GPa) = 12.77732 34.80666 23.79199
# Shear Modulus (GPa) = 19.02258 28.53842 23.78050
#
# Velocity S-wave (km/s) = 3.01183 3.68902 3.36749
# Velocity P-wave (km/s) = 4.26472 5.89432 5.14445
#
# Compressibility (1/GPa) = 0.07826369
#
# Stress axis : x y z
#
# Youngs Moduli (GPa) = 17.41201 41.51758 85.30055
#
# Poissons Ratio (x) = -0.47711 1.10067
# Poissons Ratio (y) = -0.20010 0.51837
# Poissons Ratio (z) = 0.22468 0.25230
#
# Static dielectric constant tensor:
#      x y z
#    x 1.698450 0.000000 -0.029250 
#    y 0.000000 1.740280 0.000000 
#    z -0.029250 0.000000 1.855190 
# 
# From -- ./inp_files/73095.got.cif
#   From: 2010.05.17/outbox.cif.g08.bks.cpg/sg14_37_cif.got.tgz:73095.got - 2010.06.03 17:49:19.
