data_PCOD9246157
_publ_section_title
;
Structure prediction by ZEFSAII (Michael W. Deem and Ramdas Pophale) SiO2 
 PCOD9246157
Probable space group: P 21/C
;
_chemical_formula_sum "Si O2"
_cell_formula_units_Z 24
_cell_length_a 13.820734
_cell_length_b 7.325676
_cell_length_c 18.204653
_cell_angle_alpha 90.000000
_cell_angle_beta 31.553209
_cell_angle_gamma 90.000000
_cell_volume 964.503462
_symmetry_space_group_name_H-M "P 21/C"
_symmetry_group_IT_number 14
_symmetry_cell_setting 'monoclinic'
loop_
_space_group_symop_operation_xyz
x,y,z
-x,1/2+y,1/2-z
-x,-y,-z
x,1/2-y,1/2+z
loop_
_atom_site_type_symbol
_atom_site_label
_atom_site_fract_x
_atom_site_fract_y
_atom_site_fract_z
Si Si1 0.859552 0.505334 0.405359
Si Si2 0.466674 0.388623 0.150513
Si Si3 0.486005 0.516884 0.288909
Si Si4 0.767516 0.226152 0.348964
Si Si5 0.187194 0.848955 0.333884
Si Si6 0.935552 0.750149 0.116691
O O1 0.695486 0.583578 0.561699
O O2 0.776991 0.420929 0.384310
O O3 0.027500 0.641603 0.282755
O O4 0.942610 0.335882 0.398207
O O5 0.471238 0.537885 0.211348
O O6 0.513606 0.209684 0.169682
O O7 0.263296 0.346014 0.252245
O O8 0.621251 0.395742 0.988064
O O9 0.672645 0.422526 0.195675
O O10 0.715496 0.254294 0.297858
O O11 0.037324 0.724634 0.472214
O O12 0.090663 0.031439 0.363293
#
# Coordination Sequence:
#
# PCOD9246157 Si02
#       6
#     4   4   4   4   4   4
#     4  11  24  40  61  88 122 158 197 245 298 355
#     4  10  23  40  61  89 119 157 200 245 296 351
#     4  10  22  40  62  85 118 160 199 240 294 361
#     4  11  24  39  61  92 122 154 198 252 299 344
#     4  10  21  40  64  88 119 158 200 246 295 352
#     4  10  22  41  63  87 120 162 200 238 296 362
#
# _framework density 24.883268999999999
#
# number of rings (size 3 to 8) (size 9 to 14) (size 15 to 20)
#    0.000    1.667    0.000    4.000    0.000   16.000 
#    0.000    0.000    0.000    0.000    0.000    0.000 
#    0.000    0.000    0.000    0.000    0.000    0.000 
#
# Total GULP energy -134473.621617 kJ/mol
# GULP energy per Si atom -5603.067567 kJ/mol
# Density = 2.482663 g / cm^3
# Si number density = 24.883269 Si / 1000 Ang^3
#
#
#
# Elastic Constant Matrix: (Units=GPa)
#
#
# Indices 1 2 3 4 5 6 
#
# 1 82.4451 -12.6396 35.7761 0.0000 11.2940 0.0000
# 2 -12.6396 51.9842 6.3379 0.0000 3.6450 0.0000
# 3 35.7761 6.3379 151.2459 0.0000 6.4994 0.0000
# 4 0.0000 0.0000 0.0000 33.7626 0.0000 2.1902
# 5 11.2940 3.6450 6.4994 0.0000 49.8296 0.0000
# 6 0.0000 0.0000 0.0000 2.1902 0.0000 32.0254
#
#
#
# Elastic Compliance Matrix: (Units=1/GPa)
#
#
# Indices 1 2 3 4 5 6 
#
# 1 0.014748 0.004240 -0.003529 0.000000 -0.003193 0.000000
# 2 0.004240 0.020641 -0.001772 0.000000 -0.002240 0.000000
# 3 -0.003529 -0.001772 0.007523 0.000000 -0.000052 0.000000
# 4 0.000000 0.000000 0.000000 0.029751 0.000000 -0.002035
# 5 -0.003193 -0.002240 -0.000052 0.000000 0.020963 0.000000
# 6 0.000000 0.000000 0.000000 -0.002035 0.000000 0.031364
#
#
# Mechanical properties :
#
#
# Convention : Reuss Voigt Hill
#
# Bulk Modulus (GPa) = 24.51564 38.29154 31.40359
# Shear Modulus (GPa) = 35.53478 40.20357 37.86918
#
# Velocity S-wave (km/s) = 3.78307 4.02392 3.90535
# Velocity P-wave (km/s) = 5.38106 6.08368 5.74312
#
# Compressibility (1/GPa) = 0.04079029
#
# Stress axis : x y z
#
# Youngs Moduli (GPa) = 67.80561 48.44827 132.92605
#
# Poissons Ratio (x) = -0.20542 0.46910
# Poissons Ratio (y) = -0.28750 0.23549
# Poissons Ratio (z) = 0.23929 0.08583
#
# Static dielectric constant tensor:
#      x y z
#    x 1.904780 0.000000 0.022390 
#    y 0.000000 2.065160 0.000000 
#    z 0.022390 0.000000 1.981880 
# 
# From -- ./inp_files/58971.got.cif
#   From: 2010.05.17/outbox.cif.g08.bks.cpg/sg14_30_cif.got.tgz:58971.got - 2010.06.03 17:49:19.
