data_PCOD9246671
_publ_section_title
;
Structure prediction by ZEFSAII (Michael W. Deem and Ramdas Pophale) SiO2 
 PCOD9246671
Probable space group: P 21/C
;
_chemical_formula_sum "Si O2"
_cell_formula_units_Z 26
_cell_length_a 15.161875
_cell_length_b 9.628956
_cell_length_c 14.010891
_cell_angle_alpha 90.000000
_cell_angle_beta 31.605968
_cell_angle_gamma 90.000000
_cell_volume 1071.990648
_symmetry_space_group_name_H-M "P 21/C"
_symmetry_group_IT_number 14
_symmetry_cell_setting 'monoclinic'
loop_
_space_group_symop_operation_xyz
x,y,z
-x,1/2+y,1/2-z
-x,-y,-z
x,1/2-y,1/2+z
loop_
_atom_site_type_symbol
_atom_site_label
_atom_site_fract_x
_atom_site_fract_y
_atom_site_fract_z
Si Si1 0.872954 0.658173 0.416763
Si Si2 0.226965 0.144581 0.333666
Si Si3 0.500000 0.500000 0.000000
Si Si4 0.615875 0.773964 0.000660
Si Si5 0.596292 0.226076 0.036514
Si Si6 0.244926 0.651026 0.794783
Si Si7 0.854631 0.170295 0.952708
O O1 0.868949 0.734995 0.522370
O O2 0.696221 0.692800 0.527903
O O3 0.892016 0.492971 0.409072
O O4 0.010639 0.734512 0.225290
O O5 0.248123 0.173880 0.202546
O O6 0.160362 0.989640 0.409146
O O7 0.419147 0.148674 0.194022
O O8 0.574863 0.617316 0.006117
O O9 0.554129 0.374019 0.026284
O O10 0.440507 0.851488 0.145786
O O11 0.736817 0.160844 0.835525
O O12 0.678948 0.210538 0.063262
O O13 0.164248 0.783857 0.919973
#
# Coordination Sequence:
#
# PCOD9246671 Si02
#       7
#     4   4   2   4   4   4   4
#     4  12  27  43  63  96 138 180 219 264 331 398
#     4  10  21  41  69  97 125 168 223 274 333 383
#     4   8  20  36  70  98 124 160 218 270 324 358
#     4  10  22  41  70  95 136 162 223 271 336 385
#     4  10  22  41  70  95 136 162 223 271 336 385
#     4  10  21  41  69  97 125 168 223 274 333 383
#     4  12  27  43  63  96 138 180 219 264 331 398
#
# _framework density 24.253945000000002
#
# number of rings (size 3 to 8) (size 9 to 14) (size 15 to 20)
#    0.000    1.846    0.000    5.538   12.923    1.231 
#    0.000    4.615    0.000    0.000    0.000    0.000 
#    0.000    0.000    0.000    0.000    0.000    0.000 
#
# Total GULP energy -144899.466590 kJ/mol
# GULP energy per Si atom -5573.056407 kJ/mol
# Density = 2.419874 g / cm^3
# Si number density = 24.253945 Si / 1000 Ang^3
#
#
#
# Elastic Constant Matrix: (Units=GPa)
#
#
# Indices 1 2 3 4 5 6 
#
# 1 74.5716 -12.5408 7.4908 0.0000 3.4546 0.0000
# 2 -12.5408 78.1561 3.1471 0.0000 -5.3157 0.0000
# 3 7.4908 3.1471 85.5197 0.0000 3.3570 0.0000
# 4 0.0000 0.0000 0.0000 13.4484 0.0000 -7.2933
# 5 3.4546 -5.3157 3.3570 0.0000 48.1383 0.0000
# 6 0.0000 0.0000 0.0000 -7.2933 0.0000 9.9552
#
#
#
# Elastic Compliance Matrix: (Units=1/GPa)
#
#
# Indices 1 2 3 4 5 6 
#
# 1 0.013946 0.002244 -0.001278 0.000000 -0.000664 0.000000
# 2 0.002244 0.013277 -0.000738 0.000000 0.001357 0.000000
# 3 -0.001278 -0.000738 0.011864 0.000000 -0.000817 0.000000
# 4 0.000000 0.000000 0.000000 0.123377 0.000000 0.090387
# 5 -0.000664 0.001357 -0.000817 0.000000 0.021028 0.000000
# 6 0.000000 0.000000 0.000000 0.090387 0.000000 0.166668
#
#
# Mechanical properties :
#
#
# Convention : Reuss Voigt Hill
#
# Bulk Modulus (GPa) = 25.28886 26.04908 25.66897
# Shear Modulus (GPa) = 13.77842 30.31839 22.04841
#
# Velocity S-wave (km/s) = 2.38605 3.53943 3.01834
# Velocity P-wave (km/s) = 4.24739 5.24088 4.77007
#
# Compressibility (1/GPa) = 0.03954310
#
# Stress axis : x y z
#
# Youngs Moduli (GPa) = 71.70269 75.31827 84.28564
#
# Poissons Ratio (x) = -0.16902 0.10773
# Poissons Ratio (y) = -0.16091 0.06224
# Poissons Ratio (z) = 0.09164 0.05562
#
# Static dielectric constant tensor:
#      x y z
#    x 1.966220 0.000000 -0.004300 
#    y 0.000000 1.885170 0.000000 
#    z -0.004300 0.000000 1.998810 
# 
# From -- ./inp_files/60138.got.cif
#   From: 2010.05.17/outbox.cif.g08.bks.cpg/sg14_31_cif.got.tgz:60138.got - 2010.06.03 17:49:19.
