data_PCOD9246643
_publ_section_title
;
Structure prediction by ZEFSAII (Michael W. Deem and Ramdas Pophale) SiO2 
 PCOD9246643
Probable space group: P 21/C
;
_chemical_formula_sum "Si O2"
_cell_formula_units_Z 24
_cell_length_a 12.120118
_cell_length_b 16.243104
_cell_length_c 10.404573
_cell_angle_alpha 90.000000
_cell_angle_beta 143.487563
_cell_angle_gamma 90.000000
_cell_volume 1218.751330
_symmetry_space_group_name_H-M "P 21/C"
_symmetry_group_IT_number 14
_symmetry_cell_setting 'monoclinic'
loop_
_space_group_symop_operation_xyz
x,y,z
-x,1/2+y,1/2-z
-x,-y,-z
x,1/2-y,1/2+z
loop_
_atom_site_type_symbol
_atom_site_label
_atom_site_fract_x
_atom_site_fract_y
_atom_site_fract_z
Si Si1 0.754505 0.116146 0.513336
Si Si2 0.904581 0.925379 0.339673
Si Si3 0.643920 0.430508 0.184832
Si Si4 0.421947 0.993036 0.118196
Si Si5 0.364041 0.169773 0.774404
Si Si6 0.509851 0.256095 0.168289
O O1 0.764418 0.097329 0.675235
O O2 0.599064 0.050268 0.318091
O O3 0.673312 0.204134 0.390614
O O4 0.951900 0.105264 0.631658
O O5 0.843149 0.858831 0.387260
O O6 0.713220 0.959018 0.102315
O O7 0.000000 0.000000 0.500000
O O8 0.705299 0.472411 0.375836
O O9 0.557149 0.345560 0.155284
O O10 0.500000 0.500000 0.000000
O O11 0.505638 0.908277 0.140776
O O12 0.370556 0.229326 0.657142
O O13 0.438599 0.208643 0.976231
#
# Coordination Sequence:
#
# PCOD9246643 Si02
#       6
#     4   4   4   4   4   4
#     4  11  21  40  66  95 130 162 216 270 321 383
#     4  12  23  38  65  98 123 166 221 265 317 390
#     4   9  21  40  67  94 125 175 213 263 329 386
#     4  10  21  41  68  91 127 171 212 262 326 387
#     4  11  22  41  65  93 128 173 211 266 324 384
#     4  11  21  40  67  90 130 171 213 264 325 383
#
# _framework density 19.692284999999998
#
# number of rings (size 3 to 8) (size 9 to 14) (size 15 to 20)
#    0.000    1.333    5.000    1.500    0.000    0.667 
#    3.000    0.000    0.000    0.000    0.000    0.000 
#    0.000    0.000    0.000    0.000    0.000    0.000 
#
# Total GULP energy -133697.525321 kJ/mol
# GULP energy per Si atom -5570.730222 kJ/mol
# Density = 1.964746 g / cm^3
# Si number density = 19.692285 Si / 1000 Ang^3
#
#
#
# Elastic Constant Matrix: (Units=GPa)
#
#
# Indices 1 2 3 4 5 6 
#
# 1 193.2008 33.7659 28.2250 0.0000 -8.5341 0.0000
# 2 33.7659 83.1817 6.4364 0.0000 -5.0733 0.0000
# 3 28.2250 6.4364 28.4971 0.0000 -3.2925 0.0000
# 4 0.0000 0.0000 0.0000 16.7737 0.0000 -1.6342
# 5 -8.5341 -5.0733 -3.2925 0.0000 28.5508 0.0000
# 6 0.0000 0.0000 0.0000 -1.6342 0.0000 42.6793
#
#
#
# Elastic Compliance Matrix: (Units=1/GPa)
#
#
# Indices 1 2 3 4 5 6 
#
# 1 0.006429 -0.002108 -0.005790 0.000000 0.000879 0.000000
# 2 -0.002108 0.013027 -0.000669 0.000000 0.001608 0.000000
# 3 -0.005790 -0.000669 0.041314 0.000000 0.002915 0.000000
# 4 0.000000 0.000000 0.000000 0.059841 0.000000 0.002291
# 5 0.000879 0.001608 0.002915 0.000000 0.035910 0.000000
# 6 0.000000 0.000000 0.000000 0.002291 0.000000 0.023518
#
#
# Mechanical properties :
#
#
# Convention : Reuss Voigt Hill
#
# Bulk Modulus (GPa) = 22.91644 49.08157 35.99901
# Shear Modulus (GPa) = 23.61630 33.36424 28.49027
#
# Velocity S-wave (km/s) = 3.46680 4.12063 3.80777
# Velocity P-wave (km/s) = 5.26189 6.90057 6.13617
#
# Compressibility (1/GPa) = 0.04363680
#
# Stress axis : x y z
#
# Youngs Moduli (GPa) = 155.54258 76.76120 24.20501
#
# Poissons Ratio (x) = 0.16182 0.14015
# Poissons Ratio (y) = 0.32790 0.01618
# Poissons Ratio (z) = 0.90059 0.05133
#
# Static dielectric constant tensor:
#      x y z
#    x 1.735320 0.000000 -0.047040 
#    y 0.000000 1.737300 0.000000 
#    z -0.047040 0.000000 1.642950 
# 
# From -- ./inp_files/29892.got.cif
#   From: 2010.05.17/outbox.cif.g08.bks.cpg/sg14_15_cif.got.tgz:29892.got - 2010.06.03 17:49:19.
