data_PCOD9246725
_publ_section_title
;
Structure prediction by ZEFSAII (Michael W. Deem and Ramdas Pophale) SiO2 
 PCOD9246725
Probable space group: P 21/C
;
_chemical_formula_sum "Si O2"
_cell_formula_units_Z 26
_cell_length_a 16.100401
_cell_length_b 10.516449
_cell_length_c 13.539726
_cell_angle_alpha 90.000000
_cell_angle_beta 26.964519
_cell_angle_gamma 90.000000
_cell_volume 1039.523285
_symmetry_space_group_name_H-M "P 21/C"
_symmetry_group_IT_number 14
_symmetry_cell_setting 'monoclinic'
loop_
_space_group_symop_operation_xyz
x,y,z
-x,1/2+y,1/2-z
-x,-y,-z
x,1/2-y,1/2+z
loop_
_atom_site_type_symbol
_atom_site_label
_atom_site_fract_x
_atom_site_fract_y
_atom_site_fract_z
Si Si1 0.087089 0.725868 0.462952
Si Si2 0.679369 0.179642 0.462289
Si Si3 0.120827 0.119780 0.467100
Si Si4 0.282838 0.379166 0.337366
Si Si5 0.000000 0.500000 0.500000
Si Si6 0.733420 0.023070 0.942332
Si Si7 0.372562 0.903052 0.263142
O O1 0.948200 0.828517 0.566275
O O2 0.265393 0.786714 0.322890
O O3 0.996107 0.603822 0.604937
O O4 0.148772 0.651705 0.293102
O O5 0.496710 0.147138 0.597699
O O6 0.668037 0.330692 0.496635
O O7 0.687894 0.109445 0.557863
O O8 0.178431 0.245088 0.467176
O O9 0.945252 0.043075 0.691343
O O10 0.287501 0.024020 0.298530
O O11 0.273412 0.470738 0.440543
O O12 0.190566 0.436319 0.340096
O O13 0.590328 0.928641 0.037803
#
# Coordination Sequence:
#
# PCOD9246725 Si02
#       7
#     4   4   4   4   2   4   4
#     4  10  23  42  64  95 128 167 217 266 324 386
#     4  10  22  41  65  94 128 169 218 268 320 385
#     4  10  22  38  64  92 126 168 210 272 319 383
#     4  10  21  42  61  93 131 166 219 266 322 387
#     4  10  22  40  60  88 128 166 206 272 312 382
#     4  10  22  39  64  93 125 172 214 264 320 387
#     4  11  22  42  64  91 131 171 214 268 325 381
#
# _framework density 25.011465999999999
#
# number of rings (size 3 to 8) (size 9 to 14) (size 15 to 20)
#    0.000    1.846    1.538    1.385    6.462    3.077 
#    5.538    1.538    0.000    0.000    0.000    0.000 
#    0.000    0.000    0.000    0.000    0.000    0.000 
#
# Total GULP energy -144836.656787 kJ/mol
# GULP energy per Si atom -5570.640646 kJ/mol
# Density = 2.495454 g / cm^3
# Si number density = 25.011466 Si / 1000 Ang^3
#
#
#
# Elastic Constant Matrix: (Units=GPa)
#
#
# Indices 1 2 3 4 5 6 
#
# 1 130.3394 42.7675 55.7399 0.0000 -41.9844 0.0000
# 2 42.7675 36.3950 12.4855 0.0000 32.5369 0.0000
# 3 55.7399 12.4855 102.6971 0.0000 -28.7966 0.0000
# 4 0.0000 0.0000 0.0000 58.1639 0.0000 -26.0284
# 5 -41.9844 32.5369 -28.7966 0.0000 14.5351 0.0000
# 6 0.0000 0.0000 0.0000 -26.0284 0.0000 66.4840
#
#
#
# Elastic Compliance Matrix: (Units=1/GPa)
#
#
# Indices 1 2 3 4 5 6 
#
# 1 0.005151 0.005673 -0.006467 0.000000 -0.010635 0.000000
# 2 0.005673 0.000230 0.003022 0.000000 0.021860 0.000000
# 3 -0.006467 0.003022 0.012925 0.000000 0.000161 0.000000
# 4 0.000000 0.000000 0.000000 0.020845 0.000000 0.008161
# 5 -0.010635 0.021860 0.000161 0.000000 -0.010535 0.000000
# 6 0.000000 0.000000 0.000000 0.008161 0.000000 0.018236
#
#
# Mechanical properties :
#
#
# Convention : Reuss Voigt Hill
#
# Bulk Modulus (GPa) = 43.93151 54.60195 49.26673
# Shear Modulus (GPa) = 100.03283 38.39918 69.21600
#
# Velocity S-wave (km/s) = 6.33100 3.92249 5.26629
# Velocity P-wave (km/s) = 8.42881 6.51097 7.53119
#
# Compressibility (1/GPa) = 0.02276271
#
# Stress axis : x y z
#
# Youngs Moduli (GPa) = 194.14098 4343.99147 77.36802
#
# Poissons Ratio (x) = -24.64508 0.50038
# Poissons Ratio (y) = -1.10143 -0.23383
# Poissons Ratio (z) = 1.25560 -13.12881
#
# Static dielectric constant tensor:
#      x y z
#    x 1.888600 0.000000 -0.235220 
#    y 0.000000 -0.027450 0.000000 
#    z -0.235220 0.000000 0.892390 
# 
# From -- ./inp_files/47099.got.cif
#   From: 2010.05.17/outbox.cif.g08.bks.cpg/sg14_24_cif.got.tgz:47099.got - 2010.06.03 17:49:19.
