data_PCOD9246788
_publ_section_title
;
Structure prediction by ZEFSAII (Michael W. Deem and Ramdas Pophale) SiO2 
 PCOD9246788
Probable space group: P 21/C
;
_chemical_formula_sum "Si O2"
_cell_formula_units_Z 20
_cell_length_a 5.879728
_cell_length_b 8.073951
_cell_length_c 22.427710
_cell_angle_alpha 90.000000
_cell_angle_beta 55.151267
_cell_angle_gamma 90.000000
_cell_volume 873.762477
_symmetry_space_group_name_H-M "P 21/C"
_symmetry_group_IT_number 14
_symmetry_cell_setting 'monoclinic'
loop_
_space_group_symop_operation_xyz
x,y,z
-x,1/2+y,1/2-z
-x,-y,-z
x,1/2-y,1/2+z
loop_
_atom_site_type_symbol
_atom_site_label
_atom_site_fract_x
_atom_site_fract_y
_atom_site_fract_z
Si Si1 0.970248 0.475168 0.432349
Si Si2 0.712708 0.731366 0.383003
Si Si3 0.180301 0.954960 0.347662
Si Si4 0.484900 0.383056 0.699745
Si Si5 0.748231 0.126113 0.482084
O O1 0.794568 0.624120 0.428906
O O2 0.828114 0.299838 0.437678
O O3 0.000000 0.500000 0.500000
O O4 0.271383 0.491820 0.356507
O O5 0.734279 0.620141 0.321383
O O6 0.399379 0.794528 0.438314
O O7 0.916916 0.886414 0.349739
O O8 0.377118 0.797106 0.321088
O O9 0.347349 0.084465 0.283429
O O10 0.034176 0.026079 0.429177
O O11 0.500000 0.000000 0.500000
#
# Coordination Sequence:
#
# PCOD9246788 Si02
#       5
#     4   4   4   4   4
#     4  11  22  41  69  95 129 171 218 273 330 392
#     4  10  23  42  65  96 130 171 223 268 329 399
#     4  10  24  41  62  95 130 174 218 272 333 392
#     4  11  23  43  65  95 133 173 221 273 329 395
#     4  10  21  42  64  97 132 167 214 271 331 394
#
# _framework density 22.889514999999999
#
# number of rings (size 3 to 8) (size 9 to 14) (size 15 to 20)
#    0.000    1.600    2.000    1.800    0.000    5.600 
#    7.200    2.000    0.000    0.000    0.000    0.000 
#    0.000    0.000    0.000    0.000    0.000    0.000 
#
# Total GULP energy -111383.085909 kJ/mol
# GULP energy per Si atom -5569.154295 kJ/mol
# Density = 2.283742 g / cm^3
# Si number density = 22.889515 Si / 1000 Ang^3
#
#
#
# Elastic Constant Matrix: (Units=GPa)
#
#
# Indices 1 2 3 4 5 6 
#
# 1 48.3647 19.4792 47.0040 0.0000 -1.8575 0.0000
# 2 19.4792 107.7777 52.3667 0.0000 -10.2041 0.0000
# 3 47.0040 52.3667 150.5605 0.0000 -4.3624 0.0000
# 4 0.0000 0.0000 0.0000 44.6047 0.0000 -19.8617
# 5 -1.8575 -10.2041 -4.3624 0.0000 18.1967 0.0000
# 6 0.0000 0.0000 0.0000 -19.8617 0.0000 31.3286
#
#
#
# Elastic Compliance Matrix: (Units=1/GPa)
#
#
# Indices 1 2 3 4 5 6 
#
# 1 0.029781 -0.001009 -0.008937 0.000000 0.000332 0.000000
# 2 -0.001009 0.011745 -0.003607 0.000000 0.005619 0.000000
# 3 -0.008937 -0.003607 0.010676 0.000000 -0.000376 0.000000
# 4 0.000000 0.000000 0.000000 0.031237 0.000000 0.019804
# 5 0.000332 0.005619 -0.000376 0.000000 0.058050 0.000000
# 6 0.000000 0.000000 0.000000 0.019804 0.000000 0.044475
#
#
# Mechanical properties :
#
#
# Convention : Reuss Voigt Hill
#
# Bulk Modulus (GPa) = 39.84765 60.48920 50.16842
# Shear Modulus (GPa) = 22.57996 31.34954 26.96475
#
# Velocity S-wave (km/s) = 3.14423 3.70483 3.43598
# Velocity P-wave (km/s) = 5.53426 6.69216 6.14056
#
# Compressibility (1/GPa) = 0.02509558
#
# Stress axis : x y z
#
# Youngs Moduli (GPa) = 33.57881 85.13960 93.67076
#
# Poissons Ratio (x) = 0.08589 0.83712
# Poissons Ratio (y) = 0.03387 0.33791
# Poissons Ratio (z) = 0.30009 0.30714
#
# Static dielectric constant tensor:
#      x y z
#    x 1.894260 0.000000 -0.017290 
#    y 0.000000 1.886330 0.000000 
#    z -0.017290 0.000000 1.834690 
# 
# From -- ./inp_files/60397.got.cif
#   From: 2010.05.17/outbox.cif.g08.bks.cpg/sg14_31_cif.got.tgz:60397.got - 2010.06.03 17:49:19.
