data_PCOD9246532
_publ_section_title
;
Structure prediction by ZEFSAII (Michael W. Deem and Ramdas Pophale) SiO2 
 PCOD9246532
Probable space group: P 21/C
;
_chemical_formula_sum "Si O2"
_cell_formula_units_Z 28
_cell_length_a 9.568078
_cell_length_b 23.558330
_cell_length_c 10.034485
_cell_angle_alpha 90.000000
_cell_angle_beta 140.874988
_cell_angle_gamma 90.000000
_cell_volume 1427.261831
_symmetry_space_group_name_H-M "P 21/C"
_symmetry_group_IT_number 14
_symmetry_cell_setting 'monoclinic'
loop_
_space_group_symop_operation_xyz
x,y,z
-x,1/2+y,1/2-z
-x,-y,-z
x,1/2-y,1/2+z
loop_
_atom_site_type_symbol
_atom_site_label
_atom_site_fract_x
_atom_site_fract_y
_atom_site_fract_z
Si Si1 0.756871 0.687941 0.035064
Si Si2 0.957820 0.570766 0.084666
Si Si3 0.005894 0.050840 0.105150
Si Si4 0.721798 0.358769 0.246853
Si Si5 0.628230 0.017408 0.228334
Si Si6 0.557067 0.902596 0.688416
Si Si7 0.165117 0.206013 0.094997
O O1 0.502123 0.668452 0.862633
O O2 0.778422 0.737070 0.941636
O O3 0.902091 0.634165 0.091906
O O4 0.824746 0.708261 0.235188
O O5 0.022776 0.535106 0.264250
O O6 0.169485 0.561674 0.148228
O O7 0.743659 0.539913 0.866801
O O8 0.250914 0.076853 0.270220
O O9 0.823461 0.095770 0.923858
O O10 0.000000 0.000000 0.000000
O O11 0.918818 0.314017 0.373448
O O12 0.655879 0.389050 0.059262
O O13 0.481126 0.049399 0.229861
O O14 0.500000 0.000000 0.000000
O O15 0.660918 0.843610 0.818411
#
# Coordination Sequence:
#
# PCOD9246532 Si02
#       7
#     4   4   4   4   4   4   4
#     4  11  24  43  66  95 131 172 226 275 329 402
#     4  11  24  42  59  98 130 168 222 261 327 407
#     4  11  21  37  68  94 123 166 216 265 318 394
#     4  10  21  41  65  90 127 163 217 272 323 383
#     4  11  26  40  62  94 137 172 208 269 339 385
#     4  10  22  42  62  97 124 168 223 259 325 399
#     4  10  24  43  64  98 125 171 229 272 328 388
#
# _framework density 19.617985000000001
#
# number of rings (size 3 to 8) (size 9 to 14) (size 15 to 20)
#    0.000    1.429    4.286    1.714    4.000   10.286 
#    0.000    0.000    0.000    0.000    0.000    0.000 
#    0.000    0.000    0.000    0.000    0.000    0.000 
#
# Total GULP energy -156312.973064 kJ/mol
# GULP energy per Si atom -5582.606181 kJ/mol
# Density = 1.957333 g / cm^3
# Si number density = 19.617985 Si / 1000 Ang^3
#
#
#
# Elastic Constant Matrix: (Units=GPa)
#
#
# Indices 1 2 3 4 5 6 
#
# 1 55.8246 23.3831 41.6592 0.0000 -2.9701 0.0000
# 2 23.3831 53.9335 33.7150 0.0000 -5.2549 0.0000
# 3 41.6592 33.7150 105.6694 0.0000 1.9103 0.0000
# 4 0.0000 0.0000 0.0000 21.0750 0.0000 -12.9436
# 5 -2.9701 -5.2549 1.9103 0.0000 23.0174 0.0000
# 6 0.0000 0.0000 0.0000 -12.9436 0.0000 38.4134
#
#
#
# Elastic Compliance Matrix: (Units=1/GPa)
#
#
# Indices 1 2 3 4 5 6 
#
# 1 0.027179 -0.005961 -0.008865 0.000000 0.002882 0.000000
# 2 -0.005961 0.025300 -0.005821 0.000000 0.005490 0.000000
# 3 -0.008865 -0.005821 0.014883 0.000000 -0.003708 0.000000
# 4 0.000000 0.000000 0.000000 0.059832 0.000000 0.020161
# 5 0.002882 0.005490 -0.003708 0.000000 0.045378 0.000000
# 6 0.000000 0.000000 0.000000 0.020161 0.000000 0.032826
#
#
# Mechanical properties :
#
#
# Convention : Reuss Voigt Hill
#
# Bulk Modulus (GPa) = 38.36328 45.88246 42.12287
# Shear Modulus (GPa) = 19.57853 24.27917 21.92885
#
# Velocity S-wave (km/s) = 3.16252 3.52177 3.34697
# Velocity P-wave (km/s) = 5.73873 6.32265 6.03775
#
# Compressibility (1/GPa) = 0.02606659
#
# Stress axis : x y z
#
# Youngs Moduli (GPa) = 36.79286 39.52620 67.19086
#
# Poissons Ratio (x) = 0.23561 0.59567
# Poissons Ratio (y) = 0.21932 0.39114
# Poissons Ratio (z) = 0.32618 0.23010
#
# Static dielectric constant tensor:
#      x y z
#    x 1.674990 0.000000 0.010750 
#    y 0.000000 1.719360 0.000000 
#    z 0.010750 0.000000 1.697390 
# 
# From -- ./inp_files/11007.got.cif
#   From: 2010.05.17/outbox.cif.g08.bks.cpg/sg14_6_cif.got.tgz:11007.got - 2010.06.03 17:49:19.
