data_PCOD9246361
_publ_section_title
;
Structure prediction by ZEFSAII (Michael W. Deem and Ramdas Pophale) SiO2 
 PCOD9246361
Probable space group: P 21/C
;
_chemical_formula_sum "Si O2"
_cell_formula_units_Z 28
_cell_length_a 19.794034
_cell_length_b 8.687122
_cell_length_c 13.102381
_cell_angle_alpha 90.000000
_cell_angle_beta 33.877085
_cell_angle_gamma 90.000000
_cell_volume 1255.849605
_symmetry_space_group_name_H-M "P 21/C"
_symmetry_group_IT_number 14
_symmetry_cell_setting 'monoclinic'
loop_
_space_group_symop_operation_xyz
x,y,z
-x,1/2+y,1/2-z
-x,-y,-z
x,1/2-y,1/2+z
loop_
_atom_site_type_symbol
_atom_site_label
_atom_site_fract_x
_atom_site_fract_y
_atom_site_fract_z
Si Si1 0.219179 0.439741 0.980257
Si Si2 0.746848 0.706519 0.841418
Si Si3 0.965906 0.871581 0.457905
Si Si4 0.773714 0.251171 0.423856
Si Si5 0.385791 0.591236 0.041058
Si Si6 0.470694 0.347559 0.597365
Si Si7 0.598278 0.988976 0.119589
O O1 0.211431 0.364984 0.102063
O O2 0.101352 0.438032 0.057598
O O3 0.251832 0.617610 0.962200
O O4 0.326289 0.345130 0.789891
O O5 0.866252 0.762662 0.634799
O O6 0.675027 0.574440 0.869318
O O7 0.658763 0.850020 0.979813
O O8 0.085799 0.783989 0.271007
O O9 0.000000 0.000000 0.500000
O O10 0.717284 0.188296 0.388523
O O11 0.705856 0.410335 0.532921
O O12 0.449995 0.703549 0.041999
O O13 0.501520 0.568210 0.821982
O O14 0.500000 0.500000 0.500000
O O15 0.522175 0.395309 0.644006
#
# Coordination Sequence:
#
# PCOD9246361 Si02
#       7
#     4   4   4   4   4   4   4
#     4  11  25  45  67 104 139 187 240 285 357 426
#     4  11  22  44  74 101 144 184 235 298 353 432
#     4  12  27  45  70 101 143 191 246 292 354 423
#     4  10  23  42  70 100 135 191 229 284 354 427
#     4  10  21  40  70 101 134 177 225 287 367 415
#     4  11  22  39  66 102 143 177 228 285 355 436
#     4  11  18  41  71  99 135 178 222 281 369 410
#
# _framework density 22.295665
#
# number of rings (size 3 to 8) (size 9 to 14) (size 15 to 20)
#    0.000    1.143    5.714    1.714    4.000    2.286 
#    0.000    5.714    0.000    0.000    0.000    0.000 
#    0.000    0.000    0.000    0.000    0.000    0.000 
#
# Total GULP energy -156450.257718 kJ/mol
# GULP energy per Si atom -5587.509204 kJ/mol
# Density = 2.224492 g / cm^3
# Si number density = 22.295665 Si / 1000 Ang^3
#
#
#
# Elastic Constant Matrix: (Units=GPa)
#
#
# Indices 1 2 3 4 5 6 
#
# 1 93.4874 34.4252 19.2642 0.0000 -29.6340 0.0000
# 2 34.4252 145.7518 44.1741 0.0000 -18.5595 0.0000
# 3 19.2642 44.1741 110.4280 0.0000 -26.6464 0.0000
# 4 0.0000 0.0000 0.0000 43.2128 0.0000 -6.5845
# 5 -29.6340 -18.5595 -26.6464 0.0000 36.5839 0.0000
# 6 0.0000 0.0000 0.0000 -6.5845 0.0000 39.4749
#
#
#
# Elastic Compliance Matrix: (Units=1/GPa)
#
#
# Indices 1 2 3 4 5 6 
#
# 1 0.015107 -0.002418 0.001200 0.000000 0.011884 0.000000
# 2 -0.002418 0.008323 -0.002865 0.000000 0.000177 0.000000
# 3 0.001200 -0.002865 0.011982 0.000000 0.008246 0.000000
# 4 0.000000 0.000000 0.000000 0.023745 0.000000 0.003961
# 5 0.011884 0.000177 0.008246 0.000000 0.043056 0.000000
# 6 0.000000 0.000000 0.000000 0.003961 0.000000 0.025993
#
#
# Mechanical properties :
#
#
# Convention : Reuss Voigt Hill
#
# Bulk Modulus (GPa) = 36.70437 60.59936 48.65186
# Shear Modulus (GPa) = 34.37481 40.64123 37.50802
#
# Velocity S-wave (km/s) = 3.93080 4.27409 4.10604
# Velocity P-wave (km/s) = 6.09097 7.18304 6.65943
#
# Compressibility (1/GPa) = 0.02724471
#
# Stress axis : x y z
#
# Youngs Moduli (GPa) = 66.19445 120.14941 83.45769
#
# Poissons Ratio (x) = 0.29058 -0.10012
# Poissons Ratio (y) = 0.16009 0.23910
# Poissons Ratio (z) = -0.07941 0.34421
#
# Static dielectric constant tensor:
#      x y z
#    x 1.899470 0.000000 0.027530 
#    y 0.000000 1.944320 0.000000 
#    z 0.027530 0.000000 1.772850 
# 
# From -- ./inp_files/50023.got.cif
#   From: 2010.05.17/outbox.cif.g08.bks.cpg/sg14_26_cif.got.tgz:50023.got - 2010.06.03 17:49:19.
