data_PCOD9246647
_publ_section_title
;
Structure prediction by ZEFSAII (Michael W. Deem and Ramdas Pophale) SiO2 
 PCOD9246647
Probable space group: P 21/C
;
_chemical_formula_sum "Si O2"
_cell_formula_units_Z 28
_cell_length_a 7.995949
_cell_length_b 14.371860
_cell_length_c 12.986462
_cell_angle_alpha 90.000000
_cell_angle_beta 121.424767
_cell_angle_gamma 90.000000
_cell_volume 1273.469558
_symmetry_space_group_name_H-M "P 21/C"
_symmetry_group_IT_number 14
_symmetry_cell_setting 'monoclinic'
loop_
_space_group_symop_operation_xyz
x,y,z
-x,1/2+y,1/2-z
-x,-y,-z
x,1/2-y,1/2+z
loop_
_atom_site_type_symbol
_atom_site_label
_atom_site_fract_x
_atom_site_fract_y
_atom_site_fract_z
Si Si1 0.666632 0.465496 0.475638
Si Si2 0.945661 0.417845 0.126924
Si Si3 0.042441 0.371551 0.379155
Si Si4 0.594578 0.886395 0.271656
Si Si5 0.733998 0.768145 0.696157
Si Si6 0.342290 0.426268 0.981850
Si Si7 0.108438 0.782997 0.962194
O O1 0.500000 0.500000 0.500000
O O2 0.840803 0.540675 0.536501
O O3 0.562481 0.454140 0.331082
O O4 0.745545 0.362936 0.531572
O O5 0.855795 0.515074 0.063342
O O6 0.850491 0.327262 0.040359
O O7 0.914348 0.405923 0.240400
O O8 0.181063 0.415866 0.185072
O O9 0.191490 0.301366 0.369905
O O10 0.935612 0.314783 0.434963
O O11 0.572446 0.786486 0.209737
O O12 0.591873 0.878141 0.392130
O O13 0.673119 0.858116 0.617593
O O14 0.910363 0.790774 0.830692
O O15 0.500000 0.500000 0.000000
#
# Coordination Sequence:
#
# PCOD9246647 Si02
#       7
#     4   4   4   4   4   4   4
#     4  12  22  40  66  99 133 168 222 286 332 399
#     4  10  23  46  66  93 137 180 220 276 338 404
#     4  10  21  41  68  93 127 178 227 274 328 403
#     4  10  24  44  65  96 136 176 218 269 342 398
#     4  10  22  44  66  89 133 173 224 273 330 396
#     4  12  27  42  68 101 133 174 223 278 332 403
#     4  10  23  39  69  93 128 178 226 273 333 398
#
# _framework density 21.987176000000002
#
# number of rings (size 3 to 8) (size 9 to 14) (size 15 to 20)
#    0.000    1.714    2.857    3.429    6.000    0.000 
#    2.571    0.000    0.000    0.000    0.000    0.000 
#    0.000    0.000    0.000    0.000    0.000    0.000 
#
# Total GULP energy -156419.597088 kJ/mol
# GULP energy per Si atom -5586.414182 kJ/mol
# Density = 2.193713 g / cm^3
# Si number density = 21.987176 Si / 1000 Ang^3
#
#
#
# Elastic Constant Matrix: (Units=GPa)
#
#
# Indices 1 2 3 4 5 6 
#
# 1 43.3678 12.0608 11.6351 0.0000 -10.6134 0.0000
# 2 12.0608 97.3186 35.7507 0.0000 -2.5098 0.0000
# 3 11.6351 35.7507 97.3120 0.0000 -20.6912 0.0000
# 4 0.0000 0.0000 0.0000 45.3740 0.0000 5.4919
# 5 -10.6134 -2.5098 -20.6912 0.0000 32.4438 0.0000
# 6 0.0000 0.0000 0.0000 5.4919 0.0000 21.6641
#
#
#
# Elastic Compliance Matrix: (Units=1/GPa)
#
#
# Indices 1 2 3 4 5 6 
#
# 1 0.025918 -0.002884 -0.000329 0.000000 0.008046 0.000000
# 2 -0.002884 0.012331 -0.004840 0.000000 -0.003076 0.000000
# 3 -0.000329 -0.004840 0.013872 0.000000 0.008365 0.000000
# 4 0.000000 0.000000 0.000000 0.022737 0.000000 -0.005764
# 5 0.008046 -0.003076 0.008365 0.000000 0.038552 0.000000
# 6 0.000000 0.000000 0.000000 -0.005764 0.000000 0.047620
#
#
# Mechanical properties :
#
#
# Convention : Reuss Voigt Hill
#
# Bulk Modulus (GPa) = 27.76434 39.65461 33.70947
# Shear Modulus (GPa) = 26.43545 31.79983 29.11764
#
# Velocity S-wave (km/s) = 3.47120 3.80714 3.64304
# Velocity P-wave (km/s) = 5.35916 6.11557 5.74982
#
# Compressibility (1/GPa) = 0.03601743
#
# Stress axis : x y z
#
# Youngs Moduli (GPa) = 38.58347 81.09341 72.08679
#
# Poissons Ratio (x) = 0.23386 0.02369
# Poissons Ratio (y) = 0.11127 0.34887
# Poissons Ratio (z) = 0.01268 0.39246
#
# Static dielectric constant tensor:
#      x y z
#    x 1.867560 0.000000 -0.013760 
#    y 0.000000 1.921870 0.000000 
#    z -0.013760 0.000000 1.779190 
# 
# From -- ./inp_files/25585.got.cif
#   From: 2010.05.17/outbox.cif.g08.bks.cpg/sg14_13_cif.got.tgz:25585.got - 2010.06.03 17:49:19.
