data_PCOD9246801
_publ_section_title
;
Structure prediction by ZEFSAII (Michael W. Deem and Ramdas Pophale) SiO2 
 PCOD9246801
Probable space group: P 21/C
;
_chemical_formula_sum "Si O2"
_cell_formula_units_Z 16
_cell_length_a 7.986255
_cell_length_b 7.234725
_cell_length_c 13.555623
_cell_angle_alpha 90.000000
_cell_angle_beta 122.733537
_cell_angle_gamma 90.000000
_cell_volume 658.841679
_symmetry_space_group_name_H-M "P 21/C"
_symmetry_group_IT_number 14
_symmetry_cell_setting 'monoclinic'
loop_
_space_group_symop_operation_xyz
x,y,z
-x,1/2+y,1/2-z
-x,-y,-z
x,1/2-y,1/2+z
loop_
_atom_site_type_symbol
_atom_site_label
_atom_site_fract_x
_atom_site_fract_y
_atom_site_fract_z
Si Si1 0.337384 0.335480 0.074160
Si Si2 0.300394 0.113138 0.326847
Si Si3 0.573447 0.073419 0.919480
Si Si4 0.001471 0.822210 0.928139
O O1 0.541121 0.452362 0.149446
O O2 0.387176 0.121417 0.118544
O O3 0.130598 0.343209 0.069331
O O4 0.284873 0.363741 0.940569
O O5 0.403152 0.301565 0.321439
O O6 0.089983 0.106917 0.204452
O O7 0.500000 0.000000 0.000000
O O8 0.761671 0.207873 0.999417
O O9 0.000000 0.000000 0.000000
#
# Coordination Sequence:
#
# PCOD9246801 Si02
#       4
#     4   4   4   4
#     4   9  21  41  62  94 128 177 222 269 337 399
#     4  10  21  42  65  92 136 173 218 283 330 401
#     4   9  20  43  60  94 132 165 219 274 334 391
#     4  10  22  40  66  99 131 173 226 276 335 406
#
# _framework density 24.285042000000001
#
# number of rings (size 3 to 8) (size 9 to 14) (size 15 to 20)
#    0.000    2.500    0.000    0.000    7.000    1.000 
#   40.500    0.000    0.000    0.000    0.000    0.000 
#    0.000    0.000    0.000    0.000    0.000    0.000 
#
# Total GULP energy -89177.792634 kJ/mol
# GULP energy per Si atom -5573.612040 kJ/mol
# Density = 2.422977 g / cm^3
# Si number density = 24.285042 Si / 1000 Ang^3
#
#
#
# Elastic Constant Matrix: (Units=GPa)
#
#
# Indices 1 2 3 4 5 6 
#
# 1 93.0867 8.5208 16.9711 0.0000 0.0928 0.0000
# 2 8.5208 81.5772 21.0747 0.0000 6.5471 0.0000
# 3 16.9711 21.0747 142.3993 0.0000 -1.3634 0.0000
# 4 0.0000 0.0000 0.0000 30.5964 0.0000 3.6263
# 5 0.0928 6.5471 -1.3634 0.0000 28.4001 0.0000
# 6 0.0000 0.0000 0.0000 3.6263 0.0000 48.3206
#
#
#
# Elastic Compliance Matrix: (Units=1/GPa)
#
#
# Indices 1 2 3 4 5 6 
#
# 1 0.011037 -0.000854 -0.001188 0.000000 0.000104 0.000000
# 2 -0.000854 0.013078 -0.001863 0.000000 -0.003102 0.000000
# 3 -0.001188 -0.001863 0.007447 0.000000 0.000791 0.000000
# 4 0.000000 0.000000 0.000000 0.032977 0.000000 -0.002475
# 5 0.000104 -0.003102 0.000791 0.000000 0.035964 0.000000
# 6 0.000000 0.000000 0.000000 -0.002475 0.000000 0.020881
#
#
# Mechanical properties :
#
#
# Convention : Reuss Voigt Hill
#
# Bulk Modulus (GPa) = 42.10289 45.57738 43.84013
# Shear Modulus (GPa) = 36.46640 39.49654 37.98147
#
# Velocity S-wave (km/s) = 3.87925 4.03721 3.95902
# Velocity P-wave (km/s) = 6.11877 6.36714 6.24419
#
# Compressibility (1/GPa) = 0.02375134
#
# Stress axis : x y z
#
# Youngs Moduli (GPa) = 90.60142 76.46507 134.27431
#
# Poissons Ratio (x) = 0.06532 0.15952
# Poissons Ratio (y) = 0.07740 0.25020
# Poissons Ratio (z) = 0.10763 0.14248
#
# Static dielectric constant tensor:
#      x y z
#    x 2.329540 0.000000 0.002550 
#    y 0.000000 2.204730 0.000000 
#    z 0.002550 0.000000 1.937670 
# 
# From -- ./inp_files/38535.got.cif
#   From: 2010.05.17/outbox.cif.g08.bks.cpg/sg14_20_cif.got.tgz:38535.got - 2010.06.03 17:49:19.
