data_PCOD9246373
_publ_section_title
;
Structure prediction by ZEFSAII (Michael W. Deem and Ramdas Pophale) SiO2 
 PCOD9246373
Probable space group: P 21/C
;
_chemical_formula_sum "Si O2"
_cell_formula_units_Z 20
_cell_length_a 20.207386
_cell_length_b 7.191883
_cell_length_c 25.894222
_cell_angle_alpha 90.000000
_cell_angle_beta 12.592361
_cell_angle_gamma 90.000000
_cell_volume 820.423813
_symmetry_space_group_name_H-M "P 21/C"
_symmetry_group_IT_number 14
_symmetry_cell_setting 'monoclinic'
loop_
_space_group_symop_operation_xyz
x,y,z
-x,1/2+y,1/2-z
-x,-y,-z
x,1/2-y,1/2+z
loop_
_atom_site_type_symbol
_atom_site_label
_atom_site_fract_x
_atom_site_fract_y
_atom_site_fract_z
Si Si1 0.725930 0.683325 0.120523
Si Si2 0.119486 0.773796 0.617741
Si Si3 0.213614 0.366115 0.726177
Si Si4 0.987547 0.277777 0.998902
Si Si5 0.336127 0.194898 0.448079
O O1 0.403570 0.637190 0.392919
O O2 0.660608 0.765141 0.113633
O O3 0.934895 0.507485 0.948171
O O4 0.908242 0.801206 0.025049
O O5 0.874914 0.754745 0.757810
O O6 0.276865 0.973908 0.492397
O O7 0.947016 0.766923 0.802933
O O8 0.500000 0.500000 0.500000
O O9 0.217557 0.246480 0.775761
O O10 0.651796 0.228334 0.236735
O O11 0.000000 0.500000 0.000000
#
# Coordination Sequence:
#
# PCOD9246373 Si02
#       5
#     4   4   4   4   4
#     4  10  23  40  67  96 131 171 224 280 330 392
#     4  11  24  40  68  97 140 171 223 280 337 394
#     4  10  21  40  70  99 127 181 231 265 334 410
#     4  10  21  41  69  89 135 175 223 266 333 404
#     4  11  25  43  65 103 132 178 223 276 338 399
#
# _framework density 24.377645000000001
#
# number of rings (size 3 to 8) (size 9 to 14) (size 15 to 20)
#    0.000    1.600    2.000    2.400   11.200    0.800 
#    0.000    1.000    0.000    0.000    0.000    0.000 
#    0.000    0.000    0.000    0.000    0.000    0.000 
#
# Total GULP energy -111762.180178 kJ/mol
# GULP energy per Si atom -5588.109009 kJ/mol
# Density = 2.432216 g / cm^3
# Si number density = 24.377645 Si / 1000 Ang^3
#
#
#
# Elastic Constant Matrix: (Units=GPa)
#
#
# Indices 1 2 3 4 5 6 
#
# 1 201.4312 13.7125 72.7592 0.0000 3.0187 0.0000
# 2 13.7125 44.7957 19.0566 0.0000 -4.6684 0.0000
# 3 72.7592 19.0566 161.3568 0.0000 22.6015 0.0000
# 4 0.0000 0.0000 0.0000 39.7315 0.0000 0.6516
# 5 3.0187 -4.6684 22.6015 0.0000 39.0331 0.0000
# 6 0.0000 0.0000 0.0000 0.6516 0.0000 15.2512
#
#
#
# Elastic Compliance Matrix: (Units=1/GPa)
#
#
# Indices 1 2 3 4 5 6 
#
# 1 0.005993 -0.000533 -0.002792 0.000000 0.001089 0.000000
# 2 -0.000533 0.024412 -0.003327 0.000000 0.004887 0.000000
# 3 -0.002792 -0.003327 0.008570 0.000000 -0.005144 0.000000
# 4 0.000000 0.000000 0.000000 0.025187 0.000000 -0.001076
# 5 0.001089 0.004887 -0.005144 0.000000 0.029098 0.000000
# 6 0.000000 0.000000 0.000000 -0.001076 0.000000 0.065614
#
#
# Mechanical properties :
#
#
# Convention : Reuss Voigt Hill
#
# Bulk Modulus (GPa) = 38.95657 68.73780 53.84719
# Shear Modulus (GPa) = 27.66481 38.94019 33.30250
#
# Velocity S-wave (km/s) = 3.37240 4.00105 3.70010
# Velocity P-wave (km/s) = 5.58384 7.04293 6.35539
#
# Compressibility (1/GPa) = 0.02566961
#
# Stress axis : x y z
#
# Youngs Moduli (GPa) = 166.86312 40.96420 116.68734
#
# Poissons Ratio (x) = 0.02184 0.32579
# Poissons Ratio (y) = 0.08898 0.38824
# Poissons Ratio (z) = 0.46587 0.13630
#
# Static dielectric constant tensor:
#      x y z
#    x 2.086520 0.000000 0.004280 
#    y 0.000000 2.071460 0.000000 
#    z 0.004280 0.000000 1.940370 
# 
# From -- ./inp_files/80621.got.cif
#   From: 2010.05.17/outbox.cif.g08.bks.cpg/sg14_41_cif.got.tgz:80621.got - 2010.06.03 17:49:19.
