data_PCOD9246053
_publ_section_title
;
Structure prediction by ZEFSAII (Michael W. Deem and Ramdas Pophale) SiO2 
 PCOD9246053
Probable space group: P 21/C
;
_chemical_formula_sum "Si O2"
_cell_formula_units_Z 32
_cell_length_a 21.852322
_cell_length_b 9.563171
_cell_length_c 14.443419
_cell_angle_alpha 90.000000
_cell_angle_beta 32.036298
_cell_angle_gamma 90.000000
_cell_volume 1601.102838
_symmetry_space_group_name_H-M "P 21/C"
_symmetry_group_IT_number 14
_symmetry_cell_setting 'monoclinic'
loop_
_space_group_symop_operation_xyz
x,y,z
-x,1/2+y,1/2-z
-x,-y,-z
x,1/2-y,1/2+z
loop_
_atom_site_type_symbol
_atom_site_label
_atom_site_fract_x
_atom_site_fract_y
_atom_site_fract_z
Si Si1 0.320654 0.644280 0.601664
Si Si2 0.364962 0.593000 0.937637
Si Si3 0.746754 0.314647 0.636459
Si Si4 0.478937 0.091065 0.936022
Si Si5 0.049248 0.846391 0.424422
Si Si6 0.885276 0.359043 0.808283
Si Si7 0.035346 0.920077 0.050381
Si Si8 0.492341 0.908901 0.602232
O O1 0.387866 0.752766 0.450046
O O2 0.319850 0.716850 0.704155
O O3 0.372512 0.491461 0.528050
O O4 0.186878 0.638537 0.750270
O O5 0.415366 0.579394 0.770695
O O6 0.432260 0.484535 0.916110
O O7 0.225875 0.588446 0.109682
O O8 0.828606 0.219006 0.467807
O O9 0.831162 0.415744 0.587477
O O10 0.646434 0.389415 0.705820
O O11 0.457416 0.253972 0.978103
O O12 0.500000 0.000000 0.000000
O O13 0.036702 0.756078 0.346084
O O14 0.010360 0.741488 0.556637
O O15 0.000000 0.000000 0.500000
O O16 0.962318 0.497409 0.721190
O O17 0.000000 0.000000 0.000000
O O18 0.500000 0.000000 0.500000
#
# Coordination Sequence:
#
# PCOD9246053 Si02
#       8
#     4   4   4   4   4   4   4   4
#     4  10  21  40  61  87 130 171 204 273 331 391
#     4  11  22  40  67  93 132 175 222 266 340 399
#     4  11  21  42  66  90 133 169 217 274 336 387
#     4  12  22  39  63  94 130 169 220 268 333 394
#     4   9  20  38  62  90 124 161 213 269 332 382
#     4  10  21  40  67  89 125 173 215 271 333 394
#     4   9  21  40  68  90 125 174 221 272 336 402
#     4  12  24  39  66  97 131 178 221 270 332 410
#
# _framework density 19.986222999999999
#
# number of rings (size 3 to 8) (size 9 to 14) (size 15 to 20)
#    0.000    1.500    3.750    1.500    1.750    3.000 
#    2.250    0.000   11.000    0.000    0.000    0.000 
#    0.000    0.000    0.000    0.000    0.000    0.000 
#
# Total GULP energy -178321.917143 kJ/mol
# GULP energy per Si atom -5572.559911 kJ/mol
# Density = 1.994073 g / cm^3
# Si number density = 19.986223 Si / 1000 Ang^3
#
#
#
# Elastic Constant Matrix: (Units=GPa)
#
#
# Indices 1 2 3 4 5 6 
#
# 1 78.2439 46.8797 22.3858 0.0000 -0.4336 0.0000
# 2 46.8797 169.0296 56.0199 0.0000 -8.3684 0.0000
# 3 22.3858 56.0199 89.9522 0.0000 10.5429 0.0000
# 4 0.0000 0.0000 0.0000 48.3165 0.0000 -4.7477
# 5 -0.4336 -8.3684 10.5429 0.0000 33.9933 0.0000
# 6 0.0000 0.0000 0.0000 -4.7477 0.0000 34.2799
#
#
#
# Elastic Compliance Matrix: (Units=1/GPa)
#
#
# Indices 1 2 3 4 5 6 
#
# 1 0.015486 -0.003836 -0.001429 0.000000 -0.000304 0.000000
# 2 -0.003836 0.008804 -0.004957 0.000000 0.003656 0.000000
# 3 -0.001429 -0.004957 0.015259 0.000000 -0.005971 0.000000
# 4 0.000000 0.000000 0.000000 0.020982 0.000000 0.002906
# 5 -0.000304 0.003656 -0.005971 0.000000 0.032166 0.000000
# 6 0.000000 0.000000 0.000000 0.002906 0.000000 0.029574
#
#
# Mechanical properties :
#
#
# Convention : Reuss Voigt Hill
#
# Bulk Modulus (GPa) = 52.34159 65.31073 58.82616
# Shear Modulus (GPa) = 33.53811 37.44730 35.49271
#
# Velocity S-wave (km/s) = 4.10086 4.33327 4.21867
# Velocity P-wave (km/s) = 6.97628 7.60165 7.29567
#
# Compressibility (1/GPa) = 0.01910526
#
# Stress axis : x y z
#
# Youngs Moduli (GPa) = 64.57295 113.58702 65.53379
#
# Poissons Ratio (x) = 0.43577 0.09366
# Poissons Ratio (y) = 0.24773 0.32482
# Poissons Ratio (z) = 0.09228 0.56299
#
# Static dielectric constant tensor:
#      x y z
#    x 1.819030 0.000000 0.036970 
#    y 0.000000 1.727390 0.000000 
#    z 0.036970 0.000000 1.728980 
# 
# From -- ./inp_files/51349.got.cif
#   From: 2010.05.17/outbox.cif.g08.bks.cpg/sg14_26_cif.got.tgz:51349.got - 2010.06.03 17:49:19.
