data_PCOD9246542
_publ_section_title
;
Structure prediction by ZEFSAII (Michael W. Deem and Ramdas Pophale) SiO2 
 PCOD9246542
Probable space group: P 21/C
;
_chemical_formula_sum "Si O2"
_cell_formula_units_Z 16
_cell_length_a 8.097815
_cell_length_b 7.781949
_cell_length_c 10.059836
_cell_angle_alpha 90.000000
_cell_angle_beta 61.659096
_cell_angle_gamma 90.000000
_cell_volume 557.953795
_symmetry_space_group_name_H-M "P 21/C"
_symmetry_group_IT_number 14
_symmetry_cell_setting 'monoclinic'
loop_
_space_group_symop_operation_xyz
x,y,z
-x,1/2+y,1/2-z
-x,-y,-z
x,1/2-y,1/2+z
loop_
_atom_site_type_symbol
_atom_site_label
_atom_site_fract_x
_atom_site_fract_y
_atom_site_fract_z
Si Si1 0.306785 0.028536 0.812181
Si Si2 0.011406 0.737566 0.489227
Si Si3 0.800040 0.386593 0.314142
Si Si4 0.552006 0.702450 0.421413
O O1 0.404753 0.110368 0.648639
O O2 0.120984 0.913233 0.863102
O O3 0.435082 0.905961 0.853406
O O4 0.207878 0.199977 0.913624
O O5 0.084103 0.889054 0.366717
O O6 0.094377 0.710867 0.605748
O O7 0.735085 0.582719 0.366086
O O8 0.592824 0.297078 0.399523
#
# Coordination Sequence:
#
# PCOD9246542 Si02
#       4
#     4   4   4   4
#     4  10  22  41  65  92 128 166 209 258 312 372
#     4  10  23  43  65  94 128 164 208 261 314 371
#     4  10  22  41  65  95 128 163 209 259 311 371
#     4  10  21  41  65  93 128 164 210 261 309 372
#
# _framework density 28.676210999999999
#
# number of rings (size 3 to 8) (size 9 to 14) (size 15 to 20)
#    0.000    2.000    0.000    3.000    0.000   10.000 
#    0.000   15.000    0.000    0.000    0.000    0.000 
#    0.000    0.000    0.000    0.000    0.000    0.000 
#
# Total GULP energy -89350.286660 kJ/mol
# GULP energy per Si atom -5584.392916 kJ/mol
# Density = 2.861094 g / cm^3
# Si number density = 28.676211 Si / 1000 Ang^3
#
#
#
# Elastic Constant Matrix: (Units=GPa)
#
#
# Indices 1 2 3 4 5 6 
#
# 1 136.9115 17.4537 50.2180 0.0000 1.2641 0.0000
# 2 17.4537 50.7618 39.9544 0.0000 3.2958 0.0000
# 3 50.2180 39.9544 207.1012 0.0000 -2.1353 0.0000
# 4 0.0000 0.0000 0.0000 80.9941 0.0000 -1.0348
# 5 1.2641 3.2958 -2.1353 0.0000 41.9193 0.0000
# 6 0.0000 0.0000 0.0000 -1.0348 0.0000 35.1410
#
#
#
# Elastic Compliance Matrix: (Units=1/GPa)
#
#
# Indices 1 2 3 4 5 6 
#
# 1 0.008110 -0.001444 -0.001690 0.000000 -0.000217 0.000000
# 2 -0.001444 0.023662 -0.004236 0.000000 -0.002033 0.000000
# 3 -0.001690 -0.004236 0.006063 0.000000 0.000693 0.000000
# 4 0.000000 0.000000 0.000000 0.012351 0.000000 0.000364
# 5 -0.000217 -0.002033 0.000693 0.000000 0.024057 0.000000
# 6 0.000000 0.000000 0.000000 0.000364 0.000000 0.028467
#
#
# Mechanical properties :
#
#
# Convention : Reuss Voigt Hill
#
# Bulk Modulus (GPa) = 43.29943 67.78072 55.54008
# Shear Modulus (GPa) = 39.95232 50.75410 45.35321
#
# Velocity S-wave (km/s) = 3.73664 4.21159 3.98120
# Velocity P-wave (km/s) = 5.80937 6.88025 6.36736
#
# Compressibility (1/GPa) = 0.02309499
#
# Stress axis : x y z
#
# Youngs Moduli (GPa) = 123.30413 42.26128 164.94289
#
# Poissons Ratio (x) = 0.06103 0.27878
# Poissons Ratio (y) = 0.17806 0.69866
# Poissons Ratio (z) = 0.20840 0.17901
#
# Static dielectric constant tensor:
#      x y z
#    x 2.309120 0.000000 0.014470 
#    y 0.000000 2.521210 0.000000 
#    z 0.014470 0.000000 2.298850 
# 
# From -- ./inp_files/22661.got.cif
#   From: 2010.05.17/outbox.cif.g08.bks.cpg/sg14_12_cif.got.tgz:22661.got - 2010.06.03 17:49:19.
