data_PCOD9246661
_publ_section_title
;
Structure prediction by ZEFSAII (Michael W. Deem and Ramdas Pophale) SiO2 
 PCOD9246661
Probable space group: P 21/C
;
_chemical_formula_sum "Si O2"
_cell_formula_units_Z 24
_cell_length_a 5.623285
_cell_length_b 10.127176
_cell_length_c 22.395584
_cell_angle_alpha 90.000000
_cell_angle_beta 113.627017
_cell_angle_gamma 90.000000
_cell_volume 1168.473146
_symmetry_space_group_name_H-M "P 21/C"
_symmetry_group_IT_number 14
_symmetry_cell_setting 'monoclinic'
loop_
_space_group_symop_operation_xyz
x,y,z
-x,1/2+y,1/2-z
-x,-y,-z
x,1/2-y,1/2+z
loop_
_atom_site_type_symbol
_atom_site_label
_atom_site_fract_x
_atom_site_fract_y
_atom_site_fract_z
Si Si1 0.972938 0.512237 0.206931
Si Si2 0.646182 0.627359 0.989758
Si Si3 0.900026 0.677227 0.674437
Si Si4 0.627927 0.516476 0.863673
Si Si5 0.153363 0.749854 0.590995
Si Si6 0.552135 0.130749 0.969576
O O1 0.931857 0.672779 0.204182
O O2 0.678556 0.454256 0.174252
O O3 0.090747 0.437484 0.275981
O O4 0.173210 0.479598 0.172343
O O5 0.721187 0.603344 0.928983
O O6 0.500000 0.500000 0.000000
O O7 0.465609 0.751719 0.984449
O O8 0.898789 0.661667 0.053764
O O9 0.659088 0.649508 0.605138
O O10 0.139381 0.674135 0.651673
O O11 0.633080 0.363656 0.885312
O O12 0.182547 0.649684 0.539683
O O13 0.500000 0.000000 0.000000
#
# Coordination Sequence:
#
# PCOD9246661 Si02
#       6
#     4   4   4   4   4   4
#     4  11  25  42  69  92 136 174 223 279 330 407
#     4  11  21  38  67 100 131 173 226 278 337 413
#     4  10  24  45  62  97 126 179 224 276 338 404
#     4  11  22  40  67 103 126 172 219 279 336 394
#     4  10  21  41  69  89 140 173 217 282 345 399
#     4  11  24  42  66  96 138 177 222 283 352 414
#
# _framework density 20.539625000000001
#
# number of rings (size 3 to 8) (size 9 to 14) (size 15 to 20)
#    0.000    1.333    3.333    2.500    4.667    4.000 
#    3.000    0.000    0.000    0.000    0.000    0.000 
#    0.000    0.000    0.000    0.000    0.000    0.000 
#
# Total GULP energy -133666.218294 kJ/mol
# GULP energy per Si atom -5569.425762 kJ/mol
# Density = 2.049288 g / cm^3
# Si number density = 20.539625 Si / 1000 Ang^3
#
#
#
# Elastic Constant Matrix: (Units=GPa)
#
#
# Indices 1 2 3 4 5 6 
#
# 1 90.9282 42.7371 42.5050 0.0000 -14.1738 0.0000
# 2 42.7371 130.4639 62.7082 0.0000 -34.2344 0.0000
# 3 42.5050 62.7082 103.9199 0.0000 -23.7683 0.0000
# 4 0.0000 0.0000 0.0000 38.1720 0.0000 -16.9499
# 5 -14.1738 -34.2344 -23.7683 0.0000 33.5813 0.0000
# 6 0.0000 0.0000 0.0000 -16.9499 0.0000 23.6196
#
#
#
# Elastic Compliance Matrix: (Units=1/GPa)
#
#
# Indices 1 2 3 4 5 6 
#
# 1 0.014212 -0.002522 -0.004185 0.000000 0.000466 0.000000
# 2 -0.002522 0.013176 -0.004881 0.000000 0.008913 0.000000
# 3 -0.004185 -0.004881 0.015198 0.000000 0.004015 0.000000
# 4 0.000000 0.000000 0.000000 0.038449 0.000000 0.027592
# 5 0.000466 0.008913 0.004015 0.000000 0.041904 0.000000
# 6 0.000000 0.000000 0.000000 0.027592 0.000000 0.062138
#
#
# Mechanical properties :
#
#
# Convention : Reuss Voigt Hill
#
# Bulk Modulus (GPa) = 51.51644 69.02363 60.27004
# Shear Modulus (GPa) = 23.28610 30.89869 27.09239
#
# Velocity S-wave (km/s) = 3.37072 3.88280 3.63579
# Velocity P-wave (km/s) = 6.34704 7.33345 6.85801
#
# Compressibility (1/GPa) = 0.01941128
#
# Stress axis : x y z
#
# Youngs Moduli (GPa) = 70.36460 75.89649 65.79946
#
# Poissons Ratio (x) = 0.19141 0.27534
# Poissons Ratio (y) = 0.17745 0.32114
# Poissons Ratio (z) = 0.29444 0.37042
#
# Static dielectric constant tensor:
#      x y z
#    x 1.903590 0.000000 -0.001870 
#    y 0.000000 1.716920 0.000000 
#    z -0.001870 0.000000 1.747350 
# 
# From -- ./inp_files/71070.got.cif
#   From: 2010.05.17/outbox.cif.g08.bks.cpg/sg14_36_cif.got.tgz:71070.got - 2010.06.03 17:49:19.
