data_PCOD9246269
_publ_section_title
;
Structure prediction by ZEFSAII (Michael W. Deem and Ramdas Pophale) SiO2 
 PCOD9246269
Probable space group: P 21/C
;
_chemical_formula_sum "Si O2"
_cell_formula_units_Z 32
_cell_length_a 15.353835
_cell_length_b 21.558404
_cell_length_c 8.805648
_cell_angle_alpha 90.000000
_cell_angle_beta 152.544106
_cell_angle_gamma 90.000000
_cell_volume 1343.870973
_symmetry_space_group_name_H-M "P 21/C"
_symmetry_group_IT_number 14
_symmetry_cell_setting 'monoclinic'
loop_
_space_group_symop_operation_xyz
x,y,z
-x,1/2+y,1/2-z
-x,-y,-z
x,1/2-y,1/2+z
loop_
_atom_site_type_symbol
_atom_site_label
_atom_site_fract_x
_atom_site_fract_y
_atom_site_fract_z
Si Si1 0.177423 0.876534 0.915624
Si Si2 0.468803 0.842445 0.131336
Si Si3 0.207248 0.775247 0.229912
Si Si4 0.124055 0.556228 0.753335
Si Si5 0.877430 0.819033 0.892141
Si Si6 0.469717 0.869749 0.792568
Si Si7 0.054857 0.009173 0.757408
Si Si8 0.168224 0.136014 0.854374
O O1 0.132122 0.942238 0.927040
O O2 0.010880 0.867009 0.534845
O O3 0.368990 0.879964 0.113440
O O4 0.188217 0.820615 0.054107
O O5 0.669564 0.818626 0.501618
O O6 0.318251 0.787455 0.866240
O O7 0.505709 0.875031 0.027415
O O8 0.339980 0.810525 0.556109
O O9 0.008919 0.769277 0.011614
O O10 0.000000 0.500000 0.500000
O O11 0.993065 0.617327 0.535984
O O12 0.125767 0.535473 0.932791
O O13 0.336374 0.572841 0.037076
O O14 0.859115 0.817615 0.046223
O O15 0.652793 0.857759 0.976280
O O16 0.193284 0.068065 0.973611
O O17 0.000000 0.000000 0.500000
#
# Coordination Sequence:
#
# PCOD9246269 Si02
#       8
#     4   4   4   4   4   4   4   4
#     4  11  22  41  67  97 132 171 217 270 328 394
#     4  12  25  43  67  95 129 174 224 275 326 384
#     4  11  24  44  67  92 126 170 218 274 327 378
#     4  10  21  40  66  95 132 173 214 269 332 397
#     4  10  23  44  68  98 131 168 217 270 328 398
#     4  11  23  41  64  97 131 169 219 267 321 392
#     4   9  18  36  61  93 130 168 204 256 326 391
#     4  10  22  41  68  99 134 167 208 267 333 402
#
# _framework density 23.811807999999999
#
# number of rings (size 3 to 8) (size 9 to 14) (size 15 to 20)
#    0.000    1.500    0.000    6.750    0.000    3.000 
#    0.000   14.375    0.000    0.000    0.000    0.000 
#    0.000    0.000    0.000    0.000    0.000    0.000 
#
# Total GULP energy -178801.296975 kJ/mol
# GULP energy per Si atom -5587.540530 kJ/mol
# Density = 2.375761 g / cm^3
# Si number density = 23.811808 Si / 1000 Ang^3
#
#
#
# Elastic Constant Matrix: (Units=GPa)
#
#
# Indices 1 2 3 4 5 6 
#
# 1 128.1672 2.1825 52.6332 0.0000 11.5152 0.0000
# 2 2.1825 73.6383 -6.0203 0.0000 -6.0624 0.0000
# 3 52.6332 -6.0203 111.4415 0.0000 12.3854 0.0000
# 4 0.0000 0.0000 0.0000 11.8604 0.0000 -14.0716
# 5 11.5152 -6.0624 12.3854 0.0000 51.0176 0.0000
# 6 0.0000 0.0000 0.0000 -14.0716 0.0000 37.8947
#
#
#
# Elastic Compliance Matrix: (Units=1/GPa)
#
#
# Indices 1 2 3 4 5 6 
#
# 1 0.009782 -0.000759 -0.004528 0.000000 -0.001199 0.000000
# 2 -0.000759 0.013809 0.000928 0.000000 0.001587 0.000000
# 3 -0.004528 0.000928 0.011342 0.000000 -0.001621 0.000000
# 4 0.000000 0.000000 0.000000 0.150712 0.000000 0.055964
# 5 -0.001199 0.001587 -0.001621 0.000000 0.020454 0.000000
# 6 0.000000 0.000000 0.000000 0.055964 0.000000 0.047170
#
#
# Mechanical properties :
#
#
# Convention : Reuss Voigt Hill
#
# Bulk Modulus (GPa) = 38.14468 45.64864 41.89666
# Shear Modulus (GPa) = 18.46889 37.78466 28.12678
#
# Velocity S-wave (km/s) = 2.78802 3.98779 3.44060
# Velocity P-wave (km/s) = 5.13985 6.35732 5.78073
#
# Compressibility (1/GPa) = 0.02621597
#
# Stress axis : x y z
#
# Youngs Moduli (GPa) = 102.22460 72.41714 88.16671
#
# Poissons Ratio (x) = 0.05495 0.39921
# Poissons Ratio (y) = 0.07757 -0.08182
# Poissons Ratio (z) = 0.46286 -0.06720
#
# Static dielectric constant tensor:
#      x y z
#    x 2.077440 0.000000 -0.017550 
#    y 0.000000 2.019210 0.000000 
#    z -0.017550 0.000000 1.882170 
# 
# From -- ./inp_files/17048.got.cif
#   From: 2010.05.17/outbox.cif.g08.bks.cpg/sg14_9_cif.got.tgz:17048.got - 2010.06.03 17:49:19.
