data_PCOD9246353
_publ_section_title
;
Structure prediction by ZEFSAII (Michael W. Deem and Ramdas Pophale) SiO2 
 PCOD9246353
Probable space group: P 21/C
;
_chemical_formula_sum "Si O2"
_cell_formula_units_Z 28
_cell_length_a 7.770460
_cell_length_b 9.064347
_cell_length_c 26.095815
_cell_angle_alpha 90.000000
_cell_angle_beta 133.137094
_cell_angle_gamma 90.000000
_cell_volume 1341.251515
_symmetry_space_group_name_H-M "P 21/C"
_symmetry_group_IT_number 14
_symmetry_cell_setting 'monoclinic'
loop_
_space_group_symop_operation_xyz
x,y,z
-x,1/2+y,1/2-z
-x,-y,-z
x,1/2-y,1/2+z
loop_
_atom_site_type_symbol
_atom_site_label
_atom_site_fract_x
_atom_site_fract_y
_atom_site_fract_z
Si Si1 0.286377 0.314861 0.848778
Si Si2 0.140530 0.354773 0.934802
Si Si3 0.974439 0.113419 0.726176
Si Si4 0.730952 0.969910 0.304109
Si Si5 0.459448 0.719024 0.311534
Si Si6 0.783969 0.095203 0.479832
Si Si7 0.894097 0.658975 0.472311
O O1 0.231708 0.305535 0.898160
O O2 0.132381 0.448386 0.793092
O O3 0.558338 0.362753 0.900194
O O4 0.199895 0.163434 0.805679
O O5 0.881820 0.423934 0.871671
O O6 0.288934 0.489474 0.988986
O O7 0.133458 0.230339 0.976797
O O8 0.765380 0.218557 0.703274
O O9 0.073609 0.122059 0.688587
O O10 0.563312 0.855736 0.299223
O O11 0.605024 0.082193 0.238726
O O12 0.653746 0.669889 0.392098
O O13 0.914364 0.245076 0.520142
O O14 0.000000 0.000000 0.500000
O O15 0.000000 0.500000 0.500000
#
# Coordination Sequence:
#
# PCOD9246353 Si02
#       7
#     4   4   4   4   4   4   4
#     4  11  24  42  72  96 139 183 227 295 345 424
#     4  10  21  47  62 100 128 184 234 273 353 421
#     4  11  24  45  64 107 137 180 234 289 348 413
#     4  11  27  43  74 103 139 186 240 286 353 428
#     4  12  26  47  72 105 140 189 231 297 354 420
#     4  10  21  40  69  93 128 179 226 276 347 415
#     4  11  26  42  68 101 140 173 233 293 347 413
#
# _framework density 20.876027000000001
#
# number of rings (size 3 to 8) (size 9 to 14) (size 15 to 20)
#    0.000    1.143    4.286    2.143    8.000    1.143 
#    0.000    0.714    0.000    0.000    0.000    0.000 
#    0.000    0.000    0.000    0.000    0.000    0.000 
#
# Total GULP energy -156236.993053 kJ/mol
# GULP energy per Si atom -5579.892609 kJ/mol
# Density = 2.082851 g / cm^3
# Si number density = 20.876027 Si / 1000 Ang^3
#
#
#
# Elastic Constant Matrix: (Units=GPa)
#
#
# Indices 1 2 3 4 5 6 
#
# 1 124.9396 49.5676 60.8402 0.0000 3.6670 0.0000
# 2 49.5676 102.1024 57.4445 0.0000 -0.8437 0.0000
# 3 60.8402 57.4445 137.5940 0.0000 5.5096 0.0000
# 4 0.0000 0.0000 0.0000 41.3165 0.0000 -4.7984
# 5 3.6670 -0.8437 5.5096 0.0000 37.0570 0.0000
# 6 0.0000 0.0000 0.0000 -4.7984 0.0000 11.8463
#
#
#
# Elastic Compliance Matrix: (Units=1/GPa)
#
#
# Indices 1 2 3 4 5 6 
#
# 1 0.011058 -0.003448 -0.003424 0.000000 -0.000664 0.000000
# 2 -0.003448 0.013920 -0.004339 0.000000 0.001303 0.000000
# 3 -0.003424 -0.004339 0.010647 0.000000 -0.001343 0.000000
# 4 0.000000 0.000000 0.000000 0.025398 0.000000 0.010288
# 5 -0.000664 0.001303 -0.001343 0.000000 0.027281 0.000000
# 6 0.000000 0.000000 0.000000 0.010288 0.000000 0.088582
#
#
# Mechanical properties :
#
#
# Convention : Reuss Voigt Hill
#
# Bulk Modulus (GPa) = 75.73443 77.81561 76.77502
# Shear Modulus (GPa) = 24.54490 31.16286 27.85388
#
# Velocity S-wave (km/s) = 3.43263 3.86781 3.65670
# Velocity P-wave (km/s) = 7.21579 7.56985 7.39494
#
# Compressibility (1/GPa) = 0.01320403
#
# Stress axis : x y z
#
# Youngs Moduli (GPa) = 90.42909 71.83948 93.92340
#
# Poissons Ratio (x) = 0.24769 0.32157
# Poissons Ratio (y) = 0.31178 0.40755
# Poissons Ratio (z) = 0.30960 0.31172
#
# Static dielectric constant tensor:
#      x y z
#    x 1.789920 0.000000 0.006220 
#    y 0.000000 1.741210 0.000000 
#    z 0.006220 0.000000 1.769920 
# 
# From -- ./inp_files/76401.got.cif
#   From: 2010.05.17/outbox.cif.g08.bks.cpg/sg14_39_cif.got.tgz:76401.got - 2010.06.03 17:49:19.
