data_PCOD9246180
_publ_section_title
;
Structure prediction by ZEFSAII (Michael W. Deem and Ramdas Pophale) SiO2 
 PCOD9246180
Probable space group: P 21/C
;
_chemical_formula_sum "Si O2"
_cell_formula_units_Z 20
_cell_length_a 9.151745
_cell_length_b 8.974949
_cell_length_c 13.389194
_cell_angle_alpha 90.000000
_cell_angle_beta 104.117908
_cell_angle_gamma 90.000000
_cell_volume 1066.524029
_symmetry_space_group_name_H-M "P 21/C"
_symmetry_group_IT_number 14
_symmetry_cell_setting 'monoclinic'
loop_
_space_group_symop_operation_xyz
x,y,z
-x,1/2+y,1/2-z
-x,-y,-z
x,1/2-y,1/2+z
loop_
_atom_site_type_symbol
_atom_site_label
_atom_site_fract_x
_atom_site_fract_y
_atom_site_fract_z
Si Si1 0.554889 0.776363 0.986703
Si Si2 0.294615 0.833895 0.297375
Si Si3 0.124255 0.686831 0.101286
Si Si4 0.329206 0.560847 0.593353
Si Si5 0.805848 0.955604 0.554151
O O1 0.430690 0.731363 0.884072
O O2 0.663555 0.900955 0.956319
O O3 0.463551 0.846908 0.063510
O O4 0.652376 0.635793 0.034622
O O5 0.202905 0.706794 0.222130
O O6 0.351368 0.939652 0.216400
O O7 0.190104 0.927809 0.354288
O O8 0.177384 0.840218 0.055985
O O9 0.948200 0.654465 0.080377
O O10 0.188698 0.550965 0.046777
#
# Coordination Sequence:
#
# PCOD9246180 Si02
#       5
#     4   4   4   4   4
#     4  11  22  39  66  91 125 161 204 264 309 368
#     4  10  21  40  64  93 121 163 211 253 299 388
#     4   9  23  42  60  89 127 161 206 257 305 369
#     4   9  23  40  58  95 122 159 202 257 315 357
#     4  11  22  43  64  90 123 171 202 256 314 361
#
# _framework density 18.752507999999999
#
# number of rings (size 3 to 8) (size 9 to 14) (size 15 to 20)
#    1.200    0.800    2.000    0.600    5.600    0.800 
#   14.400    0.000    0.000    0.000    0.000    0.000 
#    0.000    0.000    0.000    0.000    0.000    0.000 
#
# Total GULP energy -111396.602238 kJ/mol
# GULP energy per Si atom -5569.830112 kJ/mol
# Density = 1.870983 g / cm^3
# Si number density = 18.752508 Si / 1000 Ang^3
#
#
#
# Elastic Constant Matrix: (Units=GPa)
#
#
# Indices 1 2 3 4 5 6 
#
# 1 58.8894 29.9632 39.7761 0.0000 -10.5399 0.0000
# 2 29.9632 43.5099 23.4474 0.0000 -6.1974 0.0000
# 3 39.7761 23.4474 58.4407 0.0000 -4.3812 0.0000
# 4 0.0000 0.0000 0.0000 22.0927 0.0000 0.7427
# 5 -10.5399 -6.1974 -4.3812 0.0000 12.5537 0.0000
# 6 0.0000 0.0000 0.0000 0.7427 0.0000 46.2174
#
#
#
# Elastic Compliance Matrix: (Units=1/GPa)
#
#
# Indices 1 2 3 4 5 6 
#
# 1 0.043025 -0.014911 -0.021713 0.000000 0.021185 0.000000
# 2 -0.014911 0.035946 -0.003986 0.000000 0.003836 0.000000
# 3 -0.021713 -0.003986 0.032834 0.000000 -0.008739 0.000000
# 4 0.000000 0.000000 0.000000 0.045288 0.000000 -0.000728
# 5 0.021185 0.003836 -0.008739 0.000000 0.096288 0.000000
# 6 0.000000 0.000000 0.000000 -0.000728 0.000000 0.021649
#
#
# Mechanical properties :
#
#
# Convention : Reuss Voigt Hill
#
# Bulk Modulus (GPa) = 32.69566 38.57927 35.63746
# Shear Modulus (GPa) = 13.64459 20.68296 17.16377
#
# Velocity S-wave (km/s) = 2.70036 3.32466 3.02864
# Velocity P-wave (km/s) = 5.21496 5.94604 5.59246
#
# Compressibility (1/GPa) = 0.03058510
#
# Stress axis : x y z
#
# Youngs Moduli (GPa) = 23.24216 27.81953 30.45607
#
# Poissons Ratio (x) = 0.41481 0.66131
# Poissons Ratio (y) = 0.34655 0.12140
# Poissons Ratio (z) = 0.50467 0.11089
#
# Static dielectric constant tensor:
#      x y z
#    x 1.637010 0.000000 -0.015810 
#    y 0.000000 1.649670 0.000000 
#    z -0.015810 0.000000 1.634180 
# 
# From -- ./inp_files/38851.got.cif
#   From: 2010.05.17/outbox.cif.g08.bks.cpg/sg14_20_cif.got.tgz:38851.got - 2010.06.03 17:49:19.
