data_PCOD9246440
_publ_section_title
;
Structure prediction by ZEFSAII (Michael W. Deem and Ramdas Pophale) SiO2 
 PCOD9246440
Probable space group: P 21/C
;
_chemical_formula_sum "Si O2"
_cell_formula_units_Z 24
_cell_length_a 10.551532
_cell_length_b 11.578850
_cell_length_c 13.695095
_cell_angle_alpha 90.000000
_cell_angle_beta 135.181999
_cell_angle_gamma 90.000000
_cell_volume 1179.361863
_symmetry_space_group_name_H-M "P 21/C"
_symmetry_group_IT_number 14
_symmetry_cell_setting 'monoclinic'
loop_
_space_group_symop_operation_xyz
x,y,z
-x,1/2+y,1/2-z
-x,-y,-z
x,1/2-y,1/2+z
loop_
_atom_site_type_symbol
_atom_site_label
_atom_site_fract_x
_atom_site_fract_y
_atom_site_fract_z
Si Si1 0.212678 0.756295 0.001663
Si Si2 0.045422 0.098241 0.888019
Si Si3 0.271671 0.734256 0.257816
Si Si4 0.478351 0.630247 0.024031
Si Si5 0.296041 0.535301 0.398894
Si Si6 0.843669 0.638579 0.336430
O O1 0.284778 0.760382 0.151314
O O2 0.304670 0.648654 0.998428
O O3 0.274569 0.867593 0.972431
O O4 0.997977 0.768604 0.894280
O O5 0.907101 0.202083 0.800643
O O6 0.169627 0.067821 0.864891
O O7 0.161746 0.124375 0.049099
O O8 0.922599 0.985044 0.842864
O O9 0.437647 0.788020 0.408922
O O10 0.247731 0.601119 0.272847
O O11 0.655228 0.662699 0.182135
O O12 0.500000 0.500000 0.000000
O O13 0.500000 0.500000 0.500000
#
# Coordination Sequence:
#
# PCOD9246440 Si02
#       6
#     4   4   4   4   4   4
#     4   9  22  41  58  92 131 159 211 257 305 386
#     4   9  18  38  63  86 121 167 205 252 317 376
#     4  10  21  41  62  91 124 161 213 258 307 369
#     4  11  21  36  63 100 118 163 214 258 308 371
#     4  10  22  38  60  96 124 164 206 255 313 376
#     4   9  18  37  64  86 123 166 204 254 319 362
#
# _framework density 20.349986999999999
#
# number of rings (size 3 to 8) (size 9 to 14) (size 15 to 20)
#    0.000    2.333    1.667    1.000    2.333    0.000 
#   18.000    0.000    0.000    4.000    0.000    0.000 
#    0.000    0.000    0.000    0.000    0.000    0.000 
#
# Total GULP energy -133940.180251 kJ/mol
# GULP energy per Si atom -5580.840844 kJ/mol
# Density = 2.030367 g / cm^3
# Si number density = 20.349987 Si / 1000 Ang^3
#
#
#
# Elastic Constant Matrix: (Units=GPa)
#
#
# Indices 1 2 3 4 5 6 
#
# 1 39.2167 16.5438 3.7220 0.0000 -1.9724 0.0000
# 2 16.5438 47.8236 3.8584 0.0000 8.9953 0.0000
# 3 3.7220 3.8584 115.2669 0.0000 -2.5971 0.0000
# 4 0.0000 0.0000 0.0000 26.8107 0.0000 5.3792
# 5 -1.9724 8.9953 -2.5971 0.0000 23.9262 0.0000
# 6 0.0000 0.0000 0.0000 5.3792 0.0000 35.9783
#
#
#
# Elastic Compliance Matrix: (Units=1/GPa)
#
#
# Indices 1 2 3 4 5 6 
#
# 1 0.030952 -0.011991 -0.000440 0.000000 0.007012 0.000000
# 2 -0.011991 0.027250 -0.000780 0.000000 -0.011318 0.000000
# 3 -0.000440 -0.000780 0.008743 0.000000 0.001206 0.000000
# 4 0.000000 0.000000 0.000000 0.038452 0.000000 -0.005749
# 5 0.007012 -0.011318 0.001206 0.000000 0.046759 0.000000
# 6 0.000000 0.000000 0.000000 -0.005749 0.000000 0.028654
#
#
# Mechanical properties :
#
#
# Convention : Reuss Voigt Hill
#
# Bulk Modulus (GPa) = 24.67708 27.83951 26.25829
# Shear Modulus (GPa) = 22.65105 29.22190 25.93647
#
# Velocity S-wave (km/s) = 3.33990 3.79353 3.57392
# Velocity P-wave (km/s) = 5.19864 5.73566 5.47374
#
# Compressibility (1/GPa) = 0.04052343
#
# Stress axis : x y z
#
# Youngs Moduli (GPa) = 32.30791 36.69719 114.37708
#
# Poissons Ratio (x) = 0.44003 0.05034
# Poissons Ratio (y) = 0.38740 0.08921
# Poissons Ratio (z) = 0.01422 0.02862
#
# Static dielectric constant tensor:
#      x y z
#    x 1.740590 0.000000 -0.014770 
#    y 0.000000 1.753890 0.000000 
#    z -0.014770 0.000000 1.734540 
# 
# From -- ./inp_files/44487.got.cif
#   From: 2010.05.17/outbox.cif.g08.bks.cpg/sg14_23_cif.got.tgz:44487.got - 2010.06.03 17:49:19.
