data_PCOD9246021
_publ_section_title
;
Structure prediction by ZEFSAII (Michael W. Deem and Ramdas Pophale) SiO2 
 PCOD9246021
Probable space group: P 21/C
;
_chemical_formula_sum "Si O2"
_cell_formula_units_Z 28
_cell_length_a 13.246933
_cell_length_b 5.132836
_cell_length_c 18.847234
_cell_angle_alpha 90.000000
_cell_angle_beta 108.616467
_cell_angle_gamma 90.000000
_cell_volume 1214.452558
_symmetry_space_group_name_H-M "P 21/C"
_symmetry_group_IT_number 14
_symmetry_cell_setting 'monoclinic'
loop_
_space_group_symop_operation_xyz
x,y,z
-x,1/2+y,1/2-z
-x,-y,-z
x,1/2-y,1/2+z
loop_
_atom_site_type_symbol
_atom_site_label
_atom_site_fract_x
_atom_site_fract_y
_atom_site_fract_z
Si Si1 0.050875 0.060329 0.335063
Si Si2 0.447505 0.129717 0.315410
Si Si3 0.428061 0.250851 0.468909
Si Si4 0.953821 0.250877 0.531062
Si Si5 0.637914 0.373396 0.772886
Si Si6 0.207545 0.037546 0.932644
Si Si7 0.827256 0.222629 0.224235
O O1 0.105630 0.275224 0.397337
O O2 0.944598 0.123305 0.269378
O O3 0.021177 0.820256 0.380713
O O4 0.144499 0.007615 0.298830
O O5 0.407991 0.216870 0.381670
O O6 0.385649 0.325125 0.248909
O O7 0.573753 0.177573 0.331020
O O8 0.421331 0.829300 0.294043
O O9 0.500000 0.500000 0.500000
O O10 0.312486 0.301798 0.477150
O O11 0.500000 0.000000 0.500000
O O12 0.828708 0.325973 0.516356
O O13 0.000000 0.500000 0.500000
O O14 0.000000 0.000000 0.500000
O O15 0.758111 0.309453 0.779309
O O16 0.223217 0.905976 0.858106
#
# Coordination Sequence:
#
# PCOD9246021 Si02
#       7
#     4   4   4   4   4   4   4
#     4  11  23  40  72 106 137 181 234 285 352 436
#     4  10  21  43  65  97 126 176 222 280 343 398
#     4  12  27  44  70  97 135 182 243 286 339 423
#     4  11  24  46  70  96 143 194 232 282 351 424
#     4  10  21  39  71  92 135 169 214 281 352 401
#     4  11  24  45  72  97 141 186 231 300 354 412
#     4  11  22  39  68 106 138 175 227 287 359 421
#
# _framework density 23.055657
#
# number of rings (size 3 to 8) (size 9 to 14) (size 15 to 20)
#    0.000    1.143    4.286    1.714    4.000    0.000 
#    5.143    0.000    0.000    0.000    0.000    0.000 
#    0.000    0.000    0.000    0.000    0.000    0.000 
#
# Total GULP energy -155932.234667 kJ/mol
# GULP energy per Si atom -5569.008381 kJ/mol
# Density = 2.300318 g / cm^3
# Si number density = 23.055657 Si / 1000 Ang^3
#
#
#
# Elastic Constant Matrix: (Units=GPa)
#
#
# Indices 1 2 3 4 5 6 
#
# 1 151.6236 40.3634 17.1462 0.0000 -3.1304 0.0000
# 2 40.3634 115.1001 9.6363 0.0000 6.1699 0.0000
# 3 17.1462 9.6363 11.4167 0.0000 3.8700 0.0000
# 4 0.0000 0.0000 0.0000 27.8673 0.0000 -3.3638
# 5 -3.1304 6.1699 3.8700 0.0000 26.7210 0.0000
# 6 0.0000 0.0000 0.0000 -3.3638 0.0000 45.2244
#
#
#
# Elastic Compliance Matrix: (Units=1/GPa)
#
#
# Indices 1 2 3 4 5 6 
#
# 1 0.008626 -0.002177 -0.012230 0.000000 0.003284 0.000000
# 2 -0.002177 0.009927 -0.004465 0.000000 -0.001901 0.000000
# 3 -0.012230 -0.004465 0.115537 0.000000 -0.017135 0.000000
# 4 0.000000 0.000000 0.000000 0.036209 0.000000 0.002693
# 5 0.003284 -0.001901 -0.017135 0.000000 0.040729 0.000000
# 6 0.000000 0.000000 0.000000 0.002693 0.000000 0.022312
#
#
# Mechanical properties :
#
#
# Convention : Reuss Voigt Hill
#
# Bulk Modulus (GPa) = 10.37946 45.82581 28.10264
# Shear Modulus (GPa) = 16.49073 34.02884 25.25978
#
# Velocity S-wave (km/s) = 2.67733 3.84597 3.31358
# Velocity P-wave (km/s) = 3.75089 6.29613 5.18220
#
# Compressibility (1/GPa) = 0.09634410
#
# Stress axis : x y z
#
# Youngs Moduli (GPa) = 115.93282 100.73286 8.65525
#
# Poissons Ratio (x) = 0.21929 0.10586
# Poissons Ratio (y) = 0.25238 0.03865
# Poissons Ratio (z) = 1.41791 0.44981
#
# Static dielectric constant tensor:
#      x y z
#    x 2.561270 0.000000 -0.203670 
#    y 0.000000 2.009940 0.000000 
#    z -0.203670 0.000000 1.965660 
# 
# From -- ./inp_files/66325.got.cif
#   From: 2010.05.17/outbox.cif.g08.bks.cpg/sg14_34_cif.got.tgz:66325.got - 2010.06.03 17:49:19.
