data_PCOD9246120
_publ_section_title
;
Structure prediction by ZEFSAII (Michael W. Deem and Ramdas Pophale) SiO2 
 PCOD9246120
Probable space group: P 21/C
;
_chemical_formula_sum "Si O2"
_cell_formula_units_Z 32
_cell_length_a 13.435442
_cell_length_b 27.148317
_cell_length_c 9.673715
_cell_angle_alpha 90.000000
_cell_angle_beta 28.795812
_cell_angle_gamma 90.000000
_cell_volume 1699.634140
_symmetry_space_group_name_H-M "P 21/C"
_symmetry_group_IT_number 14
_symmetry_cell_setting 'monoclinic'
loop_
_space_group_symop_operation_xyz
x,y,z
-x,1/2+y,1/2-z
-x,-y,-z
x,1/2-y,1/2+z
loop_
_atom_site_type_symbol
_atom_site_label
_atom_site_fract_x
_atom_site_fract_y
_atom_site_fract_z
Si Si1 0.891130 0.081387 0.263593
Si Si2 0.947456 0.674100 0.770667
Si Si3 0.140521 0.061900 0.691809
Si Si4 0.676732 0.268280 0.618480
Si Si5 0.020694 0.194009 0.084674
Si Si6 0.378452 0.256999 0.729639
Si Si7 0.937655 0.987257 0.730165
Si Si8 0.527406 0.012706 0.628502
O O1 0.933547 0.139177 0.209660
O O2 0.672318 0.060315 0.477946
O O3 0.941471 0.058954 0.351439
O O4 0.049803 0.059295 0.957253
O O5 0.187057 0.682409 0.522192
O O6 0.940772 0.700420 0.627160
O O7 0.871854 0.618640 0.838031
O O8 0.796678 0.700514 0.064272
O O9 0.357465 0.033389 0.437835
O O10 0.999187 0.031692 0.757861
O O11 0.846945 0.229722 0.357270
O O12 0.500363 0.270636 0.718980
O O13 0.555639 0.249436 0.900254
O O14 0.236986 0.207608 0.896103
O O15 0.695188 0.978355 0.036586
O O16 0.000000 0.000000 0.500000
O O17 0.500000 0.000000 0.500000
#
# Coordination Sequence:
#
# PCOD9246120 Si02
#       8
#     4   4   4   4   4   4   4   4
#     4  10  21  40  63  91 121 162 213 247 299 370
#     4  10  22  40  62  91 123 160 211 258 296 372
#     4  10  21  40  63  91 121 162 213 247 299 370
#     4  11  22  41  63  89 124 163 202 253 315 363
#     4  10  22  40  62  91 123 160 211 258 296 372
#     4  11  22  41  63  89 124 163 202 253 315 363
#     4  11  23  41  59  93 129 157 195 261 312 356
#     4  11  19  39  69  86 119 165 201 252 305 361
#
# _framework density 18.827582
#
# number of rings (size 3 to 8) (size 9 to 14) (size 15 to 20)
#    0.000    1.500    5.000    0.750    0.000    4.000 
#    9.000    0.000    0.000    0.000    0.000    0.000 
#    0.000    0.000    0.000    0.000    0.000    0.000 
#
# Total GULP energy -178387.805038 kJ/mol
# GULP energy per Si atom -5574.618907 kJ/mol
# Density = 1.878473 g / cm^3
# Si number density = 18.827582 Si / 1000 Ang^3
#
#
#
# Elastic Constant Matrix: (Units=GPa)
#
#
# Indices 1 2 3 4 5 6 
#
# 1 65.4007 7.8555 5.5790 0.0000 -27.4905 0.0000
# 2 7.8555 72.8687 8.9195 0.0000 -11.8600 0.0000
# 3 5.5790 8.9195 69.1325 0.0000 -18.5647 0.0000
# 4 0.0000 0.0000 0.0000 16.2711 0.0000 3.8962
# 5 -27.4905 -11.8600 -18.5647 0.0000 29.7079 0.0000
# 6 0.0000 0.0000 0.0000 3.8962 0.0000 18.3014
#
#
#
# Elastic Compliance Matrix: (Units=1/GPa)
#
#
# Indices 1 2 3 4 5 6 
#
# 1 0.026662 0.001102 0.005347 0.000000 0.028453 0.000000
# 2 0.001102 0.014731 -0.000164 0.000000 0.006799 0.000000
# 3 0.005347 -0.000164 0.018464 0.000000 0.016421 0.000000
# 4 0.000000 0.000000 0.000000 0.064760 0.000000 -0.013787
# 5 0.028453 0.006799 0.016421 0.000000 0.072966 0.000000
# 6 0.000000 0.000000 0.000000 -0.013787 0.000000 0.057576
#
#
# Mechanical properties :
#
#
# Convention : Reuss Voigt Hill
#
# Bulk Modulus (GPa) = 13.80687 28.01222 20.90955
# Shear Modulus (GPa) = 18.74549 25.19261 21.96905
#
# Velocity S-wave (km/s) = 3.15880 3.66193 3.41963
# Velocity P-wave (km/s) = 4.54459 5.72628 5.16931
#
# Compressibility (1/GPa) = 0.07242769
#
# Stress axis : x y z
#
# Youngs Moduli (GPa) = 37.50685 67.88380 54.15868
#
# Poissons Ratio (x) = -0.07483 -0.28958
# Poissons Ratio (y) = -0.04134 0.00888
# Poissons Ratio (z) = -0.20055 0.01113
#
# Static dielectric constant tensor:
#      x y z
#    x 1.676730 0.000000 -0.012830 
#    y 0.000000 1.672170 0.000000 
#    z -0.012830 0.000000 1.642880 
# 
# From -- ./inp_files/14666.got.cif
#   From: 2010.05.17/outbox.cif.g08.bks.cpg/sg14_8_cif.got.tgz:14666.got - 2010.06.03 17:49:19.
