data_PCOD9246722
_publ_section_title
;
Structure prediction by ZEFSAII (Michael W. Deem and Ramdas Pophale) SiO2 
 PCOD9246722
Probable space group: P 21/C
;
_chemical_formula_sum "Si O2"
_cell_formula_units_Z 32
_cell_length_a 33.376761
_cell_length_b 7.307700
_cell_length_c 14.221225
_cell_angle_alpha 90.000000
_cell_angle_beta 153.696707
_cell_angle_gamma 90.000000
_cell_volume 1537.042652
_symmetry_space_group_name_H-M "P 21/C"
_symmetry_group_IT_number 14
_symmetry_cell_setting 'monoclinic'
loop_
_space_group_symop_operation_xyz
x,y,z
-x,1/2+y,1/2-z
-x,-y,-z
x,1/2-y,1/2+z
loop_
_atom_site_type_symbol
_atom_site_label
_atom_site_fract_x
_atom_site_fract_y
_atom_site_fract_z
Si Si1 0.042789 0.778195 0.535676
Si Si2 0.426732 0.010159 0.008134
Si Si3 0.900776 0.637612 0.384621
Si Si4 0.106726 0.120869 0.915231
Si Si5 0.193375 0.678613 0.489687
Si Si6 0.607096 0.133921 0.658378
Si Si7 0.773164 0.894202 0.455087
Si Si8 0.454573 0.854971 0.270311
O O1 0.067929 0.573911 0.556126
O O2 0.972363 0.751236 0.473658
O O3 0.990319 0.872177 0.340145
O O4 0.130678 0.867535 0.767468
O O5 0.333735 0.109266 0.783440
O O6 0.434727 0.829029 0.961373
O O7 0.509332 0.150106 0.171711
O O8 0.418732 0.940050 0.098372
O O9 0.897896 0.681645 0.487446
O O10 0.805815 0.648056 0.129655
O O11 0.172222 0.258332 0.996602
O O12 0.150649 0.922286 0.989117
O O13 0.295337 0.617728 0.683925
O O14 0.195273 0.898083 0.501257
O O15 0.612906 0.136130 0.783564
O O16 0.540379 0.976125 0.483475
#
# Coordination Sequence:
#
# PCOD9246722 Si02
#       8
#     4   4   4   4   4   4   4   4
#     4   9  20  40  58  88 130 154 205 265 297 362
#     4  11  21  43  66  92 130 164 206 255 321 377
#     4   9  20  40  62  88 127 163 203 255 308 364
#     4  11  21  39  67  92 117 173 209 245 319 371
#     4  10  21  42  61  88 128 161 206 263 304 370
#     4  10  23  43  62  94 128 163 212 261 313 379
#     4   9  22  44  57  91 134 155 203 268 301 365
#     4  11  22  41  68  93 125 167 206 260 319 382
#
# _framework density 20.819202000000001
#
# number of rings (size 3 to 8) (size 9 to 14) (size 15 to 20)
#    0.000    2.000    1.250    2.250    1.750    0.000 
#   22.500    0.000    0.000    0.000    0.000    0.000 
#    0.000    0.000    0.000    0.000    0.000    0.000 
#
# Total GULP energy -178852.835900 kJ/mol
# GULP energy per Si atom -5589.151122 kJ/mol
# Density = 2.077182 g / cm^3
# Si number density = 20.819202 Si / 1000 Ang^3
#
#
#
# Elastic Constant Matrix: (Units=GPa)
#
#
# Indices 1 2 3 4 5 6 
#
# 1 52.4488 0.5890 20.0819 0.0000 -30.1883 0.0000
# 2 0.5890 38.8753 7.3461 0.0000 -0.8797 0.0000
# 3 20.0819 7.3461 64.7777 0.0000 -11.4261 0.0000
# 4 0.0000 0.0000 0.0000 24.2667 0.0000 -3.4261
# 5 -30.1883 -0.8797 -11.4261 0.0000 31.9162 0.0000
# 6 0.0000 0.0000 0.0000 -3.4261 0.0000 18.9570
#
#
#
# Elastic Compliance Matrix: (Units=1/GPa)
#
#
# Indices 1 2 3 4 5 6 
#
# 1 0.044579 0.001544 -0.006992 0.000000 0.039705 0.000000
# 2 0.001544 0.026344 -0.003288 0.000000 0.001010 0.000000
# 3 -0.006992 -0.003288 0.017927 0.000000 -0.000286 0.000000
# 4 0.000000 0.000000 0.000000 0.042288 0.000000 0.007643
# 5 0.039705 0.001010 -0.000286 0.000000 0.068813 0.000000
# 6 0.000000 0.000000 0.000000 0.007643 0.000000 0.054132
#
#
# Mechanical properties :
#
#
# Convention : Reuss Voigt Hill
#
# Bulk Modulus (GPa) = 14.00957 23.57063 18.79010
# Shear Modulus (GPa) = 16.92914 23.56698 20.24806
#
# Velocity S-wave (km/s) = 2.85467 3.36815 3.12198
# Velocity P-wave (km/s) = 4.19634 5.14510 4.69475
#
# Compressibility (1/GPa) = 0.07137976
#
# Stress axis : x y z
#
# Youngs Moduli (GPa) = 22.43186 37.95916 55.78050
#
# Poissons Ratio (x) = -0.05862 0.39000
# Poissons Ratio (y) = -0.03464 0.18342
# Poissons Ratio (z) = 0.15684 0.12482
#
# Static dielectric constant tensor:
#      x y z
#    x 1.713530 0.000000 0.000320 
#    y 0.000000 1.781210 0.000000 
#    z 0.000320 0.000000 1.744160 
# 
# From -- ./inp_files/36491.got.cif
#   From: 2010.05.17/outbox.cif.g08.bks.cpg/sg14_19_cif.got.tgz:36491.got - 2010.06.03 17:49:19.
