data_PCOD9246766
_publ_section_title
;
Structure prediction by ZEFSAII (Michael W. Deem and Ramdas Pophale) SiO2 
 PCOD9246766
Probable space group: P 21/C
;
_chemical_formula_sum "Si O2"
_cell_formula_units_Z 32
_cell_length_a 9.134666
_cell_length_b 11.582659
_cell_length_c 13.258296
_cell_angle_alpha 90.000000
_cell_angle_beta 114.793659
_cell_angle_gamma 90.000000
_cell_volume 1273.474529
_symmetry_space_group_name_H-M "P 21/C"
_symmetry_group_IT_number 14
_symmetry_cell_setting 'monoclinic'
loop_
_space_group_symop_operation_xyz
x,y,z
-x,1/2+y,1/2-z
-x,-y,-z
x,1/2-y,1/2+z
loop_
_atom_site_type_symbol
_atom_site_label
_atom_site_fract_x
_atom_site_fract_y
_atom_site_fract_z
Si Si1 0.475894 0.587163 0.659620
Si Si2 0.996724 0.832596 0.822764
Si Si3 0.758307 0.685804 0.874825
Si Si4 0.879112 0.065824 0.852063
Si Si5 0.034780 0.675253 0.096796
Si Si6 0.274470 0.665956 0.880610
Si Si7 0.390323 0.841780 0.609359
Si Si8 0.489540 0.348553 0.644872
O O1 0.612885 0.610971 0.785229
O O2 0.292792 0.559286 0.641873
O O3 0.450426 0.711168 0.600602
O O4 0.528320 0.473786 0.613633
O O5 0.846114 0.751862 0.808433
O O6 0.010800 0.856188 0.707205
O O7 0.149303 0.754274 0.896123
O O8 0.982794 0.950152 0.881797
O O9 0.676647 0.783718 0.921937
O O10 0.896320 0.627961 0.982736
O O11 0.825087 0.083381 0.719852
O O12 0.967285 0.184264 0.906402
O O13 0.214564 0.646447 0.110675
O O14 0.380066 0.750788 0.841798
O O15 0.374776 0.602336 0.995772
O O16 0.507867 0.874581 0.733651
#
# Coordination Sequence:
#
# PCOD9246766 Si02
#       8
#     4   4   4   4   4   4   4   4
#     4  10  22  41  63  89 130 164 196 256 313 360
#     4  11  22  39  66  94 119 161 213 249 300 372
#     4  11  22  39  64  94 121 157 211 255 295 369
#     4  10  21  42  64  88 129 165 198 251 317 363
#     4  10  22  41  63  91 126 160 205 256 304 363
#     4  11  22  41  65  91 125 164 204 253 310 361
#     4  10  21  42  64  86 130 165 196 255 315 358
#     4  11  22  41  63  91 128 160 203 256 305 364
#
# _framework density 25.128105000000001
#
# number of rings (size 3 to 8) (size 9 to 14) (size 15 to 20)
#    0.000    1.500    7.500    0.000    0.000    7.000 
#    0.000    2.500    0.000    0.000    0.000    0.000 
#    0.000    0.000    0.000    0.000    0.000    0.000 
#
# Total GULP energy -178750.849507 kJ/mol
# GULP energy per Si atom -5585.964047 kJ/mol
# Density = 2.507091 g / cm^3
# Si number density = 25.128105 Si / 1000 Ang^3
#
#
#
# Elastic Constant Matrix: (Units=GPa)
#
#
# Indices 1 2 3 4 5 6 
#
# 1 53.0649 17.9435 3.1858 0.0000 25.5412 0.0000
# 2 17.9435 67.4194 -24.7974 0.0000 1.5361 0.0000
# 3 3.1858 -24.7974 97.6968 0.0000 4.3324 0.0000
# 4 0.0000 0.0000 0.0000 12.8745 0.0000 10.7900
# 5 25.5412 1.5361 4.3324 0.0000 37.8325 0.0000
# 6 0.0000 0.0000 0.0000 10.7900 0.0000 30.2670
#
#
#
# Elastic Compliance Matrix: (Units=1/GPa)
#
#
# Indices 1 2 3 4 5 6 
#
# 1 0.032161 -0.008958 -0.002388 0.000000 -0.021075 0.000000
# 2 -0.008958 0.018904 0.004881 0.000000 0.004721 0.000000
# 3 -0.002388 0.004881 0.011548 0.000000 0.000091 0.000000
# 4 0.000000 0.000000 0.000000 0.110767 0.000000 -0.039488
# 5 -0.021075 0.004721 0.000091 0.000000 0.040458 0.000000
# 6 0.000000 0.000000 0.000000 -0.039488 0.000000 0.047116
#
#
# Mechanical properties :
#
#
# Convention : Reuss Voigt Hill
#
# Bulk Modulus (GPa) = 20.12678 23.42721 21.77699
# Shear Modulus (GPa) = 17.21490 30.98477 24.09984
#
# Velocity S-wave (km/s) = 2.62025 3.51532 3.10026
# Velocity P-wave (km/s) = 4.14504 5.08134 4.63688
#
# Compressibility (1/GPa) = 0.04968506
#
# Stress axis : x y z
#
# Youngs Moduli (GPa) = 31.09343 52.89797 86.59160
#
# Poissons Ratio (x) = 0.47384 0.20676
# Poissons Ratio (y) = 0.27852 -0.42266
# Poissons Ratio (z) = 0.07425 -0.25820
#
# Static dielectric constant tensor:
#      x y z
#    x 1.989020 0.000000 -0.041210 
#    y 0.000000 2.044360 0.000000 
#    z -0.041210 0.000000 2.001040 
# 
# From -- ./inp_files/41233.got.cif
#   From: 2010.05.17/outbox.cif.g08.bks.cpg/sg14_21_cif.got.tgz:41233.got - 2010.06.03 17:49:19.
