data_PCOD9246250
_publ_section_title
;
Structure prediction by ZEFSAII (Michael W. Deem and Ramdas Pophale) SiO2 
 PCOD9246250
Probable space group: P 21/C
;
_chemical_formula_sum "Si O2"
_cell_formula_units_Z 32
_cell_length_a 13.686217
_cell_length_b 11.200375
_cell_length_c 10.199184
_cell_angle_alpha 90.000000
_cell_angle_beta 128.300308
_cell_angle_gamma 90.000000
_cell_volume 1226.946105
_symmetry_space_group_name_H-M "P 21/C"
_symmetry_group_IT_number 14
_symmetry_cell_setting 'monoclinic'
loop_
_space_group_symop_operation_xyz
x,y,z
-x,1/2+y,1/2-z
-x,-y,-z
x,1/2-y,1/2+z
loop_
_atom_site_type_symbol
_atom_site_label
_atom_site_fract_x
_atom_site_fract_y
_atom_site_fract_z
Si Si1 0.689587 0.292390 0.972738
Si Si2 0.515610 0.088801 0.722276
Si Si3 0.374791 0.572684 0.313032
Si Si4 0.908765 0.946476 0.703309
Si Si5 0.334737 0.016499 0.369533
Si Si6 0.963071 0.285714 0.253414
Si Si7 0.208061 0.232707 0.568864
Si Si8 0.349455 0.152248 0.939841
O O1 0.587762 0.195229 0.851898
O O2 0.717541 0.349637 0.852420
O O3 0.639269 0.394167 0.027414
O O4 0.817727 0.256242 0.148372
O O5 0.436144 0.022897 0.765088
O O6 0.417437 0.109611 0.521682
O O7 0.616919 0.005518 0.734981
O O8 0.499278 0.651941 0.442063
O O9 0.323510 0.490488 0.387040
O O10 0.812190 0.966899 0.741091
O O11 0.967134 0.074325 0.715492
O O12 0.819693 0.900149 0.511282
O O13 0.991111 0.828602 0.793541
O O14 0.280968 0.278713 0.264004
O O15 0.066503 0.281337 0.454209
O O16 0.285655 0.304043 0.521974
#
# Coordination Sequence:
#
# PCOD9246250 Si02
#       8
#     4   4   4   4   4   4   4   4
#     4  10  21  42  64 104 153 196 246 317 387 463
#     4  10  21  40  66 103 142 196 247 313 385 456
#     4  10  25  43  73 105 155 191 255 314 386 476
#     4   9  20  44  72 104 146 198 256 313 385 456
#     4   9  20  40  66 101 142 198 247 314 386 456
#     4   9  21  43  72 103 149 200 251 318 381 457
#     4  10  24  45  79 102 153 199 258 316 381 458
#     4  11  24  47  70 114 142 202 252 316 381 465
#
# _framework density 26.081016000000002
#
# number of rings (size 3 to 8) (size 9 to 14) (size 15 to 20)
#    0.750    1.500    0.000    2.250    3.500    4.000 
#    9.000    5.000    0.000    2.250    0.000    0.000 
#    0.000    0.000    0.000    0.000    0.000    0.000 
#
# Total GULP energy -178594.084299 kJ/mol
# GULP energy per Si atom -5581.065134 kJ/mol
# Density = 2.602165 g / cm^3
# Si number density = 26.081016 Si / 1000 Ang^3
#
#
#
# Elastic Constant Matrix: (Units=GPa)
#
#
# Indices 1 2 3 4 5 6 
#
# 1 29.7625 36.7642 38.3902 0.0000 9.2415 0.0000
# 2 36.7642 158.9077 55.7137 0.0000 11.5122 0.0000
# 3 38.3902 55.7137 160.6965 0.0000 3.9354 0.0000
# 4 0.0000 0.0000 0.0000 66.7707 0.0000 9.3629
# 5 9.2415 11.5122 3.9354 0.0000 28.9113 0.0000
# 6 0.0000 0.0000 0.0000 9.3629 0.0000 44.8365
#
#
#
# Elastic Compliance Matrix: (Units=1/GPa)
#
#
# Indices 1 2 3 4 5 6 
#
# 1 0.066222 -0.009996 -0.011974 0.000000 -0.015558 0.000000
# 2 -0.009996 0.008861 -0.000678 0.000000 -0.000241 0.000000
# 3 -0.011974 -0.000678 0.009249 0.000000 0.002839 0.000000
# 4 0.000000 0.000000 0.000000 0.015428 0.000000 -0.003222
# 5 -0.015558 -0.000241 0.002839 0.000000 0.039271 0.000000
# 6 0.000000 0.000000 0.000000 -0.003222 0.000000 0.022976
#
#
# Mechanical properties :
#
#
# Convention : Reuss Voigt Hill
#
# Bulk Modulus (GPa) = 25.61694 67.90033 46.75864
# Shear Modulus (GPa) = 22.69470 42.67029 32.68249
#
# Velocity S-wave (km/s) = 2.95305 4.04922 3.54378
# Velocity P-wave (km/s) = 4.63365 6.92477 5.89166
#
# Compressibility (1/GPa) = 0.03903666
#
# Stress axis : x y z
#
# Youngs Moduli (GPa) = 15.10061 112.85745 108.11885
#
# Poissons Ratio (x) = 1.12809 1.29461
# Poissons Ratio (y) = 0.15094 0.07332
# Poissons Ratio (z) = 0.18081 0.07654
#
# Static dielectric constant tensor:
#      x y z
#    x 2.042210 0.000000 -0.029310 
#    y 0.000000 2.232830 0.000000 
#    z -0.029310 0.000000 2.066070 
# 
# From -- ./inp_files/61215.got.cif
#   From: 2010.05.17/outbox.cif.g08.bks.cpg/sg14_31_cif.got.tgz:61215.got - 2010.06.03 17:49:19.
