data_PCOD9246473
_publ_section_title
;
Structure prediction by ZEFSAII (Michael W. Deem and Ramdas Pophale) SiO2 
 PCOD9246473
Probable space group: P 21/C
;
_chemical_formula_sum "Si O2"
_cell_formula_units_Z 24
_cell_length_a 9.895058
_cell_length_b 11.649399
_cell_length_c 10.203331
_cell_angle_alpha 90.000000
_cell_angle_beta 121.299986
_cell_angle_gamma 90.000000
_cell_volume 1004.974511
_symmetry_space_group_name_H-M "P 21/C"
_symmetry_group_IT_number 14
_symmetry_cell_setting 'monoclinic'
loop_
_space_group_symop_operation_xyz
x,y,z
-x,1/2+y,1/2-z
-x,-y,-z
x,1/2-y,1/2+z
loop_
_atom_site_type_symbol
_atom_site_label
_atom_site_fract_x
_atom_site_fract_y
_atom_site_fract_z
Si Si1 0.335441 0.587254 0.496423
Si Si2 0.085296 0.330483 0.965901
Si Si3 0.301911 0.991536 0.260738
Si Si4 0.748761 0.040231 0.331823
Si Si5 0.441516 0.666443 0.038443
Si Si6 0.969299 0.855319 0.848513
O O1 0.359429 0.515420 0.640282
O O2 0.327258 0.528104 0.350504
O O3 0.448255 0.697484 0.544857
O O4 0.157156 0.635384 0.432628
O O5 0.219006 0.419213 0.081091
O O6 0.081977 0.220644 0.055569
O O7 0.091525 0.299597 0.817044
O O8 0.918988 0.398534 0.898148
O O9 0.396088 0.096229 0.375385
O O10 0.117858 0.021956 0.182977
O O11 0.347380 0.877153 0.362285
O O12 0.652962 0.120922 0.382298
#
# Coordination Sequence:
#
# PCOD9246473 Si02
#       6
#     4   4   4   4   4   4
#     4  11  24  41  72  96 125 179 221 272 330 401
#     4  10  22  38  65  97 131 172 211 282 317 386
#     4  11  26  43  66 100 135 171 220 282 322 399
#     4  10  21  41  63  94 130 169 222 264 328 386
#     4  11  23  46  64  89 141 175 214 271 341 391
#     4  11  23  41  67 100 133 170 223 269 333 384
#
# _framework density 23.881202999999999
#
# number of rings (size 3 to 8) (size 9 to 14) (size 15 to 20)
#    0.000    1.333    3.333    1.500    4.667    2.000 
#    3.000    0.000    0.000    0.000    0.000    0.000 
#    0.000    0.000    0.000    0.000    0.000    0.000 
#
# Total GULP energy -134414.775813 kJ/mol
# GULP energy per Si atom -5600.615659 kJ/mol
# Density = 2.382685 g / cm^3
# Si number density = 23.881203 Si / 1000 Ang^3
#
#
#
# Elastic Constant Matrix: (Units=GPa)
#
#
# Indices 1 2 3 4 5 6 
#
# 1 59.6455 6.8247 19.2698 0.0000 -23.4986 0.0000
# 2 6.8247 53.3370 26.5102 0.0000 7.6090 0.0000
# 3 19.2698 26.5102 126.9137 0.0000 -34.5764 0.0000
# 4 0.0000 0.0000 0.0000 27.3765 0.0000 -11.9009
# 5 -23.4986 7.6090 -34.5764 0.0000 35.0865 0.0000
# 6 0.0000 0.0000 0.0000 -11.9009 0.0000 34.8713
#
#
#
# Elastic Compliance Matrix: (Units=1/GPa)
#
#
# Indices 1 2 3 4 5 6 
#
# 1 0.025507 -0.008677 0.004246 0.000000 0.023149 0.000000
# 2 -0.008677 0.028443 -0.010782 0.000000 -0.022605 0.000000
# 3 0.004246 -0.010782 0.014899 0.000000 0.019864 0.000000
# 4 0.000000 0.000000 0.000000 0.042891 0.000000 0.014638
# 5 0.023149 -0.022605 0.019864 0.000000 0.068482 0.000000
# 6 0.000000 0.000000 0.000000 0.014638 0.000000 0.033672
#
#
# Mechanical properties :
#
#
# Convention : Reuss Voigt Hill
#
# Bulk Modulus (GPa) = 26.02605 38.34504 32.18555
# Shear Modulus (GPa) = 19.44572 31.95298 25.69935
#
# Velocity S-wave (km/s) = 2.85664 3.66183 3.28401
# Velocity P-wave (km/s) = 4.66929 5.82839 5.28074
#
# Compressibility (1/GPa) = 0.03842304
#
# Stress axis : x y z
#
# Youngs Moduli (GPa) = 39.20549 35.15838 67.12019
#
# Poissons Ratio (x) = 0.30505 -0.28501
# Poissons Ratio (y) = 0.34017 0.72370
# Poissons Ratio (z) = -0.16648 0.37908
#
# Static dielectric constant tensor:
#      x y z
#    x 1.886110 0.000000 0.042910 
#    y 0.000000 1.848370 0.000000 
#    z 0.042910 0.000000 1.951830 
# 
# From -- ./inp_files/28754.got.cif
#   From: 2010.05.17/outbox.cif.g08.bks.cpg/sg14_15_cif.got.tgz:28754.got - 2010.06.03 17:49:19.
