data_PCOD9246344
_publ_section_title
;
Structure prediction by ZEFSAII (Michael W. Deem and Ramdas Pophale) SiO2 
 PCOD9246344
Probable space group: P 21/C
;
_chemical_formula_sum "Si O2"
_cell_formula_units_Z 32
_cell_length_a 28.678661
_cell_length_b 4.984952
_cell_length_c 31.329564
_cell_angle_alpha 90.000000
_cell_angle_beta 161.852926
_cell_angle_gamma 90.000000
_cell_volume 1394.995054
_symmetry_space_group_name_H-M "P 21/C"
_symmetry_group_IT_number 14
_symmetry_cell_setting 'monoclinic'
loop_
_space_group_symop_operation_xyz
x,y,z
-x,1/2+y,1/2-z
-x,-y,-z
x,1/2-y,1/2+z
loop_
_atom_site_type_symbol
_atom_site_label
_atom_site_fract_x
_atom_site_fract_y
_atom_site_fract_z
Si Si1 0.238183 0.601244 0.127849
Si Si2 0.272265 0.955689 0.413182
Si Si3 0.064335 0.749651 0.657801
Si Si4 0.000549 0.243293 0.723474
Si Si5 0.409874 0.289797 0.158870
Si Si6 0.566741 0.556827 0.414653
Si Si7 0.106423 0.748469 0.599198
Si Si8 0.183510 0.542020 0.509321
O O1 0.395214 0.447304 0.268375
O O2 0.217642 0.737003 0.156243
O O3 0.284235 0.807013 0.130735
O O4 0.078456 0.460714 0.975049
O O5 0.198282 0.787447 0.308999
O O6 0.338420 0.712830 0.497815
O O7 0.138684 0.119529 0.319559
O O8 0.393543 0.203159 0.516514
O O9 0.147493 0.739357 0.684674
O O10 0.958959 0.516101 0.584590
O O11 0.977878 0.438020 0.744279
O O12 0.866016 0.279847 0.573569
O O13 0.465848 0.591080 0.212360
O O14 0.392937 0.191583 0.095770
O O15 0.262007 0.216497 0.057434
O O16 0.000000 0.500000 0.500000
O O17 0.000000 0.000000 0.500000
#
# Coordination Sequence:
#
# PCOD9246344 Si02
#       8
#     4   4   4   4   4   4   4   4
#     4  11  24  43  71  98 132 172 227 273 337 394
#     4  11  26  43  66  92 138 177 217 272 339 394
#     4  10  24  43  71  99 131 169 226 276 337 393
#     4  11  24  41  61  90 128 173 224 270 319 384
#     4  12  24  39  60  92 134 175 219 268 326 390
#     4  12  26  45  63  97 138 179 219 271 333 399
#     4  10  21  40  69 102 130 163 216 285 334 392
#     4  11  23  37  67  90 127 168 224 269 319 383
#
# _framework density 22.939149
#
# number of rings (size 3 to 8) (size 9 to 14) (size 15 to 20)
#    0.000    1.000    2.500    3.750    8.750    0.000 
#    0.000    1.250    0.000    0.000    0.000    0.000 
#    0.000    0.000    0.000    0.000    0.000    0.000 
#
# Total GULP energy -178339.192871 kJ/mol
# GULP energy per Si atom -5573.099777 kJ/mol
# Density = 2.288694 g / cm^3
# Si number density = 22.939149 Si / 1000 Ang^3
#
#
#
# Elastic Constant Matrix: (Units=GPa)
#
#
# Indices 1 2 3 4 5 6 
#
# 1 95.6621 4.5655 28.1273 0.0000 -9.2113 0.0000
# 2 4.5655 84.2888 26.9028 0.0000 -3.0125 0.0000
# 3 28.1273 26.9028 77.5780 0.0000 -8.0737 0.0000
# 4 0.0000 0.0000 0.0000 39.5778 0.0000 0.2650
# 5 -9.2113 -3.0125 -8.0737 0.0000 24.3923 0.0000
# 6 0.0000 0.0000 0.0000 0.2650 0.0000 21.5174
#
#
#
# Elastic Compliance Matrix: (Units=1/GPa)
#
#
# Indices 1 2 3 4 5 6 
#
# 1 0.011987 0.000839 -0.004304 0.000000 0.003206 0.000000
# 2 0.000839 0.013400 -0.004915 0.000000 0.000345 0.000000
# 3 -0.004304 -0.004915 0.016491 0.000000 0.003226 0.000000
# 4 0.000000 0.000000 0.000000 0.025269 0.000000 -0.000311
# 5 0.003206 0.000345 0.003226 0.000000 0.043318 0.000000
# 6 0.000000 0.000000 0.000000 -0.000311 0.000000 0.046478
#
#
# Mechanical properties :
#
#
# Convention : Reuss Voigt Hill
#
# Bulk Modulus (GPa) = 39.81129 41.85777 40.83453
# Shear Modulus (GPa) = 27.46129 30.29304 28.87716
#
# Velocity S-wave (km/s) = 3.46372 3.63792 3.55189
# Velocity P-wave (km/s) = 5.77835 5.99441 5.88737
#
# Compressibility (1/GPa) = 0.02511850
#
# Stress axis : x y z
#
# Youngs Moduli (GPa) = 83.42032 74.62903 60.64001
#
# Poissons Ratio (x) = -0.06260 0.26097
# Poissons Ratio (y) = -0.06998 0.29805
# Poissons Ratio (z) = 0.35900 0.36680
#
# Static dielectric constant tensor:
#      x y z
#    x 1.783040 0.000000 -0.013310 
#    y 0.000000 1.845750 0.000000 
#    z -0.013310 0.000000 1.960400 
# 
# From -- ./inp_files/80757.got.cif
#   From: 2010.05.17/outbox.cif.g08.bks.cpg/sg14_41_cif.got.tgz:80757.got - 2010.06.03 17:49:19.
