data_PCOD9246618
_publ_section_title
;
Structure prediction by ZEFSAII (Michael W. Deem and Ramdas Pophale) SiO2 
 PCOD9246618
Probable space group: P 21/C
;
_chemical_formula_sum "Si O2"
_cell_formula_units_Z 30
_cell_length_a 11.762487
_cell_length_b 19.390283
_cell_length_c 5.054986
_cell_angle_alpha 90.000000
_cell_angle_beta 103.823052
_cell_angle_gamma 90.000000
_cell_volume 1119.539936
_symmetry_space_group_name_H-M "P 21/C"
_symmetry_group_IT_number 14
_symmetry_cell_setting 'monoclinic'
loop_
_space_group_symop_operation_xyz
x,y,z
-x,1/2+y,1/2-z
-x,-y,-z
x,1/2-y,1/2+z
loop_
_atom_site_type_symbol
_atom_site_label
_atom_site_fract_x
_atom_site_fract_y
_atom_site_fract_z
Si Si1 0.616650 0.704130 0.330601
Si Si2 0.927784 0.793367 0.432689
Si Si3 0.000000 0.500000 0.500000
Si Si4 0.623828 0.976311 0.280932
Si Si5 0.197405 0.097791 0.280988
Si Si6 0.753916 0.071989 0.999962
Si Si7 0.793273 0.297066 0.856882
Si Si8 0.448753 0.607905 0.974448
O O1 0.631988 0.733677 0.630333
O O2 0.709190 0.643847 0.322172
O O3 0.492486 0.672098 0.169191
O O4 0.902335 0.769771 0.121356
O O5 0.856184 0.856407 0.510894
O O6 0.065711 0.806049 0.540807
O O7 0.909650 0.565616 0.437855
O O8 0.885765 0.448375 0.500317
O O9 0.733916 0.963437 0.533056
O O10 0.542077 0.910156 0.289962
O O11 0.683438 0.003138 0.048234
O O12 0.548665 0.041804 0.332543
O O13 0.752745 0.127386 0.238904
O O14 0.676761 0.107898 0.731855
O O15 0.761814 0.243952 0.604363
#
# Coordination Sequence:
#
# PCOD9246618 Si02
#       8
#     4   4   2   4   4   4   4   4
#     4  11  27  49  81 114 146 199 265 335 395 458
#     4  10  21  41  67  95 136 193 247 304 363 435
#     4  12  26  44  68 116 152 204 254 300 384 478
#     4  10  24  45  71 106 143 201 247 317 391 448
#     4  11  23  46  69 110 151 197 258 315 379 475
#     4  12  25  45  73 106 155 199 253 317 380 470
#     4  10  24  43  66  97 139 192 244 297 369 443
#     4  10  24  47  74 104 146 189 259 318 392 453
#
# _framework density 26.796720000000001
#
# number of rings (size 3 to 8) (size 9 to 14) (size 15 to 20)
#    0.000    1.333    2.667    1.200    3.733    4.800 
#    4.800    0.000    0.000    0.000    0.000    0.000 
#    0.000    0.000    0.000    0.000    0.000    0.000 
#
# Total GULP energy -167678.862866 kJ/mol
# GULP energy per Si atom -5589.295429 kJ/mol
# Density = 2.673573 g / cm^3
# Si number density = 26.796720 Si / 1000 Ang^3
#
#
#
# Elastic Constant Matrix: (Units=GPa)
#
#
# Indices 1 2 3 4 5 6 
#
# 1 126.1185 46.8250 35.0053 0.0000 17.3392 0.0000
# 2 46.8250 123.1787 25.7844 0.0000 7.7024 0.0000
# 3 35.0053 25.7844 97.2761 0.0000 -1.3450 0.0000
# 4 0.0000 0.0000 0.0000 44.7858 0.0000 14.4356
# 5 17.3392 7.7024 -1.3450 0.0000 26.2485 0.0000
# 6 0.0000 0.0000 0.0000 14.4356 0.0000 50.0837
#
#
#
# Elastic Compliance Matrix: (Units=1/GPa)
#
#
# Indices 1 2 3 4 5 6 
#
# 1 0.010825 -0.003049 -0.003176 0.000000 -0.006419 0.000000
# 2 -0.003049 0.009641 -0.001471 0.000000 -0.000890 0.000000
# 3 -0.003176 -0.001471 0.011856 0.000000 0.003137 0.000000
# 4 0.000000 0.000000 0.000000 0.024615 0.000000 -0.007095
# 5 -0.006419 -0.000890 0.003137 0.000000 0.042760 0.000000
# 6 0.000000 0.000000 0.000000 -0.007095 0.000000 0.022012
#
#
# Mechanical properties :
#
#
# Convention : Reuss Voigt Hill
#
# Bulk Modulus (GPa) = 59.06339 62.42254 60.74296
# Shear Modulus (GPa) = 35.02797 40.15418 37.59108
#
# Velocity S-wave (km/s) = 3.61941 3.87521 3.74949
# Velocity P-wave (km/s) = 6.28935 6.58547 6.43911
#
# Compressibility (1/GPa) = 0.01693096
#
# Stress axis : x y z
#
# Youngs Moduli (GPa) = 92.37832 103.72622 84.34464
#
# Poissons Ratio (x) = 0.31624 0.26789
# Poissons Ratio (y) = 0.28164 0.12404
# Poissons Ratio (z) = 0.29340 0.15254
#
# Static dielectric constant tensor:
#      x y z
#    x 2.092130 0.000000 -0.033360 
#    y 0.000000 2.068190 0.000000 
#    z -0.033360 0.000000 2.091180 
# 
# From -- ./inp_files/2982.got.cif
#   From: 2010.05.17/outbox.cif.g08.bks.cpg/sg14_2_cif.got.tgz:2982.got - 2010.06.03 17:49:19.
