data_PCOD9246468
_publ_section_title
;
Structure prediction by ZEFSAII (Michael W. Deem and Ramdas Pophale) SiO2 
 PCOD9246468
Probable space group: P 21/C
;
_chemical_formula_sum "Si O2"
_cell_formula_units_Z 16
_cell_length_a 6.869790
_cell_length_b 5.113348
_cell_length_c 20.528875
_cell_angle_alpha 90.000000
_cell_angle_beta 82.194054
_cell_angle_gamma 90.000000
_cell_volume 714.448487
_symmetry_space_group_name_H-M "P 21/C"
_symmetry_group_IT_number 14
_symmetry_cell_setting 'monoclinic'
loop_
_space_group_symop_operation_xyz
x,y,z
-x,1/2+y,1/2-z
-x,-y,-z
x,1/2-y,1/2+z
loop_
_atom_site_type_symbol
_atom_site_label
_atom_site_fract_x
_atom_site_fract_y
_atom_site_fract_z
Si Si1 0.298182 0.335277 0.098953
Si Si2 0.464719 0.601073 0.291899
Si Si3 0.893438 0.115443 0.101931
Si Si4 0.249670 0.837196 0.029307
O O1 0.401162 0.234090 0.158747
O O2 0.346910 0.618498 0.069624
O O3 0.062371 0.311486 0.118586
O O4 0.337960 0.121770 0.040454
O O5 0.550724 0.328745 0.261583
O O6 0.255996 0.544240 0.334940
O O7 0.774436 0.227225 0.045266
O O8 0.024445 0.878859 0.066508
#
# Coordination Sequence:
#
# PCOD9246468 Si02
#       4
#     4   4   4   4
#     4  10  21  41  63  93 121 162 205 261 318 363
#     4  12  28  41  60  91 128 176 215 246 304 379
#     4   9  23  40  67  91 129 152 209 266 311 381
#     4   9  20  40  68  96 117 156 205 265 333 353
#
# _framework density 22.394895000000002
#
# number of rings (size 3 to 8) (size 9 to 14) (size 15 to 20)
#    1.500    0.500    0.000    2.250    3.500    4.000 
#    0.000    0.000    0.000    0.000    0.000    0.000 
#    0.000    0.000    0.000    0.000    0.000    0.000 
#
# Total GULP energy -89299.982527 kJ/mol
# GULP energy per Si atom -5581.248908 kJ/mol
# Density = 2.234392 g / cm^3
# Si number density = 22.394895 Si / 1000 Ang^3
#
#
#
# Elastic Constant Matrix: (Units=GPa)
#
#
# Indices 1 2 3 4 5 6 
#
# 1 53.8343 0.4580 21.1464 0.0000 -3.5742 0.0000
# 2 0.4580 75.0279 11.6459 0.0000 -12.6663 0.0000
# 3 21.1464 11.6459 78.4937 0.0000 -28.0303 0.0000
# 4 0.0000 0.0000 0.0000 33.7682 0.0000 6.1533
# 5 -3.5742 -12.6663 -28.0303 0.0000 43.7557 0.0000
# 6 0.0000 0.0000 0.0000 6.1533 0.0000 24.3089
#
#
#
# Elastic Compliance Matrix: (Units=1/GPa)
#
#
# Indices 1 2 3 4 5 6 
#
# 1 0.020996 0.000495 -0.006569 0.000000 -0.002350 0.000000
# 2 0.000495 0.014065 -0.000975 0.000000 0.003488 0.000000
# 3 -0.006569 -0.000975 0.018622 0.000000 0.011111 0.000000
# 4 0.000000 0.000000 0.000000 0.031046 0.000000 -0.007859
# 5 -0.002350 0.003488 0.011111 0.000000 0.030789 0.000000
# 6 0.000000 0.000000 0.000000 -0.007859 0.000000 0.043126
#
#
# Mechanical properties :
#
#
# Convention : Reuss Voigt Hill
#
# Bulk Modulus (GPa) = 25.26190 30.42850 27.84520
# Shear Modulus (GPa) = 26.89088 31.97359 29.43224
#
# Velocity S-wave (km/s) = 3.46896 3.78261 3.62918
# Velocity P-wave (km/s) = 5.22968 5.71789 5.47923
#
# Compressibility (1/GPa) = 0.03958530
#
# Stress axis : x y z
#
# Youngs Moduli (GPa) = 47.62913 71.09626 53.70069
#
# Poissons Ratio (x) = -0.03517 0.35275
# Poissons Ratio (y) = -0.02356 0.05234
# Poissons Ratio (z) = 0.31286 0.06930
#
# Static dielectric constant tensor:
#      x y z
#    x 1.927920 0.000000 -0.036190 
#    y 0.000000 1.805130 0.000000 
#    z -0.036190 0.000000 1.815620 
# 
# From -- ./inp_files/53826.got.cif
#   From: 2010.05.17/outbox.cif.g08.bks.cpg/sg14_27_cif.got.tgz:53826.got - 2010.06.03 17:49:19.
