data_PCOD9246969
_publ_section_title
;
Structure prediction by ZEFSAII (Michael W. Deem and Ramdas Pophale) SiO2 
 PCOD9246969
Probable space group: P 21/C
;
_chemical_formula_sum "Si O2"
_cell_formula_units_Z 28
_cell_length_a 10.808305
_cell_length_b 9.252689
_cell_length_c 13.897222
_cell_angle_alpha 90.000000
_cell_angle_beta 99.015771
_cell_angle_gamma 90.000000
_cell_volume 1372.633293
_symmetry_space_group_name_H-M "P 21/C"
_symmetry_group_IT_number 14
_symmetry_cell_setting 'monoclinic'
loop_
_space_group_symop_operation_xyz
x,y,z
-x,1/2+y,1/2-z
-x,-y,-z
x,1/2-y,1/2+z
loop_
_atom_site_type_symbol
_atom_site_label
_atom_site_fract_x
_atom_site_fract_y
_atom_site_fract_z
Si Si1 0.203816 0.071041 0.744055
Si Si2 0.916811 0.408867 0.252963
Si Si3 0.756836 0.315395 0.624277
Si Si4 0.462815 0.910485 0.400741
Si Si5 0.732705 0.700325 0.932191
Si Si6 0.728904 0.636319 0.158652
Si Si7 0.144919 0.517563 0.548017
O O1 0.192269 0.091428 0.628381
O O2 0.277449 0.210366 0.791411
O O3 0.065454 0.077809 0.772963
O O4 0.268002 0.928441 0.792802
O O5 0.871573 0.282467 0.176686
O O6 0.854973 0.555779 0.206373
O O7 0.860091 0.393536 0.352974
O O8 0.641294 0.209922 0.592156
O O9 0.788596 0.400776 0.531347
O O10 0.588628 0.830018 0.383576
O O11 0.500000 0.000000 0.500000
O O12 0.387386 0.030793 0.329917
O O13 0.787764 0.862087 0.927440
O O14 0.738303 0.661340 0.045374
O O15 0.000000 0.500000 0.500000
#
# Coordination Sequence:
#
# PCOD9246969 Si02
#       7
#     4   4   4   4   4   4   4
#     4  12  22  38  66  99 127 168 224 262 328 394
#     4  11  23  40  65  97 139 167 208 277 327 387
#     4  11  24  40  67 102 128 174 222 267 323 396
#     4   9  23  45  64  92 133 170 219 273 324 375
#     4  11  23  41  68  92 129 182 213 267 332 383
#     4  10  21  43  63  91 136 165 213 277 318 380
#     4  12  22  42  69  98 134 171 214 267 337 391
#
# _framework density 20.398748999999999
#
# number of rings (size 3 to 8) (size 9 to 14) (size 15 to 20)
#    0.000    1.143    4.286    1.714    0.000    5.714 
#    0.000    0.000    0.000    0.000    0.000    0.000 
#    0.000    0.000    0.000    0.000    0.000    0.000 
#
# Total GULP energy -156307.938826 kJ/mol
# GULP energy per Si atom -5582.426387 kJ/mol
# Density = 2.035232 g / cm^3
# Si number density = 20.398749 Si / 1000 Ang^3
#
#
#
# Elastic Constant Matrix: (Units=GPa)
#
#
# Indices 1 2 3 4 5 6 
#
# 1 86.1068 47.4277 17.8004 0.0000 12.3669 0.0000
# 2 47.4277 98.8765 14.1543 0.0000 16.4720 0.0000
# 3 17.8004 14.1543 89.0932 0.0000 -7.7279 0.0000
# 4 0.0000 0.0000 0.0000 42.2145 0.0000 5.8231
# 5 12.3669 16.4720 -7.7279 0.0000 22.4307 0.0000
# 6 0.0000 0.0000 0.0000 5.8231 0.0000 18.4175
#
#
#
# Elastic Compliance Matrix: (Units=1/GPa)
#
#
# Indices 1 2 3 4 5 6 
#
# 1 0.016616 -0.006725 -0.002698 0.000000 -0.005151 0.000000
# 2 -0.006725 0.014883 -0.001698 0.000000 -0.007806 0.000000
# 3 -0.002698 -0.001698 0.012648 0.000000 0.007092 0.000000
# 4 0.000000 0.000000 0.000000 0.024769 0.000000 -0.007831
# 5 -0.005151 -0.007806 0.007092 0.000000 0.055598 0.000000
# 6 0.000000 0.000000 0.000000 -0.007831 0.000000 0.056772
#
#
# Mechanical properties :
#
#
# Convention : Reuss Voigt Hill
#
# Bulk Modulus (GPa) = 45.65384 48.09347 46.87366
# Shear Modulus (GPa) = 23.71578 29.59214 26.65396
#
# Velocity S-wave (km/s) = 3.41341 3.81292 3.61868
# Velocity P-wave (km/s) = 6.16153 6.55838 6.36305
#
# Compressibility (1/GPa) = 0.02190396
#
# Stress axis : x y z
#
# Youngs Moduli (GPa) = 60.18473 67.19003 79.06293
#
# Poissons Ratio (x) = 0.45189 0.21332
# Poissons Ratio (y) = 0.40477 0.13424
# Poissons Ratio (z) = 0.16238 0.11408
#
# Static dielectric constant tensor:
#      x y z
#    x 1.733030 0.000000 -0.008950 
#    y 0.000000 1.724200 0.000000 
#    z -0.008950 0.000000 1.741900 
# 
# From -- ./inp_files/43175.got.cif
#   From: 2010.05.17/outbox.cif.g08.bks.cpg/sg14_22_cif.got.tgz:43175.got - 2010.06.03 17:49:19.
