data_PCOD9246291
_publ_section_title
;
Structure prediction by ZEFSAII (Michael W. Deem and Ramdas Pophale) SiO2 
 PCOD9246291
Probable space group: P 21/C
;
_chemical_formula_sum "Si O2"
_cell_formula_units_Z 32
_cell_length_a 23.600443
_cell_length_b 11.155368
_cell_length_c 14.865687
_cell_angle_alpha 90.000000
_cell_angle_beta 18.570209
_cell_angle_gamma 90.000000
_cell_volume 1246.386566
_symmetry_space_group_name_H-M "P 21/C"
_symmetry_group_IT_number 14
_symmetry_cell_setting 'monoclinic'
loop_
_space_group_symop_operation_xyz
x,y,z
-x,1/2+y,1/2-z
-x,-y,-z
x,1/2-y,1/2+z
loop_
_atom_site_type_symbol
_atom_site_label
_atom_site_fract_x
_atom_site_fract_y
_atom_site_fract_z
Si Si1 0.866642 0.740790 0.987524
Si Si2 0.379354 0.324882 0.907214
Si Si3 0.609754 0.261008 0.901059
Si Si4 0.226401 0.397290 0.693525
Si Si5 0.244275 0.817383 0.497241
Si Si6 0.093019 0.070040 0.742634
Si Si7 0.155846 0.836866 0.304600
Si Si8 0.302929 0.472621 0.189368
O O1 0.880330 0.656211 0.881690
O O2 0.060787 0.785441 0.723127
O O3 0.812488 0.652589 0.149432
O O4 0.746164 0.861785 0.169161
O O5 0.471808 0.314427 0.670621
O O6 0.389063 0.185050 0.919298
O O7 0.167705 0.352847 0.212607
O O8 0.411299 0.411027 0.944404
O O9 0.611846 0.218870 0.794447
O O10 0.791526 0.224533 0.681312
O O11 0.604217 0.406398 0.913948
O O12 0.257315 0.536976 0.648203
O O13 0.049237 0.374440 0.900003
O O14 0.229814 0.744737 0.612098
O O15 0.229850 0.958410 0.535501
O O16 0.893301 0.020394 0.047085
#
# Coordination Sequence:
#
# PCOD9246291 Si02
#       8
#     4   4   4   4   4   4   4   4
#     4   9  19  38  65  96 121 161 223 271 316 368
#     4  11  25  39  62  96 127 172 218 253 332 394
#     4  12  24  41  63  93 137 170 209 264 336 383
#     4   9  20  40  63  92 122 165 226 263 313 392
#     4  10  22  39  63 100 121 168 221 260 323 391
#     4  11  20  41  68  91 127 164 220 277 312 375
#     4  10  21  40  67  89 127 171 213 275 319 369
#     4  10  22  42  66  89 130 170 217 270 315 386
#
# _framework density 25.674218
#
# number of rings (size 3 to 8) (size 9 to 14) (size 15 to 20)
#    0.000    1.750    1.250    3.375    1.750    1.500 
#    4.500    1.250    0.000    0.000    0.000    0.000 
#    0.000    0.000    0.000    0.000    0.000    0.000 
#
# Total GULP energy -178849.976421 kJ/mol
# GULP energy per Si atom -5589.061763 kJ/mol
# Density = 2.561578 g / cm^3
# Si number density = 25.674218 Si / 1000 Ang^3
#
#
#
# Elastic Constant Matrix: (Units=GPa)
#
#
# Indices 1 2 3 4 5 6 
#
# 1 34.6448 4.4429 -2.0733 0.0000 5.1359 0.0000
# 2 4.4429 187.4463 22.3019 0.0000 8.1090 0.0000
# 3 -2.0733 22.3019 94.7754 0.0000 11.9141 0.0000
# 4 0.0000 0.0000 0.0000 32.9958 0.0000 10.7717
# 5 5.1359 8.1090 11.9141 0.0000 35.2771 0.0000
# 6 0.0000 0.0000 0.0000 10.7717 0.0000 36.5101
#
#
#
# Elastic Compliance Matrix: (Units=1/GPa)
#
#
# Indices 1 2 3 4 5 6 
#
# 1 0.029722 -0.000669 0.001391 0.000000 -0.004643 0.000000
# 2 -0.000669 0.005529 -0.001220 0.000000 -0.000761 0.000000
# 3 0.001391 -0.001220 0.011340 0.000000 -0.003752 0.000000
# 4 0.000000 0.000000 0.000000 0.033537 0.000000 -0.009895
# 5 -0.004643 -0.000761 -0.003752 0.000000 0.030465 0.000000
# 6 0.000000 0.000000 0.000000 -0.009895 0.000000 0.030309
#
#
# Mechanical properties :
#
#
# Convention : Reuss Voigt Hill
#
# Bulk Modulus (GPa) = 21.93193 40.68993 31.31093
# Shear Modulus (GPa) = 31.82764 40.43627 36.13196
#
# Velocity S-wave (km/s) = 3.52472 3.97290 3.75550
# Velocity P-wave (km/s) = 5.01256 6.07686 5.57019
#
# Compressibility (1/GPa) = 0.04559562
#
# Stress axis : x y z
#
# Youngs Moduli (GPa) = 33.64535 180.87092 88.18002
#
# Poissons Ratio (x) = 0.12103 -0.12269
# Poissons Ratio (y) = 0.02251 0.10757
# Poissons Ratio (z) = -0.04681 0.22065
#
# Static dielectric constant tensor:
#      x y z
#    x 2.043330 0.000000 -0.076480 
#    y 0.000000 2.014070 0.000000 
#    z -0.076480 0.000000 2.066570 
# 
# From -- ./inp_files/52049.got.cif
#   From: 2010.05.17/outbox.cif.g08.bks.cpg/sg14_27_cif.got.tgz:52049.got - 2010.06.03 17:49:19.
