data_PCOD9246591
_publ_section_title
;
Structure prediction by ZEFSAII (Michael W. Deem and Ramdas Pophale) SiO2 
 PCOD9246591
Probable space group: P 21/C
;
_chemical_formula_sum "Si O2"
_cell_formula_units_Z 24
_cell_length_a 6.192259
_cell_length_b 12.444162
_cell_length_c 14.018868
_cell_angle_alpha 90.000000
_cell_angle_beta 79.422030
_cell_angle_gamma 90.000000
_cell_volume 1061.900650
_symmetry_space_group_name_H-M "P 21/C"
_symmetry_group_IT_number 14
_symmetry_cell_setting 'monoclinic'
loop_
_space_group_symop_operation_xyz
x,y,z
-x,1/2+y,1/2-z
-x,-y,-z
x,1/2-y,1/2+z
loop_
_atom_site_type_symbol
_atom_site_label
_atom_site_fract_x
_atom_site_fract_y
_atom_site_fract_z
Si Si1 0.849611 0.091952 0.734100
Si Si2 0.442345 0.742235 0.347227
Si Si3 0.618666 0.839650 0.520818
Si Si4 0.249099 0.972169 0.624021
Si Si5 0.810025 0.793905 0.160534
Si Si6 0.586147 0.000969 0.178606
O O1 0.740488 0.168300 0.662714
O O2 0.000827 0.998560 0.675679
O O3 0.984591 0.173339 0.791312
O O4 0.666278 0.031849 0.811423
O O5 0.565370 0.765452 0.435424
O O6 0.620840 0.753190 0.248246
O O7 0.355563 0.620956 0.354379
O O8 0.707423 0.949683 0.468319
O O9 0.799614 0.791481 0.576915
O O10 0.380089 0.863422 0.588699
O O11 0.373983 0.008828 0.710352
O O12 0.730756 0.907207 0.122193
#
# Coordination Sequence:
#
# PCOD9246591 Si02
#       6
#     4   4   4   4   4   4
#     4  10  21  43  66  96 127 177 219 261 329 393
#     4  11  22  42  64  93 136 168 210 278 327 375
#     4  11  21  42  65  97 136 163 213 282 321 371
#     4  10  21  41  66  98 126 162 228 270 321 378
#     4  10  22  41  61  95 133 171 215 265 330 382
#     4  10  21  43  63  92 134 171 214 271 324 383
#
# _framework density 22.600982999999999
#
# number of rings (size 3 to 8) (size 9 to 14) (size 15 to 20)
#    0.000    1.667    6.667    0.000    0.000    4.000 
#    6.000    0.833    0.000    0.000    0.000    0.000 
#    0.000    0.000    0.000    0.000    0.000    0.000 
#
# Total GULP energy -133918.717866 kJ/mol
# GULP energy per Si atom -5579.946578 kJ/mol
# Density = 2.254954 g / cm^3
# Si number density = 22.600983 Si / 1000 Ang^3
#
#
#
# Elastic Constant Matrix: (Units=GPa)
#
#
# Indices 1 2 3 4 5 6 
#
# 1 53.5216 -7.6589 5.0294 0.0000 9.5750 0.0000
# 2 -7.6589 69.2584 -0.5033 0.0000 9.2432 0.0000
# 3 5.0294 -0.5033 36.2942 0.0000 19.9587 0.0000
# 4 0.0000 0.0000 0.0000 26.9803 0.0000 -19.5688
# 5 9.5750 9.2432 19.9587 0.0000 20.0028 0.0000
# 6 0.0000 0.0000 0.0000 -19.5688 0.0000 -56.2677
#
#
#
# Elastic Compliance Matrix: (Units=1/GPa)
#
#
# Indices 1 2 3 4 5 6 
#
# 1 0.022725 0.005669 0.009643 0.000000 -0.023120 0.000000
# 2 0.005669 0.018303 0.012434 0.000000 -0.023577 0.000000
# 3 0.009643 0.012434 0.071098 0.000000 -0.081303 0.000000
# 4 0.000000 0.000000 0.000000 0.029598 0.000000 -0.010294
# 5 -0.023120 -0.023577 -0.081303 0.000000 0.153079 0.000000
# 6 0.000000 0.000000 0.000000 -0.010294 0.000000 -0.014192
#
#
# Mechanical properties :
#
#
# Convention : Reuss Voigt Hill
#
# Bulk Modulus (GPa) = 5.96595 16.97871 11.47233
# Shear Modulus (GPa) = 17.79412 8.95689 13.37550
#
# Velocity S-wave (km/s) = 2.80896 1.99290 2.43536
# Velocity P-wave (km/s) = 3.62846 3.58109 3.60486
#
# Compressibility (1/GPa) = 0.16761788
#
# Stress axis : x y z
#
# Youngs Moduli (GPa) = 44.00404 54.63729 14.06500
#
# Poissons Ratio (x) = -0.30972 -0.13563
# Poissons Ratio (y) = -0.24944 -0.17488
# Poissons Ratio (z) = -0.42435 -0.67935
#
# Static dielectric constant tensor:
#      x y z
#    x 1.884390 0.000000 -0.031360 
#    y 0.000000 1.884870 0.000000 
#    z -0.031360 0.000000 1.828590 
# 
# From -- ./inp_files/37137.got.cif
#   From: 2010.05.17/outbox.cif.g08.bks.cpg/sg14_19_cif.got.tgz:37137.got - 2010.06.03 17:49:19.
