data_PCOD9246334
_publ_section_title
;
Structure prediction by ZEFSAII (Michael W. Deem and Ramdas Pophale) SiO2 
 PCOD9246334
Probable space group: P 21/C
;
_chemical_formula_sum "Si O2"
_cell_formula_units_Z 32
_cell_length_a 9.046898
_cell_length_b 10.949390
_cell_length_c 28.992402
_cell_angle_alpha 90.000000
_cell_angle_beta 151.799185
_cell_angle_gamma 90.000000
_cell_volume 1357.168615
_symmetry_space_group_name_H-M "P 21/C"
_symmetry_group_IT_number 14
_symmetry_cell_setting 'monoclinic'
loop_
_space_group_symop_operation_xyz
x,y,z
-x,1/2+y,1/2-z
-x,-y,-z
x,1/2-y,1/2+z
loop_
_atom_site_type_symbol
_atom_site_label
_atom_site_fract_x
_atom_site_fract_y
_atom_site_fract_z
Si Si1 0.813221 0.574859 0.309681
Si Si2 0.516278 0.823686 0.904707
Si Si3 0.481103 0.424521 0.148833
Si Si4 0.190277 0.991234 0.752896
Si Si5 0.820660 0.444629 0.016068
Si Si6 0.222362 0.697145 0.903092
Si Si7 0.132982 0.840388 0.651050
Si Si8 0.146179 0.910312 0.101985
O O1 0.768056 0.474742 0.257508
O O2 0.457796 0.596980 0.226529
O O3 0.950539 0.703601 0.334076
O O4 0.975882 0.520689 0.399704
O O5 0.456651 0.703805 0.858053
O O6 0.477104 0.778839 0.946529
O O7 0.274104 0.929836 0.824468
O O8 0.867582 0.870839 0.991623
O O9 0.161960 0.403918 0.091045
O O10 0.392672 0.530186 0.087092
O O11 0.518223 0.055099 0.826899
O O12 0.918743 0.089011 0.667855
O O13 0.104356 0.876260 0.696328
O O14 0.707888 0.360169 0.027364
O O15 0.877993 0.578580 0.053860
O O16 0.173269 0.704370 0.644222
#
# Coordination Sequence:
#
# PCOD9246334 Si02
#       8
#     4   4   4   4   4   4   4   4
#     4  10  22  38  64  91 128 172 213 270 332 401
#     4  12  26  40  65 102 135 171 226 276 339 396
#     4  10  21  40  68  96 123 171 236 273 315 402
#     4  10  23  41  67  94 132 179 225 274 330 408
#     4   9  20  40  66  94 129 165 224 276 327 393
#     4  11  25  44  63  94 141 175 214 273 356 398
#     4   9  17  38  64  93 116 169 225 268 327 382
#     4  11  21  41  67  95 130 171 227 283 328 397
#
# _framework density 23.578498
#
# number of rings (size 3 to 8) (size 9 to 14) (size 15 to 20)
#    0.000    1.750    2.500    1.875    5.250    1.000 
#    2.250    1.250    0.000    0.000    0.000    0.000 
#    0.000    0.000    0.000    0.000    0.000    0.000 
#
# Total GULP energy -178662.966185 kJ/mol
# GULP energy per Si atom -5583.217693 kJ/mol
# Density = 2.352483 g / cm^3
# Si number density = 23.578498 Si / 1000 Ang^3
#
#
#
# Elastic Constant Matrix: (Units=GPa)
#
#
# Indices 1 2 3 4 5 6 
#
# 1 82.3226 23.6844 18.7580 0.0000 -0.5769 0.0000
# 2 23.6844 76.9632 6.2141 0.0000 -11.5388 0.0000
# 3 18.7580 6.2141 41.1691 0.0000 -2.5566 0.0000
# 4 0.0000 0.0000 0.0000 30.8927 0.0000 -5.4609
# 5 -0.5769 -11.5388 -2.5566 0.0000 19.4750 0.0000
# 6 0.0000 0.0000 0.0000 -5.4609 0.0000 30.6300
#
#
#
# Elastic Compliance Matrix: (Units=1/GPa)
#
#
# Indices 1 2 3 4 5 6 
#
# 1 0.014858 -0.004525 -0.006277 0.000000 -0.003065 0.000000
# 2 -0.004525 0.015749 0.000258 0.000000 0.009231 0.000000
# 3 -0.006277 0.000258 0.027332 0.000000 0.003555 0.000000
# 4 0.000000 0.000000 0.000000 0.033423 0.000000 0.005959
# 5 -0.003065 0.009231 0.003555 0.000000 0.057193 0.000000
# 6 0.000000 0.000000 0.000000 0.005959 0.000000 0.033710
#
#
# Mechanical properties :
#
#
# Convention : Reuss Voigt Hill
#
# Bulk Modulus (GPa) = 27.13686 33.08531 30.11108
# Shear Modulus (GPa) = 23.18705 26.31943 24.75324
#
# Velocity S-wave (km/s) = 3.13932 3.34465 3.24361
# Velocity P-wave (km/s) = 4.96735 5.38313 5.17941
#
# Compressibility (1/GPa) = 0.03685025
#
# Stress axis : x y z
#
# Youngs Moduli (GPa) = 67.30369 63.49648 36.58718
#
# Poissons Ratio (x) = 0.28733 0.22966
# Poissons Ratio (y) = 0.30455 -0.00943
# Poissons Ratio (z) = 0.42247 -0.01637
#
# Static dielectric constant tensor:
#      x y z
#    x 1.958580 0.000000 -0.016650 
#    y 0.000000 1.861020 0.000000 
#    z -0.016650 0.000000 1.941400 
# 
# From -- ./inp_files/79656.got.cif
#   From: 2010.05.17/outbox.cif.g08.bks.cpg/sg14_40_cif.got.tgz:79656.got - 2010.06.03 17:49:19.
