data_PCOD9246134
_publ_section_title
;
Structure prediction by ZEFSAII (Michael W. Deem and Ramdas Pophale) SiO2 
 PCOD9246134
Probable space group: P 21/C
;
_chemical_formula_sum "Si O2"
_cell_formula_units_Z 30
_cell_length_a 15.344776
_cell_length_b 20.006996
_cell_length_c 9.642831
_cell_angle_alpha 90.000000
_cell_angle_beta 30.327463
_cell_angle_gamma 90.000000
_cell_volume 1494.816837
_symmetry_space_group_name_H-M "P 21/C"
_symmetry_group_IT_number 14
_symmetry_cell_setting 'monoclinic'
loop_
_space_group_symop_operation_xyz
x,y,z
-x,1/2+y,1/2-z
-x,-y,-z
x,1/2-y,1/2+z
loop_
_atom_site_type_symbol
_atom_site_label
_atom_site_fract_x
_atom_site_fract_y
_atom_site_fract_z
Si Si1 0.630200 0.439221 0.801508
Si Si2 0.440558 0.197544 0.514437
Si Si3 0.500000 0.000000 0.000000
Si Si4 0.679577 0.802942 0.024100
Si Si5 0.950783 0.178305 0.568946
Si Si6 0.815667 0.465143 0.269747
Si Si7 0.199667 0.733349 0.986573
Si Si8 0.657726 0.393146 0.067767
O O1 0.519680 0.376316 0.894142
O O2 0.766325 0.461584 0.499738
O O3 0.500000 0.500000 0.000000
O O4 0.705995 0.419056 0.847638
O O5 0.358717 0.230446 0.490489
O O6 0.310754 0.200556 0.822717
O O7 0.606793 0.243890 0.319632
O O8 0.658816 0.004065 0.897914
O O9 0.614456 0.048125 0.734752
O O10 0.517459 0.850563 0.217082
O O11 0.845775 0.833027 0.720284
O O12 0.844184 0.111678 0.687579
O O13 0.908970 0.228381 0.502411
O O14 0.883260 0.211602 0.800834
O O15 0.000000 0.500000 0.000000
O O16 0.212659 0.662181 0.047093
#
# Coordination Sequence:
#
# PCOD9246134 Si02
#       8
#     4   4   2   4   4   4   4   4
#     4  11  22  41  69  91 133 179 223 281 349 407
#     4  10  21  40  63  93 121 174 216 269 334 407
#     4  12  22  46  70  98 134 186 230 278 342 414
#     4  10  22  38  63  92 133 158 227 276 334 406
#     4  12  23  40  63  98 132 175 213 292 346 396
#     4  12  27  45  72 100 137 183 237 285 349 415
#     4  11  22  39  66  92 129 168 226 269 338 411
#     4  10  22  41  67  94 126 175 228 276 330 418
#
# _framework density 20.069348000000002
#
# number of rings (size 3 to 8) (size 9 to 14) (size 15 to 20)
#    0.000    1.067    4.000    4.000    1.867    0.000 
#    0.000    2.000    5.867    0.000    0.000    0.000 
#    0.000    0.000    0.000    0.000    0.000    0.000 
#
# Total GULP energy -167015.528349 kJ/mol
# GULP energy per Si atom -5567.184278 kJ/mol
# Density = 2.002367 g / cm^3
# Si number density = 20.069348 Si / 1000 Ang^3
#
#
#
# Elastic Constant Matrix: (Units=GPa)
#
#
# Indices 1 2 3 4 5 6 
#
# 1 37.5588 14.9423 8.4022 0.0000 9.0186 0.0000
# 2 14.9423 61.8022 18.2820 0.0000 18.4975 0.0000
# 3 8.4022 18.2820 95.7169 0.0000 19.0479 0.0000
# 4 0.0000 0.0000 0.0000 26.2708 0.0000 7.9426
# 5 9.0186 18.4975 19.0479 0.0000 17.0942 0.0000
# 6 0.0000 0.0000 0.0000 7.9426 0.0000 30.1963
#
#
#
# Elastic Compliance Matrix: (Units=1/GPa)
#
#
# Indices 1 2 3 4 5 6 
#
# 1 0.031121 -0.003829 0.000568 0.000000 -0.012909 0.000000
# 2 -0.003829 0.024444 0.000680 0.000000 -0.025188 0.000000
# 3 0.000568 0.000680 0.013458 0.000000 -0.016032 0.000000
# 4 0.000000 0.000000 0.000000 0.041354 0.000000 -0.010877
# 5 -0.012909 -0.025188 -0.016032 0.000000 0.110429 0.000000
# 6 0.000000 0.000000 0.000000 -0.010877 0.000000 0.035978
#
#
# Mechanical properties :
#
#
# Convention : Reuss Voigt Hill
#
# Bulk Modulus (GPa) = 15.65881 30.92564 23.29222
# Shear Modulus (GPa) = 17.65339 24.94237 21.29788
#
# Velocity S-wave (km/s) = 2.96906 3.52917 3.26116
# Velocity P-wave (km/s) = 4.42414 5.66124 5.08048
#
# Compressibility (1/GPa) = 0.06386183
#
# Stress axis : x y z
#
# Youngs Moduli (GPa) = 32.13299 40.90970 74.30485
#
# Poissons Ratio (x) = 0.15663 -0.04223
# Poissons Ratio (y) = 0.12303 -0.05051
# Poissons Ratio (z) = -0.01826 -0.02781
#
# Static dielectric constant tensor:
#      x y z
#    x 1.724760 0.000000 0.001810 
#    y 0.000000 1.735700 0.000000 
#    z 0.001810 0.000000 1.763330 
# 
# From -- ./inp_files/16928.got.cif
#   From: 2010.05.17/outbox.cif.g08.bks.cpg/sg14_9_cif.got.tgz:16928.got - 2010.06.03 17:49:19.
