data_PCOD9246311
_publ_section_title
;
Structure prediction by ZEFSAII (Michael W. Deem and Ramdas Pophale) SiO2 
 PCOD9246311
Probable space group: P 21/C
;
_chemical_formula_sum "Si O2"
_cell_formula_units_Z 20
_cell_length_a 19.713841
_cell_length_b 9.860920
_cell_length_c 14.242589
_cell_angle_alpha 90.000000
_cell_angle_beta 15.546960
_cell_angle_gamma 90.000000
_cell_volume 742.092306
_symmetry_space_group_name_H-M "P 21/C"
_symmetry_group_IT_number 14
_symmetry_cell_setting 'monoclinic'
loop_
_space_group_symop_operation_xyz
x,y,z
-x,1/2+y,1/2-z
-x,-y,-z
x,1/2-y,1/2+z
loop_
_atom_site_type_symbol
_atom_site_label
_atom_site_fract_x
_atom_site_fract_y
_atom_site_fract_z
Si Si1 0.230812 0.210294 0.926969
Si Si2 0.535080 0.532065 0.341829
Si Si3 0.701458 0.736921 0.384775
Si Si4 0.260182 0.594158 0.416665
Si Si5 0.992852 0.422466 0.411963
O O1 0.453735 0.305085 0.672807
O O2 0.250786 0.215648 0.786634
O O3 0.975802 0.301495 0.274435
O O4 0.216752 0.064236 0.994983
O O5 0.500000 0.500000 0.500000
O O6 0.346693 0.423013 0.549234
O O7 0.799830 0.503864 0.932642
O O8 0.907454 0.777697 0.185676
O O9 0.453831 0.833071 0.727962
O O10 0.277786 0.581631 0.278239
O O11 0.000000 0.500000 0.500000
#
# Coordination Sequence:
#
# PCOD9246311 Si02
#       5
#     4   4   4   4   4
#     4  10  21  40  67  96 133 182 233 283 347 420
#     4   9  22  45  68  96 140 183 229 289 349 415
#     4  11  23  42  69  98 137 187 232 289 353 415
#     4  11  22  41  66  97 138 186 229 286 358 415
#     4  11  23  39  67 103 136 171 234 288 339 420
#
# _framework density 26.950824000000001
#
# number of rings (size 3 to 8) (size 9 to 14) (size 15 to 20)
#    0.000    1.600    2.000    3.000    0.000    3.200 
#    3.600    0.000    0.000   16.800    0.000    0.000 
#    0.000    0.000    0.000    0.000    0.000    0.000 
#
# Total GULP energy -111398.351652 kJ/mol
# GULP energy per Si atom -5569.917583 kJ/mol
# Density = 2.688948 g / cm^3
# Si number density = 26.950824 Si / 1000 Ang^3
#
#
#
# Elastic Constant Matrix: (Units=GPa)
#
#
# Indices 1 2 3 4 5 6 
#
# 1 151.1727 32.6075 33.6181 0.0000 -14.8366 0.0000
# 2 32.6075 213.8910 20.5130 0.0000 -20.3486 0.0000
# 3 33.6181 20.5130 58.6217 0.0000 6.1513 0.0000
# 4 0.0000 0.0000 0.0000 33.8475 0.0000 -7.0269
# 5 -14.8366 -20.3486 6.1513 0.0000 53.5393 0.0000
# 6 0.0000 0.0000 0.0000 -7.0269 0.0000 52.1881
#
#
#
# Elastic Compliance Matrix: (Units=1/GPa)
#
#
# Indices 1 2 3 4 5 6 
#
# 1 0.008022 -0.000530 -0.004683 0.000000 0.002560 0.000000
# 2 -0.000530 0.005108 -0.001692 0.000000 0.001989 0.000000
# 3 -0.004683 -0.001692 0.020791 0.000000 -0.004330 0.000000
# 4 0.000000 0.000000 0.000000 0.030394 0.000000 0.004092
# 5 0.002560 0.001989 -0.004330 0.000000 0.020640 0.000000
# 6 0.000000 0.000000 0.000000 0.004092 0.000000 0.019712
#
#
# Mechanical properties :
#
#
# Convention : Reuss Voigt Hill
#
# Bulk Modulus (GPa) = 49.72859 66.35141 58.04000
# Shear Modulus (GPa) = 39.94205 50.37809 45.16007
#
# Velocity S-wave (km/s) = 3.85390 4.32818 4.09791
# Velocity P-wave (km/s) = 6.18830 7.04631 6.63119
#
# Compressibility (1/GPa) = 0.02010916
#
# Stress axis : x y z
#
# Youngs Moduli (GPa) = 124.65618 195.78802 48.09843
#
# Poissons Ratio (x) = 0.10382 0.22527
# Poissons Ratio (y) = 0.06610 0.08137
# Poissons Ratio (z) = 0.58383 0.33124
#
# Static dielectric constant tensor:
#      x y z
#    x 2.249640 0.000000 0.143770 
#    y 0.000000 2.617060 0.000000 
#    z 0.143770 0.000000 2.417950 
# 
# From -- ./inp_files/49992.got.cif
#   From: 2010.05.17/outbox.cif.g08.bks.cpg/sg14_25_cif.got.tgz:49992.got - 2010.06.03 17:49:19.
