data_PCOD9246346
_publ_section_title
;
Structure prediction by ZEFSAII (Michael W. Deem and Ramdas Pophale) SiO2 
 PCOD9246346
Probable space group: P 21/C
;
_chemical_formula_sum "Si O2"
_cell_formula_units_Z 30
_cell_length_a 27.413103
_cell_length_b 8.480389
_cell_length_c 8.883245
_cell_angle_alpha 90.000000
_cell_angle_beta 144.357611
_cell_angle_gamma 90.000000
_cell_volume 1203.396626
_symmetry_space_group_name_H-M "P 21/C"
_symmetry_group_IT_number 14
_symmetry_cell_setting 'monoclinic'
loop_
_space_group_symop_operation_xyz
x,y,z
-x,1/2+y,1/2-z
-x,-y,-z
x,1/2-y,1/2+z
loop_
_atom_site_type_symbol
_atom_site_label
_atom_site_fract_x
_atom_site_fract_y
_atom_site_fract_z
Si Si1 0.035053 0.861350 0.481170
Si Si2 0.750006 0.618580 0.501768
Si Si3 0.644105 0.442026 0.426883
Si Si4 0.850834 0.744421 0.509898
Si Si5 0.579602 0.762227 0.947191
Si Si6 0.500000 0.500000 0.500000
Si Si7 0.589212 0.197719 0.082703
Si Si8 0.087941 0.563858 0.783405
O O1 0.946727 0.782824 0.205163
O O2 0.091761 0.734001 0.712683
O O3 0.079879 0.917408 0.442616
O O4 0.000000 0.000000 0.500000
O O5 0.729553 0.466880 0.551535
O O6 0.816589 0.611919 0.535903
O O7 0.788922 0.742635 0.715695
O O8 0.661331 0.676588 0.213386
O O9 0.610604 0.606838 0.406547
O O10 0.587965 0.365471 0.155678
O O11 0.642549 0.332510 0.570156
O O12 0.849302 0.917764 0.586316
O O13 0.510498 0.646893 0.692841
O O14 0.525134 0.849101 0.937351
O O15 0.399231 0.565441 0.262998
O O16 0.000000 0.500000 0.500000
#
# Coordination Sequence:
#
# PCOD9246346 Si02
#       8
#     4   4   4   4   4   2   4   4
#     4  11  21  41  76 110 135 181 232 298 341 414
#     4  12  25  43  66  95 141 187 234 279 362 443
#     4  11  25  42  65 100 133 183 238 297 363 421
#     4  11  24  44  68 100 143 185 226 283 353 436
#     4  11  23  39  67  96 125 179 237 296 350 407
#     4  10  22  36  64  94 122 166 230 300 350 384
#     4  11  23  41  66  97 133 172 245 309 344 405
#     4  10  21  40  69 107 142 176 236 284 342 412
#
# _framework density 24.929435999999999
#
# number of rings (size 3 to 8) (size 9 to 14) (size 15 to 20)
#    0.000    1.067    2.667    5.200    3.733    0.000 
#    0.000    2.667    0.000    0.000    0.000    0.000 
#    0.000    0.000    0.000    0.000    0.000    0.000 
#
# Total GULP energy -167236.471341 kJ/mol
# GULP energy per Si atom -5574.549045 kJ/mol
# Density = 2.487270 g / cm^3
# Si number density = 24.929436 Si / 1000 Ang^3
#
#
#
# Elastic Constant Matrix: (Units=GPa)
#
#
# Indices 1 2 3 4 5 6 
#
# 1 130.7448 24.9727 27.3782 0.0000 -14.1431 0.0000
# 2 24.9727 89.6380 25.5886 0.0000 -11.2884 0.0000
# 3 27.3782 25.5886 87.5612 0.0000 0.7982 0.0000
# 4 0.0000 0.0000 0.0000 31.4550 0.0000 -10.3700
# 5 -14.1431 -11.2884 0.7982 0.0000 35.5241 0.0000
# 6 0.0000 0.0000 0.0000 -10.3700 0.0000 52.7924
#
#
#
# Elastic Compliance Matrix: (Units=1/GPa)
#
#
# Indices 1 2 3 4 5 6 
#
# 1 0.008740 -0.001371 -0.002360 0.000000 0.003097 0.000000
# 2 -0.001371 0.012967 -0.003394 0.000000 0.003651 0.000000
# 3 -0.002360 -0.003394 0.013171 0.000000 -0.002314 0.000000
# 4 0.000000 0.000000 0.000000 0.033993 0.000000 0.006677
# 5 0.003097 0.003651 -0.002314 0.000000 0.030595 0.000000
# 6 0.000000 0.000000 0.000000 0.006677 0.000000 0.020254
#
#
# Mechanical properties :
#
#
# Convention : Reuss Voigt Hill
#
# Bulk Modulus (GPa) = 48.47940 51.53587 50.00764
# Shear Modulus (GPa) = 35.50002 39.28794 37.39398
#
# Velocity S-wave (km/s) = 3.77771 3.97415 3.87718
# Velocity P-wave (km/s) = 6.20621 6.46344 6.33613
#
# Compressibility (1/GPa) = 0.02062732
#
# Stress axis : x y z
#
# Youngs Moduli (GPa) = 114.42185 77.12156 75.92168
#
# Poissons Ratio (x) = 0.10574 0.17919
# Poissons Ratio (y) = 0.15688 0.25767
# Poissons Ratio (z) = 0.27006 0.26174
#
# Static dielectric constant tensor:
#      x y z
#    x 2.034860 0.000000 -0.089680 
#    y 0.000000 2.266760 0.000000 
#    z -0.089680 0.000000 2.119860 
# 
# From -- ./inp_files/19963.got.cif
#   From: 2010.05.17/outbox.cif.g08.bks.cpg/sg14_10_cif.got.tgz:19963.got - 2010.06.03 17:49:19.
