data_PCOD9246736
_publ_section_title
;
Structure prediction by ZEFSAII (Michael W. Deem and Ramdas Pophale) SiO2 
 PCOD9246736
Probable space group: P 21/C
;
_chemical_formula_sum "Si O2"
_cell_formula_units_Z 28
_cell_length_a 14.959457
_cell_length_b 12.017464
_cell_length_c 8.056521
_cell_angle_alpha 90.000000
_cell_angle_beta 110.909445
_cell_angle_gamma 90.000000
_cell_volume 1352.978206
_symmetry_space_group_name_H-M "P 21/C"
_symmetry_group_IT_number 14
_symmetry_cell_setting 'monoclinic'
loop_
_space_group_symop_operation_xyz
x,y,z
-x,1/2+y,1/2-z
-x,-y,-z
x,1/2-y,1/2+z
loop_
_atom_site_type_symbol
_atom_site_label
_atom_site_fract_x
_atom_site_fract_y
_atom_site_fract_z
Si Si1 0.654153 0.962809 0.041460
Si Si2 0.066292 0.926412 0.923265
Si Si3 0.758882 0.001021 0.775444
Si Si4 0.425628 0.595149 0.006143
Si Si5 0.891394 0.675834 0.172000
Si Si6 0.851710 0.592467 0.782802
Si Si7 0.462055 0.660773 0.409625
O O1 0.742290 0.947435 0.224458
O O2 0.607099 0.084731 0.023553
O O3 0.570536 0.875235 0.021261
O O4 0.698044 0.950316 0.887345
O O5 0.997936 0.826978 0.821259
O O6 0.091008 0.996812 0.774904
O O7 0.165603 0.913240 0.088572
O O8 0.000000 0.000000 0.000000
O O9 0.682108 0.056366 0.603915
O O10 0.821736 0.906649 0.727803
O O11 0.445967 0.709477 0.922567
O O12 0.500000 0.500000 0.000000
O O13 0.441483 0.621852 0.209147
O O14 0.853515 0.800271 0.163744
O O15 0.891775 0.631197 0.985171
#
# Coordination Sequence:
#
# PCOD9246736 Si02
#       7
#     4   4   4   4   4   4   4
#     4  10  22  42  64  94 127 175 216 275 324 392
#     4   9  20  40  62  88 126 158 206 266 317 384
#     4  10  21  42  62  93 125 167 216 268 329 394
#     4  12  25  42  66  95 132 174 220 272 333 399
#     4  11  22  39  62  94 126 165 214 272 324 388
#     4  11  22  38  65  92 128 165 220 260 332 390
#     4  11  25  42  64  92 135 171 225 269 335 385
#
# _framework density 20.695087000000001
#
# number of rings (size 3 to 8) (size 9 to 14) (size 15 to 20)
#    0.000    1.429    1.429    4.714    4.000    1.143 
#    0.000   14.286    0.000    0.000    0.000    0.000 
#    0.000    0.000    0.000    0.000    0.000    0.000 
#
# Total GULP energy -156472.708456 kJ/mol
# GULP energy per Si atom -5588.311016 kJ/mol
# Density = 2.064798 g / cm^3
# Si number density = 20.695087 Si / 1000 Ang^3
#
#
#
# Elastic Constant Matrix: (Units=GPa)
#
#
# Indices 1 2 3 4 5 6 
#
# 1 108.8074 40.4839 28.5737 0.0000 17.8027 0.0000
# 2 40.4839 92.8350 1.4965 0.0000 4.7686 0.0000
# 3 28.5737 1.4965 60.0668 0.0000 -5.6915 0.0000
# 4 0.0000 0.0000 0.0000 23.5820 0.0000 -3.0290
# 5 17.8027 4.7686 -5.6915 0.0000 37.8157 0.0000
# 6 0.0000 0.0000 0.0000 -3.0290 0.0000 19.0271
#
#
#
# Elastic Compliance Matrix: (Units=1/GPa)
#
#
# Indices 1 2 3 4 5 6 
#
# 1 0.014489 -0.005829 -0.007430 0.000000 -0.007204 0.000000
# 2 -0.005829 0.013197 0.002583 0.000000 0.001469 0.000000
# 3 -0.007430 0.002583 0.020714 0.000000 0.006290 0.000000
# 4 0.000000 0.000000 0.000000 0.043290 0.000000 0.006892
# 5 -0.007204 0.001469 0.006290 0.000000 0.030597 0.000000
# 6 0.000000 0.000000 0.000000 0.006892 0.000000 0.053654
#
#
# Mechanical properties :
#
#
# Convention : Reuss Voigt Hill
#
# Bulk Modulus (GPa) = 36.97021 44.75749 40.86385
# Shear Modulus (GPa) = 24.23559 28.82862 26.53210
#
# Velocity S-wave (km/s) = 3.42582 3.73636 3.58445
# Velocity P-wave (km/s) = 5.79235 6.34728 6.07615
#
# Compressibility (1/GPa) = 0.02704881
#
# Stress axis : x y z
#
# Youngs Moduli (GPa) = 69.01741 75.77764 48.27633
#
# Poissons Ratio (x) = 0.44168 0.35869
# Poissons Ratio (y) = 0.40228 -0.12470
# Poissons Ratio (z) = 0.51279 -0.19574
#
# Static dielectric constant tensor:
#      x y z
#    x 1.730140 0.000000 0.004080 
#    y 0.000000 1.715390 0.000000 
#    z 0.004080 0.000000 1.775640 
# 
# From -- ./inp_files/15592.got.cif
#   From: 2010.05.17/outbox.cif.g08.bks.cpg/sg14_8_cif.got.tgz:15592.got - 2010.06.03 17:49:19.
