data_PCOD9246672
_publ_section_title
;
Structure prediction by ZEFSAII (Michael W. Deem and Ramdas Pophale) SiO2 
 PCOD9246672
Probable space group: P 21/C
;
_chemical_formula_sum "Si O2"
_cell_formula_units_Z 24
_cell_length_a 7.569483
_cell_length_b 7.065820
_cell_length_c 17.435315
_cell_angle_alpha 90.000000
_cell_angle_beta 87.582985
_cell_angle_gamma 90.000000
_cell_volume 931.691308
_symmetry_space_group_name_H-M "P 21/C"
_symmetry_group_IT_number 14
_symmetry_cell_setting 'monoclinic'
loop_
_space_group_symop_operation_xyz
x,y,z
-x,1/2+y,1/2-z
-x,-y,-z
x,1/2-y,1/2+z
loop_
_atom_site_type_symbol
_atom_site_label
_atom_site_fract_x
_atom_site_fract_y
_atom_site_fract_z
Si Si1 0.938894 0.269791 0.655914
Si Si2 0.477970 0.471278 0.590744
Si Si3 0.323296 0.435171 0.123455
Si Si4 0.372404 0.185657 0.333675
Si Si5 0.193774 0.560898 0.969534
Si Si6 0.810060 0.467666 0.292434
O O1 0.121934 0.140348 0.644555
O O2 0.999970 0.474010 0.680394
O O3 0.837071 0.253164 0.577601
O O4 0.826564 0.189723 0.728128
O O5 0.500000 0.500000 0.500000
O O6 0.445090 0.249921 0.607003
O O7 0.608130 0.597391 0.640799
O O8 0.296573 0.560218 0.628109
O O9 0.439833 0.572185 0.174820
O O10 0.309741 0.547663 0.043000
O O11 0.265976 0.083885 0.404368
O O12 0.275577 0.139665 0.255948
O O13 0.000000 0.500000 0.000000
#
# Coordination Sequence:
#
# PCOD9246672 Si02
#       6
#     4   4   4   4   4   4
#     4   9  21  41  64  92 133 173 226 277 333 405
#     4  11  24  41  66 102 136 166 227 283 333 406
#     4  10  21  41  69  97 133 174 223 284 338 405
#     4  11  23  41  67  99 132 181 223 278 349 399
#     4   9  18  38  66  91 131 176 217 272 340 400
#     4  10  24  43  64  99 133 182 230 280 343 408
#
# _framework density 25.759605000000001
#
# number of rings (size 3 to 8) (size 9 to 14) (size 15 to 20)
#    0.000    2.000    1.667    0.500    7.000    0.000 
#    6.000    0.000    0.000    6.000    0.000    0.000 
#    0.000    0.000    0.000    0.000    0.000    0.000 
#
# Total GULP energy -134106.521337 kJ/mol
# GULP energy per Si atom -5587.771722 kJ/mol
# Density = 2.570097 g / cm^3
# Si number density = 25.759605 Si / 1000 Ang^3
#
#
#
# Elastic Constant Matrix: (Units=GPa)
#
#
# Indices 1 2 3 4 5 6 
#
# 1 98.3383 19.2556 42.2500 0.0000 -1.8984 0.0000
# 2 19.2556 99.5314 27.7031 0.0000 2.9853 0.0000
# 3 42.2500 27.7031 145.5397 0.0000 -21.8242 0.0000
# 4 0.0000 0.0000 0.0000 24.6947 0.0000 3.7044
# 5 -1.8984 2.9853 -21.8242 0.0000 42.8524 0.0000
# 6 0.0000 0.0000 0.0000 3.7044 0.0000 42.7067
#
#
#
# Elastic Compliance Matrix: (Units=1/GPa)
#
#
# Indices 1 2 3 4 5 6 
#
# 1 0.011847 -0.001327 -0.003350 0.000000 -0.001089 0.000000
# 2 -0.001327 0.010905 -0.001963 0.000000 -0.001818 0.000000
# 3 -0.003350 -0.001963 0.008895 0.000000 0.004518 0.000000
# 4 0.000000 0.000000 0.000000 0.041028 0.000000 -0.003559
# 5 -0.001089 -0.001818 0.004518 0.000000 0.025715 0.000000
# 6 0.000000 0.000000 0.000000 -0.003559 0.000000 0.023724
#
#
# Mechanical properties :
#
#
# Convention : Reuss Voigt Hill
#
# Bulk Modulus (GPa) = 54.44676 57.98076 56.21376
# Shear Modulus (GPa) = 35.33156 38.99746 37.16451
#
# Velocity S-wave (km/s) = 3.70751 3.89511 3.80247
# Velocity P-wave (km/s) = 6.28569 6.54113 6.41468
#
# Compressibility (1/GPa) = 0.01836657
#
# Stress axis : x y z
#
# Youngs Moduli (GPa) = 84.40947 91.70330 112.42709
#
# Poissons Ratio (x) = 0.12168 0.37662
# Poissons Ratio (y) = 0.11200 0.22071
# Poissons Ratio (z) = 0.28276 0.18003
#
# Static dielectric constant tensor:
#      x y z
#    x 2.101890 0.000000 -0.017110 
#    y 0.000000 2.132740 0.000000 
#    z -0.017110 0.000000 1.928170 
# 
# From -- ./inp_files/54571.got.cif
#   From: 2010.05.17/outbox.cif.g08.bks.cpg/sg14_28_cif.got.tgz:54571.got - 2010.06.03 17:49:19.
