data_PCOD9246463
_publ_section_title
;
Structure prediction by ZEFSAII (Michael W. Deem and Ramdas Pophale) SiO2 
 PCOD9246463
Probable space group: P 21/C
;
_chemical_formula_sum "Si O2"
_cell_formula_units_Z 28
_cell_length_a 12.532807
_cell_length_b 8.168466
_cell_length_c 13.933682
_cell_angle_alpha 90.000000
_cell_angle_beta 64.831960
_cell_angle_gamma 90.000000
_cell_volume 1291.023780
_symmetry_space_group_name_H-M "P 21/C"
_symmetry_group_IT_number 14
_symmetry_cell_setting 'monoclinic'
loop_
_space_group_symop_operation_xyz
x,y,z
-x,1/2+y,1/2-z
-x,-y,-z
x,1/2-y,1/2+z
loop_
_atom_site_type_symbol
_atom_site_label
_atom_site_fract_x
_atom_site_fract_y
_atom_site_fract_z
Si Si1 0.274703 0.312086 0.996995
Si Si2 0.887615 0.830397 0.791539
Si Si3 0.868643 0.203324 0.739536
Si Si4 0.878883 0.391822 0.548679
Si Si5 0.472684 0.328354 0.062493
Si Si6 0.279366 0.159337 0.795388
Si Si7 0.733256 0.303108 0.954102
O O1 0.292858 0.286184 0.877769
O O2 0.253515 0.504684 0.025839
O O3 0.167119 0.209259 0.083103
O O4 0.385332 0.247646 0.018066
O O5 0.819931 0.715003 0.742627
O O6 0.023965 0.791109 0.747069
O O7 0.869342 0.012720 0.761881
O O8 0.889095 0.244577 0.621258
O O9 0.752795 0.279432 0.832941
O O10 0.774039 0.501771 0.632445
O O11 0.829062 0.309514 0.471333
O O12 0.000000 0.500000 0.500000
O O13 0.398066 0.354177 0.187854
O O14 0.600144 0.250843 0.031329
O O15 0.500000 0.500000 0.000000
#
# Coordination Sequence:
#
# PCOD9246463 Si02
#       7
#     4   4   4   4   4   4   4
#     4  10  21  41  63  91 124 160 207 258 311 375
#     4  11  23  40  63  91 122 163 206 256 317 377
#     4  12  23  40  62  89 124 161 203 258 314 375
#     4  12  25  41  64  96 128 166 214 262 318 385
#     4   9  21  40  62  89 124 164 208 258 313 373
#     4  11  22  40  63  89 126 167 207 262 315 369
#     4  11  23  40  63  93 125 165 210 258 315 380
#
# _framework density 21.688215
#
# number of rings (size 3 to 8) (size 9 to 14) (size 15 to 20)
#    0.000    1.143    0.000    8.571    0.000    3.429 
#    0.000   10.714    0.000    0.000    0.000    0.000 
#    0.000    0.000    0.000    0.000    0.000    0.000 
#
# Total GULP energy -156439.469141 kJ/mol
# GULP energy per Si atom -5587.123898 kJ/mol
# Density = 2.163885 g / cm^3
# Si number density = 21.688215 Si / 1000 Ang^3
#
#
#
# Elastic Constant Matrix: (Units=GPa)
#
#
# Indices 1 2 3 4 5 6 
#
# 1 63.0712 -8.0723 13.0569 0.0000 -9.5958 0.0000
# 2 -8.0723 42.8403 -12.9062 0.0000 1.5102 0.0000
# 3 13.0569 -12.9062 105.9646 0.0000 1.1631 0.0000
# 4 0.0000 0.0000 0.0000 162.8930 0.0000 43.7895
# 5 -9.5958 1.5102 1.1631 0.0000 37.5953 0.0000
# 6 0.0000 0.0000 0.0000 43.7895 0.0000 37.0022
#
#
#
# Elastic Compliance Matrix: (Units=1/GPa)
#
#
# Indices 1 2 3 4 5 6 
#
# 1 0.017227 0.002532 -0.001862 0.000000 0.004353 0.000000
# 2 0.002532 0.024646 0.002695 0.000000 -0.000427 0.000000
# 3 -0.001862 0.002695 0.010005 0.000000 -0.000893 0.000000
# 4 0.000000 0.000000 0.000000 0.009003 0.000000 -0.010655
# 5 0.004353 -0.000427 -0.000893 0.000000 0.027755 0.000000
# 6 0.000000 0.000000 0.000000 -0.010655 0.000000 0.039634
#
#
# Mechanical properties :
#
#
# Convention : Reuss Voigt Hill
#
# Bulk Modulus (GPa) = 17.06313 21.78144 19.42229
# Shear Modulus (GPa) = 35.44151 62.15129 48.79640
#
# Velocity S-wave (km/s) = 4.04683 5.35900 4.74846
# Velocity P-wave (km/s) = 5.45164 6.95390 6.24808
#
# Compressibility (1/GPa) = 0.05860590
#
# Stress axis : x y z
#
# Youngs Moduli (GPa) = 58.04890 40.57393 99.95442
#
# Poissons Ratio (x) = -0.10272 0.18613
# Poissons Ratio (y) = -0.14696 -0.26934
# Poissons Ratio (z) = 0.10809 -0.10933
#
# Static dielectric constant tensor:
#      x y z
#    x 1.838340 0.000000 -0.012660 
#    y 0.000000 1.798210 0.000000 
#    z -0.012660 0.000000 1.775880 
# 
# From -- ./inp_files/43299.got.cif
#   From: 2010.05.17/outbox.cif.g08.bks.cpg/sg14_22_cif.got.tgz:43299.got - 2010.06.03 17:49:19.
