data_PCOD9246031
_publ_section_title
;
Structure prediction by ZEFSAII (Michael W. Deem and Ramdas Pophale) SiO2 
 PCOD9246031
Probable space group: P 21/C
;
_chemical_formula_sum "Si O2"
_cell_formula_units_Z 28
_cell_length_a 9.490308
_cell_length_b 24.603545
_cell_length_c 9.402528
_cell_angle_alpha 90.000000
_cell_angle_beta 146.904354
_cell_angle_gamma 90.000000
_cell_volume 1198.797243
_symmetry_space_group_name_H-M "P 21/C"
_symmetry_group_IT_number 14
_symmetry_cell_setting 'monoclinic'
loop_
_space_group_symop_operation_xyz
x,y,z
-x,1/2+y,1/2-z
-x,-y,-z
x,1/2-y,1/2+z
loop_
_atom_site_type_symbol
_atom_site_label
_atom_site_fract_x
_atom_site_fract_y
_atom_site_fract_z
Si Si1 0.838247 0.161746 0.386843
Si Si2 0.973476 0.331642 0.314627
Si Si3 0.277248 0.262316 0.162918
Si Si4 0.333962 0.501997 0.005426
Si Si5 0.426850 0.724151 0.846794
Si Si6 0.782143 0.936231 0.043835
Si Si7 0.095547 0.060305 0.537695
O O1 0.819780 0.153820 0.540799
O O2 0.114519 0.188535 0.584421
O O3 0.861426 0.103668 0.330146
O O4 0.653294 0.212301 0.196266
O O5 0.110961 0.273615 0.411479
O O6 0.176747 0.379528 0.502158
O O7 0.783713 0.319094 0.282702
O O8 0.346413 0.220608 0.346352
O O9 0.511675 0.281843 0.265256
O O10 0.530799 0.533243 0.276686
O O11 0.255497 0.447443 0.027658
O O12 0.500000 0.500000 0.000000
O O13 0.054470 0.531438 0.747526
O O14 0.758733 0.923979 0.192689
O O15 0.000000 0.000000 0.500000
#
# Coordination Sequence:
#
# PCOD9246031 Si02
#       7
#     4   4   4   4   4   4   4
#     4  10  21  40  59  93 120 162 217 256 314 386
#     4  10  22  38  62  89 121 163 213 253 309 387
#     4  11  22  38  60  88 125 161 202 258 316 378
#     4  11  23  43  65  97 131 162 209 277 327 377
#     4  11  22  38  61  88 128 164 203 260 319 382
#     4  10  23  42  68  92 123 171 217 255 320 391
#     4   9  21  43  66  90 123 171 221 268 321 388
#
# _framework density 23.356742000000001
#
# number of rings (size 3 to 8) (size 9 to 14) (size 15 to 20)
#    0.000    1.714    2.857    0.857    2.000    2.286 
#    7.714    0.000    0.000    0.000    0.000    0.000 
#    0.000    0.000    0.000    0.000    0.000    0.000 
#
# Total GULP energy -156143.762581 kJ/mol
# GULP energy per Si atom -5576.562949 kJ/mol
# Density = 2.330358 g / cm^3
# Si number density = 23.356742 Si / 1000 Ang^3
#
#
#
# Elastic Constant Matrix: (Units=GPa)
#
#
# Indices 1 2 3 4 5 6 
#
# 1 114.1213 -11.3244 21.1246 0.0000 -4.8930 0.0000
# 2 -11.3244 47.2501 9.5775 0.0000 10.7295 0.0000
# 3 21.1246 9.5775 56.5802 0.0000 11.1731 0.0000
# 4 0.0000 0.0000 0.0000 20.7668 0.0000 -3.6977
# 5 -4.8930 10.7295 11.1731 0.0000 30.0823 0.0000
# 6 0.0000 0.0000 0.0000 -3.6977 0.0000 26.3940
#
#
#
# Elastic Compliance Matrix: (Units=1/GPa)
#
#
# Indices 1 2 3 4 5 6 
#
# 1 0.010009 0.002811 -0.004679 0.000000 0.002364 0.000000
# 2 0.002811 0.024139 -0.003805 0.000000 -0.006739 0.000000
# 3 -0.004679 -0.003805 0.021526 0.000000 -0.007399 0.000000
# 4 0.000000 0.000000 0.000000 0.049386 0.000000 0.006919
# 5 0.002364 -0.006739 -0.007399 0.000000 0.038779 0.000000
# 6 0.000000 0.000000 0.000000 0.006919 0.000000 0.038857
#
#
# Mechanical properties :
#
#
# Convention : Reuss Voigt Hill
#
# Bulk Modulus (GPa) = 22.55923 28.52300 25.54112
# Shear Modulus (GPa) = 23.94423 28.68686 26.31554
#
# Velocity S-wave (km/s) = 3.20527 3.50838 3.36025
# Velocity P-wave (km/s) = 4.83507 5.35257 5.10039
#
# Compressibility (1/GPa) = 0.04432775
#
# Stress axis : x y z
#
# Youngs Moduli (GPa) = 99.90949 41.42641 46.45469
#
# Poissons Ratio (x) = -0.11644 0.21738
# Poissons Ratio (y) = -0.28081 0.17674
# Poissons Ratio (z) = 0.46752 0.15761
#
# Static dielectric constant tensor:
#      x y z
#    x 1.938600 0.000000 0.020440 
#    y 0.000000 1.925780 0.000000 
#    z 0.020440 0.000000 1.929220 
# 
# From -- ./inp_files/6496.got.cif
#   From: 2010.05.17/outbox.cif.g08.bks.cpg/sg14_4_cif.got.tgz:6496.got - 2010.06.03 17:49:19.
