data_PCOD9246160
_publ_section_title
;
Structure prediction by ZEFSAII (Michael W. Deem and Ramdas Pophale) SiO2 
 PCOD9246160
Probable space group: P 21/C
;
_chemical_formula_sum "Si O2"
_cell_formula_units_Z 28
_cell_length_a 8.721654
_cell_length_b 22.620855
_cell_length_c 8.295378
_cell_angle_alpha 90.000000
_cell_angle_beta 138.594760
_cell_angle_gamma 90.000000
_cell_volume 1082.419014
_symmetry_space_group_name_H-M "P 21/C"
_symmetry_group_IT_number 14
_symmetry_cell_setting 'monoclinic'
loop_
_space_group_symop_operation_xyz
x,y,z
-x,1/2+y,1/2-z
-x,-y,-z
x,1/2-y,1/2+z
loop_
_atom_site_type_symbol
_atom_site_label
_atom_site_fract_x
_atom_site_fract_y
_atom_site_fract_z
Si Si1 0.961047 0.080759 0.124071
Si Si2 0.250032 0.311649 0.755231
Si Si3 0.145503 0.773525 0.501409
Si Si4 0.205175 0.137124 0.894444
Si Si5 0.451593 0.703648 0.506508
Si Si6 0.260051 0.530403 0.242362
Si Si7 0.849413 0.046770 0.691614
O O1 0.807233 0.073513 0.162072
O O2 0.129574 0.137214 0.262255
O O3 0.815186 0.079112 0.839200
O O4 0.123094 0.022338 0.246898
O O5 0.048678 0.264448 0.563229
O O6 0.334021 0.341373 0.656820
O O7 0.438558 0.266305 0.969056
O O8 0.018884 0.820200 0.287945
O O9 0.309832 0.725731 0.546279
O O10 0.267854 0.812883 0.728935
O O11 0.102217 0.072917 0.838746
O O12 0.351911 0.153754 0.852039
O O13 0.500000 0.500000 0.500000
O O14 0.306094 0.552656 0.093115
O O15 0.000000 0.500000 0.000000
#
# Coordination Sequence:
#
# PCOD9246160 Si02
#       7
#     4   4   4   4   4   4   4
#     4   9  20  42  67  97 131 176 222 279 346 412
#     4  10  21  40  64  89 132 166 214 272 328 404
#     4  11  22  38  58  92 123 163 214 263 332 389
#     4  10  21  40  64  90 129 166 213 272 325 408
#     4  11  22  38  61  90 125 168 211 267 327 392
#     4  10  22  44  66  96 138 174 225 282 330 405
#     4   9  20  42  68  96 131 174 224 277 346 411
#
# _framework density 25.867984
#
# number of rings (size 3 to 8) (size 9 to 14) (size 15 to 20)
#    0.000    2.000    2.857    0.000    0.000    2.857 
#   15.429    0.000    0.000    0.000    0.000    0.000 
#    0.000    0.000    0.000    0.000    0.000    0.000 
#
# Total GULP energy -156001.393056 kJ/mol
# GULP energy per Si atom -5571.478323 kJ/mol
# Density = 2.580911 g / cm^3
# Si number density = 25.867984 Si / 1000 Ang^3
#
#
#
# Elastic Constant Matrix: (Units=GPa)
#
#
# Indices 1 2 3 4 5 6 
#
# 1 97.8919 17.9408 64.6135 0.0000 -12.6422 0.0000
# 2 17.9408 81.4093 11.6121 0.0000 9.3375 0.0000
# 3 64.6135 11.6121 116.0657 0.0000 -29.2022 0.0000
# 4 0.0000 0.0000 0.0000 22.2334 0.0000 4.3191
# 5 -12.6422 9.3375 -29.2022 0.0000 41.6340 0.0000
# 6 0.0000 0.0000 0.0000 4.3191 0.0000 41.4293
#
#
#
# Elastic Compliance Matrix: (Units=1/GPa)
#
#
# Indices 1 2 3 4 5 6 
#
# 1 0.016619 -0.002231 -0.009268 0.000000 -0.000954 0.000000
# 2 -0.002231 0.013481 -0.001260 0.000000 -0.004585 0.000000
# 3 -0.009268 -0.001260 0.016107 0.000000 0.008766 0.000000
# 4 0.000000 0.000000 0.000000 0.045907 0.000000 -0.004786
# 5 -0.000954 -0.004585 0.008766 0.000000 0.030906 0.000000
# 6 0.000000 0.000000 0.000000 -0.004786 0.000000 0.024636
#
#
# Mechanical properties :
#
#
# Convention : Reuss Voigt Hill
#
# Bulk Modulus (GPa) = 48.33896 53.74442 51.04169
# Shear Modulus (GPa) = 27.76685 34.47271 31.11978
#
# Velocity S-wave (km/s) = 3.27984 3.65449 3.47222
# Velocity P-wave (km/s) = 5.75070 6.21519 5.98745
#
# Compressibility (1/GPa) = 0.02068725
#
# Stress axis : x y z
#
# Youngs Moduli (GPa) = 60.17365 74.17901 62.08443
#
# Poissons Ratio (x) = 0.16548 0.57542
# Poissons Ratio (y) = 0.13424 0.07825
# Poissons Ratio (z) = 0.55771 0.09349
#
# Static dielectric constant tensor:
#      x y z
#    x 2.118880 0.000000 0.065450 
#    y 0.000000 2.089020 0.000000 
#    z 0.065450 0.000000 2.070370 
# 
# From -- ./inp_files/11196.got.cif
#   From: 2010.05.17/outbox.cif.g08.bks.cpg/sg14_6_cif.got.tgz:11196.got - 2010.06.03 17:49:19.
