data_PCOD9246453
_publ_section_title
;
Structure prediction by ZEFSAII (Michael W. Deem and Ramdas Pophale) SiO2 
 PCOD9246453
Probable space group: P 21/C
;
_chemical_formula_sum "Si O2"
_cell_formula_units_Z 28
_cell_length_a 5.635268
_cell_length_b 25.973415
_cell_length_c 9.459592
_cell_angle_alpha 90.000000
_cell_angle_beta 57.265110
_cell_angle_gamma 90.000000
_cell_volume 1164.677873
_symmetry_space_group_name_H-M "P 21/C"
_symmetry_group_IT_number 14
_symmetry_cell_setting 'monoclinic'
loop_
_space_group_symop_operation_xyz
x,y,z
-x,1/2+y,1/2-z
-x,-y,-z
x,1/2-y,1/2+z
loop_
_atom_site_type_symbol
_atom_site_label
_atom_site_fract_x
_atom_site_fract_y
_atom_site_fract_z
Si Si1 0.509967 0.956498 0.878958
Si Si2 0.447331 0.152725 0.804734
Si Si3 0.921661 0.817682 0.801130
Si Si4 0.378527 0.846445 0.847386
Si Si5 0.037035 0.698600 0.711742
Si Si6 0.390272 0.455973 0.200415
Si Si7 0.917150 0.020956 0.374275
O O1 0.344731 0.903330 0.927233
O O2 0.841446 0.942956 0.762474
O O3 0.427023 0.990119 0.769913
O O4 0.500000 0.000000 0.000000
O O5 0.766802 0.171350 0.731848
O O6 0.421817 0.091472 0.793265
O O7 0.269583 0.174909 0.728964
O O8 0.274578 0.169704 0.999374
O O9 0.218805 0.843680 0.749327
O O10 0.990849 0.757650 0.764422
O O11 0.710533 0.832737 0.741024
O O12 0.218466 0.808198 0.007837
O O13 0.101997 0.468955 0.213544
O O14 0.623289 0.451512 0.002275
O O15 0.000000 0.000000 0.500000
#
# Coordination Sequence:
#
# PCOD9246453 Si02
#       7
#     4   4   4   4   4   4   4
#     4  11  23  38  67 104 143 175 221 279 338 419
#     4  10  22  38  70  96 122 175 225 269 351 399
#     4  10  21  41  63  87 130 166 229 277 330 395
#     4  10  23  39  64  97 128 174 218 269 345 402
#     4  10  21  41  63  90 129 169 219 284 336 393
#     4  10  22  42  68  96 139 182 223 280 337 421
#     4   9  22  41  64  89 141 175 226 265 337 396
#
# _framework density 24.040982
#
# number of rings (size 3 to 8) (size 9 to 14) (size 15 to 20)
#    0.000    2.000    0.000    2.571   10.000    0.571 
#    0.000    8.571    0.000    0.000    0.000    0.000 
#    0.000    0.000    0.000    0.000    0.000    0.000 
#
# Total GULP energy -156175.465572 kJ/mol
# GULP energy per Si atom -5577.695199 kJ/mol
# Density = 2.398626 g / cm^3
# Si number density = 24.040982 Si / 1000 Ang^3
#
#
#
# Elastic Constant Matrix: (Units=GPa)
#
#
# Indices 1 2 3 4 5 6 
#
# 1 192.6716 30.9621 -2.9102 0.0000 1.9744 0.0000
# 2 30.9621 123.3493 18.4165 0.0000 -1.6571 0.0000
# 3 -2.9102 18.4165 40.6838 0.0000 -1.5556 0.0000
# 4 0.0000 0.0000 0.0000 35.5719 0.0000 3.5131
# 5 1.9744 -1.6571 -1.5556 0.0000 15.6863 0.0000
# 6 0.0000 0.0000 0.0000 3.5131 0.0000 41.4740
#
#
#
# Elastic Compliance Matrix: (Units=1/GPa)
#
#
# Indices 1 2 3 4 5 6 
#
# 1 0.005461 -0.001539 0.001059 0.000000 -0.000745 0.000000
# 2 -0.001539 0.009133 -0.004216 0.000000 0.000740 0.000000
# 3 0.001059 -0.004216 0.026643 0.000000 0.002064 0.000000
# 4 0.000000 0.000000 0.000000 0.028349 0.000000 -0.002401
# 5 -0.000745 0.000740 0.002064 0.000000 0.064127 0.000000
# 6 0.000000 0.000000 0.000000 -0.002401 0.000000 0.024315
#
#
# Mechanical properties :
#
#
# Convention : Reuss Voigt Hill
#
# Bulk Modulus (GPa) = 31.40243 49.96016 40.68129
# Shear Modulus (GPa) = 28.08444 39.22886 33.65665
#
# Velocity S-wave (km/s) = 3.42159 4.04387 3.74568
# Velocity P-wave (km/s) = 5.35725 6.52918 5.97203
#
# Compressibility (1/GPa) = 0.03184467
#
# Stress axis : x y z
#
# Youngs Moduli (GPa) = 183.11330 109.49623 37.53344
#
# Poissons Ratio (x) = 0.16850 -0.03974
# Poissons Ratio (y) = 0.28179 0.15824
# Poissons Ratio (z) = -0.19388 0.46163
#
# Static dielectric constant tensor:
#      x y z
#    x 2.218050 0.000000 -0.033700 
#    y 0.000000 1.885950 0.000000 
#    z -0.033700 0.000000 1.944120 
# 
# From -- ./inp_files/21694.got.cif
#   From: 2010.05.17/outbox.cif.g08.bks.cpg/sg14_11_cif.got.tgz:21694.got - 2010.06.03 17:49:19.
