data_PCOD9246228
_publ_section_title
;
Structure prediction by ZEFSAII (Michael W. Deem and Ramdas Pophale) SiO2 
 PCOD9246228
Probable space group: P 21/C
;
_chemical_formula_sum "Si O2"
_cell_formula_units_Z 28
_cell_length_a 7.592091
_cell_length_b 12.632492
_cell_length_c 13.381606
_cell_angle_alpha 90.000000
_cell_angle_beta 120.946147
_cell_angle_gamma 90.000000
_cell_volume 1100.700795
_symmetry_space_group_name_H-M "P 21/C"
_symmetry_group_IT_number 14
_symmetry_cell_setting 'monoclinic'
loop_
_space_group_symop_operation_xyz
x,y,z
-x,1/2+y,1/2-z
-x,-y,-z
x,1/2-y,1/2+z
loop_
_atom_site_type_symbol
_atom_site_label
_atom_site_fract_x
_atom_site_fract_y
_atom_site_fract_z
Si Si1 0.238645 0.240048 0.285025
Si Si2 0.199376 0.651588 0.320667
Si Si3 0.286604 0.949505 0.142344
Si Si4 0.059072 0.888330 0.576585
Si Si5 0.820663 0.934339 0.079945
Si Si6 0.693937 0.597291 0.867230
Si Si7 0.655077 0.267656 0.967490
O O1 0.217237 0.329368 0.366253
O O2 0.281561 0.301577 0.195159
O O3 0.446253 0.179090 0.371872
O O4 0.034631 0.173024 0.212666
O O5 0.179275 0.672600 0.198493
O O6 0.248782 0.533134 0.370623
O O7 0.342467 0.735750 0.416466
O O8 0.468974 0.947137 0.276905
O O9 0.316345 0.844368 0.082048
O O10 0.283490 0.045766 0.059740
O O11 0.063495 0.942955 0.127564
O O12 0.154583 0.840384 0.504396
O O13 0.812566 0.877836 0.506110
O O14 0.144097 0.005801 0.618173
#
# Coordination Sequence:
#
# PCOD9246228 Si02
#       7
#     4   4   4   4   4   4   4
#     4  11  22  42  63  94 127 167 217 268 317 383
#     4  11  23  40  65  92 127 168 215 267 319 390
#     4   9  21  40  64  93 125 167 208 271 315 382
#     4  11  22  42  61  93 127 175 206 267 330 379
#     4  10  21  40  65  94 127 167 218 266 319 376
#     4  10  22  40  65  87 130 170 208 261 330 384
#     4  10  23  40  63  93 125 166 219 267 319 388
#
# _framework density 25.438337000000001
#
# number of rings (size 3 to 8) (size 9 to 14) (size 15 to 20)
#    0.000    1.714    2.857    0.857    4.000    1.714 
#    7.714    0.714    0.000    0.000    0.000    0.000 
#    0.000    0.000    0.000    0.000    0.000    0.000 
#
# Total GULP energy -156478.921948 kJ/mol
# GULP energy per Si atom -5588.532927 kJ/mol
# Density = 2.538044 g / cm^3
# Si number density = 25.438337 Si / 1000 Ang^3
#
#
#
# Elastic Constant Matrix: (Units=GPa)
#
#
# Indices 1 2 3 4 5 6 
#
# 1 60.4696 -2.5292 16.3950 0.0000 22.7875 0.0000
# 2 -2.5292 69.7756 12.1056 0.0000 -0.4151 0.0000
# 3 16.3950 12.1056 120.7912 0.0000 34.0109 0.0000
# 4 0.0000 0.0000 0.0000 15.1534 0.0000 3.8924
# 5 22.7875 -0.4151 34.0109 0.0000 51.1258 0.0000
# 6 0.0000 0.0000 0.0000 3.8924 0.0000 23.7246
#
#
#
# Elastic Compliance Matrix: (Units=1/GPa)
#
#
# Indices 1 2 3 4 5 6 
#
# 1 0.019918 0.000730 -0.000343 0.000000 -0.008644 0.000000
# 2 0.000730 0.014687 -0.001862 0.000000 0.001032 0.000000
# 3 -0.000343 -0.001862 0.010426 0.000000 -0.006798 0.000000
# 4 0.000000 0.000000 0.000000 0.068895 0.000000 -0.011303
# 5 -0.008644 0.001032 -0.006798 0.000000 0.027943 0.000000
# 6 0.000000 0.000000 0.000000 -0.011303 0.000000 0.044005
#
#
# Mechanical properties :
#
#
# Convention : Reuss Voigt Hill
#
# Bulk Modulus (GPa) = 23.76298 33.66434 28.71366
# Shear Modulus (GPa) = 24.64868 33.00511 28.82690
#
# Velocity S-wave (km/s) = 3.11619 3.60593 3.36997
# Velocity P-wave (km/s) = 4.72326 5.53167 5.14337
#
# Compressibility (1/GPa) = 0.04208226
#
# Stress axis : x y z
#
# Youngs Moduli (GPa) = 50.20577 68.08621 95.91430
#
# Poissons Ratio (x) = -0.04971 0.03288
# Poissons Ratio (y) = -0.03665 0.17856
# Poissons Ratio (z) = 0.01721 0.12676
#
# Static dielectric constant tensor:
#      x y z
#    x 1.983820 0.000000 -0.045020 
#    y 0.000000 2.005160 0.000000 
#    z -0.045020 0.000000 2.144030 
# 
# From -- ./inp_files/41276.got.cif
#   From: 2010.05.17/outbox.cif.g08.bks.cpg/sg14_21_cif.got.tgz:41276.got - 2010.06.03 17:49:19.
