data_PCOD9246830
_publ_section_title
;
Structure prediction by ZEFSAII (Michael W. Deem and Ramdas Pophale) SiO2 
 PCOD9246830
Probable space group: P 21/C
;
_chemical_formula_sum "Si O2"
_cell_formula_units_Z 16
_cell_length_a 7.294711
_cell_length_b 9.184392
_cell_length_c 14.441107
_cell_angle_alpha 90.000000
_cell_angle_beta 142.728323
_cell_angle_gamma 90.000000
_cell_volume 585.924072
_symmetry_space_group_name_H-M "P 21/C"
_symmetry_group_IT_number 14
_symmetry_cell_setting 'monoclinic'
loop_
_space_group_symop_operation_xyz
x,y,z
-x,1/2+y,1/2-z
-x,-y,-z
x,1/2-y,1/2+z
loop_
_atom_site_type_symbol
_atom_site_label
_atom_site_fract_x
_atom_site_fract_y
_atom_site_fract_z
Si Si1 0.294082 0.574094 0.192069
Si Si2 0.755201 0.769737 0.996010
Si Si3 0.852501 0.524727 0.293129
Si Si4 0.908639 0.671981 0.758107
O O1 0.448836 0.698380 0.319425
O O2 0.522516 0.557569 0.199349
O O3 0.275160 0.428498 0.245499
O O4 0.959996 0.638081 0.041203
O O5 0.721470 0.768666 0.093563
O O6 0.955904 0.916369 0.065528
O O7 0.016055 0.680391 0.348849
O O8 0.858994 0.439294 0.197754
#
# Coordination Sequence:
#
# PCOD9246830 Si02
#       4
#     4   4   4   4
#     4  12  22  45  69  98 131 175 218 272 328 389
#     4  10  23  43  68  98 133 171 219 270 330 386
#     4  10  22  40  69  97 132 172 218 270 325 389
#     4  10  21  42  66  98 131 171 218 269 327 387
#
# _framework density 27.307293000000001
#
# number of rings (size 3 to 8) (size 9 to 14) (size 15 to 20)
#    1.500    0.000    2.500    3.000    0.000    0.000 
#    0.000   12.500    0.000    0.000    0.000    0.000 
#    0.000    0.000    0.000    0.000    0.000    0.000 
#
# Total GULP energy -89638.568804 kJ/mol
# GULP energy per Si atom -5602.410550 kJ/mol
# Density = 2.724514 g / cm^3
# Si number density = 27.307293 Si / 1000 Ang^3
#
#
#
# Elastic Constant Matrix: (Units=GPa)
#
#
# Indices 1 2 3 4 5 6 
#
# 1 163.9353 52.4292 7.6706 0.0000 16.0171 0.0000
# 2 52.4292 161.0398 4.9745 0.0000 28.4864 0.0000
# 3 7.6706 4.9745 84.8600 0.0000 6.9258 0.0000
# 4 0.0000 0.0000 0.0000 31.2883 0.0000 22.1426
# 5 16.0171 28.4864 6.9258 0.0000 20.6000 0.0000
# 6 0.0000 0.0000 0.0000 22.1426 0.0000 46.0935
#
#
#
# Elastic Compliance Matrix: (Units=1/GPa)
#
#
# Indices 1 2 3 4 5 6 
#
# 1 0.006954 -0.001742 -0.000290 0.000000 -0.002901 0.000000
# 2 -0.001742 0.008674 0.000532 0.000000 -0.010819 0.000000
# 3 -0.000290 0.000532 0.012154 0.000000 -0.004597 0.000000
# 4 0.000000 0.000000 0.000000 0.048423 0.000000 -0.023262
# 5 -0.002901 -0.010819 -0.004597 0.000000 0.067306 0.000000
# 6 0.000000 0.000000 0.000000 -0.023262 0.000000 0.032870
#
#
# Mechanical properties :
#
#
# Convention : Reuss Voigt Hill
#
# Bulk Modulus (GPa) = 40.35003 59.99821 50.17412
# Shear Modulus (GPa) = 26.64658 42.58042 34.61350
#
# Velocity S-wave (km/s) = 3.12718 3.95309 3.56414
# Velocity P-wave (km/s) = 5.27706 6.54638 5.94569
#
# Compressibility (1/GPa) = 0.02478313
#
# Stress axis : x y z
#
# Youngs Moduli (GPa) = 143.80137 115.28474 82.27554
#
# Poissons Ratio (x) = 0.20082 0.02384
# Poissons Ratio (y) = 0.25049 -0.04377
# Poissons Ratio (z) = 0.04166 -0.06133
#
# Static dielectric constant tensor:
#      x y z
#    x 2.084840 0.000000 -0.027980 
#    y 0.000000 2.104380 0.000000 
#    z -0.027980 0.000000 2.106490 
# 
# From -- ./inp_files/22736.got.cif
#   From: 2010.05.17/outbox.cif.g08.bks.cpg/sg14_12_cif.got.tgz:22736.got - 2010.06.03 17:49:19.
