data_PCOD9246938
_publ_section_title
;
Structure prediction by ZEFSAII (Michael W. Deem and Ramdas Pophale) SiO2 
 PCOD9246938
Probable space group: P 21/C
;
_chemical_formula_sum "Si O2"
_cell_formula_units_Z 28
_cell_length_a 9.309431
_cell_length_b 7.406618
_cell_length_c 26.805907
_cell_angle_alpha 90.000000
_cell_angle_beta 140.158005
_cell_angle_gamma 90.000000
_cell_volume 1184.158316
_symmetry_space_group_name_H-M "P 21/C"
_symmetry_group_IT_number 14
_symmetry_cell_setting 'monoclinic'
loop_
_space_group_symop_operation_xyz
x,y,z
-x,1/2+y,1/2-z
-x,-y,-z
x,1/2-y,1/2+z
loop_
_atom_site_type_symbol
_atom_site_label
_atom_site_fract_x
_atom_site_fract_y
_atom_site_fract_z
Si Si1 0.720762 0.048191 0.590205
Si Si2 0.911681 0.726147 0.875907
Si Si3 0.053135 0.634603 0.652204
Si Si4 0.472845 0.824717 0.198398
Si Si5 0.599811 0.851843 0.990841
Si Si6 0.313929 0.325828 0.594814
Si Si7 0.335005 0.995105 0.315606
O O1 0.625327 0.244244 0.582864
O O2 0.751034 0.955349 0.651951
O O3 0.920510 0.091198 0.606034
O O4 0.500000 0.000000 0.500000
O O5 0.664813 0.665541 0.791812
O O6 0.903523 0.755490 0.933091
O O7 0.964257 0.925652 0.869437
O O8 0.243196 0.718922 0.666782
O O9 0.146924 0.609305 0.732869
O O10 0.811701 0.725624 0.579284
O O11 0.568887 0.672276 0.186883
O O12 0.427131 0.013868 0.157693
O O13 0.713120 0.899679 0.968225
O O14 0.500000 0.000000 0.000000
O O15 0.461408 0.146161 0.629151
#
# Coordination Sequence:
#
# PCOD9246938 Si02
#       7
#     4   4   4   4   4   4   4
#     4  11  26  44  63  99 143 180 216 294 347 410
#     4  10  21  43  67 100 138 169 236 282 335 419
#     4  10  21  42  71  95 132 178 228 288 339 412
#     4  10  22  40  73 100 127 184 227 286 342 411
#     4  11  24  43  64  96 135 176 226 276 349 419
#     4  10  23  41  71  96 135 178 220 291 339 408
#     4  10  23  43  67 101 135 170 235 279 348 411
#
# _framework density 23.645485999999998
#
# number of rings (size 3 to 8) (size 9 to 14) (size 15 to 20)
#    0.000    1.714    2.857    0.000    2.000    6.857 
#    5.143    2.857    0.000    0.000    0.000    0.000 
#    0.000    0.000    0.000    0.000    0.000    0.000 
#
# Total GULP energy -156187.917313 kJ/mol
# GULP energy per Si atom -5578.139904 kJ/mol
# Density = 2.359167 g / cm^3
# Si number density = 23.645486 Si / 1000 Ang^3
#
#
#
# Elastic Constant Matrix: (Units=GPa)
#
#
# Indices 1 2 3 4 5 6 
#
# 1 188.1153 28.1797 62.3052 0.0000 -19.4662 0.0000
# 2 28.1797 63.4568 -7.6233 0.0000 -3.8264 0.0000
# 3 62.3052 -7.6233 60.3369 0.0000 1.7859 0.0000
# 4 0.0000 0.0000 0.0000 24.9903 0.0000 1.9278
# 5 -19.4662 -3.8264 1.7859 0.0000 56.7122 0.0000
# 6 0.0000 0.0000 0.0000 1.9278 0.0000 39.7604
#
#
#
# Elastic Compliance Matrix: (Units=1/GPa)
#
#
# Indices 1 2 3 4 5 6 
#
# 1 0.010371 -0.005779 -0.011544 0.000000 0.003533 0.000000
# 2 -0.005779 0.019281 0.008432 0.000000 -0.000948 0.000000
# 3 -0.011544 0.008432 0.029687 0.000000 -0.004328 0.000000
# 4 0.000000 0.000000 0.000000 0.040166 0.000000 -0.001947
# 5 0.003533 -0.000948 -0.004328 0.000000 0.018918 0.000000
# 6 0.000000 0.000000 0.000000 -0.001947 0.000000 0.025245
#
#
# Mechanical properties :
#
#
# Convention : Reuss Voigt Hill
#
# Bulk Modulus (GPa) = 24.06351 53.07023 38.56687
# Shear Modulus (GPa) = 28.52231 39.56242 34.04236
#
# Velocity S-wave (km/s) = 3.47688 4.09485 3.79845
# Velocity P-wave (km/s) = 5.13002 6.69701 5.96519
#
# Compressibility (1/GPa) = 0.04155670
#
# Stress axis : x y z
#
# Youngs Moduli (GPa) = 96.42719 51.86496 33.68458
#
# Poissons Ratio (x) = 0.29973 0.38884
# Poissons Ratio (y) = 0.55726 -0.28402
# Poissons Ratio (z) = 1.11311 -0.43731
#
# Static dielectric constant tensor:
#      x y z
#    x 2.079430 0.000000 -0.092900 
#    y 0.000000 2.059300 0.000000 
#    z -0.092900 0.000000 1.948460 
# 
# From -- ./inp_files/76403.got.cif
#   From: 2010.05.17/outbox.cif.g08.bks.cpg/sg14_39_cif.got.tgz:76403.got - 2010.06.03 17:49:19.
