data_PCOD9246224
_publ_section_title
;
Structure prediction by ZEFSAII (Michael W. Deem and Ramdas Pophale) SiO2 
 PCOD9246224
Probable space group: P 21/C
;
_chemical_formula_sum "Si O2"
_cell_formula_units_Z 26
_cell_length_a 19.242247
_cell_length_b 9.103753
_cell_length_c 25.870774
_cell_angle_alpha 90.000000
_cell_angle_beta 165.647554
_cell_angle_gamma 90.000000
_cell_volume 1123.407975
_symmetry_space_group_name_H-M "P 21/C"
_symmetry_group_IT_number 14
_symmetry_cell_setting 'monoclinic'
loop_
_space_group_symop_operation_xyz
x,y,z
-x,1/2+y,1/2-z
-x,-y,-z
x,1/2-y,1/2+z
loop_
_atom_site_type_symbol
_atom_site_label
_atom_site_fract_x
_atom_site_fract_y
_atom_site_fract_z
Si Si1 0.741730 0.334885 0.575792
Si Si2 0.500000 0.000000 0.500000
Si Si3 0.829988 0.036799 0.242844
Si Si4 0.716090 0.352169 0.342249
Si Si5 0.732374 0.080997 0.283513
Si Si6 0.359700 0.439011 0.795468
Si Si7 0.957878 0.211458 0.117827
O O1 0.911838 0.377450 0.749744
O O2 0.518495 0.464315 0.404398
O O3 0.578099 0.185068 0.470265
O O4 0.894319 0.304574 0.632269
O O5 0.401657 0.942621 0.370662
O O6 0.228691 0.110468 0.304183
O O7 0.979948 0.879525 0.352861
O O8 0.842890 0.123489 0.305829
O O9 0.500000 0.000000 0.000000
O O10 0.633211 0.208016 0.250698
O O11 0.576292 0.492025 0.214229
O O12 0.049482 0.371620 0.569758
O O13 0.712512 0.340768 0.401507
O O14 0.000000 0.000000 0.500000
#
# Coordination Sequence:
#
# PCOD9246224 Si02
#       7
#     4   2   4   4   4   4   4
#     4  11  25  40  62  99 134 167 213 279 317 380
#     4  10  22  40  66  84 124 178 204 260 322 394
#     4  10  22  42  67  93 125 171 222 265 326 398
#     4  10  21  40  65  93 126 172 214 260 323 393
#     4  11  19  41  72  93 124 179 221 260 326 393
#     4  10  22  39  61  94 127 165 214 260 317 381
#     4  11  24  43  62  97 132 166 221 272 329 382
#
# _framework density 23.143861999999999
#
# number of rings (size 3 to 8) (size 9 to 14) (size 15 to 20)
#    0.000    1.538    3.077    2.769    8.615    1.231 
#    0.000    0.000    0.000    0.000    0.000    0.000 
#    0.000    0.000    0.000    0.000    0.000    0.000 
#
# Total GULP energy -144734.710556 kJ/mol
# GULP energy per Si atom -5566.719637 kJ/mol
# Density = 2.309119 g / cm^3
# Si number density = 23.143862 Si / 1000 Ang^3
#
#
#
# Elastic Constant Matrix: (Units=GPa)
#
#
# Indices 1 2 3 4 5 6 
#
# 1 120.2064 -18.4382 3.9550 0.0000 -19.0708 0.0000
# 2 -18.4382 24.8751 -0.5708 0.0000 -6.6207 0.0000
# 3 3.9550 -0.5708 27.7458 0.0000 -15.9051 0.0000
# 4 0.0000 0.0000 0.0000 9.1731 0.0000 -7.5916
# 5 -19.0708 -6.6207 -15.9051 0.0000 39.2536 0.0000
# 6 0.0000 0.0000 0.0000 -7.5916 0.0000 27.0144
#
#
#
# Elastic Compliance Matrix: (Units=1/GPa)
#
#
# Indices 1 2 3 4 5 6 
#
# 1 0.011233 0.010735 0.003629 0.000000 0.008738 0.000000
# 2 0.010735 0.053249 0.010034 0.000000 0.018262 0.000000
# 3 0.003629 0.010034 0.049121 0.000000 0.023359 0.000000
# 4 0.000000 0.000000 0.000000 0.142052 0.000000 0.039919
# 5 0.008738 0.018262 0.023359 0.000000 0.042266 0.000000
# 6 0.000000 0.000000 0.000000 0.039919 0.000000 0.048235
#
#
# Mechanical properties :
#
#
# Convention : Reuss Voigt Hill
#
# Bulk Modulus (GPa) = 6.15770 15.85769 11.00770
# Shear Modulus (GPa) = 14.22506 27.61362 20.91934
#
# Velocity S-wave (km/s) = 2.48188 3.45792 3.00973
# Velocity P-wave (km/s) = 3.29838 4.77594 4.10420
#
# Compressibility (1/GPa) = 0.16239833
#
# Stress axis : x y z
#
# Youngs Moduli (GPa) = 89.02695 18.77973 20.35791
#
# Poissons Ratio (x) = -0.20160 -0.07388
# Poissons Ratio (y) = -0.95570 -0.20427
# Poissons Ratio (z) = -0.32306 -0.18844
#
# Static dielectric constant tensor:
#      x y z
#    x 1.990290 0.000000 0.025520 
#    y 0.000000 1.848420 0.000000 
#    z 0.025520 0.000000 1.837360 
# 
# From -- ./inp_files/74258.got.cif
#   From: 2010.05.17/outbox.cif.g08.bks.cpg/sg14_38_cif.got.tgz:74258.got - 2010.06.03 17:49:19.
