data_PCOD9246349
_publ_section_title
;
Structure prediction by ZEFSAII (Michael W. Deem and Ramdas Pophale) SiO2 
 PCOD9246349
Probable space group: P 21/C
;
_chemical_formula_sum "Si O2"
_cell_formula_units_Z 24
_cell_length_a 11.500159
_cell_length_b 8.153244
_cell_length_c 22.004422
_cell_angle_alpha 90.000000
_cell_angle_beta 153.684657
_cell_angle_gamma 90.000000
_cell_volume 914.645904
_symmetry_space_group_name_H-M "P 21/C"
_symmetry_group_IT_number 14
_symmetry_cell_setting 'monoclinic'
loop_
_space_group_symop_operation_xyz
x,y,z
-x,1/2+y,1/2-z
-x,-y,-z
x,1/2-y,1/2+z
loop_
_atom_site_type_symbol
_atom_site_label
_atom_site_fract_x
_atom_site_fract_y
_atom_site_fract_z
Si Si1 0.271449 0.708777 0.464652
Si Si2 0.500915 0.508918 0.337347
Si Si3 0.103751 0.898051 0.209274
Si Si4 0.938653 0.723924 0.505222
Si Si5 0.922221 0.439307 0.038532
Si Si6 0.577346 0.756992 0.485744
O O1 0.442124 0.663126 0.603913
O O2 0.045498 0.570862 0.354385
O O3 0.453198 0.707526 0.491616
O O4 0.140801 0.878163 0.423724
O O5 0.719962 0.582730 0.395167
O O6 0.222280 0.498607 0.177285
O O7 0.508159 0.627236 0.399762
O O8 0.381406 0.902967 0.373046
O O9 0.112250 0.847745 0.142036
O O10 0.893871 0.762453 0.137727
O O11 0.077397 0.791288 0.510083
O O12 0.786596 0.889177 0.457977
#
# Coordination Sequence:
#
# PCOD9246349 Si02
#       6
#     4   4   4   4   4   4
#     4  10  24  38  64  99 127 169 222 269 328 392
#     4  10  22  44  61  92 131 176 208 276 335 386
#     4  10  21  43  64  95 130 185 208 278 333 387
#     4   9  22  42  64  90 124 172 217 265 332 391
#     4  11  22  42  67  94 128 166 226 273 320 400
#     4  10  21  40  69  89 136 171 219 262 333 397
#
# _framework density 26.239663
#
# number of rings (size 3 to 8) (size 9 to 14) (size 15 to 20)
#    0.000    2.333    1.667    2.000    4.667    5.333 
#   12.000    4.167    0.000    0.000    0.000    0.000 
#    0.000    0.000    0.000    0.000    0.000    0.000 
#
# Total GULP energy -134053.503427 kJ/mol
# GULP energy per Si atom -5585.562643 kJ/mol
# Density = 2.617994 g / cm^3
# Si number density = 26.239663 Si / 1000 Ang^3
#
#
#
# Elastic Constant Matrix: (Units=GPa)
#
#
# Indices 1 2 3 4 5 6 
#
# 1 157.4262 29.1295 28.7658 0.0000 1.7232 0.0000
# 2 29.1295 54.8510 18.2194 0.0000 0.5953 0.0000
# 3 28.7658 18.2194 93.9585 0.0000 22.8698 0.0000
# 4 0.0000 0.0000 0.0000 26.1189 0.0000 2.1989
# 5 1.7232 0.5953 22.8698 0.0000 13.0873 0.0000
# 6 0.0000 0.0000 0.0000 2.1989 0.0000 26.0193
#
#
#
# Elastic Compliance Matrix: (Units=1/GPa)
#
#
# Indices 1 2 3 4 5 6 
#
# 1 0.007347 -0.003105 -0.002517 0.000000 0.003572 0.000000
# 2 -0.003105 0.021572 -0.005383 0.000000 0.008834 0.000000
# 3 -0.002517 -0.005383 0.021434 0.000000 -0.036879 0.000000
# 4 0.000000 0.000000 0.000000 0.038561 0.000000 -0.003259
# 5 0.003572 0.008834 -0.036879 0.000000 0.139984 0.000000
# 6 0.000000 0.000000 0.000000 -0.003259 0.000000 0.038708
#
#
# Mechanical properties :
#
#
# Convention : Reuss Voigt Hill
#
# Bulk Modulus (GPa) = 35.27973 50.94057 43.11015
# Shear Modulus (GPa) = 16.71889 28.38648 22.55269
#
# Velocity S-wave (km/s) = 2.52694 3.29267 2.93488
# Velocity P-wave (km/s) = 4.68917 5.82334 5.28675
#
# Compressibility (1/GPa) = 0.02834489
#
# Stress axis : x y z
#
# Youngs Moduli (GPa) = 136.10135 46.35622 46.65538
#
# Poissons Ratio (x) = 0.14393 0.11742
# Poissons Ratio (y) = 0.42256 0.25113
# Poissons Ratio (z) = 0.34254 0.24952
#
# Static dielectric constant tensor:
#      x y z
#    x 2.042220 0.000000 0.036300 
#    y 0.000000 2.275880 0.000000 
#    z 0.036300 0.000000 2.100500 
# 
# From -- ./inp_files/73145.got.cif
#   From: 2010.05.17/outbox.cif.g08.bks.cpg/sg14_37_cif.got.tgz:73145.got - 2010.06.03 17:49:19.
