data_PCOD9246153
_publ_section_title
;
Structure prediction by ZEFSAII (Michael W. Deem and Ramdas Pophale) SiO2 
 PCOD9246153
Probable space group: P 21/C
;
_chemical_formula_sum "Si O2"
_cell_formula_units_Z 20
_cell_length_a 11.574773
_cell_length_b 14.241725
_cell_length_c 13.253166
_cell_angle_alpha 90.000000
_cell_angle_beta 29.289892
_cell_angle_gamma 90.000000
_cell_volume 1068.824867
_symmetry_space_group_name_H-M "P 21/C"
_symmetry_group_IT_number 14
_symmetry_cell_setting 'monoclinic'
loop_
_space_group_symop_operation_xyz
x,y,z
-x,1/2+y,1/2-z
-x,-y,-z
x,1/2-y,1/2+z
loop_
_atom_site_type_symbol
_atom_site_label
_atom_site_fract_x
_atom_site_fract_y
_atom_site_fract_z
Si Si1 0.592142 0.523729 0.541275
Si Si2 0.347000 0.946017 0.431797
Si Si3 0.047388 0.318292 0.683730
Si Si4 0.032334 0.389026 0.257089
Si Si5 0.876343 0.899825 0.089591
O O1 0.500000 0.500000 0.500000
O O2 0.392528 0.528771 0.779919
O O3 0.726486 0.624351 0.445469
O O4 0.787780 0.445550 0.424972
O O5 0.599159 0.917401 0.285032
O O6 0.169984 0.860138 0.586904
O O7 0.232941 0.035648 0.574437
O O8 0.055762 0.206795 0.678675
O O9 0.027730 0.348674 0.582135
O O10 0.064255 0.356495 0.348168
O O11 0.000000 0.000000 0.000000
#
# Coordination Sequence:
#
# PCOD9246153 Si02
#       5
#     4   4   4   4   4
#     4  10  23  41  57  86 128 163 201 249 311 367
#     4  10  21  40  64  84 123 164 202 256 306 349
#     4  10  24  38  60  98 118 159 214 247 303 369
#     4  11  23  38  63  92 121 161 208 254 302 364
#     4  11  20  42  64  90 120 159 211 250 299 368
#
# _framework density 18.712137999999999
#
# number of rings (size 3 to 8) (size 9 to 14) (size 15 to 20)
#    0.000    1.600    6.000    0.600    0.000   11.200 
#    0.000    0.000    0.000    0.000    0.000    0.000 
#    0.000    0.000    0.000    0.000    0.000    0.000 
#
# Total GULP energy -111582.209075 kJ/mol
# GULP energy per Si atom -5579.110454 kJ/mol
# Density = 1.866955 g / cm^3
# Si number density = 18.712138 Si / 1000 Ang^3
#
#
#
# Elastic Constant Matrix: (Units=GPa)
#
#
# Indices 1 2 3 4 5 6 
#
# 1 104.2474 -4.7622 34.0146 0.0000 27.4866 0.0000
# 2 -4.7622 76.0888 -2.5860 0.0000 0.6737 0.0000
# 3 34.0146 -2.5860 85.6014 0.0000 10.9885 0.0000
# 4 0.0000 0.0000 0.0000 12.7466 0.0000 15.5306
# 5 27.4866 0.6737 10.9885 0.0000 25.5336 0.0000
# 6 0.0000 0.0000 0.0000 15.5306 0.0000 21.6529
#
#
#
# Elastic Compliance Matrix: (Units=1/GPa)
#
#
# Indices 1 2 3 4 5 6 
#
# 1 0.014645 0.000906 -0.003985 0.000000 -0.014074 0.000000
# 2 0.000906 0.013219 0.000222 0.000000 -0.001419 0.000000
# 3 -0.003985 0.000222 0.013466 0.000000 -0.001511 0.000000
# 4 0.000000 0.000000 0.000000 0.622148 0.000000 -0.446236
# 5 -0.014074 -0.001419 -0.001511 0.000000 0.055002 0.000000
# 6 0.000000 0.000000 0.000000 -0.446236 0.000000 0.366246
#
#
# Mechanical properties :
#
#
# Convention : Reuss Voigt Hill
#
# Bulk Modulus (GPa) = 28.07817 35.47448 31.77633
# Shear Modulus (GPa) = 4.53591 27.93805 16.23698
#
# Velocity S-wave (km/s) = 1.55862 3.86818 2.94891
# Velocity P-wave (km/s) = 4.27516 6.24096 5.34914
#
# Compressibility (1/GPa) = 0.03561485
#
# Stress axis : x y z
#
# Youngs Moduli (GPa) = 68.28175 75.64678 74.25924
#
# Poissons Ratio (x) = -0.06852 0.29595
# Poissons Ratio (y) = -0.06185 -0.01646
# Poissons Ratio (z) = 0.27213 -0.01676
#
# Static dielectric constant tensor:
#      x y z
#    x 1.841180 0.000000 0.136990 
#    y 0.000000 1.648150 0.000000 
#    z 0.136990 0.000000 1.766220 
# 
# From -- ./inp_files/20698.got.cif
#   From: 2010.05.17/outbox.cif.g08.bks.cpg/sg14_11_cif.got.tgz:20698.got - 2010.06.03 17:49:19.
