data_PCOD9246072
_publ_section_title
;
Structure prediction by ZEFSAII (Michael W. Deem and Ramdas Pophale) SiO2 
 PCOD9246072
Probable space group: P 21/C
;
_chemical_formula_sum "Si O2"
_cell_formula_units_Z 28
_cell_length_a 11.474227
_cell_length_b 8.023905
_cell_length_c 28.359105
_cell_angle_alpha 90.000000
_cell_angle_beta 150.136863
_cell_angle_gamma 90.000000
_cell_volume 1300.079574
_symmetry_space_group_name_H-M "P 21/C"
_symmetry_group_IT_number 14
_symmetry_cell_setting 'monoclinic'
loop_
_space_group_symop_operation_xyz
x,y,z
-x,1/2+y,1/2-z
-x,-y,-z
x,1/2-y,1/2+z
loop_
_atom_site_type_symbol
_atom_site_label
_atom_site_fract_x
_atom_site_fract_y
_atom_site_fract_z
Si Si1 0.301423 0.264340 0.503598
Si Si2 0.404003 0.950608 0.816629
Si Si3 0.573008 0.665261 0.201336
Si Si4 0.937437 0.754746 0.175312
Si Si5 0.292735 0.984459 0.345115
Si Si6 0.227834 0.115256 0.129620
Si Si7 0.071252 0.763560 0.553213
O O1 0.424207 0.402343 0.579799
O O2 0.178879 0.325387 0.412953
O O3 0.509383 0.136180 0.565023
O O4 0.106322 0.178005 0.468760
O O5 0.527537 0.877269 0.813058
O O6 0.155867 0.863199 0.737093
O O7 0.400193 0.148235 0.809307
O O8 0.625829 0.538101 0.178392
O O9 0.741405 0.649944 0.305076
O O10 0.310590 0.640219 0.128908
O O11 0.753687 0.641610 0.138563
O O12 0.049174 0.888708 0.249919
O O13 0.139113 0.925910 0.092057
O O14 0.057927 0.239347 0.042065
#
# Coordination Sequence:
#
# PCOD9246072 Si02
#       7
#     4   4   4   4   4   4   4
#     4  10  21  40  62  86 118 156 191 243 298 346
#     4   9  21  38  61  90 119 156 205 236 283 357
#     4  11  21  36  59  91 123 156 196 242 291 346
#     4  11  22  44  62  81 119 155 194 253 297 337
#     4  11  25  39  61  89 113 150 206 242 292 362
#     4   9  18  34  57  87 121 158 188 230 288 345
#     4   9  19  35  56  86 122 153 193 232 283 351
#
# _framework density 21.537141999999999
#
# number of rings (size 3 to 8) (size 9 to 14) (size 15 to 20)
#    0.000    2.000    0.000    3.857    0.000    7.429 
#    0.000   10.714    0.000    0.000    0.000    0.000 
#    0.000    0.000    0.000    0.000    0.000    0.000 
#
# Total GULP energy -156577.893648 kJ/mol
# GULP energy per Si atom -5592.067630 kJ/mol
# Density = 2.148812 g / cm^3
# Si number density = 21.537142 Si / 1000 Ang^3
#
#
#
# Elastic Constant Matrix: (Units=GPa)
#
#
# Indices 1 2 3 4 5 6 
#
# 1 50.2498 1.9073 31.0447 0.0000 -9.9305 0.0000
# 2 1.9073 33.7645 2.2282 0.0000 -3.4212 0.0000
# 3 31.0447 2.2282 76.5022 0.0000 -8.3826 0.0000
# 4 0.0000 0.0000 0.0000 11.4495 0.0000 1.4654
# 5 -9.9305 -3.4212 -8.3826 0.0000 15.6460 0.0000
# 6 0.0000 0.0000 0.0000 1.4654 0.0000 32.0344
#
#
#
# Elastic Compliance Matrix: (Units=1/GPa)
#
#
# Indices 1 2 3 4 5 6 
#
# 1 0.028775 0.000353 -0.010281 0.000000 0.012832 0.000000
# 2 0.000353 0.030294 -0.000292 0.000000 0.006692 0.000000
# 3 -0.010281 -0.000292 0.017561 0.000000 0.002819 0.000000
# 4 0.000000 0.000000 0.000000 0.087855 0.000000 -0.004019
# 5 0.012832 0.006692 0.002819 0.000000 0.075033 0.000000
# 6 0.000000 0.000000 0.000000 -0.004019 0.000000 0.031400
#
#
# Mechanical properties :
#
#
# Convention : Reuss Voigt Hill
#
# Bulk Modulus (GPa) = 17.79690 25.65301 21.72496
# Shear Modulus (GPa) = 16.12444 20.18171 18.15307
#
# Velocity S-wave (km/s) = 2.73917 3.06447 2.90638
# Velocity P-wave (km/s) = 4.27614 4.94553 4.62297
#
# Compressibility (1/GPa) = 0.05618955
#
# Stress axis : x y z
#
# Youngs Moduli (GPa) = 34.75259 33.00951 56.94423
#
# Poissons Ratio (x) = -0.01166 0.58545
# Poissons Ratio (y) = -0.01228 0.01665
# Poissons Ratio (z) = 0.35729 0.00965
#
# Static dielectric constant tensor:
#      x y z
#    x 1.776280 0.000000 0.031570 
#    y 0.000000 1.773570 0.000000 
#    z 0.031570 0.000000 1.766410 
# 
# From -- ./inp_files/77149.got.cif
#   From: 2010.05.17/outbox.cif.g08.bks.cpg/sg14_39_cif.got.tgz:77149.got - 2010.06.03 17:49:19.
