data_PCOD9246300
_publ_section_title
;
Structure prediction by ZEFSAII (Michael W. Deem and Ramdas Pophale) SiO2 
 PCOD9246300
Probable space group: P 21/C
;
_chemical_formula_sum "Si O2"
_cell_formula_units_Z 32
_cell_length_a 23.502668
_cell_length_b 8.512589
_cell_length_c 10.777055
_cell_angle_alpha 90.000000
_cell_angle_beta 37.617783
_cell_angle_gamma 90.000000
_cell_volume 1316.094517
_symmetry_space_group_name_H-M "P 21/C"
_symmetry_group_IT_number 14
_symmetry_cell_setting 'monoclinic'
loop_
_space_group_symop_operation_xyz
x,y,z
-x,1/2+y,1/2-z
-x,-y,-z
x,1/2-y,1/2+z
loop_
_atom_site_type_symbol
_atom_site_label
_atom_site_fract_x
_atom_site_fract_y
_atom_site_fract_z
Si Si1 0.739053 0.751334 0.184522
Si Si2 0.736684 0.410615 0.140615
Si Si3 0.084153 0.428423 0.698193
Si Si4 0.431916 0.539687 0.730670
Si Si5 0.617003 0.132040 0.085251
Si Si6 0.176917 0.812393 0.171630
Si Si7 0.030722 0.882690 0.056309
Si Si8 0.621926 0.782770 0.132861
O O1 0.780746 0.575716 0.100080
O O2 0.663968 0.776479 0.201102
O O3 0.696894 0.742290 0.394412
O O4 0.816976 0.880488 0.033351
O O5 0.676238 0.452549 0.123713
O O6 0.656861 0.358573 0.375831
O O7 0.811129 0.280529 0.978627
O O8 0.109893 0.540572 0.768153
O O9 0.030250 0.524587 0.686230
O O10 0.035514 0.268339 0.821427
O O11 0.500000 0.500000 0.500000
O O12 0.439383 0.714681 0.772129
O O13 0.440562 0.372182 0.783053
O O14 0.579756 0.956608 0.181021
O O15 0.718828 0.132952 0.977855
O O16 0.131523 0.690507 0.345370
O O17 0.000000 0.000000 0.000000
#
# Coordination Sequence:
#
# PCOD9246300 Si02
#       8
#     4   4   4   4   4   4   4   4
#     4  10  22  40  69  94 131 171 228 277 328 397
#     4   9  21  40  64  96 124 166 222 270 326 396
#     4  12  26  42  65  95 131 176 220 280 349 407
#     4  10  23  41  62  95 138 170 215 272 339 402
#     4  10  21  40  67  94 126 168 226 273 325 397
#     4  11  22  41  70  90 124 168 225 276 334 395
#     4  12  28  43  63  94 136 173 217 281 347 414
#     4  10  22  41  67 101 127 175 228 276 330 401
#
# _framework density 24.314361999999999
#
# number of rings (size 3 to 8) (size 9 to 14) (size 15 to 20)
#    0.000    1.500    1.250    2.625    8.750    2.500 
#    6.750    0.000    0.000    0.000    0.000    0.000 
#    0.000    0.000    0.000    0.000    0.000    0.000 
#
# Total GULP energy -178721.720172 kJ/mol
# GULP energy per Si atom -5585.053755 kJ/mol
# Density = 2.425902 g / cm^3
# Si number density = 24.314362 Si / 1000 Ang^3
#
#
#
# Elastic Constant Matrix: (Units=GPa)
#
#
# Indices 1 2 3 4 5 6 
#
# 1 67.9766 41.5598 11.4897 0.0000 4.7827 0.0000
# 2 41.5598 204.8133 57.3734 0.0000 -3.7492 0.0000
# 3 11.4897 57.3734 53.6724 0.0000 3.9705 0.0000
# 4 0.0000 0.0000 0.0000 61.5733 0.0000 0.1409
# 5 4.7827 -3.7492 3.9705 0.0000 23.0510 0.0000
# 6 0.0000 0.0000 0.0000 0.1409 0.0000 44.9569
#
#
#
# Elastic Compliance Matrix: (Units=1/GPa)
#
#
# Indices 1 2 3 4 5 6 
#
# 1 0.017195 -0.003748 0.000642 0.000000 -0.004288 0.000000
# 2 -0.003748 0.007925 -0.007923 0.000000 0.003431 0.000000
# 3 0.000642 -0.007923 0.027418 0.000000 -0.006145 0.000000
# 4 0.000000 0.000000 0.000000 0.016241 0.000000 -0.000051
# 5 -0.004288 0.003431 -0.006145 0.000000 0.045888 0.000000
# 6 0.000000 0.000000 0.000000 -0.000051 0.000000 0.022244
#
#
# Mechanical properties :
#
#
# Convention : Reuss Voigt Hill
#
# Bulk Modulus (GPa) = 32.80685 60.81200 46.80943
# Shear Modulus (GPa) = 29.56305 40.31885 34.94095
#
# Velocity S-wave (km/s) = 3.49071 4.07656 3.79496
# Velocity P-wave (km/s) = 5.45608 6.87188 6.20450
#
# Compressibility (1/GPa) = 0.03048144
#
# Stress axis : x y z
#
# Youngs Moduli (GPa) = 58.15546 126.17834 36.47182
#
# Poissons Ratio (x) = 0.47286 -0.02342
# Poissons Ratio (y) = 0.21794 0.28898
# Poissons Ratio (z) = -0.03735 0.99976
#
# Static dielectric constant tensor:
#      x y z
#    x 2.045010 0.000000 -0.027920 
#    y 0.000000 1.990030 0.000000 
#    z -0.027920 0.000000 1.981390 
# 
# From -- ./inp_files/36470.got.cif
#   From: 2010.05.17/outbox.cif.g08.bks.cpg/sg14_19_cif.got.tgz:36470.got - 2010.06.03 17:49:19.
