data_PCOD9246773
_publ_section_title
;
Structure prediction by ZEFSAII (Michael W. Deem and Ramdas Pophale) SiO2 
 PCOD9246773
Probable space group: P 21/C
;
_chemical_formula_sum "Si O2"
_cell_formula_units_Z 28
_cell_length_a 14.740114
_cell_length_b 7.977197
_cell_length_c 18.837337
_cell_angle_alpha 90.000000
_cell_angle_beta 34.094995
_cell_angle_gamma 90.000000
_cell_volume 1241.646389
_symmetry_space_group_name_H-M "P 21/C"
_symmetry_group_IT_number 14
_symmetry_cell_setting 'monoclinic'
loop_
_space_group_symop_operation_xyz
x,y,z
-x,1/2+y,1/2-z
-x,-y,-z
x,1/2-y,1/2+z
loop_
_atom_site_type_symbol
_atom_site_label
_atom_site_fract_x
_atom_site_fract_y
_atom_site_fract_z
Si Si1 0.859310 0.110464 0.123745
Si Si2 0.865762 0.549228 0.772150
Si Si3 0.744452 0.406175 0.276776
Si Si4 0.449598 0.142599 0.474782
Si Si5 0.186941 0.692387 0.617692
Si Si6 0.542996 0.641076 0.319935
Si Si7 0.450643 0.503532 0.237028
O O1 0.820527 0.012427 0.222496
O O2 0.866511 0.301885 0.146700
O O3 0.714157 0.108220 0.161396
O O4 0.000000 0.000000 0.000000
O O5 0.845687 0.383390 0.835051
O O6 0.044679 0.624331 0.660061
O O7 0.733649 0.681511 0.885504
O O8 0.580570 0.290850 0.391577
O O9 0.819756 0.414220 0.305277
O O10 0.676371 0.574190 0.287328
O O11 0.500000 0.000000 0.500000
O O12 0.448734 0.072258 0.395157
O O13 0.366269 0.668500 0.469345
O O14 0.527417 0.514360 0.264161
O O15 0.593705 0.814922 0.252670
#
# Coordination Sequence:
#
# PCOD9246773 Si02
#       7
#     4   4   4   4   4   4   4
#     4  10  21  42  64  91 129 168 209 262 332 384
#     4  11  23  39  65  94 131 169 215 263 326 376
#     4  10  23  41  67  93 127 170 218 264 314 386
#     4  11  18  42  68  89 123 170 216 259 317 388
#     4  11  24  41  63  97 131 166 216 267 317 384
#     4  12  24  42  63  95 127 168 220 267 320 385
#     4  11  22  39  65  90 124 166 210 266 320 382
#
# _framework density 22.550704
#
# number of rings (size 3 to 8) (size 9 to 14) (size 15 to 20)
#    0.000    1.143    5.714    3.000    2.000    1.143 
#    5.143    0.714    0.000    0.000    0.000    0.000 
#    0.000    0.000    0.000    0.000    0.000    0.000 
#
# Total GULP energy -156455.206428 kJ/mol
# GULP energy per Si atom -5587.685944 kJ/mol
# Density = 2.249938 g / cm^3
# Si number density = 22.550704 Si / 1000 Ang^3
#
#
#
# Elastic Constant Matrix: (Units=GPa)
#
#
# Indices 1 2 3 4 5 6 
#
# 1 61.3628 -1.2776 -4.8875 0.0000 5.9749 0.0000
# 2 -1.2776 63.4175 4.2111 0.0000 11.3060 0.0000
# 3 -4.8875 4.2111 79.0722 0.0000 4.6458 0.0000
# 4 0.0000 0.0000 0.0000 17.6832 0.0000 7.5147
# 5 5.9749 11.3060 4.6458 0.0000 23.0647 0.0000
# 6 0.0000 0.0000 0.0000 7.5147 0.0000 35.8452
#
#
#
# Elastic Compliance Matrix: (Units=1/GPa)
#
#
# Indices 1 2 3 4 5 6 
#
# 1 0.016933 0.001188 0.001291 0.000000 -0.005229 0.000000
# 2 0.001188 0.017376 -0.000337 0.000000 -0.008757 0.000000
# 3 0.001291 -0.000337 0.012907 0.000000 -0.002769 0.000000
# 4 0.000000 0.000000 0.000000 0.062082 0.000000 -0.013015
# 5 -0.005229 -0.008757 -0.002769 0.000000 0.049561 0.000000
# 6 0.000000 0.000000 0.000000 -0.013015 0.000000 0.030626
#
#
# Mechanical properties :
#
#
# Convention : Reuss Voigt Hill
#
# Bulk Modulus (GPa) = 19.41831 22.21606 20.81719
# Shear Modulus (GPa) = 24.70724 29.03904 26.87314
#
# Velocity S-wave (km/s) = 3.31362 3.59238 3.45581
# Velocity P-wave (km/s) = 4.82387 5.20383 5.01745
#
# Compressibility (1/GPa) = 0.05149778
#
# Stress axis : x y z
#
# Youngs Moduli (GPa) = 59.05574 57.55045 77.47679
#
# Poissons Ratio (x) = -0.06835 -0.09999
# Poissons Ratio (y) = -0.07013 0.02614
# Poissons Ratio (z) = -0.07622 0.01942
#
# Static dielectric constant tensor:
#      x y z
#    x 1.830030 0.000000 -0.012990 
#    y 0.000000 1.880000 0.000000 
#    z -0.012990 0.000000 1.863740 
# 
# From -- ./inp_files/59021.got.cif
#   From: 2010.05.17/outbox.cif.g08.bks.cpg/sg14_30_cif.got.tgz:59021.got - 2010.06.03 17:49:19.
