data_PCOD9246243
_publ_section_title
;
Structure prediction by ZEFSAII (Michael W. Deem and Ramdas Pophale) SiO2 
 PCOD9246243
Probable space group: P 21/C
;
_chemical_formula_sum "Si O2"
_cell_formula_units_Z 32
_cell_length_a 18.547963
_cell_length_b 15.212095
_cell_length_c 11.637171
_cell_angle_alpha 90.000000
_cell_angle_beta 24.834336
_cell_angle_gamma 90.000000
_cell_volume 1379.043092
_symmetry_space_group_name_H-M "P 21/C"
_symmetry_group_IT_number 14
_symmetry_cell_setting 'monoclinic'
loop_
_space_group_symop_operation_xyz
x,y,z
-x,1/2+y,1/2-z
-x,-y,-z
x,1/2-y,1/2+z
loop_
_atom_site_type_symbol
_atom_site_label
_atom_site_fract_x
_atom_site_fract_y
_atom_site_fract_z
Si Si1 0.674381 0.855638 0.695441
Si Si2 0.669345 0.090157 0.913724
Si Si3 0.825074 0.018031 0.365564
Si Si4 0.831358 0.311998 0.999791
Si Si5 0.778314 0.376101 0.487517
Si Si6 0.224960 0.333578 0.478314
Si Si7 0.158030 0.095995 0.329786
Si Si8 0.771616 0.982503 0.196881
O O1 0.673929 0.756895 0.648728
O O2 0.716885 0.848715 0.768319
O O3 0.815542 0.921516 0.437179
O O4 0.504329 0.907268 0.906364
O O5 0.772840 0.173558 0.715167
O O6 0.640838 0.098874 0.089941
O O7 0.784345 0.003960 0.730409
O O8 0.767456 0.100733 0.525742
O O9 0.717684 0.011673 0.402571
O O10 0.028192 0.038752 0.064375
O O11 0.759697 0.224260 0.049698
O O12 0.036780 0.305682 0.704718
O O13 0.765626 0.437530 0.616414
O O14 0.964046 0.390254 0.155738
O O15 0.189761 0.382118 0.650542
O O16 0.298830 0.399836 0.274710
#
# Coordination Sequence:
#
# PCOD9246243 Si02
#       8
#     4   4   4   4   4   4   4   4
#     4  12  26  44  66 104 138 180 222 284 352 399
#     4  12  26  45  68 101 139 176 232 286 339 403
#     4  10  22  39  65  95 137 171 217 278 340 396
#     4  11  23  40  68 100 131 177 227 280 330 398
#     4  12  23  42  70 102 132 179 231 284 330 401
#     4  11  23  41  71  99 129 177 233 275 331 405
#     4  12  22  44  75  94 132 179 236 281 329 406
#     4  10  21  40  65  99 128 171 227 276 328 398
#
# _framework density 23.204495999999999
#
# number of rings (size 3 to 8) (size 9 to 14) (size 15 to 20)
#    0.000    0.750    6.250    1.500    3.500    2.000 
#    0.000    0.625    0.000    0.000    0.000    0.000 
#    0.000    0.000    0.000    0.000    0.000    0.000 
#
# Total GULP energy -178790.825826 kJ/mol
# GULP energy per Si atom -5587.213307 kJ/mol
# Density = 2.315168 g / cm^3
# Si number density = 23.204496 Si / 1000 Ang^3
#
#
#
# Elastic Constant Matrix: (Units=GPa)
#
#
# Indices 1 2 3 4 5 6 
#
# 1 129.9741 35.4218 16.8389 0.0000 17.0136 0.0000
# 2 35.4218 127.5472 11.6922 0.0000 12.7172 0.0000
# 3 16.8389 11.6922 21.1481 0.0000 1.5080 0.0000
# 4 0.0000 0.0000 0.0000 1.3706 0.0000 7.2442
# 5 17.0136 12.7172 1.5080 0.0000 29.2267 0.0000
# 6 0.0000 0.0000 0.0000 7.2442 0.0000 38.2355
#
#
#
# Elastic Compliance Matrix: (Units=1/GPa)
#
#
# Indices 1 2 3 4 5 6 
#
# 1 0.009555 -0.001616 -0.006392 0.000000 -0.004529 0.000000
# 2 -0.001616 0.008877 -0.003425 0.000000 -0.002745 0.000000
# 3 -0.006392 -0.003425 0.054096 0.000000 0.002420 0.000000
# 4 0.000000 0.000000 0.000000********** 0.000000 99.316388
# 5 -0.004529 -0.002745 0.002420 0.000000 0.037921 0.000000
# 6 0.000000 0.000000 0.000000 99.316388 0.000000-18.790682
#
#
# Mechanical properties :
#
#
# Convention : Reuss Voigt Hill
#
# Bulk Modulus (GPa) = 20.13610 45.17501 32.65556
# Shear Modulus (GPa) = -0.00921 28.08101 14.03590
#
# Velocity S-wave (km/s) = -0.06307 3.48250 2.46210
# Velocity P-wave (km/s) = 2.94809 5.97335 4.71021
#
# Compressibility (1/GPa) = 0.04966204
#
# Stress axis : x y z
#
# Youngs Moduli (GPa) = 104.65443 112.65413 18.48561
#
# Poissons Ratio (x) = 0.18206 0.11816
# Poissons Ratio (y) = 0.16913 0.06332
# Poissons Ratio (z) = 0.66893 0.38586
#
# Static dielectric constant tensor:
#      x y z
#    x 1.892920 0.000000 0.012670 
#    y 0.000000 1.844100 0.000000 
#    z 0.012670 0.000000 1.967870 
# 
# From -- ./inp_files/34146.got.cif
#   From: 2010.05.17/outbox.cif.g08.bks.cpg/sg14_18_cif.got.tgz:34146.got - 2010.06.03 17:49:19.
