data_PCOD9246520
_publ_section_title
;
Structure prediction by ZEFSAII (Michael W. Deem and Ramdas Pophale) SiO2 
 PCOD9246520
Probable space group: P 21/C
;
_chemical_formula_sum "Si O2"
_cell_formula_units_Z 32
_cell_length_a 6.474221
_cell_length_b 13.974638
_cell_length_c 17.235603
_cell_angle_alpha 90.000000
_cell_angle_beta 86.982565
_cell_angle_gamma 90.000000
_cell_volume 1557.227373
_symmetry_space_group_name_H-M "P 21/C"
_symmetry_group_IT_number 14
_symmetry_cell_setting 'monoclinic'
loop_
_space_group_symop_operation_xyz
x,y,z
-x,1/2+y,1/2-z
-x,-y,-z
x,1/2-y,1/2+z
loop_
_atom_site_type_symbol
_atom_site_label
_atom_site_fract_x
_atom_site_fract_y
_atom_site_fract_z
Si Si1 0.885233 0.173777 0.720643
Si Si2 0.435082 0.809007 0.689830
Si Si3 0.731426 0.234834 0.469903
Si Si4 0.451864 0.092056 0.551756
Si Si5 0.119143 0.246775 0.561955
Si Si6 0.753046 0.642207 0.665173
Si Si7 0.605953 0.602485 0.507084
Si Si8 0.466206 0.525130 0.783467
O O1 0.710295 0.251704 0.747310
O O2 0.760047 0.074460 0.709457
O O3 0.014008 0.215549 0.645166
O O4 0.038162 0.154752 0.790196
O O5 0.300889 0.815051 0.612849
O O6 0.634423 0.743767 0.668121
O O7 0.514767 0.911248 0.716695
O O8 0.644406 0.162352 0.536285
O O9 0.584521 0.326712 0.470577
O O10 0.953500 0.261314 0.497259
O O11 0.259115 0.157139 0.531845
O O12 0.425514 0.061117 0.640073
O O13 0.500000 0.000000 0.500000
O O14 0.264912 0.341552 0.562637
O O15 0.758216 0.602940 0.578066
O O16 0.597045 0.570060 0.711646
O O17 0.500000 0.500000 0.500000
#
# Coordination Sequence:
#
# PCOD9246520 Si02
#       8
#     4   4   4   4   4   4   4   4
#     4  11  23  41  66  95 132 168 215 265 322 390
#     4  10  23  41  64  90 133 170 210 265 323 383
#     4  10  21  41  64  97 129 168 211 265 324 384
#     4  11  21  39  64  96 133 162 202 260 324 392
#     4  11  23  40  69  97 129 168 214 268 324 385
#     4  10  23  44  62  93 132 171 216 268 320 382
#     4  10  24  44  69  91 128 173 224 272 318 376
#     4  11  22  41  65  94 132 171 208 263 329 387
#
# _framework density 20.549341999999999
#
# number of rings (size 3 to 8) (size 9 to 14) (size 15 to 20)
#    0.000    1.500    3.750    0.750    0.000    4.000 
#    2.250    2.500    0.000    0.000    0.000    0.000 
#    0.000    0.000    0.000    0.000    0.000    0.000 
#
# Total GULP energy -178577.307286 kJ/mol
# GULP energy per Si atom -5580.540853 kJ/mol
# Density = 2.050257 g / cm^3
# Si number density = 20.549342 Si / 1000 Ang^3
#
#
#
# Elastic Constant Matrix: (Units=GPa)
#
#
# Indices 1 2 3 4 5 6 
#
# 1 101.2913 47.4261 28.6952 0.0000 15.3512 0.0000
# 2 47.4261 154.4616 34.5585 0.0000 -0.2884 0.0000
# 3 28.6952 34.5585 66.2458 0.0000 0.4558 0.0000
# 4 0.0000 0.0000 0.0000 20.2902 0.0000 5.2568
# 5 15.3512 -0.2884 0.4558 0.0000 38.4366 0.0000
# 6 0.0000 0.0000 0.0000 5.2568 0.0000 17.9763
#
#
#
# Elastic Compliance Matrix: (Units=1/GPa)
#
#
# Indices 1 2 3 4 5 6 
#
# 1 0.013322 -0.003190 -0.004070 0.000000 -0.005296 0.000000
# 2 -0.003190 0.008094 -0.002850 0.000000 0.001368 0.000000
# 3 -0.004070 -0.002850 0.018336 0.000000 0.001387 0.000000
# 4 0.000000 0.000000 0.000000 0.053325 0.000000 -0.015594
# 5 -0.005296 0.001368 0.001387 0.000000 0.028126 0.000000
# 6 0.000000 0.000000 0.000000 -0.015594 0.000000 0.060189
#
#
# Mechanical properties :
#
#
# Convention : Reuss Voigt Hill
#
# Bulk Modulus (GPa) = 51.19950 60.37314 55.78632
# Shear Modulus (GPa) = 24.02457 29.42856 26.72656
#
# Velocity S-wave (km/s) = 3.42294 3.78841 3.61030
# Velocity P-wave (km/s) = 6.37115 6.96989 6.67724
#
# Compressibility (1/GPa) = 0.01953144
#
# Stress axis : x y z
#
# Youngs Moduli (GPa) = 75.06607 123.55392 54.53887
#
# Poissons Ratio (x) = 0.39408 0.22198
# Poissons Ratio (y) = 0.23943 0.15544
# Poissons Ratio (z) = 0.30553 0.35213
#
# Static dielectric constant tensor:
#      x y z
#    x 1.758510 0.000000 -0.017790 
#    y 0.000000 1.823730 0.000000 
#    z -0.017790 0.000000 1.781660 
# 
# From -- ./inp_files/53489.got.cif
#   From: 2010.05.17/outbox.cif.g08.bks.cpg/sg14_27_cif.got.tgz:53489.got - 2010.06.03 17:49:19.
