data_PCOD9246129
_publ_section_title
;
Structure prediction by ZEFSAII (Michael W. Deem and Ramdas Pophale) SiO2 
 PCOD9246129
Probable space group: P 21/C
;
_chemical_formula_sum "Si O2"
_cell_formula_units_Z 32
_cell_length_a 7.918941
_cell_length_b 18.081939
_cell_length_c 18.887057
_cell_angle_alpha 90.000000
_cell_angle_beta 146.444644
_cell_angle_gamma 90.000000
_cell_volume 1494.855328
_symmetry_space_group_name_H-M "P 21/C"
_symmetry_group_IT_number 14
_symmetry_cell_setting 'monoclinic'
loop_
_space_group_symop_operation_xyz
x,y,z
-x,1/2+y,1/2-z
-x,-y,-z
x,1/2-y,1/2+z
loop_
_atom_site_type_symbol
_atom_site_label
_atom_site_fract_x
_atom_site_fract_y
_atom_site_fract_z
Si Si1 0.833012 0.311546 0.687582
Si Si2 0.849790 0.713977 0.352612
Si Si3 0.654345 0.479291 0.874438
Si Si4 0.178991 0.522664 0.354703
Si Si5 0.793762 0.315593 0.918960
Si Si6 0.840742 0.549729 0.386436
Si Si7 0.705928 0.703038 0.025404
Si Si8 0.655576 0.442285 0.107817
O O1 0.800486 0.400417 0.680938
O O2 0.502679 0.271500 0.573866
O O3 0.979648 0.297607 0.661964
O O4 0.078263 0.283228 0.831134
O O5 0.493870 0.729650 0.212679
O O6 0.857622 0.637833 0.401254
O O7 0.032437 0.775894 0.457577
O O8 0.643938 0.392703 0.892276
O O9 0.506593 0.477441 0.745251
O O10 0.491407 0.537132 0.868148
O O11 0.000000 0.500000 0.000000
O O12 0.500000 0.500000 0.500000
O O13 0.981075 0.536789 0.357040
O O14 0.009961 0.462057 0.246187
O O15 0.049986 0.324294 0.947936
O O16 0.000000 0.500000 0.500000
O O17 0.456240 0.638684 0.952208
O O18 0.500000 0.500000 0.000000
#
# Coordination Sequence:
#
# PCOD9246129 Si02
#       8
#     4   4   4   4   4   4   4   4
#     4  11  25  44  65  97 133 174 218 275 325 397
#     4  10  23  43  64  88 130 170 213 260 330 392
#     4  10  21  40  63  92 126 159 212 264 318 380
#     4  10  23  42  64  92 131 168 214 265 322 386
#     4  11  23  42  65  95 129 170 214 267 326 391
#     4   9  21  39  62  88 122 164 205 259 314 378
#     4  12  25  42  68  99 132 168 223 274 330 387
#     4  11  23  42  67  96 126 170 217 270 326 387
#
# _framework density 21.406753999999999
#
# number of rings (size 3 to 8) (size 9 to 14) (size 15 to 20)
#    0.000    1.500    2.500    2.250    3.500    5.000 
#    2.250    0.000    0.000    0.000    0.000    0.000 
#    0.000    0.000    0.000    0.000    0.000    0.000 
#
# Total GULP energy -178611.283869 kJ/mol
# GULP energy per Si atom -5581.602621 kJ/mol
# Density = 2.135803 g / cm^3
# Si number density = 21.406754 Si / 1000 Ang^3
#
#
#
# Elastic Constant Matrix: (Units=GPa)
#
#
# Indices 1 2 3 4 5 6 
#
# 1 26.0502 3.1996 1.3602 0.0000 6.2950 0.0000
# 2 3.1996 31.2468 35.8297 0.0000 0.7465 0.0000
# 3 1.3602 35.8297 161.0707 0.0000 18.3410 0.0000
# 4 0.0000 0.0000 0.0000 46.0862 0.0000 3.3018
# 5 6.2950 0.7465 18.3410 0.0000 36.7670 0.0000
# 6 0.0000 0.0000 0.0000 3.3018 0.0000 24.4011
#
#
#
# Elastic Compliance Matrix: (Units=1/GPa)
#
#
# Indices 1 2 3 4 5 6 
#
# 1 0.040947 -0.006220 0.001931 0.000000 -0.007848 0.000000
# 2 -0.006220 0.044506 -0.010460 0.000000 0.005379 0.000000
# 3 0.001931 -0.010460 0.009046 0.000000 -0.004631 0.000000
# 4 0.000000 0.000000 0.000000 0.021911 0.000000 -0.002965
# 5 -0.007848 0.005379 -0.004631 0.000000 0.030743 0.000000
# 6 0.000000 0.000000 0.000000 -0.002965 0.000000 0.041383
#
#
# Mechanical properties :
#
#
# Convention : Reuss Voigt Hill
#
# Bulk Modulus (GPa) = 15.38424 33.23852 24.31138
# Shear Modulus (GPa) = 20.85931 33.31607 27.08769
#
# Velocity S-wave (km/s) = 3.12497 3.94932 3.56108
# Velocity P-wave (km/s) = 4.49698 6.02968 5.31882
#
# Compressibility (1/GPa) = 0.06500159
#
# Stress axis : x y z
#
# Youngs Moduli (GPa) = 24.42183 22.46883 110.54199
#
# Poissons Ratio (x) = 0.13976 -0.21351
# Poissons Ratio (y) = 0.15191 1.15630
# Poissons Ratio (z) = -0.04717 0.23503
#
# Static dielectric constant tensor:
#      x y z
#    x 1.843310 0.000000 0.053170 
#    y 0.000000 2.069960 0.000000 
#    z 0.053170 0.000000 1.818910 
# 
# From -- ./inp_files/56237.got.cif
#   From: 2010.05.17/outbox.cif.g08.bks.cpg/sg14_29_cif.got.tgz:56237.got - 2010.06.03 17:49:19.
