data_PCOD9246963
_publ_section_title
;
Structure prediction by ZEFSAII (Michael W. Deem and Ramdas Pophale) SiO2 
 PCOD9246963
Probable space group: P 21/C
;
_chemical_formula_sum "Si O2"
_cell_formula_units_Z 32
_cell_length_a 19.401518
_cell_length_b 5.303514
_cell_length_c 13.718076
_cell_angle_alpha 90.000000
_cell_angle_beta 105.175671
_cell_angle_gamma 90.000000
_cell_volume 1362.314669
_symmetry_space_group_name_H-M "P 21/C"
_symmetry_group_IT_number 14
_symmetry_cell_setting 'monoclinic'
loop_
_space_group_symop_operation_xyz
x,y,z
-x,1/2+y,1/2-z
-x,-y,-z
x,1/2-y,1/2+z
loop_
_atom_site_type_symbol
_atom_site_label
_atom_site_fract_x
_atom_site_fract_y
_atom_site_fract_z
Si Si1 0.053436 0.093333 0.663279
Si Si2 0.573757 0.920387 0.407040
Si Si3 0.975757 0.594301 0.617397
Si Si4 0.204899 0.475212 0.136199
Si Si5 0.817035 0.475563 0.492434
Si Si6 0.646618 0.230775 0.294801
Si Si7 0.432897 0.762632 0.911418
Si Si8 0.674292 0.954289 0.005264
O O1 0.032782 0.099768 0.768835
O O2 0.137345 0.042591 0.682610
O O3 0.027954 0.361846 0.611930
O O4 0.010472 0.859434 0.602162
O O5 0.512165 0.711323 0.396188
O O6 0.651884 0.826058 0.468277
O O7 0.585349 0.032119 0.305058
O O8 0.554942 0.126019 0.480962
O O9 0.896310 0.547582 0.550950
O O10 0.209183 0.194180 0.092502
O O11 0.280410 0.582341 0.202097
O O12 0.184049 0.692441 0.049796
O O13 0.757173 0.497067 0.554831
O O14 0.613446 0.375145 0.190191
O O15 0.658799 0.391676 0.398165
O O16 0.378978 0.980080 0.926262
#
# Coordination Sequence:
#
# PCOD9246963 Si02
#       8
#     4   4   4   4   4   4   4   4
#     4  10  22  40  61  91 128 160 219 263 314 397
#     4  10  21  43  62  91 131 160 223 275 322 406
#     4  10  22  40  61  91 123 170 208 266 323 377
#     4  11  23  41  62  93 128 166 214 268 321 396
#     4  11  23  40  65  90 130 169 209 268 328 378
#     4  10  23  40  61  96 129 166 219 271 339 388
#     4  10  23  39  66  93 121 175 216 270 338 395
#     4  10  22  41  60  92 130 163 217 274 317 408
#
# _framework density 23.489432999999998
#
# number of rings (size 3 to 8) (size 9 to 14) (size 15 to 20)
#    0.000    1.750    1.250    1.875    3.500    4.000 
#    0.000    1.250    0.000    0.000    0.000    0.000 
#    0.000    0.000    0.000    0.000    0.000    0.000 
#
# Total GULP energy -178517.023381 kJ/mol
# GULP energy per Si atom -5578.656981 kJ/mol
# Density = 2.343597 g / cm^3
# Si number density = 23.489433 Si / 1000 Ang^3
#
#
#
# Elastic Constant Matrix: (Units=GPa)
#
#
# Indices 1 2 3 4 5 6 
#
# 1 143.2379 29.6229 22.6813 0.0000 5.7434 0.0000
# 2 29.6229 80.6005 0.7549 0.0000 -7.3941 0.0000
# 3 22.6813 0.7549 51.0143 0.0000 16.5184 0.0000
# 4 0.0000 0.0000 0.0000 14.2244 0.0000 3.6527
# 5 5.7434 -7.3941 16.5184 0.0000 25.5477 0.0000
# 6 0.0000 0.0000 0.0000 3.6527 0.0000 25.7216
#
#
#
# Elastic Compliance Matrix: (Units=1/GPa)
#
#
# Indices 1 2 3 4 5 6 
#
# 1 0.008167 -0.003015 -0.003427 0.000000 -0.000493 0.000000
# 2 -0.003015 0.013983 -0.000501 0.000000 0.005049 0.000000
# 3 -0.003427 -0.000501 0.026473 0.000000 -0.016492 0.000000
# 4 0.000000 0.000000 0.000000 0.072962 0.000000 -0.010361
# 5 -0.000493 0.005049 -0.016492 0.000000 0.051378 0.000000
# 6 0.000000 0.000000 0.000000 -0.010361 0.000000 0.040349
#
#
# Mechanical properties :
#
#
# Convention : Reuss Voigt Hill
#
# Bulk Modulus (GPa) = 28.78766 42.33010 35.55888
# Shear Modulus (GPa) = 20.93996 27.88499 24.41248
#
# Velocity S-wave (km/s) = 2.98898 3.44921 3.22731
# Velocity P-wave (km/s) = 4.91876 5.82433 5.39059
#
# Compressibility (1/GPa) = 0.03473710
#
# Stress axis : x y z
#
# Youngs Moduli (GPa) = 122.43942 71.51662 37.77373
#
# Poissons Ratio (x) = 0.21561 0.12945
# Poissons Ratio (y) = 0.36913 0.01894
# Poissons Ratio (z) = 0.41961 0.03585
#
# Static dielectric constant tensor:
#      x y z
#    x 1.913390 0.000000 -0.023880 
#    y 0.000000 1.923480 0.000000 
#    z -0.023880 0.000000 1.927580 
# 
# From -- ./inp_files/48204.got.cif
#   From: 2010.05.17/outbox.cif.g08.bks.cpg/sg14_25_cif.got.tgz:48204.got - 2010.06.03 17:49:19.
