data_PCOD9246272
_publ_section_title
;
Structure prediction by ZEFSAII (Michael W. Deem and Ramdas Pophale) SiO2 
 PCOD9246272
Probable space group: P 21/C
;
_chemical_formula_sum "Si O2"
_cell_formula_units_Z 28
_cell_length_a 15.951285
_cell_length_b 19.483578
_cell_length_c 8.760015
_cell_angle_alpha 90.000000
_cell_angle_beta 32.188436
_cell_angle_gamma 90.000000
_cell_volume 1450.295174
_symmetry_space_group_name_H-M "P 21/C"
_symmetry_group_IT_number 14
_symmetry_cell_setting 'monoclinic'
loop_
_space_group_symop_operation_xyz
x,y,z
-x,1/2+y,1/2-z
-x,-y,-z
x,1/2-y,1/2+z
loop_
_atom_site_type_symbol
_atom_site_label
_atom_site_fract_x
_atom_site_fract_y
_atom_site_fract_z
Si Si1 0.751195 0.589008 0.210429
Si Si2 0.407186 0.022730 0.492827
Si Si3 0.296200 0.932633 0.128951
Si Si4 0.608000 0.113154 0.688795
Si Si5 0.103883 0.068990 0.848899
Si Si6 0.125202 0.809337 0.862836
Si Si7 0.940407 0.335305 0.181021
O O1 0.745606 0.512962 0.291250
O O2 0.577673 0.620589 0.495394
O O3 0.802710 0.578865 0.954850
O O4 0.883688 0.635257 0.083574
O O5 0.238330 0.059046 0.769763
O O6 0.500000 0.000000 0.500000
O O7 0.374470 0.954600 0.443279
O O8 0.530192 0.069576 0.211729
O O9 0.309354 0.901838 0.277447
O O10 0.172984 0.892291 0.216736
O O11 0.698889 0.174263 0.465701
O O12 0.988713 0.133772 0.039637
O O13 0.000000 0.000000 0.000000
O O14 0.074104 0.733979 0.892776
O O15 0.111116 0.820342 0.065472
#
# Coordination Sequence:
#
# PCOD9246272 Si02
#       7
#     4   4   4   4   4   4   4
#     4  10  21  40  66  96 127 158 215 261 319 368
#     4  11  21  36  60 100 125 158 206 261 311 374
#     4  11  20  39  68  92 127 161 208 262 322 365
#     4  11  20  42  64  91 127 163 202 267 317 370
#     4  11  20  39  67  91 128 170 205 264 313 370
#     4  11  24  43  64  86 129 167 214 251 322 375
#     4  11  25  43  62  92 123 170 211 258 310 392
#
# _framework density 19.306415999999999
#
# number of rings (size 3 to 8) (size 9 to 14) (size 15 to 20)
#    0.000    1.143    4.286    3.000    2.000    0.000 
#   12.857    1.429    0.000    0.000    0.000    0.000 
#    0.000    0.000    0.000    0.000    0.000    0.000 
#
# Total GULP energy -156491.231482 kJ/mol
# GULP energy per Si atom -5588.972553 kJ/mol
# Density = 1.926247 g / cm^3
# Si number density = 19.306416 Si / 1000 Ang^3
#
#
#
# Elastic Constant Matrix: (Units=GPa)
#
#
# Indices 1 2 3 4 5 6 
#
# 1 124.0305 32.7947 43.9626 0.0000 -14.3857 0.0000
# 2 32.7947 75.0784 47.2470 0.0000 -21.2592 0.0000
# 3 43.9626 47.2470 119.7067 0.0000 -22.9138 0.0000
# 4 0.0000 0.0000 0.0000 20.3084 0.0000 -0.6486
# 5 -14.3857 -21.2592 -22.9138 0.0000 28.4368 0.0000
# 6 0.0000 0.0000 0.0000 -0.6486 0.0000 32.4875
#
#
#
# Elastic Compliance Matrix: (Units=1/GPa)
#
#
# Indices 1 2 3 4 5 6 
#
# 1 0.009677 -0.002391 -0.002383 0.000000 0.001188 0.000000
# 2 -0.002391 0.020501 -0.005334 0.000000 0.009819 0.000000
# 3 -0.002383 -0.005334 0.012226 0.000000 0.004658 0.000000
# 4 0.000000 0.000000 0.000000 0.049272 0.000000 0.000984
# 5 0.001188 0.009819 0.004658 0.000000 0.046861 0.000000
# 6 0.000000 0.000000 0.000000 0.000984 0.000000 0.030801
#
#
# Mechanical properties :
#
#
# Convention : Reuss Voigt Hill
#
# Bulk Modulus (GPa) = 45.06939 62.98044 54.02491
# Shear Modulus (GPa) = 25.38734 29.23395 27.31065
#
# Velocity S-wave (km/s) = 3.63018 3.89551 3.76518
# Velocity P-wave (km/s) = 6.40046 7.27500 6.85170
#
# Compressibility (1/GPa) = 0.02218801
#
# Stress axis : x y z
#
# Youngs Moduli (GPa) = 103.33634 48.77880 81.79484
#
# Poissons Ratio (x) = 0.11664 0.19490
# Poissons Ratio (y) = 0.24709 0.43628
# Poissons Ratio (z) = 0.24623 0.26018
#
# Static dielectric constant tensor:
#      x y z
#    x 1.688240 0.000000 0.011050 
#    y 0.000000 1.637090 0.000000 
#    z 0.011050 0.000000 1.696240 
# 
# From -- ./inp_files/9986.got.cif
#   From: 2010.05.17/outbox.cif.g08.bks.cpg/sg14_5_cif.got.tgz:9986.got - 2010.06.03 17:49:19.
