data_PCOD9246080
_publ_section_title
;
Structure prediction by ZEFSAII (Michael W. Deem and Ramdas Pophale) SiO2 
 PCOD9246080
Probable space group: P 21/C
;
_chemical_formula_sum "Si O2"
_cell_formula_units_Z 32
_cell_length_a 18.019527
_cell_length_b 21.691621
_cell_length_c 9.187206
_cell_angle_alpha 90.000000
_cell_angle_beta 154.089589
_cell_angle_gamma 90.000000
_cell_volume 1569.154607
_symmetry_space_group_name_H-M "P 21/C"
_symmetry_group_IT_number 14
_symmetry_cell_setting 'monoclinic'
loop_
_space_group_symop_operation_xyz
x,y,z
-x,1/2+y,1/2-z
-x,-y,-z
x,1/2-y,1/2+z
loop_
_atom_site_type_symbol
_atom_site_label
_atom_site_fract_x
_atom_site_fract_y
_atom_site_fract_z
Si Si1 0.687568 0.996725 0.401892
Si Si2 0.890924 0.254990 0.134202
Si Si3 0.707726 0.624575 0.784407
Si Si4 0.696770 0.368980 0.918852
Si Si5 0.691926 0.872316 0.910399
Si Si6 0.287215 0.869509 0.206426
Si Si7 0.881756 0.753457 0.714096
Si Si8 0.685083 0.995415 0.748732
O O1 0.767082 0.063096 0.503199
O O2 0.670658 0.992329 0.547414
O O3 0.771935 0.936515 0.480972
O O4 0.500000 0.000000 0.000000
O O5 0.069675 0.262230 0.532576
O O6 0.939253 0.255546 0.051055
O O7 0.775669 0.312301 0.973205
O O8 0.810068 0.188786 0.029539
O O9 0.506436 0.630877 0.460430
O O10 0.724836 0.618233 0.640748
O O11 0.797760 0.685484 0.001687
O O12 0.728233 0.362986 0.146539
O O13 0.488468 0.866885 0.528824
O O14 0.758650 0.931891 0.940874
O O15 0.772820 0.807988 0.006067
O O16 0.227426 0.938758 0.061477
O O17 0.500000 0.000000 0.500000
#
# Coordination Sequence:
#
# PCOD9246080 Si02
#       8
#     4   4   4   4   4   4   4   4
#     4   9  18  35  61  89 116 149 194 247 293 342
#     4  12  23  42  57  82 121 157 197 237 293 347
#     4  10  21  40  62  88 118 151 199 245 288 351
#     4   9  19  39  62  85 114 151 194 237 287 348
#     4  10  21  40  62  88 117 153 197 244 292 349
#     4   9  19  39  62  85 115 150 191 242 286 342
#     4  12  25  40  59  82 123 159 192 245 292 346
#     4   9  18  35  61  89 117 148 193 247 296 343
#
# _framework density 20.393146000000002
#
# number of rings (size 3 to 8) (size 9 to 14) (size 15 to 20)
#    0.000    2.000    2.500    3.000    1.750    0.000 
#   11.250    2.500    0.000    0.000    0.000    0.000 
#    0.000    0.000    0.000    0.000    0.000    0.000 
#
# Total GULP energy -178529.776534 kJ/mol
# GULP energy per Si atom -5579.055517 kJ/mol
# Density = 2.034673 g / cm^3
# Si number density = 20.393146 Si / 1000 Ang^3
#
#
#
# Elastic Constant Matrix: (Units=GPa)
#
#
# Indices 1 2 3 4 5 6 
#
# 1 57.8594 64.0691 12.2033 0.0000 -2.1614 0.0000
# 2 64.0691 207.8568 49.4214 0.0000 -3.1433 0.0000
# 3 12.2033 49.4214 42.4957 0.0000 -16.9365 0.0000
# 4 0.0000 0.0000 0.0000 -25.8636 0.0000 -43.8992
# 5 -2.1614 -3.1433 -16.9365 0.0000 15.8320 0.0000
# 6 0.0000 0.0000 0.0000 -43.8992 0.0000 10.7019
#
#
#
# Elastic Compliance Matrix: (Units=1/GPa)
#
#
# Indices 1 2 3 4 5 6 
#
# 1 0.027217 -0.010178 0.008186 0.000000 0.010453 0.000000
# 2 -0.010178 0.012125 -0.018779 0.000000 -0.019071 0.000000
# 3 0.008186 -0.018779 0.073180 0.000000 0.075675 0.000000
# 4 0.000000 0.000000 0.000000 -0.004856 0.000000 -0.019919
# 5 0.010453 -0.019071 0.075675 0.000000 0.141758 0.000000
# 6 0.000000 0.000000 0.000000 -0.019919 0.000000 0.011735
#
#
# Mechanical properties :
#
#
# Convention : Reuss Voigt Hill
#
# Bulk Modulus (GPa) = 14.08815 62.17774 38.13294
# Shear Modulus (GPa) = 15.32052 12.30194 13.81123
#
# Velocity S-wave (km/s) = 2.74388 2.45876 2.60522
# Velocity P-wave (km/s) = 4.11847 6.21421 5.27153
#
# Compressibility (1/GPa) = 0.07098165
#
# Stress axis : x y z
#
# Youngs Moduli (GPa) = 36.74163 82.47636 13.66495
#
# Poissons Ratio (x) = 0.83942 -0.11187
# Poissons Ratio (y) = 0.37394 0.25661
# Poissons Ratio (z) = -0.30078 1.54880
#
# Static dielectric constant tensor:
#      x y z
#    x 1.703300 0.000000 0.018230 
#    y 0.000000 1.755210 0.000000 
#    z 0.018230 0.000000 1.717930 
# 
# From -- ./inp_files/18236.got.cif
#   From: 2010.05.17/outbox.cif.g08.bks.cpg/sg14_10_cif.got.tgz:18236.got - 2010.06.03 17:49:19.
