data_PCOD9246006
_publ_section_title
;
Structure prediction by ZEFSAII (Michael W. Deem and Ramdas Pophale) SiO2 
 PCOD9246006
Probable space group: P 21/C
;
_chemical_formula_sum "Si O2"
_cell_formula_units_Z 20
_cell_length_a 13.297295
_cell_length_b 5.196510
_cell_length_c 22.470640
_cell_angle_alpha 90.000000
_cell_angle_beta 149.160585
_cell_angle_gamma 90.000000
_cell_volume 795.971679
_symmetry_space_group_name_H-M "P 21/C"
_symmetry_group_IT_number 14
_symmetry_cell_setting 'monoclinic'
loop_
_space_group_symop_operation_xyz
x,y,z
-x,1/2+y,1/2-z
-x,-y,-z
x,1/2-y,1/2+z
loop_
_atom_site_type_symbol
_atom_site_label
_atom_site_fract_x
_atom_site_fract_y
_atom_site_fract_z
Si Si1 0.625461 0.632268 0.384429
Si Si2 0.761624 0.998851 0.370111
Si Si3 0.970549 0.413594 0.772158
Si Si4 0.910836 0.240927 0.064888
Si Si5 0.254901 0.840831 0.246100
O O1 0.467040 0.475295 0.265400
O O2 0.743427 0.471633 0.492633
O O3 0.482976 0.848315 0.342313
O O4 0.778100 0.730688 0.412716
O O5 0.845667 0.175832 0.465666
O O6 0.831547 0.133270 0.345273
O O7 0.096210 0.534325 0.890227
O O8 0.061882 0.168519 0.784336
O O9 0.780602 0.289403 0.708054
O O10 0.122847 0.097024 0.174920
#
# Coordination Sequence:
#
# PCOD9246006 Si02
#       5
#     4   4   4   4   4
#     4  10  22  42  67 115 152 189 237 305 377 473
#     4  10  21  39  69 112 153 186 233 301 379 466
#     4  12  27  52  75 105 145 205 273 313 352 437
#     4  12  23  43  76 106 156 195 250 305 387 440
#     4  10  24  45  75 108 154 199 247 307 388 443
#
# _framework density 25.126521
#
# number of rings (size 3 to 8) (size 9 to 14) (size 15 to 20)
#    1.200    0.000    4.000    1.800    0.000    8.000 
#    0.000    2.000    0.000    0.000    0.000    0.000 
#    0.000    0.000    0.000    0.000    0.000    0.000 
#
# Total GULP energy -111371.095104 kJ/mol
# GULP energy per Si atom -5568.554755 kJ/mol
# Density = 2.506933 g / cm^3
# Si number density = 25.126521 Si / 1000 Ang^3
#
#
#
# Elastic Constant Matrix: (Units=GPa)
#
#
# Indices 1 2 3 4 5 6 
#
# 1 103.4198 23.0112 27.5017 0.0000 -33.1121 0.0000
# 2 23.0112 117.1585 10.3922 0.0000 -28.2508 0.0000
# 3 27.5017 10.3922 70.1947 0.0000 2.7485 0.0000
# 4 0.0000 0.0000 0.0000 51.1835 0.0000 -20.0090
# 5 -33.1121 -28.2508 2.7485 0.0000 35.4196 0.0000
# 6 0.0000 0.0000 0.0000 -20.0090 0.0000 36.9673
#
#
#
# Elastic Compliance Matrix: (Units=1/GPa)
#
#
# Indices 1 2 3 4 5 6 
#
# 1 0.017035 0.001624 -0.007612 0.000000 0.017811 0.000000
# 2 0.001624 0.010982 -0.002673 0.000000 0.010485 0.000000
# 3 -0.007612 -0.002673 0.018041 0.000000 -0.010648 0.000000
# 4 0.000000 0.000000 0.000000 0.024781 0.000000 0.013413
# 5 0.017811 0.010485 -0.010648 0.000000 0.054073 0.000000
# 6 0.000000 0.000000 0.000000 0.013413 0.000000 0.034311
#
#
# Mechanical properties :
#
#
# Convention : Reuss Voigt Hill
#
# Bulk Modulus (GPa) = 34.79879 45.84256 40.32068
# Shear Modulus (GPa) = 26.86417 40.03864 33.45140
#
# Velocity S-wave (km/s) = 3.27334 3.99617 3.65268
# Velocity P-wave (km/s) = 5.30715 6.29101 5.81991
#
# Compressibility (1/GPa) = 0.02873663
#
# Stress axis : x y z
#
# Youngs Moduli (GPa) = 58.70375 91.06017 55.42943
#
# Poissons Ratio (x) = -0.14790 0.42192
# Poissons Ratio (y) = -0.09535 0.14815
# Poissons Ratio (z) = 0.44685 0.24338
#
# Static dielectric constant tensor:
#      x y z
#    x 2.111180 0.000000 0.056700 
#    y 0.000000 2.119400 0.000000 
#    z 0.056700 0.000000 1.975300 
# 
# From -- ./inp_files/73514.got.cif
#   From: 2010.05.17/outbox.cif.g08.bks.cpg/sg14_37_cif.got.tgz:73514.got - 2010.06.03 17:49:19.
