data_PCOD9246299
_publ_section_title
;
Structure prediction by ZEFSAII (Michael W. Deem and Ramdas Pophale) SiO2 
 PCOD9246299
Probable space group: P 21/C
;
_chemical_formula_sum "Si O2"
_cell_formula_units_Z 32
_cell_length_a 11.070877
_cell_length_b 8.545241
_cell_length_c 23.722014
_cell_angle_alpha 90.000000
_cell_angle_beta 136.305711
_cell_angle_gamma 90.000000
_cell_volume 1550.303516
_symmetry_space_group_name_H-M "P 21/C"
_symmetry_group_IT_number 14
_symmetry_cell_setting 'monoclinic'
loop_
_space_group_symop_operation_xyz
x,y,z
-x,1/2+y,1/2-z
-x,-y,-z
x,1/2-y,1/2+z
loop_
_atom_site_type_symbol
_atom_site_label
_atom_site_fract_x
_atom_site_fract_y
_atom_site_fract_z
Si Si1 0.440401 0.683171 0.564836
Si Si2 0.851628 0.399440 0.066991
Si Si3 0.848952 0.829580 0.867517
Si Si4 0.916177 0.592385 0.200880
Si Si5 0.373467 0.045357 0.307204
Si Si6 0.272034 0.138756 0.564871
Si Si7 0.211510 0.057513 0.860460
Si Si8 0.843233 0.541909 0.525997
O O1 0.326616 0.798844 0.486920
O O2 0.538622 0.795633 0.640708
O O3 0.583994 0.578996 0.582226
O O4 0.301271 0.573558 0.548534
O O5 0.876672 0.515426 0.127328
O O6 0.014831 0.281155 0.120496
O O7 0.827213 0.492071 0.998970
O O8 0.703322 0.909961 0.779508
O O9 0.780266 0.712129 0.892418
O O10 0.969264 0.974822 0.928576
O O11 0.788342 0.516299 0.204928
O O12 0.872160 0.774345 0.182420
O O13 0.113611 0.564533 0.287457
O O14 0.525127 0.914798 0.362697
O O15 0.216139 0.283454 0.506670
O O16 0.172005 0.022201 0.911786
#
# Coordination Sequence:
#
# PCOD9246299 Si02
#       8
#     4   4   4   4   4   4   4   4
#     4   9  22  36  61  89 131 160 202 257 326 380
#     4  10  21  40  67  94 122 171 205 265 322 383
#     4  11  23  45  64  88 134 168 212 265 318 376
#     4  11  22  38  63  90 132 159 209 264 324 386
#     4  10  23  42  61  94 123 170 210 265 323 376
#     4  11  24  41  66  93 124 166 224 259 310 380
#     4  11  22  37  59  94 127 166 203 254 326 384
#     4  11  22  41  60  94 123 168 214 259 312 377
#
# _framework density 20.641119
#
# number of rings (size 3 to 8) (size 9 to 14) (size 15 to 20)
#    0.000    1.500    2.500    2.625    3.500    3.500 
#    0.000    3.750    0.000    0.000    0.000    0.000 
#    0.000    0.000    0.000    0.000    0.000    0.000 
#
# Total GULP energy -178543.215084 kJ/mol
# GULP energy per Si atom -5579.475471 kJ/mol
# Density = 2.059414 g / cm^3
# Si number density = 20.641119 Si / 1000 Ang^3
#
#
#
# Elastic Constant Matrix: (Units=GPa)
#
#
# Indices 1 2 3 4 5 6 
#
# 1 62.8855 9.6528 18.6893 0.0000 -2.8284 0.0000
# 2 9.6528 68.5706 20.7367 0.0000 11.2498 0.0000
# 3 18.6893 20.7367 68.5409 0.0000 3.8812 0.0000
# 4 0.0000 0.0000 0.0000 21.4719 0.0000 34.0277
# 5 -2.8284 11.2498 3.8812 0.0000 27.3503 0.0000
# 6 0.0000 0.0000 0.0000 34.0277 0.0000 -14.8051
#
#
#
# Elastic Compliance Matrix: (Units=1/GPa)
#
#
# Indices 1 2 3 4 5 6 
#
# 1 0.017628 -0.001638 -0.004489 0.000000 0.003134 0.000000
# 2 -0.001638 0.017230 -0.004391 0.000000 -0.006634 0.000000
# 3 -0.004489 -0.004391 0.017204 0.000000 -0.001100 0.000000
# 4 0.000000 0.000000 0.000000 0.010032 0.000000 0.023057
# 5 0.003134 -0.006634 -0.001100 0.000000 0.039771 0.000000
# 6 0.000000 0.000000 0.000000 0.023057 0.000000 -0.014550
#
#
# Mechanical properties :
#
#
# Convention : Reuss Voigt Hill
#
# Bulk Modulus (GPa) = 32.22895 33.12830 32.67863
# Shear Modulus (GPa) = 42.12502 16.86464 29.49483
#
# Velocity S-wave (km/s) = 4.52246 2.86149 3.78423
# Velocity P-wave (km/s) = 6.55118 5.19635 5.91270
#
# Compressibility (1/GPa) = 0.03102800
#
# Stress axis : x y z
#
# Youngs Moduli (GPa) = 56.72689 58.03757 58.12477
#
# Poissons Ratio (x) = 0.09508 0.26090
# Poissons Ratio (y) = 0.09294 0.25520
# Poissons Ratio (z) = 0.25462 0.25482
#
# Static dielectric constant tensor:
#      x y z
#    x 1.767910 0.000000 -0.000500 
#    y 0.000000 1.753050 0.000000 
#    z -0.000500 0.000000 1.743020 
# 
# From -- ./inp_files/73114.got.cif
#   From: 2010.05.17/outbox.cif.g08.bks.cpg/sg14_37_cif.got.tgz:73114.got - 2010.06.03 17:49:19.
