data_PCOD9246805
_publ_section_title
;
Structure prediction by ZEFSAII (Michael W. Deem and Ramdas Pophale) SiO2 
 PCOD9246805
Probable space group: P 21/C
;
_chemical_formula_sum "Si O2"
_cell_formula_units_Z 26
_cell_length_a 26.811624
_cell_length_b 5.450132
_cell_length_c 12.467333
_cell_angle_alpha 90.000000
_cell_angle_beta 34.347543
_cell_angle_gamma 90.000000
_cell_volume 1027.887320
_symmetry_space_group_name_H-M "P 21/C"
_symmetry_group_IT_number 14
_symmetry_cell_setting 'monoclinic'
loop_
_space_group_symop_operation_xyz
x,y,z
-x,1/2+y,1/2-z
-x,-y,-z
x,1/2-y,1/2+z
loop_
_atom_site_type_symbol
_atom_site_label
_atom_site_fract_x
_atom_site_fract_y
_atom_site_fract_z
Si Si1 0.258252 0.597369 0.107534
Si Si2 0.000000 0.000000 0.500000
Si Si3 0.680095 0.883609 0.243602
Si Si4 0.042213 0.895350 0.647348
Si Si5 0.550423 0.013474 0.635569
Si Si6 0.235148 0.613075 0.889816
Si Si7 0.797694 0.602120 0.329643
O O1 0.201557 0.356651 0.235983
O O2 0.226724 0.867142 0.198521
O O3 0.360326 0.549508 0.953136
O O4 0.242644 0.621146 0.006736
O O5 0.964854 0.179787 0.464559
O O6 0.893891 0.926044 0.711651
O O7 0.582894 0.956135 0.455913
O O8 0.701027 0.614289 0.251540
O O9 0.736545 0.111049 0.191294
O O10 0.715599 0.876147 0.059029
O O11 0.000192 0.168355 0.713691
O O12 0.134480 0.938788 0.540946
O O13 0.501332 0.769356 0.763813
#
# Coordination Sequence:
#
# PCOD9246805 Si02
#       7
#     4   2   4   4   4   4   4
#     4  10  22  43  70  93 145 179 236 284 383 421
#     4  12  28  44  78 112 156 198 270 296 362 430
#     4  10  22  43  69  94 143 176 233 293 366 427
#     4  12  26  45  68 107 155 191 259 316 351 422
#     4  12  26  44  71 108 134 175 238 306 368 453
#     4  10  21  42  65  96 130 196 226 278 363 426
#     4  10  23  44  64 105 134 199 229 291 347 432
#
# _framework density 25.294602999999999
#
# number of rings (size 3 to 8) (size 9 to 14) (size 15 to 20)
#    0.000    1.231    0.000    6.462    4.308    2.462 
#    0.000   18.462    0.000    0.000    0.000    0.000 
#    0.000    0.000    0.000    0.000    0.000    0.000 
#
# Total GULP energy -144744.585750 kJ/mol
# GULP energy per Si atom -5567.099452 kJ/mol
# Density = 2.523703 g / cm^3
# Si number density = 25.294603 Si / 1000 Ang^3
#
#
#
# Elastic Constant Matrix: (Units=GPa)
#
#
# Indices 1 2 3 4 5 6 
#
# 1 69.8748 21.5798 14.2613 0.0000 -31.2758 0.0000
# 2 21.5798 192.2004 38.1606 0.0000 -15.9056 0.0000
# 3 14.2613 38.1606 100.5393 0.0000 -14.5138 0.0000
# 4 0.0000 0.0000 0.0000 17.1158 0.0000 -3.5154
# 5 -31.2758 -15.9056 -14.5138 0.0000 38.6630 0.0000
# 6 0.0000 0.0000 0.0000 -3.5154 0.0000 48.9159
#
#
#
# Elastic Compliance Matrix: (Units=1/GPa)
#
#
# Indices 1 2 3 4 5 6 
#
# 1 0.022648 -0.001019 -0.000256 0.000000 0.017806 0.000000
# 2 -0.001019 0.005768 -0.001926 0.000000 0.000826 0.000000
# 3 -0.000256 -0.001926 0.011175 0.000000 0.003196 0.000000
# 4 0.000000 0.000000 0.000000 0.059301 0.000000 0.004262
# 5 0.017806 0.000826 0.003196 0.000000 0.041808 0.000000
# 6 0.000000 0.000000 0.000000 0.004262 0.000000 0.020750
#
#
# Mechanical properties :
#
#
# Convention : Reuss Voigt Hill
#
# Bulk Modulus (GPa) = 30.12842 56.73531 43.43187
# Shear Modulus (GPa) = 27.94674 40.17980 34.06327
#
# Velocity S-wave (km/s) = 3.32753 3.98989 3.67367
# Velocity P-wave (km/s) = 5.16722 6.61091 5.93314
#
# Compressibility (1/GPa) = 0.03319125
#
# Stress axis : x y z
#
# Youngs Moduli (GPa) = 44.15448 173.37220 89.48664
#
# Poissons Ratio (x) = 0.17660 0.02287
# Poissons Ratio (y) = 0.04498 0.17231
# Poissons Ratio (z) = 0.01128 0.33383
#
# Static dielectric constant tensor:
#      x y z
#    x 2.219290 0.000000 0.178990 
#    y 0.000000 2.131430 0.000000 
#    z 0.178990 0.000000 2.079030 
# 
# From -- ./inp_files/52153.got.cif
#   From: 2010.05.17/outbox.cif.g08.bks.cpg/sg14_27_cif.got.tgz:52153.got - 2010.06.03 17:49:19.
