data_PCOD9246824
_publ_section_title
;
Structure prediction by ZEFSAII (Michael W. Deem and Ramdas Pophale) SiO2 
 PCOD9246824
Probable space group: P 21/C
;
_chemical_formula_sum "Si O2"
_cell_formula_units_Z 26
_cell_length_a 16.801409
_cell_length_b 4.987403
_cell_length_c 22.285884
_cell_angle_alpha 90.000000
_cell_angle_beta 145.940552
_cell_angle_gamma 90.000000
_cell_volume 1045.873093
_symmetry_space_group_name_H-M "P 21/C"
_symmetry_group_IT_number 14
_symmetry_cell_setting 'monoclinic'
loop_
_space_group_symop_operation_xyz
x,y,z
-x,1/2+y,1/2-z
-x,-y,-z
x,1/2-y,1/2+z
loop_
_atom_site_type_symbol
_atom_site_label
_atom_site_fract_x
_atom_site_fract_y
_atom_site_fract_z
Si Si1 0.946104 0.339017 0.181630
Si Si2 0.677271 0.283354 0.077294
Si Si3 0.399425 0.112311 0.873379
Si Si4 0.139791 0.088585 0.206820
Si Si5 0.314225 0.208409 0.158935
Si Si6 0.471977 0.790304 0.807555
Si Si7 0.000000 0.000000 0.000000
O O1 0.779061 0.293605 0.083768
O O2 0.986760 0.640127 0.225660
O O3 0.014477 0.246276 0.162409
O O4 0.766793 0.438552 0.184238
O O5 0.651444 0.998802 0.093869
O O6 0.517337 0.340018 0.957084
O O7 0.253505 0.202221 0.752553
O O8 0.467740 0.891103 0.872927
O O9 0.079925 0.927633 0.113856
O O10 0.375905 0.171893 0.129648
O O11 0.414136 0.006955 0.260151
O O12 0.359965 0.511209 0.203954
O O13 0.151623 0.129440 0.067928
#
# Coordination Sequence:
#
# PCOD9246824 Si02
#       7
#     4   4   4   4   4   4   2
#     4  10  21  42  66  95 137 171 216 275 334 395
#     4  10  23  40  66  95 127 173 219 276 328 396
#     4  11  21  40  68  93 127 173 219 276 330 391
#     4  11  23  42  64  97 136 172 225 270 335 398
#     4  10  23  43  65  99 131 184 217 281 320 410
#     4  10  22  44  67  93 140 170 233 266 337 392
#     4  12  24  42  70  98 140 180 226 276 342 392
#
# _framework density 24.859613
#
# number of rings (size 3 to 8) (size 9 to 14) (size 15 to 20)
#    0.000    1.538    3.077    1.385    2.154    0.615 
#    2.769    0.000    3.385    0.000    0.000    0.000 
#    0.000    0.000    0.000    0.000    0.000    0.000 
#
# Total GULP energy -144763.307710 kJ/mol
# GULP energy per Si atom -5567.819527 kJ/mol
# Density = 2.480303 g / cm^3
# Si number density = 24.859613 Si / 1000 Ang^3
#
#
#
# Elastic Constant Matrix: (Units=GPa)
#
#
# Indices 1 2 3 4 5 6 
#
# 1 126.2527 12.9627 36.9331 0.0000 26.8516 0.0000
# 2 12.9627 52.9203 8.1164 0.0000 -8.3223 0.0000
# 3 36.9331 8.1164 94.6334 0.0000 2.4420 0.0000
# 4 0.0000 0.0000 0.0000 4.3567 0.0000 -5.6821
# 5 26.8516 -8.3223 2.4420 0.0000 41.6319 0.0000
# 6 0.0000 0.0000 0.0000 -5.6821 0.0000 28.3707
#
#
#
# Elastic Compliance Matrix: (Units=1/GPa)
#
#
# Indices 1 2 3 4 5 6 
#
# 1 0.010967 -0.003283 -0.003805 0.000000 -0.007507 0.000000
# 2 -0.003283 0.020796 -0.000665 0.000000 0.006314 0.000000
# 3 -0.003805 -0.000665 0.012067 0.000000 0.001613 0.000000
# 4 0.000000 0.000000 0.000000 0.310686 0.000000 0.062224
# 5 -0.007507 0.006314 0.001613 0.000000 0.030029 0.000000
# 6 0.000000 0.000000 0.000000 0.062224 0.000000 0.047710
#
#
# Mechanical properties :
#
#
# Convention : Reuss Voigt Hill
#
# Bulk Modulus (GPa) = 35.30638 43.31454 39.31046
# Shear Modulus (GPa) = 10.93604 29.25815 20.09710
#
# Velocity S-wave (km/s) = 2.09968 3.43437 2.84636
# Velocity P-wave (km/s) = 4.48457 5.76090 5.16233
#
# Compressibility (1/GPa) = 0.02832349
#
# Stress axis : x y z
#
# Youngs Moduli (GPa) = 91.17935 48.08733 82.86728
#
# Poissons Ratio (x) = 0.15789 0.31531
# Poissons Ratio (y) = 0.29938 0.05511
# Poissons Ratio (z) = 0.34694 0.03198
#
# Static dielectric constant tensor:
#      x y z
#    x 2.038930 0.000000 -0.009010 
#    y 0.000000 2.031500 0.000000 
#    z -0.009010 0.000000 1.919290 
# 
# From -- ./inp_files/70630.got.cif
#   From: 2010.05.17/outbox.cif.g08.bks.cpg/sg14_36_cif.got.tgz:70630.got - 2010.06.03 17:49:19.
