data_PCOD9246318
_publ_section_title
;
Structure prediction by ZEFSAII (Michael W. Deem and Ramdas Pophale) SiO2 
 PCOD9246318
Probable space group: P 21/C
;
_chemical_formula_sum "Si O2"
_cell_formula_units_Z 24
_cell_length_a 5.217144
_cell_length_b 17.359255
_cell_length_c 10.594527
_cell_angle_alpha 90.000000
_cell_angle_beta 97.755593
_cell_angle_gamma 90.000000
_cell_volume 950.724288
_symmetry_space_group_name_H-M "P 21/C"
_symmetry_group_IT_number 14
_symmetry_cell_setting 'monoclinic'
loop_
_space_group_symop_operation_xyz
x,y,z
-x,1/2+y,1/2-z
-x,-y,-z
x,1/2-y,1/2+z
loop_
_atom_site_type_symbol
_atom_site_label
_atom_site_fract_x
_atom_site_fract_y
_atom_site_fract_z
Si Si1 0.639819 0.475453 0.357539
Si Si2 0.175343 0.091611 0.969395
Si Si3 0.287153 0.466547 0.116908
Si Si4 0.829282 0.745370 0.133888
Si Si5 0.526140 0.118802 0.424003
Si Si6 0.061897 0.822825 0.388230
O O1 0.755214 0.561062 0.386340
O O2 0.357120 0.467738 0.404280
O O3 0.550498 0.455122 0.212916
O O4 0.871613 0.420863 0.422446
O O5 0.270562 0.173444 0.927977
O O6 0.263610 0.559786 0.120593
O O7 0.077701 0.404846 0.150545
O O8 0.325425 0.440140 0.975215
O O9 0.611715 0.685017 0.163519
O O10 0.006401 0.767909 0.265584
O O11 0.955226 0.709548 0.015584
O O12 0.644470 0.164168 0.551772
#
# Coordination Sequence:
#
# PCOD9246318 Si02
#       6
#     4   4   4   4   4   4
#     4  10  21  40  67  98 133 184 234 288 351 426
#     4  10  22  40  65  99 137 184 230 290 357 419
#     4  10  21  42  67  93 131 180 242 290 353 428
#     4  11  25  42  65 101 139 180 231 293 365 423
#     4  10  24  42  67  96 133 183 236 291 360 435
#     4  11  24  44  66  98 137 186 230 300 359 434
#
# _framework density 25.24391
#
# number of rings (size 3 to 8) (size 9 to 14) (size 15 to 20)
#    0.000    1.667    1.667    1.500    4.667    2.667 
#    0.000    0.000    0.000    0.000    0.000    0.000 
#    0.000    0.000    0.000    0.000    0.000    0.000 
#
# Total GULP energy -133712.558890 kJ/mol
# GULP energy per Si atom -5571.356620 kJ/mol
# Density = 2.518645 g / cm^3
# Si number density = 25.243910 Si / 1000 Ang^3
#
#
#
# Elastic Constant Matrix: (Units=GPa)
#
#
# Indices 1 2 3 4 5 6 
#
# 1 83.7125 17.6622 23.2588 0.0000 12.3376 0.0000
# 2 17.6622 115.4635 21.1715 0.0000 7.9169 0.0000
# 3 23.2588 21.1715 54.6952 0.0000 1.2806 0.0000
# 4 0.0000 0.0000 0.0000 49.4972 0.0000 -2.4314
# 5 12.3376 7.9169 1.2806 0.0000 29.3996 0.0000
# 6 0.0000 0.0000 0.0000 -2.4314 0.0000 15.4682
#
#
#
# Elastic Compliance Matrix: (Units=1/GPa)
#
#
# Indices 1 2 3 4 5 6 
#
# 1 0.014539 -0.000783 -0.005747 0.000000 -0.005640 0.000000
# 2 -0.000783 0.009530 -0.003307 0.000000 -0.002094 0.000000
# 3 -0.005747 -0.003307 0.021952 0.000000 0.002346 0.000000
# 4 0.000000 0.000000 0.000000 0.020360 0.000000 0.003200
# 5 -0.005640 -0.002094 0.002346 0.000000 0.036843 0.000000
# 6 0.000000 0.000000 0.000000 0.003200 0.000000 0.065152
#
#
# Mechanical properties :
#
#
# Convention : Reuss Voigt Hill
#
# Bulk Modulus (GPa) = 37.95582 42.00626 39.98104
# Shear Modulus (GPa) = 25.40212 31.65823 28.53017
#
# Velocity S-wave (km/s) = 3.17561 3.54516 3.36546
# Velocity P-wave (km/s) = 5.33988 5.78220 5.56543
#
# Compressibility (1/GPa) = 0.02634642
#
# Stress axis : x y z
#
# Youngs Moduli (GPa) = 68.78042 104.92634 45.55336
#
# Poissons Ratio (x) = 0.08221 0.26181
# Poissons Ratio (y) = 0.05389 0.15064
# Poissons Ratio (z) = 0.39530 0.34698
#
# Static dielectric constant tensor:
#      x y z
#    x 2.067160 0.000000 -0.101530 
#    y 0.000000 2.075480 0.000000 
#    z -0.101530 0.000000 2.182560 
# 
# From -- ./inp_files/21307.got.cif
#   From: 2010.05.17/outbox.cif.g08.bks.cpg/sg14_11_cif.got.tgz:21307.got - 2010.06.03 17:49:19.
