data_PCOD9246343
_publ_section_title
;
Structure prediction by ZEFSAII (Michael W. Deem and Ramdas Pophale) SiO2 
 PCOD9246343
Probable space group: P 21/C
;
_chemical_formula_sum "Si O2"
_cell_formula_units_Z 32
_cell_length_a 11.928543
_cell_length_b 10.276523
_cell_length_c 10.049782
_cell_angle_alpha 90.000000
_cell_angle_beta 104.360868
_cell_angle_gamma 90.000000
_cell_volume 1193.447186
_symmetry_space_group_name_H-M "P 21/C"
_symmetry_group_IT_number 14
_symmetry_cell_setting 'monoclinic'
loop_
_space_group_symop_operation_xyz
x,y,z
-x,1/2+y,1/2-z
-x,-y,-z
x,1/2-y,1/2+z
loop_
_atom_site_type_symbol
_atom_site_label
_atom_site_fract_x
_atom_site_fract_y
_atom_site_fract_z
Si Si1 0.102428 0.778920 0.846879
Si Si2 0.790150 0.723954 0.120474
Si Si3 0.253065 0.822165 0.627112
Si Si4 0.938050 0.505814 0.235321
Si Si5 0.676076 0.001117 0.702813
Si Si6 0.527904 0.222249 0.657926
Si Si7 0.637050 0.922131 0.978327
Si Si8 0.695413 0.586931 0.780478
O O1 0.897609 0.870970 0.628744
O O2 0.168101 0.803173 0.727703
O O3 0.035834 0.637588 0.814780
O O4 0.030419 0.913225 0.848992
O O5 0.679920 0.631117 0.121391
O O6 0.790122 0.811052 0.254379
O O7 0.749627 0.826008 0.999177
O O8 0.381205 0.779738 0.708636
O O9 0.257233 0.977778 0.607837
O O10 0.196696 0.745997 0.488923
O O11 0.812904 0.477356 0.263964
O O12 0.625573 0.992760 0.835800
O O13 0.604192 0.111875 0.609300
O O14 0.475530 0.331345 0.547254
O O15 0.416509 0.158353 0.695614
O O16 0.340089 0.018344 0.870750
#
# Coordination Sequence:
#
# PCOD9246343 Si02
#       8
#     4   4   4   4   4   4   4   4
#     4  12  30  53  81 113 151 201 256 337 379 459
#     4   8  21  42  64 106 140 196 252 303 380 453
#     4  12  30  49  76 117 155 193 264 316 379 458
#     4  10  25  51  75 111 143 200 256 321 402 435
#     4  10  21  41  64 102 142 192 247 309 366 457
#     4  12  23  42  66 107 154 199 245 305 377 455
#     4  10  21  40  69 101 152 205 242 297 378 449
#     4  10  25  40  71 111 147 210 242 312 367 472
#
# _framework density 26.813085000000001
#
# number of rings (size 3 to 8) (size 9 to 14) (size 15 to 20)
#    1.500    0.000    2.500    0.750    7.000    3.500 
#    0.000    0.000    0.000    0.000    0.000    0.000 
#    0.000    0.000    0.000    0.000    0.000    0.000 
#
# Total GULP energy -178598.994332 kJ/mol
# GULP energy per Si atom -5581.218573 kJ/mol
# Density = 2.675206 g / cm^3
# Si number density = 26.813085 Si / 1000 Ang^3
#
#
#
# Elastic Constant Matrix: (Units=GPa)
#
#
# Indices 1 2 3 4 5 6 
#
# 1 106.0132 24.2766 29.9549 0.0000 14.2099 0.0000
# 2 24.2766 102.5074 10.3501 0.0000 15.4754 0.0000
# 3 29.9549 10.3501 75.0249 0.0000 5.3764 0.0000
# 4 0.0000 0.0000 0.0000 52.2661 0.0000 20.9973
# 5 14.2099 15.4754 5.3764 0.0000 32.0636 0.0000
# 6 0.0000 0.0000 0.0000 20.9973 0.0000 47.1477
#
#
#
# Elastic Compliance Matrix: (Units=1/GPa)
#
#
# Indices 1 2 3 4 5 6 
#
# 1 0.011466 -0.001768 -0.004080 0.000000 -0.003544 0.000000
# 2 -0.001768 0.010885 -0.000481 0.000000 -0.004389 0.000000
# 3 -0.004080 -0.000481 0.015059 0.000000 -0.000485 0.000000
# 4 0.000000 0.000000 0.000000 0.023302 0.000000 -0.010378
# 5 -0.003544 -0.004389 -0.000485 0.000000 0.034958 0.000000
# 6 0.000000 0.000000 0.000000 -0.010378 0.000000 0.025832
#
#
# Mechanical properties :
#
#
# Convention : Reuss Voigt Hill
#
# Bulk Modulus (GPa) = 40.40217 45.85655 43.12936
# Shear Modulus (GPa) = 35.10966 40.89308 38.00137
#
# Velocity S-wave (km/s) = 3.62252 3.90951 3.76875
# Velocity P-wave (km/s) = 5.70944 6.12523 5.92098
#
# Compressibility (1/GPa) = 0.02475114
#
# Stress axis : x y z
#
# Youngs Moduli (GPa) = 87.21786 91.86570 66.40558
#
# Poissons Ratio (x) = 0.16246 0.27093
# Poissons Ratio (y) = 0.15424 0.03195
# Poissons Ratio (z) = 0.35584 0.04419
#
# Static dielectric constant tensor:
#      x y z
#    x 2.067770 0.000000 0.048960 
#    y 0.000000 2.239860 0.000000 
#    z 0.048960 0.000000 2.046830 
# 
# From -- ./inp_files/44407.got.cif
#   From: 2010.05.17/outbox.cif.g08.bks.cpg/sg14_23_cif.got.tgz:44407.got - 2010.06.03 17:49:19.
