data_PCOD9246398
_publ_section_title
;
Structure prediction by ZEFSAII (Michael W. Deem and Ramdas Pophale) SiO2 
 PCOD9246398
Probable space group: P 21/C
;
_chemical_formula_sum "Si O2"
_cell_formula_units_Z 28
_cell_length_a 9.607910
_cell_length_b 17.098652
_cell_length_c 13.316992
_cell_angle_alpha 90.000000
_cell_angle_beta 44.172085
_cell_angle_gamma 90.000000
_cell_volume 1524.455978
_symmetry_space_group_name_H-M "P 21/C"
_symmetry_group_IT_number 14
_symmetry_cell_setting 'monoclinic'
loop_
_space_group_symop_operation_xyz
x,y,z
-x,1/2+y,1/2-z
-x,-y,-z
x,1/2-y,1/2+z
loop_
_atom_site_type_symbol
_atom_site_label
_atom_site_fract_x
_atom_site_fract_y
_atom_site_fract_z
Si Si1 0.288505 0.039613 0.135210
Si Si2 0.971474 0.106229 0.739504
Si Si3 0.714534 0.243106 0.400199
Si Si4 0.912566 0.419182 0.503295
Si Si5 0.665427 0.805322 0.530446
Si Si6 0.056016 0.344429 0.627815
Si Si7 0.506950 0.151680 0.168436
O O1 0.179462 0.080003 0.097853
O O2 0.345764 0.109368 0.180998
O O3 0.136888 0.971108 0.245815
O O4 0.500000 0.000000 0.000000
O O5 0.185366 0.126379 0.582640
O O6 0.819511 0.178952 0.799590
O O7 0.994799 0.099035 0.848943
O O8 0.529313 0.207574 0.436167
O O9 0.624355 0.278248 0.550141
O O10 0.889128 0.178597 0.297618
O O11 0.674614 0.412675 0.610563
O O12 0.000000 0.500000 0.500000
O O13 0.962740 0.357763 0.566039
O O14 0.792194 0.726707 0.455704
O O15 0.596668 0.818220 0.678836
#
# Coordination Sequence:
#
# PCOD9246398 Si02
#       7
#     4   4   4   4   4   4   4
#     4  12  20  41  66  90 123 170 208 253 315 379
#     4  10  23  38  64  90 128 162 212 255 310 380
#     4  10  21  41  59  92 123 163 207 254 312 367
#     4  11  20  38  62  91 117 165 207 249 307 375
#     4  11  23  40  60  93 128 158 204 268 308 368
#     4  11  22  37  66  91 124 160 213 255 310 365
#     4  11  23  38  66  86 125 163 208 254 314 373
#
# _framework density 18.367208000000002
#
# number of rings (size 3 to 8) (size 9 to 14) (size 15 to 20)
#    0.000    1.143    7.143    0.000    2.000    1.714 
#    0.000    2.857    3.143    0.000    0.000    0.000 
#    0.000    0.000    0.000    0.000    0.000    0.000 
#
# Total GULP energy -156070.824675 kJ/mol
# GULP energy per Si atom -5573.958024 kJ/mol
# Density = 1.832540 g / cm^3
# Si number density = 18.367208 Si / 1000 Ang^3
#
#
#
# Elastic Constant Matrix: (Units=GPa)
#
#
# Indices 1 2 3 4 5 6 
#
# 1 86.0826 19.9086 43.7675 0.0000 -17.0830 0.0000
# 2 19.9086 57.5902 38.9688 0.0000 -6.1663 0.0000
# 3 43.7675 38.9688 139.7450 0.0000 0.3425 0.0000
# 4 0.0000 0.0000 0.0000 22.0627 0.0000 -10.8416
# 5 -17.0830 -6.1663 0.3425 0.0000 18.5433 0.0000
# 6 0.0000 0.0000 0.0000 -10.8416 0.0000 40.2947
#
#
#
# Elastic Compliance Matrix: (Units=1/GPa)
#
#
# Indices 1 2 3 4 5 6 
#
# 1 0.017744 -0.000755 -0.005386 0.000000 0.016195 0.000000
# 2 -0.000755 0.022449 -0.006040 0.000000 0.006881 0.000000
# 3 -0.005386 -0.006040 0.010545 0.000000 -0.007166 0.000000
# 4 0.000000 0.000000 0.000000 0.052231 0.000000 0.014053
# 5 0.016195 0.006881 -0.007166 0.000000 0.071268 0.000000
# 6 0.000000 0.000000 0.000000 0.014053 0.000000 0.028598
#
#
# Mechanical properties :
#
#
# Convention : Reuss Voigt Hill
#
# Bulk Modulus (GPa) = 37.91631 54.30084 46.10858
# Shear Modulus (GPa) = 21.18725 28.23166 24.70946
#
# Velocity S-wave (km/s) = 3.40006 3.92480 3.67182
# Velocity P-wave (km/s) = 6.00851 7.08286 6.56769
#
# Compressibility (1/GPa) = 0.02637387
#
# Stress axis : x y z
#
# Youngs Moduli (GPa) = 56.35725 44.54506 94.83289
#
# Poissons Ratio (x) = 0.03364 0.51081
# Poissons Ratio (y) = 0.04256 0.57283
# Poissons Ratio (z) = 0.30356 0.26907
#
# Static dielectric constant tensor:
#      x y z
#    x 1.712660 0.000000 -0.015750 
#    y 0.000000 1.671760 0.000000 
#    z -0.015750 0.000000 1.627960 
# 
# From -- ./inp_files/41771.got.cif
#   From: 2010.05.17/outbox.cif.g08.bks.cpg/sg14_21_cif.got.tgz:41771.got - 2010.06.03 17:49:19.
