data_PCOD9246556
_publ_section_title
;
Structure prediction by ZEFSAII (Michael W. Deem and Ramdas Pophale) SiO2 
 PCOD9246556
Probable space group: P 21/C
;
_chemical_formula_sum "Si O2"
_cell_formula_units_Z 32
_cell_length_a 8.422631
_cell_length_b 14.126787
_cell_length_c 19.890098
_cell_angle_alpha 90.000000
_cell_angle_beta 38.731661
_cell_angle_gamma 90.000000
_cell_volume 1480.730684
_symmetry_space_group_name_H-M "P 21/C"
_symmetry_group_IT_number 14
_symmetry_cell_setting 'monoclinic'
loop_
_space_group_symop_operation_xyz
x,y,z
-x,1/2+y,1/2-z
-x,-y,-z
x,1/2-y,1/2+z
loop_
_atom_site_type_symbol
_atom_site_label
_atom_site_fract_x
_atom_site_fract_y
_atom_site_fract_z
Si Si1 0.563479 0.899062 0.047533
Si Si2 0.178563 0.589815 0.557977
Si Si3 0.248644 0.435500 0.079846
Si Si4 0.906156 0.768375 0.470337
Si Si5 0.619536 0.328666 0.648035
Si Si6 0.813924 0.085665 0.568759
Si Si7 0.691253 0.646849 0.800048
Si Si8 0.282702 0.994508 0.263297
O O1 0.394103 0.872373 0.038808
O O2 0.393804 0.953494 0.157956
O O3 0.693019 0.810276 0.039967
O O4 0.774258 0.976662 0.956907
O O5 0.229601 0.628676 0.466473
O O6 0.904812 0.616561 0.676834
O O7 0.201632 0.369135 0.160993
O O8 0.209368 0.356407 0.034255
O O9 0.015246 0.509311 0.150331
O O10 0.500000 0.500000 0.000000
O O11 0.172020 0.711139 0.367857
O O12 0.015012 0.822042 0.500202
O O13 0.432909 0.246396 0.681471
O O14 0.443759 0.414440 0.731347
O O15 0.557442 0.080457 0.613601
O O16 0.710046 0.082673 0.679780
O O17 0.000000 0.000000 0.500000
#
# Coordination Sequence:
#
# PCOD9246556 Si02
#       8
#     4   4   4   4   4   4   4   4
#     4  10  21  41  65  96 131 168 224 275 335 395
#     4  10  22  39  65  96 135 170 215 282 332 398
#     4  11  23  45  67  92 133 174 229 275 333 400
#     4  10  23  41  65  94 126 173 219 279 319 406
#     4  10  24  40  64  98 136 171 221 278 334 398
#     4  10  23  43  60  93 132 169 223 268 334 401
#     4  11  22  40  64  95 125 177 218 267 335 389
#     4  10  22  42  64  96 132 176 218 277 340 396
#
# _framework density 21.610954
#
# number of rings (size 3 to 8) (size 9 to 14) (size 15 to 20)
#    0.000    1.750    1.250    2.250    3.500    5.000 
#    4.500    1.250    0.000    0.000    0.000    0.000 
#    0.000    0.000    0.000    0.000    0.000    0.000 
#
# Total GULP energy -178215.247964 kJ/mol
# GULP energy per Si atom -5569.226499 kJ/mol
# Density = 2.156177 g / cm^3
# Si number density = 21.610954 Si / 1000 Ang^3
#
#
#
# Elastic Constant Matrix: (Units=GPa)
#
#
# Indices 1 2 3 4 5 6 
#
# 1 54.7571 17.4653 18.0708 0.0000 -10.3844 0.0000
# 2 17.4653 88.2792 51.4311 0.0000 -31.0971 0.0000
# 3 18.0708 51.4311 93.3681 0.0000 -23.1987 0.0000
# 4 0.0000 0.0000 0.0000 29.6881 0.0000 -14.0113
# 5 -10.3844 -31.0971 -23.1987 0.0000 36.0504 0.0000
# 6 0.0000 0.0000 0.0000 -14.0113 0.0000 35.1342
#
#
#
# Elastic Compliance Matrix: (Units=1/GPa)
#
#
# Indices 1 2 3 4 5 6 
#
# 1 0.020083 -0.001622 -0.002266 0.000000 0.002928 0.000000
# 2 -0.001622 0.020594 -0.008014 0.000000 0.012140 0.000000
# 3 -0.002266 -0.008014 0.016288 0.000000 0.002916 0.000000
# 4 0.000000 0.000000 0.000000 0.041493 0.000000 0.016547
# 5 0.002928 0.012140 0.002916 0.000000 0.040931 0.000000
# 6 0.000000 0.000000 0.000000 0.016547 0.000000 0.035061
#
#
# Mechanical properties :
#
#
# Convention : Reuss Voigt Hill
#
# Bulk Modulus (GPa) = 30.15564 45.59322 37.87443
# Shear Modulus (GPa) = 23.88850 30.13703 27.01277
#
# Velocity S-wave (km/s) = 3.32835 3.73839 3.53931
# Velocity P-wave (km/s) = 5.36234 6.30691 5.85371
#
# Compressibility (1/GPa) = 0.03316130
#
# Stress axis : x y z
#
# Youngs Moduli (GPa) = 49.79375 48.55851 61.39623
#
# Poissons Ratio (x) = 0.07874 0.13914
# Poissons Ratio (y) = 0.08075 0.49201
# Poissons Ratio (z) = 0.11284 0.38913
#
# Static dielectric constant tensor:
#      x y z
#    x 1.654890 0.000000 0.022350 
#    y 0.000000 1.839970 0.000000 
#    z 0.022350 0.000000 1.788170 
# 
# From -- ./inp_files/72448.got.cif
#   From: 2010.05.17/outbox.cif.g08.bks.cpg/sg14_37_cif.got.tgz:72448.got - 2010.06.03 17:49:19.
