data_PCOD9246726
_publ_section_title
;
Structure prediction by ZEFSAII (Michael W. Deem and Ramdas Pophale) SiO2 
 PCOD9246726
Probable space group: P 21/C
;
_chemical_formula_sum "Si O2"
_cell_formula_units_Z 30
_cell_length_a 6.483444
_cell_length_b 16.208062
_cell_length_c 19.095384
_cell_angle_alpha 90.000000
_cell_angle_beta 131.003787
_cell_angle_gamma 90.000000
_cell_volume 1514.328716
_symmetry_space_group_name_H-M "P 21/C"
_symmetry_group_IT_number 14
_symmetry_cell_setting 'monoclinic'
loop_
_space_group_symop_operation_xyz
x,y,z
-x,1/2+y,1/2-z
-x,-y,-z
x,1/2-y,1/2+z
loop_
_atom_site_type_symbol
_atom_site_label
_atom_site_fract_x
_atom_site_fract_y
_atom_site_fract_z
Si Si1 0.253177 0.742743 0.844055
Si Si2 0.708181 0.893902 0.416490
Si Si3 0.500000 0.000000 0.500000
Si Si4 0.309156 0.193908 0.845807
Si Si5 0.270476 0.824043 0.501845
Si Si6 0.520058 0.555955 0.726688
Si Si7 0.440046 0.570923 0.383394
Si Si8 0.870544 0.946081 0.088615
O O1 0.469263 0.674793 0.865935
O O2 0.191198 0.720897 0.911178
O O3 0.377012 0.833353 0.865112
O O4 0.976261 0.735044 0.738649
O O5 0.654988 0.956789 0.467083
O O6 0.677613 0.939248 0.334834
O O7 0.998984 0.848892 0.483140
O O8 0.426265 0.907215 0.514543
O O9 0.398857 0.134410 0.802423
O O10 0.256477 0.132948 0.899606
O O11 0.534109 0.261761 0.913375
O O12 0.594074 0.475818 0.697465
O O13 0.194944 0.556833 0.664848
O O14 0.239557 0.525985 0.394281
O O15 0.741496 0.554941 0.482531
#
# Coordination Sequence:
#
# PCOD9246726 Si02
#       8
#     4   4   2   4   4   4   4   4
#     4  11  23  43  66  96 134 178 222 282 336 402
#     4  11  24  45  69  97 135 178 228 281 337 406
#     4  10  26  46  68  92 134 180 222 280 340 396
#     4  11  23  41  68  98 132 176 225 277 341 402
#     4  11  24  44  69  98 134 177 228 281 336 410
#     4  11  23  40  68  97 136 173 225 281 340 398
#     4  10  23  39  66  97 133 176 223 269 341 407
#     4  10  21  42  61  97 136 173 213 282 335 398
#
# _framework density 19.810758
#
# number of rings (size 3 to 8) (size 9 to 14) (size 15 to 20)
#    0.000    1.333    4.000    0.800    1.867    3.200 
#    2.400    0.000    0.000    0.000    0.000    0.000 
#    0.000    0.000    0.000    0.000    0.000    0.000 
#
# Total GULP energy -167205.285109 kJ/mol
# GULP energy per Si atom -5573.509504 kJ/mol
# Density = 1.976567 g / cm^3
# Si number density = 19.810758 Si / 1000 Ang^3
#
#
#
# Elastic Constant Matrix: (Units=GPa)
#
#
# Indices 1 2 3 4 5 6 
#
# 1 47.0606 18.0413 19.2183 0.0000 -16.5885 0.0000
# 2 18.0413 104.8677 33.6033 0.0000 -17.7833 0.0000
# 3 19.2183 33.6033 47.5658 0.0000 -12.3245 0.0000
# 4 0.0000 0.0000 0.0000 15.5013 0.0000 9.5185
# 5 -16.5885 -17.7833 -12.3245 0.0000 27.7250 0.0000
# 6 0.0000 0.0000 0.0000 9.5185 0.0000 15.3368
#
#
#
# Elastic Compliance Matrix: (Units=1/GPa)
#
#
# Indices 1 2 3 4 5 6 
#
# 1 0.029584 -0.000064 -0.008286 0.000000 0.013976 0.000000
# 2 -0.000064 0.012859 -0.007833 0.000000 0.004727 0.000000
# 3 -0.008286 -0.007833 0.030875 0.000000 0.003742 0.000000
# 4 0.000000 0.000000 0.000000 0.104233 0.000000 -0.064690
# 5 0.013976 0.004727 0.003742 0.000000 0.049126 0.000000
# 6 0.000000 0.000000 0.000000 -0.064690 0.000000 0.105351
#
#
# Mechanical properties :
#
#
# Convention : Reuss Voigt Hill
#
# Bulk Modulus (GPa) = 24.42007 37.91335 31.16671
# Shear Modulus (GPa) = 13.22586 20.28803 16.75695
#
# Velocity S-wave (km/s) = 2.58662 3.20361 2.91151
# Velocity P-wave (km/s) = 4.61240 5.73267 5.20277
#
# Compressibility (1/GPa) = 0.04094992
#
# Stress axis : x y z
#
# Youngs Moduli (GPa) = 33.80169 77.76922 32.38853
#
# Poissons Ratio (x) = 0.00500 0.26839
# Poissons Ratio (y) = 0.00217 0.25371
# Poissons Ratio (z) = 0.28010 0.60919
#
# Static dielectric constant tensor:
#      x y z
#    x 1.695790 0.000000 0.002500 
#    y 0.000000 1.663310 0.000000 
#    z 0.002500 0.000000 1.702450 
# 
# From -- ./inp_files/53532.got.cif
#   From: 2010.05.17/outbox.cif.g08.bks.cpg/sg14_27_cif.got.tgz:53532.got - 2010.06.03 17:49:19.
