data_PCOD9246240
_publ_section_title
;
Structure prediction by ZEFSAII (Michael W. Deem and Ramdas Pophale) SiO2 
 PCOD9246240
Probable space group: P 21/C
;
_chemical_formula_sum "Si O2"
_cell_formula_units_Z 28
_cell_length_a 5.028917
_cell_length_b 8.828077
_cell_length_c 24.562415
_cell_angle_alpha 90.000000
_cell_angle_beta 96.459325
_cell_angle_gamma 90.000000
_cell_volume 1083.542481
_symmetry_space_group_name_H-M "P 21/C"
_symmetry_group_IT_number 14
_symmetry_cell_setting 'monoclinic'
loop_
_space_group_symop_operation_xyz
x,y,z
-x,1/2+y,1/2-z
-x,-y,-z
x,1/2-y,1/2+z
loop_
_atom_site_type_symbol
_atom_site_label
_atom_site_fract_x
_atom_site_fract_y
_atom_site_fract_z
Si Si1 0.472368 0.800164 0.652329
Si Si2 0.056471 0.641290 0.913868
Si Si3 0.486046 0.135314 0.041123
Si Si4 0.689765 0.851472 0.852269
Si Si5 0.004787 0.116505 0.812824
Si Si6 0.680716 0.619935 0.036874
Si Si7 0.665220 0.385516 0.196737
O O1 0.180681 0.731525 0.656687
O O2 0.543584 0.830068 0.590514
O O3 0.694878 0.678690 0.678976
O O4 0.504490 0.956672 0.687388
O O5 0.244083 0.764929 0.947415
O O6 0.061036 0.478572 0.941312
O O7 0.188037 0.622559 0.857546
O O8 0.773909 0.707545 0.891168
O O9 0.443729 0.062274 0.100145
O O10 0.277157 0.243997 0.003681
O O11 0.500000 0.000000 0.000000
O O12 0.507863 0.769855 0.803594
O O13 0.932470 0.950285 0.835174
O O14 0.878867 0.112503 0.749822
O O15 0.500000 0.500000 0.000000
#
# Coordination Sequence:
#
# PCOD9246240 Si02
#       7
#     4   4   4   4   4   4   4
#     4  11  27  48  69 111 139 189 245 297 347 444
#     4   9  22  41  64  98 133 180 241 288 348 435
#     4  10  21  40  65  97 139 179 233 294 365 416
#     4  11  25  43  69 102 139 184 237 297 355 434
#     4  12  28  44  74 104 149 181 238 302 364 414
#     4   9  20  45  68  95 140 186 239 291 355 428
#     4  10  25  45  71  95 142 189 237 285 362 431
#
# _framework density 25.841166000000001
#
# number of rings (size 3 to 8) (size 9 to 14) (size 15 to 20)
#    0.000    1.714    0.000    2.571   14.000    1.143 
#    5.143    0.000    0.000    0.000    0.000    0.000 
#    0.000    0.000    0.000    0.000    0.000    0.000 
#
# Total GULP energy -156643.333032 kJ/mol
# GULP energy per Si atom -5594.404751 kJ/mol
# Density = 2.578235 g / cm^3
# Si number density = 25.841166 Si / 1000 Ang^3
#
#
#
# Elastic Constant Matrix: (Units=GPa)
#
#
# Indices 1 2 3 4 5 6 
#
# 1 39.1216 -8.4339 22.8407 0.0000 -2.6948 0.0000
# 2 -8.4339 104.9541 58.2588 0.0000 4.7563 0.0000
# 3 22.8407 58.2588 121.4934 0.0000 14.0547 0.0000
# 4 0.0000 0.0000 0.0000 47.7407 0.0000 10.1652
# 5 -2.6948 4.7563 14.0547 0.0000 27.7381 0.0000
# 6 0.0000 0.0000 0.0000 10.1652 0.0000 39.4085
#
#
#
# Elastic Compliance Matrix: (Units=1/GPa)
#
#
# Indices 1 2 3 4 5 6 
#
# 1 0.034915 0.008990 -0.011780 0.000000 0.007819 0.000000
# 2 0.008990 0.015324 -0.009386 0.000000 0.003001 0.000000
# 3 -0.011780 -0.009386 0.015820 0.000000 -0.007551 0.000000
# 4 0.000000 0.000000 0.000000 0.022164 0.000000 -0.005717
# 5 0.007819 0.003001 -0.007551 0.000000 0.040122 0.000000
# 6 0.000000 0.000000 0.000000 -0.005717 0.000000 0.026850
#
#
# Mechanical properties :
#
#
# Convention : Reuss Voigt Hill
#
# Bulk Modulus (GPa) = 23.97565 45.65557 34.81561
# Shear Modulus (GPa) = 25.84664 35.83768 30.84216
#
# Velocity S-wave (km/s) = 3.16604 3.72808 3.45850
# Velocity P-wave (km/s) = 4.76060 6.01976 5.42683
#
# Compressibility (1/GPa) = 0.04170899
#
# Stress axis : x y z
#
# Youngs Moduli (GPa) = 28.64062 65.25602 63.21282
#
# Poissons Ratio (x) = -0.58666 0.74462
# Poissons Ratio (y) = -0.25748 0.59329
# Poissons Ratio (z) = 0.33737 0.61247
#
# Static dielectric constant tensor:
#      x y z
#    x 2.137710 0.000000 -0.060610 
#    y 0.000000 2.234670 0.000000 
#    z -0.060610 0.000000 2.124800 
# 
# From -- ./inp_files/75704.got.cif
#   From: 2010.05.17/outbox.cif.g08.bks.cpg/sg14_38_cif.got.tgz:75704.got - 2010.06.03 17:49:19.
