data_PCOD9246427
_publ_section_title
;
Structure prediction by ZEFSAII (Michael W. Deem and Ramdas Pophale) SiO2 
 PCOD9246427
Probable space group: P 21/C
;
_chemical_formula_sum "Si O2"
_cell_formula_units_Z 32
_cell_length_a 15.020867
_cell_length_b 10.925045
_cell_length_c 14.574222
_cell_angle_alpha 90.000000
_cell_angle_beta 139.721774
_cell_angle_gamma 90.000000
_cell_volume 1546.222812
_symmetry_space_group_name_H-M "P 21/C"
_symmetry_group_IT_number 14
_symmetry_cell_setting 'monoclinic'
loop_
_space_group_symop_operation_xyz
x,y,z
-x,1/2+y,1/2-z
-x,-y,-z
x,1/2-y,1/2+z
loop_
_atom_site_type_symbol
_atom_site_label
_atom_site_fract_x
_atom_site_fract_y
_atom_site_fract_z
Si Si1 0.087406 0.687015 0.382745
Si Si2 0.851929 0.294924 0.264139
Si Si3 0.310946 0.773595 0.693378
Si Si4 0.556327 0.560250 0.452565
Si Si5 0.595410 0.008572 0.783017
Si Si6 0.866059 0.907074 0.017278
Si Si7 0.374888 0.507430 0.975658
Si Si8 0.783989 0.748655 0.127519
O O1 0.108824 0.712804 0.292118
O O2 0.202364 0.767750 0.524987
O O3 0.102618 0.542836 0.417200
O O4 0.933793 0.729557 0.289488
O O5 0.782450 0.220110 0.289836
O O6 0.740211 0.395736 0.144857
O O7 0.990543 0.360351 0.410264
O O8 0.432978 0.866405 0.807047
O O9 0.385993 0.642647 0.743354
O O10 0.500000 0.500000 0.500000
O O11 0.604587 0.482296 0.401298
O O12 0.679641 0.648778 0.581729
O O13 0.454706 0.956158 0.631782
O O14 0.726894 0.930483 0.851054
O O15 0.819934 0.805389 0.055540
O O16 0.297378 0.379068 0.932574
O O17 0.500000 0.500000 0.000000
#
# Coordination Sequence:
#
# PCOD9246427 Si02
#       8
#     4   4   4   4   4   4   4   4
#     4  10  22  41  66  88 130 167 203 274 314 383
#     4  11  22  38  66  94 121 165 215 265 322 379
#     4  11  23  40  62  98 119 165 219 252 325 387
#     4  11  24  44  65  91 131 169 212 264 325 385
#     4  10  22  40  61  89 125 164 207 262 310 380
#     4   9  21  39  64  89 120 172 207 260 324 374
#     4  12  21  39  60  94 130 162 213 269 318 384
#     4  10  21  41  61  94 126 164 214 258 321 388
#
# _framework density 20.695594
#
# number of rings (size 3 to 8) (size 9 to 14) (size 15 to 20)
#    0.000    1.500    3.750    0.750    5.250    3.000 
#    2.250    3.125    0.000    0.000    0.000    0.000 
#    0.000    0.000    0.000    0.000    0.000    0.000 
#
# Total GULP energy -178446.268351 kJ/mol
# GULP energy per Si atom -5576.445886 kJ/mol
# Density = 2.064849 g / cm^3
# Si number density = 20.695594 Si / 1000 Ang^3
#
#
#
# Elastic Constant Matrix: (Units=GPa)
#
#
# Indices 1 2 3 4 5 6 
#
# 1 74.9020 9.6009 20.2886 0.0000 19.8269 0.0000
# 2 9.6009 35.0942 12.4498 0.0000 11.5511 0.0000
# 3 20.2886 12.4498 86.2566 0.0000 19.5538 0.0000
# 4 0.0000 0.0000 0.0000 27.7157 0.0000 8.1498
# 5 19.8269 11.5511 19.5538 0.0000 39.4854 0.0000
# 6 0.0000 0.0000 0.0000 8.1498 0.0000 26.3279
#
#
#
# Elastic Compliance Matrix: (Units=1/GPa)
#
#
# Indices 1 2 3 4 5 6 
#
# 1 0.015811 -0.001463 -0.002033 0.000000 -0.006504 0.000000
# 2 -0.001463 0.032265 -0.002636 0.000000 -0.007399 0.000000
# 3 -0.002033 -0.002636 0.013569 0.000000 -0.004928 0.000000
# 4 0.000000 0.000000 0.000000 0.039694 0.000000 -0.012287
# 5 -0.006504 -0.007399 -0.004928 0.000000 0.033196 0.000000
# 6 0.000000 0.000000 0.000000 -0.012287 0.000000 0.041786
#
#
# Mechanical properties :
#
#
# Convention : Reuss Voigt Hill
#
# Bulk Modulus (GPa) = 20.25073 31.21462 25.73267
# Shear Modulus (GPa) = 24.38482 28.96671 26.67576
#
# Velocity S-wave (km/s) = 3.43630 3.74526 3.59410
# Velocity P-wave (km/s) = 5.05475 5.81533 5.44833
#
# Compressibility (1/GPa) = 0.04938093
#
# Stress axis : x y z
#
# Youngs Moduli (GPa) = 63.24814 30.99300 73.69724
#
# Poissons Ratio (x) = 0.04535 0.14984
# Poissons Ratio (y) = 0.09255 0.19423
# Poissons Ratio (z) = 0.12860 0.08168
#
# Static dielectric constant tensor:
#      x y z
#    x 1.807870 0.000000 -0.001910 
#    y 0.000000 1.722840 0.000000 
#    z -0.001910 0.000000 1.787730 
# 
# From -- ./inp_files/47169.got.cif
#   From: 2010.05.17/outbox.cif.g08.bks.cpg/sg14_24_cif.got.tgz:47169.got - 2010.06.03 17:49:19.
