data_PCOD9246834
_publ_section_title
;
Structure prediction by ZEFSAII (Michael W. Deem and Ramdas Pophale) SiO2 
 PCOD9246834
Probable space group: P 21/C
;
_chemical_formula_sum "Si O2"
_cell_formula_units_Z 28
_cell_length_a 5.253441
_cell_length_b 13.117280
_cell_length_c 16.920623
_cell_angle_alpha 90.000000
_cell_angle_beta 81.383090
_cell_angle_gamma 90.000000
_cell_volume 1152.852890
_symmetry_space_group_name_H-M "P 21/C"
_symmetry_group_IT_number 14
_symmetry_cell_setting 'monoclinic'
loop_
_space_group_symop_operation_xyz
x,y,z
-x,1/2+y,1/2-z
-x,-y,-z
x,1/2-y,1/2+z
loop_
_atom_site_type_symbol
_atom_site_label
_atom_site_fract_x
_atom_site_fract_y
_atom_site_fract_z
Si Si1 0.071119 0.131088 0.405919
Si Si2 0.791820 0.634398 0.855279
Si Si3 0.722529 0.065078 0.564107
Si Si4 0.459292 0.672452 0.355198
Si Si5 0.780362 0.986064 0.906783
Si Si6 0.160576 0.562815 0.245360
Si Si7 0.056502 0.667657 0.507675
O O1 0.855640 0.082236 0.474027
O O2 0.980965 0.117917 0.320811
O O3 0.092105 0.243848 0.439291
O O4 0.302466 0.052970 0.408903
O O5 0.561545 0.609424 0.925865
O O6 0.704525 0.750727 0.839003
O O7 0.747243 0.548431 0.790156
O O8 0.072332 0.611169 0.879745
O O9 0.518947 0.559802 0.386458
O O10 0.352533 0.646194 0.274009
O O11 0.247770 0.708172 0.429942
O O12 0.973461 0.967388 0.825765
O O13 0.864547 0.909674 0.972956
O O14 0.785839 0.100083 0.937241
#
# Coordination Sequence:
#
# PCOD9246834 Si02
#       7
#     4   4   4   4   4   4   4
#     4  10  21  42  66  99 134 177 225 282 338 402
#     4  11  24  45  71 100 138 184 226 285 347 406
#     4  10  23  43  69 101 137 174 232 280 336 413
#     4  11  23  42  70  93 137 184 227 283 345 411
#     4  10  23  43  65  96 137 174 231 282 340 410
#     4  10  26  41  60 103 138 173 220 285 345 411
#     4  10  21  44  68  96 126 180 238 278 335 406
#
# _framework density 24.287572999999998
#
# number of rings (size 3 to 8) (size 9 to 14) (size 15 to 20)
#    0.000    1.714    1.429    1.286    6.000    7.429 
#    5.143    0.000    0.000    0.000    0.000    0.000 
#    0.000    0.000    0.000    0.000    0.000    0.000 
#
# Total GULP energy -156382.278891 kJ/mol
# GULP energy per Si atom -5585.081389 kJ/mol
# Density = 2.423229 g / cm^3
# Si number density = 24.287573 Si / 1000 Ang^3
#
#
#
# Elastic Constant Matrix: (Units=GPa)
#
#
# Indices 1 2 3 4 5 6 
#
# 1 43.9335 14.9602 14.3766 0.0000 11.9456 0.0000
# 2 14.9602 137.8893 47.8990 0.0000 9.2839 0.0000
# 3 14.3766 47.8990 103.7292 0.0000 25.9445 0.0000
# 4 0.0000 0.0000 0.0000 33.4425 0.0000 4.4717
# 5 11.9456 9.2839 25.9445 0.0000 30.4650 0.0000
# 6 0.0000 0.0000 0.0000 4.4717 0.0000 38.9735
#
#
#
# Elastic Compliance Matrix: (Units=1/GPa)
#
#
# Indices 1 2 3 4 5 6 
#
# 1 0.026116 -0.002095 -0.000319 0.000000 -0.009331 0.000000
# 2 -0.002095 0.008828 -0.004217 0.000000 0.001722 0.000000
# 3 -0.000319 -0.004217 0.014332 0.000000 -0.010795 0.000000
# 4 0.000000 0.000000 0.000000 0.030368 0.000000 -0.003484
# 5 -0.009331 0.001722 -0.010795 0.000000 0.045152 0.000000
# 6 0.000000 0.000000 0.000000 -0.003484 0.000000 0.026058
#
#
# Mechanical properties :
#
#
# Convention : Reuss Voigt Hill
#
# Bulk Modulus (GPa) = 27.76546 48.89151 38.32849
# Shear Modulus (GPa) = 28.38960 34.46396 31.42678
#
# Velocity S-wave (km/s) = 3.42262 3.77104 3.60105
# Velocity P-wave (km/s) = 5.20345 6.25580 5.75373
#
# Compressibility (1/GPa) = 0.03601597
#
# Stress axis : x y z
#
# Youngs Moduli (GPa) = 38.29044 113.27064 69.77328
#
# Poissons Ratio (x) = 0.23725 0.02223
# Poissons Ratio (y) = 0.08020 0.29425
# Poissons Ratio (z) = 0.01220 0.47768
#
# Static dielectric constant tensor:
#      x y z
#    x 2.010700 0.000000 -0.010660 
#    y 0.000000 2.041430 0.000000 
#    z -0.010660 0.000000 1.946940 
# 
# From -- ./inp_files/53163.got.cif
#   From: 2010.05.17/outbox.cif.g08.bks.cpg/sg14_27_cif.got.tgz:53163.got - 2010.06.03 17:49:19.
