data_PCOD9246849
_publ_section_title
;
Structure prediction by ZEFSAII (Michael W. Deem and Ramdas Pophale) SiO2 
 PCOD9246849
Probable space group: P 21/C
;
_chemical_formula_sum "Si O2"
_cell_formula_units_Z 28
_cell_length_a 9.148916
_cell_length_b 17.524638
_cell_length_c 15.553351
_cell_angle_alpha 90.000000
_cell_angle_beta 26.145708
_cell_angle_gamma 90.000000
_cell_volume 1098.858573
_symmetry_space_group_name_H-M "P 21/C"
_symmetry_group_IT_number 14
_symmetry_cell_setting 'monoclinic'
loop_
_space_group_symop_operation_xyz
x,y,z
-x,1/2+y,1/2-z
-x,-y,-z
x,1/2-y,1/2+z
loop_
_atom_site_type_symbol
_atom_site_label
_atom_site_fract_x
_atom_site_fract_y
_atom_site_fract_z
Si Si1 0.480189 0.802092 0.082267
Si Si2 0.156749 0.062017 0.354085
Si Si3 0.856408 0.276125 0.997562
Si Si4 0.872762 0.821310 0.302599
Si Si5 0.954108 0.457341 0.414414
Si Si6 0.215674 0.157409 0.895312
Si Si7 0.178934 0.055011 0.158952
O O1 0.684335 0.859713 0.913496
O O2 0.544163 0.716864 0.014575
O O3 0.104448 0.824647 0.264517
O O4 0.617309 0.825458 0.102474
O O5 0.994474 0.044541 0.345862
O O6 0.064100 0.150172 0.418309
O O7 0.557629 0.054863 0.138294
O O8 0.000000 0.000000 0.500000
O O9 0.958037 0.237046 0.854813
O O10 0.894351 0.209335 0.048622
O O11 0.484131 0.306333 0.188129
O O12 0.902837 0.899824 0.235227
O O13 0.990162 0.536058 0.342675
O O14 0.139133 0.427849 0.402758
O O15 0.500000 0.000000 0.000000
#
# Coordination Sequence:
#
# PCOD9246849 Si02
#       7
#     4   4   4   4   4   4   4
#     4  12  23  39  67 100 126 174 225 271 331 404
#     4  11  23  41  71  98 131 178 227 273 335 415
#     4  11  22  43  62  98 130 172 220 276 336 391
#     4  11  20  40  68  91 128 173 222 271 329 397
#     4  10  22  45  68  92 135 182 214 278 343 398
#     4  11  25  39  68  97 134 169 220 280 330 392
#     4  10  21  42  67  93 132 180 221 266 344 411
#
# _framework density 25.480985
#
# number of rings (size 3 to 8) (size 9 to 14) (size 15 to 20)
#    0.000    1.143    4.286    4.286    4.000    1.714 
#    0.000    2.143    0.000    0.000    0.000    0.000 
#    0.000    0.000    0.000    0.000    0.000    0.000 
#
# Total GULP energy -156434.713130 kJ/mol
# GULP energy per Si atom -5586.954040 kJ/mol
# Density = 2.542299 g / cm^3
# Si number density = 25.480985 Si / 1000 Ang^3
#
#
#
# Elastic Constant Matrix: (Units=GPa)
#
#
# Indices 1 2 3 4 5 6 
#
# 1 130.0440 -18.6574 3.8798 0.0000 5.2135 0.0000
# 2 -18.6574 76.1789 -3.6837 0.0000 0.1815 0.0000
# 3 3.8798 -3.6837 19.5308 0.0000 5.9783 0.0000
# 4 0.0000 0.0000 0.0000 31.1084 0.0000 4.2121
# 5 5.2135 0.1815 5.9783 0.0000 34.8450 0.0000
# 6 0.0000 0.0000 0.0000 4.2121 0.0000 38.1687
#
#
#
# Elastic Compliance Matrix: (Units=1/GPa)
#
#
# Indices 1 2 3 4 5 6 
#
# 1 0.008036 0.001927 -0.000910 0.000000 -0.001056 0.000000
# 2 0.001927 0.013719 0.002443 0.000000 -0.000779 0.000000
# 3 -0.000910 0.002443 0.054676 0.000000 -0.009257 0.000000
# 4 0.000000 0.000000 0.000000 0.032633 0.000000 -0.003601
# 5 -0.001056 -0.000779 -0.009257 0.000000 0.030449 0.000000
# 6 0.000000 0.000000 0.000000 -0.003601 0.000000 0.026597
#
#
# Mechanical properties :
#
#
# Convention : Reuss Voigt Hill
#
# Bulk Modulus (GPa) = 11.99742 20.98122 16.48932
# Shear Modulus (GPa) = 26.74179 37.10541 31.92360
#
# Velocity S-wave (km/s) = 3.24308 3.82016 3.54339
# Velocity P-wave (km/s) = 4.32921 5.26404 4.81934
#
# Compressibility (1/GPa) = 0.08335128
#
# Stress axis : x y z
#
# Youngs Moduli (GPa) = 124.44631 72.89239 18.28943
#
# Poissons Ratio (x) = -0.14043 0.01664
# Poissons Ratio (y) = -0.23976 -0.04468
# Poissons Ratio (z) = 0.11319 -0.17809
#
# Static dielectric constant tensor:
#      x y z
#    x 2.090050 0.000000 0.011600 
#    y 0.000000 2.031030 0.000000 
#    z 0.011600 0.000000 2.057590 
# 
# From -- ./inp_files/16828.got.cif
#   From: 2010.05.17/outbox.cif.g08.bks.cpg/sg14_9_cif.got.tgz:16828.got - 2010.06.03 17:49:19.
