data_PCOD9246088
_publ_section_title
;
Structure prediction by ZEFSAII (Michael W. Deem and Ramdas Pophale) SiO2 
 PCOD9246088
Probable space group: P 21/C
;
_chemical_formula_sum "Si O2"
_cell_formula_units_Z 32
_cell_length_a 27.923676
_cell_length_b 8.928224
_cell_length_c 9.865469
_cell_angle_alpha 90.000000
_cell_angle_beta 33.073128
_cell_angle_gamma 90.000000
_cell_volume 1342.197810
_symmetry_space_group_name_H-M "P 21/C"
_symmetry_group_IT_number 14
_symmetry_cell_setting 'monoclinic'
loop_
_space_group_symop_operation_xyz
x,y,z
-x,1/2+y,1/2-z
-x,-y,-z
x,1/2-y,1/2+z
loop_
_atom_site_type_symbol
_atom_site_label
_atom_site_fract_x
_atom_site_fract_y
_atom_site_fract_z
Si Si1 0.295390 0.890303 0.295041
Si Si2 0.854244 0.496944 0.641227
Si Si3 0.862882 0.406729 0.989654
Si Si4 0.283420 0.127437 0.727280
Si Si5 0.600688 0.605259 0.618156
Si Si6 0.944558 0.271244 0.042740
Si Si7 0.399186 0.902902 0.615158
Si Si8 0.875499 0.782162 0.299384
O O1 0.239475 0.866686 0.289171
O O2 0.339820 0.742974 0.245239
O O3 0.221897 0.943522 0.574013
O O4 0.365600 0.017299 0.094207
O O5 0.794452 0.531092 0.655704
O O6 0.929073 0.372934 0.479917
O O7 0.895019 0.647580 0.606672
O O8 0.908943 0.293782 0.770967
O O9 0.874773 0.575286 0.904683
O O10 0.893113 0.391515 0.073357
O O11 0.333991 0.253709 0.519601
O O12 0.357947 0.022173 0.609387
O O13 0.221740 0.216457 0.978726
O O14 0.603202 0.488868 0.736393
O O15 0.498639 0.645349 0.845996
O O16 0.044049 0.316415 0.838301
#
# Coordination Sequence:
#
# PCOD9246088 Si02
#       8
#     4   4   4   4   4   4   4   4
#     4  10  22  44  66  90 131 174 210 264 329 388
#     4  10  22  41  66  92 126 176 211 261 320 393
#     4  10  21  40  62  90 125 174 213 260 323 378
#     4  12  23  42  69  98 125 168 225 262 331 383
#     4  11  24  45  63  95 135 158 219 271 335 378
#     4  10  22  38  63  91 128 172 216 262 322 381
#     4  11  26  41  68  95 124 173 211 276 322 403
#     4  10  22  39  62  88 136 165 206 269 320 376
#
# _framework density 23.841494999999998
#
# number of rings (size 3 to 8) (size 9 to 14) (size 15 to 20)
#    0.000    1.750    2.500    3.750    8.750    0.000 
#    0.000    1.875    0.000    0.000    0.000    0.000 
#    0.000    0.000    0.000    0.000    0.000    0.000 
#
# Total GULP energy -178646.813808 kJ/mol
# GULP energy per Si atom -5582.712931 kJ/mol
# Density = 2.378723 g / cm^3
# Si number density = 23.841495 Si / 1000 Ang^3
#
#
#
# Elastic Constant Matrix: (Units=GPa)
#
#
# Indices 1 2 3 4 5 6 
#
# 1 68.1351 4.4262 14.1655 0.0000 -16.3357 0.0000
# 2 4.4262 27.7996 -1.8580 0.0000 3.9711 0.0000
# 3 14.1655 -1.8580 72.1422 0.0000 -21.5624 0.0000
# 4 0.0000 0.0000 0.0000 28.9433 0.0000 -8.2229
# 5 -16.3357 3.9711 -21.5624 0.0000 27.8325 0.0000
# 6 0.0000 0.0000 0.0000 -8.2229 0.0000 34.0569
#
#
#
# Elastic Compliance Matrix: (Units=1/GPa)
#
#
# Indices 1 2 3 4 5 6 
#
# 1 0.017592 -0.004348 -0.000384 0.000000 0.010648 0.000000
# 2 -0.004348 0.037831 -0.000713 0.000000 -0.008502 0.000000
# 3 -0.000384 -0.000713 0.018064 0.000000 0.013872 0.000000
# 4 0.000000 0.000000 0.000000 0.037095 0.000000 0.008956
# 5 0.010648 -0.008502 0.013872 0.000000 0.054139 0.000000
# 6 0.000000 0.000000 0.000000 0.008956 0.000000 0.031525
#
#
# Mechanical properties :
#
#
# Convention : Reuss Voigt Hill
#
# Bulk Modulus (GPa) = 15.97484 22.39380 19.18432
# Shear Modulus (GPa) = 21.92975 28.25609 25.09292
#
# Velocity S-wave (km/s) = 3.03613 3.44636 3.24773
# Velocity P-wave (km/s) = 4.35956 5.02490 4.70401
#
# Compressibility (1/GPa) = 0.06259845
#
# Stress axis : x y z
#
# Youngs Moduli (GPa) = 56.84436 26.43349 55.35727
#
# Poissons Ratio (x) = 0.11493 0.02123
# Poissons Ratio (y) = 0.24714 0.03947
# Poissons Ratio (z) = 0.02180 0.01885
#
# Static dielectric constant tensor:
#      x y z
#    x 1.967470 0.000000 0.031870 
#    y 0.000000 1.977080 0.000000 
#    z 0.031870 0.000000 1.936690 
# 
# From -- ./inp_files/36459.got.cif
#   From: 2010.05.17/outbox.cif.g08.bks.cpg/sg14_19_cif.got.tgz:36459.got - 2010.06.03 17:49:19.
