data_PCOD9246194
_publ_section_title
;
Structure prediction by ZEFSAII (Michael W. Deem and Ramdas Pophale) SiO2 
 PCOD9246194
Probable space group: P 21/C
;
_chemical_formula_sum "Si O2"
_cell_formula_units_Z 28
_cell_length_a 21.947121
_cell_length_b 5.439167
_cell_length_c 19.051944
_cell_angle_alpha 90.000000
_cell_angle_beta 33.972383
_cell_angle_gamma 90.000000
_cell_volume 1270.867835
_symmetry_space_group_name_H-M "P 21/C"
_symmetry_group_IT_number 14
_symmetry_cell_setting 'monoclinic'
loop_
_space_group_symop_operation_xyz
x,y,z
-x,1/2+y,1/2-z
-x,-y,-z
x,1/2-y,1/2+z
loop_
_atom_site_type_symbol
_atom_site_label
_atom_site_fract_x
_atom_site_fract_y
_atom_site_fract_z
Si Si1 0.533911 0.670203 0.403325
Si Si2 0.848567 0.406910 0.698240
Si Si3 0.376938 0.256803 0.902481
Si Si4 0.594994 0.054008 0.258590
Si Si5 0.073069 0.303415 0.971057
Si Si6 0.245453 0.612096 0.844829
Si Si7 0.688242 0.259741 0.472723
O O1 0.500000 0.500000 0.500000
O O2 0.642954 0.531284 0.274396
O O3 0.423560 0.706753 0.464280
O O4 0.576011 0.954093 0.356110
O O5 0.847689 0.672946 0.661449
O O6 0.800148 0.233964 0.682930
O O7 0.780282 0.337602 0.831722
O O8 0.978323 0.374920 0.589282
O O9 0.493367 0.276989 0.832229
O O10 0.404578 0.167820 0.797926
O O11 0.329686 0.531118 0.956566
O O12 0.302507 0.034653 0.004156
O O13 0.713512 0.175905 0.143299
O O14 0.148750 0.428033 0.956988
O O15 0.000000 0.500000 0.000000
#
# Coordination Sequence:
#
# PCOD9246194 Si02
#       7
#     4   4   4   4   4   4   4
#     4  11  22  37  59  97 136 171 207 274 340 408
#     4  10  21  40  64  99 130 170 218 281 341 411
#     4  11  25  41  62  94 129 192 228 269 325 400
#     4  11  24  41  63  91 138 180 231 272 330 417
#     4   9  21  39  63  94 126 170 217 268 344 406
#     4  11  21  37  64  95 133 168 213 272 344 402
#     4  11  24  40  67  96 140 174 224 275 335 407
#
# _framework density 22.032188999999999
#
# number of rings (size 3 to 8) (size 9 to 14) (size 15 to 20)
#    0.000    1.429    2.857    2.571    6.000    1.714 
#    0.000    0.000    0.000    0.000   14.857    0.000 
#    0.000    0.000    0.000    0.000    0.000    0.000 
#
# Total GULP energy -155931.335847 kJ/mol
# GULP energy per Si atom -5568.976280 kJ/mol
# Density = 2.198204 g / cm^3
# Si number density = 22.032189 Si / 1000 Ang^3
#
#
#
# Elastic Constant Matrix: (Units=GPa)
#
#
# Indices 1 2 3 4 5 6 
#
# 1 60.0828 46.5101 44.2653 0.0000 -10.0890 0.0000
# 2 46.5101 133.5070 42.0962 0.0000 4.8515 0.0000
# 3 44.2653 42.0962 90.7776 0.0000 6.9547 0.0000
# 4 0.0000 0.0000 0.0000 29.2926 0.0000 -1.6278
# 5 -10.0890 4.8515 6.9547 0.0000 22.3317 0.0000
# 6 0.0000 0.0000 0.0000 -1.6278 0.0000 45.6025
#
#
#
# Elastic Compliance Matrix: (Units=1/GPa)
#
#
# Indices 1 2 3 4 5 6 
#
# 1 0.042079 -0.009974 -0.017944 0.000000 0.026766 0.000000
# 2 -0.009974 0.011146 0.000231 0.000000 -0.006999 0.000000
# 3 -0.017944 0.000231 0.020780 0.000000 -0.014628 0.000000
# 4 0.000000 0.000000 0.000000 0.034206 0.000000 0.001221
# 5 0.026766 -0.006999 -0.014628 0.000000 0.062948 0.000000
# 6 0.000000 0.000000 0.000000 0.001221 0.000000 0.021972
#
#
# Mechanical properties :
#
#
# Convention : Reuss Voigt Hill
#
# Bulk Modulus (GPa) = 53.67485 61.12341 57.39913
# Shear Modulus (GPa) = 19.62970 29.54509 24.58739
#
# Velocity S-wave (km/s) = 2.98813 3.66593 3.34425
# Velocity P-wave (km/s) = 6.02662 6.76179 6.40476
#
# Compressibility (1/GPa) = 0.01863070
#
# Stress axis : x y z
#
# Youngs Moduli (GPa) = 23.76477 89.71492 48.12399
#
# Poissons Ratio (x) = 0.89480 0.86355
# Poissons Ratio (y) = 0.23703 -0.01111
# Poissons Ratio (z) = 0.42644 -0.02071
#
# Static dielectric constant tensor:
#      x y z
#    x 1.824440 0.000000 0.035700 
#    y 0.000000 2.013540 0.000000 
#    z 0.035700 0.000000 1.849190 
# 
# From -- ./inp_files/70061.got.cif
#   From: 2010.05.17/outbox.cif.g08.bks.cpg/sg14_36_cif.got.tgz:70061.got - 2010.06.03 17:49:19.
