data_PCOD9246170
_publ_section_title
;
Structure prediction by ZEFSAII (Michael W. Deem and Ramdas Pophale) SiO2 
 PCOD9246170
Probable space group: P 21/C
;
_chemical_formula_sum "Si O2"
_cell_formula_units_Z 24
_cell_length_a 17.295760
_cell_length_b 7.852062
_cell_length_c 13.847031
_cell_angle_alpha 90.000000
_cell_angle_beta 149.556432
_cell_angle_gamma 90.000000
_cell_volume 952.844256
_symmetry_space_group_name_H-M "P 21/C"
_symmetry_group_IT_number 14
_symmetry_cell_setting 'monoclinic'
loop_
_space_group_symop_operation_xyz
x,y,z
-x,1/2+y,1/2-z
-x,-y,-z
x,1/2-y,1/2+z
loop_
_atom_site_type_symbol
_atom_site_label
_atom_site_fract_x
_atom_site_fract_y
_atom_site_fract_z
Si Si1 0.165499 0.860494 0.871675
Si Si2 0.737465 0.865373 0.709033
Si Si3 0.984106 0.792485 0.346903
Si Si4 0.568577 0.824231 0.178783
Si Si5 0.252806 0.751324 0.762840
Si Si6 0.494703 0.540446 0.790686
O O1 0.037566 0.795695 0.806436
O O2 0.181482 0.747387 0.793435
O O3 0.331115 0.872332 0.098885
O O4 0.122142 0.048465 0.789549
O O5 0.705213 0.723157 0.754771
O O6 0.602731 0.866755 0.484220
O O7 0.892677 0.831543 0.819712
O O8 0.730222 0.053508 0.747904
O O9 0.137853 0.843673 0.568043
O O10 0.536203 0.647568 0.202436
O O11 0.576630 0.959149 0.273706
O O12 0.414631 0.843420 0.949643
#
# Coordination Sequence:
#
# PCOD9246170 Si02
#       6
#     4   4   4   4   4   4
#     4  11  24  42  63  92 128 168 209 256 307 368
#     4  11  22  39  66  94 123 166 207 256 314 367
#     4  12  24  41  64  94 127 165 209 257 312 372
#     4  10  21  40  64  91 124 166 207 255 311 367
#     4  10  22  41  63  88 126 168 207 253 308 368
#     4  10  21  41  64  91 125 161 210 255 306 372
#
# _framework density 25.187747000000002
#
# number of rings (size 3 to 8) (size 9 to 14) (size 15 to 20)
#    0.000    1.333    0.000    7.000    0.000    2.667 
#    0.000   15.833    0.000    0.000    0.000    0.000 
#    0.000    0.000    0.000    0.000    0.000    0.000 
#
# Total GULP energy -134602.392247 kJ/mol
# GULP energy per Si atom -5608.433010 kJ/mol
# Density = 2.513042 g / cm^3
# Si number density = 25.187747 Si / 1000 Ang^3
#
#
#
# Elastic Constant Matrix: (Units=GPa)
#
#
# Indices 1 2 3 4 5 6 
#
# 1 107.8089 8.1780 11.3596 0.0000 12.8210 0.0000
# 2 8.1780 70.2002 25.1602 0.0000 4.0530 0.0000
# 3 11.3596 25.1602 63.9877 0.0000 -10.2768 0.0000
# 4 0.0000 0.0000 0.0000 20.2296 0.0000 1.6247
# 5 12.8210 4.0530 -10.2768 0.0000 25.9070 0.0000
# 6 0.0000 0.0000 0.0000 1.6247 0.0000 40.0298
#
#
#
# Elastic Compliance Matrix: (Units=1/GPa)
#
#
# Indices 1 2 3 4 5 6 
#
# 1 0.010317 0.000211 -0.002926 0.000000 -0.006300 0.000000
# 2 0.000211 0.017363 -0.007816 0.000000 -0.005921 0.000000
# 3 -0.002926 -0.007816 0.020987 0.000000 0.010996 0.000000
# 4 0.000000 0.000000 0.000000 0.049594 0.000000 -0.002013
# 5 -0.006300 -0.005921 0.010996 0.000000 0.047005 0.000000
# 6 0.000000 0.000000 0.000000 -0.002013 0.000000 0.025063
#
#
# Mechanical properties :
#
#
# Convention : Reuss Voigt Hill
#
# Bulk Modulus (GPa) = 36.22566 36.82138 36.52352
# Shear Modulus (GPa) = 24.92598 30.38654 27.65626
#
# Velocity S-wave (km/s) = 3.14922 3.47710 3.31721
# Velocity P-wave (km/s) = 5.25708 5.54714 5.40406
#
# Compressibility (1/GPa) = 0.02760474
#
# Stress axis : x y z
#
# Youngs Moduli (GPa) = 96.92576 57.59211 47.64944
#
# Poissons Ratio (x) = -0.01212 0.13943
# Poissons Ratio (y) = -0.02041 0.37241
# Poissons Ratio (z) = 0.28361 0.45012
#
# Static dielectric constant tensor:
#      x y z
#    x 1.998470 0.000000 -0.002280 
#    y 0.000000 1.980730 0.000000 
#    z -0.002280 0.000000 1.955680 
# 
# From -- ./inp_files/48670.got.cif
#   From: 2010.05.17/outbox.cif.g08.bks.cpg/sg14_25_cif.got.tgz:48670.got - 2010.06.03 17:49:19.
