data_PCOD9246086
_publ_section_title
;
Structure prediction by ZEFSAII (Michael W. Deem and Ramdas Pophale) SiO2 
 PCOD9246086
Probable space group: P 21/C
;
_chemical_formula_sum "Si O2"
_cell_formula_units_Z 12
_cell_length_a 5.431148
_cell_length_b 5.386725
_cell_length_c 22.762407
_cell_angle_alpha 90.000000
_cell_angle_beta 142.581343
_cell_angle_gamma 90.000000
_cell_volume 404.647669
_symmetry_space_group_name_H-M "P 21/C"
_symmetry_group_IT_number 14
_symmetry_cell_setting 'monoclinic'
loop_
_space_group_symop_operation_xyz
x,y,z
-x,1/2+y,1/2-z
-x,-y,-z
x,1/2-y,1/2+z
loop_
_atom_site_type_symbol
_atom_site_label
_atom_site_fract_x
_atom_site_fract_y
_atom_site_fract_z
Si Si1 0.135831 0.564677 0.205042
Si Si2 0.884058 0.875994 0.539850
Si Si3 0.621473 0.063891 0.126491
O O1 0.459792 0.580226 0.318846
O O2 0.911374 0.302225 0.171075
O O3 0.840129 0.802602 0.157718
O O4 0.234952 0.594026 0.154946
O O5 0.727753 0.609604 0.487601
O O6 0.500000 0.000000 0.500000
O O7 0.000000 0.000000 0.500000
#
# Coordination Sequence:
#
# PCOD9246086 Si02
#       3
#     4   4   4
#     4   9  18  36  61  89 122 160 202 249 301 358
#     4  10  21  40  62  90 122 160 202 250 302 360
#     4   9  18  36  61  89 122 160 202 249 301 358
#
# _framework density 29.655425999999999
#
# number of rings (size 3 to 8) (size 9 to 14) (size 15 to 20)
#    0.000    2.667    0.000    1.000    0.000    0.000 
#    0.000   53.333    0.000    0.000    0.000    0.000 
#    0.000    0.000    0.000    0.000    0.000    0.000 
#
# Total GULP energy -67169.257427 kJ/mol
# GULP energy per Si atom -5597.438119 kJ/mol
# Density = 2.958793 g / cm^3
# Si number density = 29.655426 Si / 1000 Ang^3
#
#
#
# Elastic Constant Matrix: (Units=GPa)
#
#
# Indices 1 2 3 4 5 6 
#
# 1 144.3227 74.4329 72.3097 0.0000 -41.3144 0.0000
# 2 74.4329 213.7399 33.9714 0.0000 6.4999 0.0000
# 3 72.3097 33.9714 259.5520 0.0000 -62.4369 0.0000
# 4 0.0000 0.0000 0.0000 42.7345 0.0000 4.1772
# 5 -41.3144 6.4999 -62.4369 0.0000 68.7515 0.0000
# 6 0.0000 0.0000 0.0000 4.1772 0.0000 84.3570
#
#
#
# Elastic Compliance Matrix: (Units=1/GPa)
#
#
# Indices 1 2 3 4 5 6 
#
# 1 0.011283 -0.003930 -0.001163 0.000000 0.006096 0.000000
# 2 -0.003930 0.006240 -0.000553 0.000000 -0.003453 0.000000
# 3 -0.001163 -0.000553 0.005238 0.000000 0.004110 0.000000
# 4 0.000000 0.000000 0.000000 0.023514 0.000000 -0.001164
# 5 0.006096 -0.003453 0.004110 0.000000 0.022268 0.000000
# 6 0.000000 0.000000 0.000000 -0.001164 0.000000 0.011912
#
#
# Mechanical properties :
#
#
# Convention : Reuss Voigt Hill
#
# Bulk Modulus (GPa) = 87.17797 108.78251 97.98024
# Shear Modulus (GPa) = 52.31830 68.29530 60.30680
#
# Velocity S-wave (km/s) = 4.20480 4.80412 4.51442
# Velocity P-wave (km/s) = 7.28249 8.21794 7.76432
#
# Compressibility (1/GPa) = 0.01147079
#
# Stress axis : x y z
#
# Youngs Moduli (GPa) = 88.62623 160.25689 190.92044
#
# Poissons Ratio (x) = 0.62979 0.22198
# Poissons Ratio (y) = 0.34829 0.10550
# Poissons Ratio (z) = 0.10304 0.08856
#
# Static dielectric constant tensor:
#      x y z
#    x 2.392240 0.000000 0.115510 
#    y 0.000000 2.283090 0.000000 
#    z 0.115510 0.000000 2.508450 
# 
# From -- ./inp_files/36550.got.cif
#   From: 2010.05.17/outbox.cif.g08.bks.cpg/sg14_19_cif.got.tgz:36550.got - 2010.06.03 17:49:19.
