data_PCOD9246536
_publ_section_title
;
Structure prediction by ZEFSAII (Michael W. Deem and Ramdas Pophale) SiO2 
 PCOD9246536
Probable space group: P 21/C
;
_chemical_formula_sum "Si O2"
_cell_formula_units_Z 20
_cell_length_a 5.084877
_cell_length_b 18.548616
_cell_length_c 8.484395
_cell_angle_alpha 90.000000
_cell_angle_beta 90.159254
_cell_angle_gamma 90.000000
_cell_volume 800.223248
_symmetry_space_group_name_H-M "P 21/C"
_symmetry_group_IT_number 14
_symmetry_cell_setting 'monoclinic'
loop_
_space_group_symop_operation_xyz
x,y,z
-x,1/2+y,1/2-z
-x,-y,-z
x,1/2-y,1/2+z
loop_
_atom_site_type_symbol
_atom_site_label
_atom_site_fract_x
_atom_site_fract_y
_atom_site_fract_z
Si Si1 0.311960 0.687675 0.549304
Si Si2 0.799548 0.721549 0.759080
Si Si3 0.194541 0.661375 0.956693
Si Si4 0.466789 0.125270 0.232388
Si Si5 0.251914 0.990844 0.388409
O O1 0.558908 0.689052 0.664058
O O2 0.322220 0.759745 0.438382
O O3 0.049967 0.703805 0.647315
O O4 0.358781 0.624090 0.425913
O O5 0.735753 0.806530 0.778378
O O6 0.886803 0.680531 0.920856
O O7 0.246338 0.593035 0.843525
O O8 0.322981 0.638341 0.124483
O O9 0.296681 0.053381 0.261788
O O10 0.500000 0.000000 0.500000
O O11 0.000000 0.000000 0.500000
#
# Coordination Sequence:
#
# PCOD9246536 Si02
#       5
#     4   4   4   4   4
#     4  11  23  38  62  93 125 162 206 259 316 375
#     4  11  23  39  61  92 126 162 206 259 317 375
#     4  10  21  41  65  91 124 165 211 261 313 375
#     4  10  23  43  67  96 129 168 217 267 317 381
#     4  10  22  39  63  94 125 163 212 266 317 372
#
# _framework density 24.993023999999998
#
# number of rings (size 3 to 8) (size 9 to 14) (size 15 to 20)
#    0.000    1.600    0.000    4.800    0.000   12.800 
#    0.000    2.000    0.000    0.000    0.000    1.400 
#    0.000    0.000    0.000    0.000    0.000    0.000 
#
# Total GULP energy -111659.653618 kJ/mol
# GULP energy per Si atom -5582.982681 kJ/mol
# Density = 2.493614 g / cm^3
# Si number density = 24.993024 Si / 1000 Ang^3
#
#
#
# Elastic Constant Matrix: (Units=GPa)
#
#
# Indices 1 2 3 4 5 6 
#
# 1 175.0201 35.6221 43.9678 0.0000 8.8572 0.0000
# 2 35.6221 118.6938 7.4180 0.0000 8.1945 0.0000
# 3 43.9678 7.4180 82.7487 0.0000 10.6680 0.0000
# 4 0.0000 0.0000 0.0000 38.1125 0.0000 -1.4591
# 5 8.8572 8.1945 10.6680 0.0000 42.5167 0.0000
# 6 0.0000 0.0000 0.0000 -1.4591 0.0000 36.5224
#
#
#
# Elastic Compliance Matrix: (Units=1/GPa)
#
#
# Indices 1 2 3 4 5 6 
#
# 1 0.006987 -0.001862 -0.003518 0.000000 -0.000214 0.000000
# 2 -0.001862 0.009061 0.000364 0.000000 -0.001450 0.000000
# 3 -0.003518 0.000364 0.014299 0.000000 -0.002925 0.000000
# 4 0.000000 0.000000 0.000000 0.026278 0.000000 0.001050
# 5 -0.000214 -0.001450 -0.002925 0.000000 0.024578 0.000000
# 6 0.000000 0.000000 0.000000 0.001050 0.000000 0.027422
#
#
# Mechanical properties :
#
#
# Convention : Reuss Voigt Hill
#
# Bulk Modulus (GPa) = 49.22587 61.16427 55.19507
# Shear Modulus (GPa) = 39.86283 42.72729 41.29506
#
# Velocity S-wave (km/s) = 3.99803 4.13918 4.06921
# Velocity P-wave (km/s) = 6.40710 6.88254 6.64907
#
# Compressibility (1/GPa) = 0.02031452
#
# Stress axis : x y z
#
# Youngs Moduli (GPa) = 143.11650 110.35937 69.93714
#
# Poissons Ratio (x) = 0.20553 0.24605
# Poissons Ratio (y) = 0.26654 -0.02547
# Poissons Ratio (z) = 0.50350 -0.04019
#
# Static dielectric constant tensor:
#      x y z
#    x 2.075370 0.000000 -0.112820 
#    y 0.000000 2.053370 0.000000 
#    z -0.112820 0.000000 2.079190 
# 
# From -- ./inp_files/21367.got.cif
#   From: 2010.05.17/outbox.cif.g08.bks.cpg/sg14_11_cif.got.tgz:21367.got - 2010.06.03 17:49:19.
