data_PCOD9246874
_publ_section_title
;
Structure prediction by ZEFSAII (Michael W. Deem and Ramdas Pophale) SiO2 
 PCOD9246874
Probable space group: P 21/C
;
_chemical_formula_sum "Si O2"
_cell_formula_units_Z 32
_cell_length_a 11.480943
_cell_length_b 17.655540
_cell_length_c 14.664231
_cell_angle_alpha 90.000000
_cell_angle_beta 150.072692
_cell_angle_gamma 90.000000
_cell_volume 1482.969130
_symmetry_space_group_name_H-M "P 21/C"
_symmetry_group_IT_number 14
_symmetry_cell_setting 'monoclinic'
loop_
_space_group_symop_operation_xyz
x,y,z
-x,1/2+y,1/2-z
-x,-y,-z
x,1/2-y,1/2+z
loop_
_atom_site_type_symbol
_atom_site_label
_atom_site_fract_x
_atom_site_fract_y
_atom_site_fract_z
Si Si1 0.475230 0.440450 0.793581
Si Si2 0.079157 0.935473 0.483644
Si Si3 0.659695 0.786131 0.777730
Si Si4 0.234276 0.513264 0.786174
Si Si5 0.170801 0.847750 0.123550
Si Si6 0.253158 0.956933 0.008194
Si Si7 0.429392 0.808400 0.807484
Si Si8 0.587871 0.636179 0.611113
O O1 0.507490 0.357007 0.858207
O O2 0.262228 0.471755 0.708054
O O3 0.378089 0.465822 0.628051
O O4 0.738572 0.470819 0.965813
O O5 0.233953 0.867630 0.635174
O O6 0.843841 0.900753 0.284284
O O7 0.000000 0.000000 0.500000
O O8 0.626115 0.790887 0.864310
O O9 0.598865 0.708853 0.686705
O O10 0.917140 0.814162 0.929108
O O11 0.177791 0.598323 0.716964
O O12 0.018179 0.475926 0.691197
O O13 0.500000 0.500000 0.000000
O O14 0.262857 0.895645 0.098505
O O15 0.319193 0.773893 0.245290
O O16 0.397437 0.921668 0.023311
O O17 0.520671 0.838337 0.964900
#
# Coordination Sequence:
#
# PCOD9246874 Si02
#       8
#     4   4   4   4   4   4   4   4
#     4  10  21  42  68  91 135 179 226 283 355 405
#     4  11  24  45  69  98 140 188 230 289 352 417
#     4  11  22  46  68  94 143 179 232 295 346 419
#     4  11  24  39  68 105 132 177 238 299 349 415
#     4  11  21  44  69  93 139 181 233 289 354 410
#     4  11  21  45  70  97 135 186 224 293 355 408
#     4  11  27  44  68 105 136 191 237 285 356 424
#     4  12  26  45  73 102 144 188 234 292 356 425
#
# _framework density 21.578330999999999
#
# number of rings (size 3 to 8) (size 9 to 14) (size 15 to 20)
#    0.000    1.000    6.250    0.750    1.750    2.500 
#    6.750    0.000    0.000    0.000    0.000    0.000 
#    0.000    0.000    0.000    0.000    0.000    0.000 
#
# Total GULP energy -178318.891168 kJ/mol
# GULP energy per Si atom -5572.465349 kJ/mol
# Density = 2.152922 g / cm^3
# Si number density = 21.578331 Si / 1000 Ang^3
#
#
#
# Elastic Constant Matrix: (Units=GPa)
#
#
# Indices 1 2 3 4 5 6 
#
# 1 85.9655 9.0649 42.1863 0.0000 17.8724 0.0000
# 2 9.0649 78.7584 28.0431 0.0000 3.7617 0.0000
# 3 42.1863 28.0431 111.5271 0.0000 8.1939 0.0000
# 4 0.0000 0.0000 0.0000 31.9588 0.0000 11.6158
# 5 17.8724 3.7617 8.1939 0.0000 41.3870 0.0000
# 6 0.0000 0.0000 0.0000 11.6158 0.0000 26.0433
#
#
#
# Elastic Compliance Matrix: (Units=1/GPa)
#
#
# Indices 1 2 3 4 5 6 
#
# 1 0.015482 0.000467 -0.005560 0.000000 -0.005627 0.000000
# 2 0.000467 0.013974 -0.003635 0.000000 -0.000752 0.000000
# 3 -0.005560 -0.003635 0.011957 0.000000 0.000364 0.000000
# 4 0.000000 0.000000 0.000000 0.037344 0.000000 -0.016656
# 5 -0.005627 -0.000752 0.000364 0.000000 0.026588 0.000000
# 6 0.000000 0.000000 0.000000 -0.016656 0.000000 0.045827
#
#
# Mechanical properties :
#
#
# Convention : Reuss Voigt Hill
#
# Bulk Modulus (GPa) = 41.74409 48.31551 45.02980
# Shear Modulus (GPa) = 28.31047 33.00826 30.65937
#
# Velocity S-wave (km/s) = 3.62606 3.91537 3.77349
# Velocity P-wave (km/s) = 6.07606 6.54825 6.31657
#
# Compressibility (1/GPa) = 0.02395549
#
# Stress axis : x y z
#
# Youngs Moduli (GPa) = 64.59204 71.56401 83.63451
#
# Poissons Ratio (x) = -0.03339 0.46501
# Poissons Ratio (y) = -0.03014 0.30400
# Poissons Ratio (z) = 0.35913 0.26012
#
# Static dielectric constant tensor:
#      x y z
#    x 1.906500 0.000000 -0.083460 
#    y 0.000000 1.972180 0.000000 
#    z -0.083460 0.000000 1.831070 
# 
# From -- ./inp_files/45467.got.cif
#   From: 2010.05.17/outbox.cif.g08.bks.cpg/sg14_23_cif.got.tgz:45467.got - 2010.06.03 17:49:19.
