data_PCOD9246807
_publ_section_title
;
Structure prediction by ZEFSAII (Michael W. Deem and Ramdas Pophale) SiO2 
 PCOD9246807
Probable space group: P 21/C
;
_chemical_formula_sum "Si O2"
_cell_formula_units_Z 32
_cell_length_a 12.499969
_cell_length_b 11.703515
_cell_length_c 15.037558
_cell_angle_alpha 90.000000
_cell_angle_beta 140.541343
_cell_angle_gamma 90.000000
_cell_volume 1398.082049
_symmetry_space_group_name_H-M "P 21/C"
_symmetry_group_IT_number 14
_symmetry_cell_setting 'monoclinic'
loop_
_space_group_symop_operation_xyz
x,y,z
-x,1/2+y,1/2-z
-x,-y,-z
x,1/2-y,1/2+z
loop_
_atom_site_type_symbol
_atom_site_label
_atom_site_fract_x
_atom_site_fract_y
_atom_site_fract_z
Si Si1 0.702456 0.015147 0.298910
Si Si2 0.579436 0.236016 0.683863
Si Si3 0.409584 0.637228 0.006890
Si Si4 0.025530 0.509779 0.891004
Si Si5 0.184180 0.279392 0.944518
Si Si6 0.629291 0.140724 0.897461
Si Si7 0.076719 0.467954 0.376689
Si Si8 0.758568 0.920657 0.681450
O O1 0.623970 0.130568 0.209145
O O2 0.855964 0.968741 0.337428
O O3 0.804620 0.054633 0.453103
O O4 0.552799 0.923443 0.213554
O O5 0.607568 0.183804 0.605108
O O6 0.384200 0.221005 0.586039
O O7 0.672020 0.171408 0.822991
O O8 0.321407 0.512804 0.940973
O O9 0.363662 0.741552 0.041684
O O10 0.607413 0.611934 0.148422
O O11 0.070707 0.374894 0.917979
O O12 0.986269 0.545411 0.765773
O O13 0.121817 0.157573 0.934715
O O14 0.175493 0.313354 0.834013
O O15 0.766041 0.051980 0.021349
O O16 0.919542 0.521350 0.327345
#
# Coordination Sequence:
#
# PCOD9246807 Si02
#       8
#     4   4   4   4   4   4   4   4
#     4  11  24  42  63 100 133 182 225 280 336 408
#     4  11  24  42  69  96 141 177 226 280 341 404
#     4  10  24  46  69 100 139 180 229 275 340 414
#     4  10  24  42  64  94 138 175 224 278 342 394
#     4  10  21  42  65  99 136 173 221 289 334 401
#     4  12  26  43  73 105 131 185 226 281 347 402
#     4  11  24  41  71 101 134 173 233 282 338 405
#     4   9  23  42  68  97 132 184 220 276 341 403
#
# _framework density 22.888501000000002
#
# number of rings (size 3 to 8) (size 9 to 14) (size 15 to 20)
#    0.000    1.500    2.500    0.750   12.250    2.000 
#    2.250    0.625    0.000    0.000    0.000    0.000 
#    0.000    0.000    0.000    0.000    0.000    0.000 
#
# Total GULP energy -178735.461906 kJ/mol
# GULP energy per Si atom -5585.483185 kJ/mol
# Density = 2.283641 g / cm^3
# Si number density = 22.888501 Si / 1000 Ang^3
#
#
#
# Elastic Constant Matrix: (Units=GPa)
#
#
# Indices 1 2 3 4 5 6 
#
# 1 49.3767 10.3675 15.4912 0.0000 5.7680 0.0000
# 2 10.3675 95.2408 4.7034 0.0000 13.7965 0.0000
# 3 15.4912 4.7034 55.8368 0.0000 6.0744 0.0000
# 4 0.0000 0.0000 0.0000 15.8873 0.0000 1.1666
# 5 5.7680 13.7965 6.0744 0.0000 36.3530 0.0000
# 6 0.0000 0.0000 0.0000 1.1666 0.0000 27.5072
#
#
#
# Elastic Compliance Matrix: (Units=1/GPa)
#
#
# Indices 1 2 3 4 5 6 
#
# 1 0.022738 -0.001908 -0.005942 0.000000 -0.001891 0.000000
# 2 -0.001908 0.011284 0.000012 0.000000 -0.003982 0.000000
# 3 -0.005942 0.000012 0.019815 0.000000 -0.002373 0.000000
# 4 0.000000 0.000000 0.000000 0.063140 0.000000 -0.002678
# 5 -0.001891 -0.003982 -0.002373 0.000000 0.029716 0.000000
# 6 0.000000 0.000000 0.000000 -0.002678 0.000000 0.036468
#
#
# Mechanical properties :
#
#
# Convention : Reuss Voigt Hill
#
# Bulk Modulus (GPa) = 26.20476 29.06427 27.63451
# Shear Modulus (GPa) = 23.63438 27.27564 25.45501
#
# Velocity S-wave (km/s) = 3.21688 3.45581 3.33848
# Velocity P-wave (km/s) = 5.02707 5.35250 5.19234
#
# Compressibility (1/GPa) = 0.03816101
#
# Stress axis : x y z
#
# Youngs Moduli (GPa) = 43.97892 88.62463 50.46686
#
# Poissons Ratio (x) = 0.16908 0.29987
# Poissons Ratio (y) = 0.08390 -0.00060
# Poissons Ratio (z) = 0.26132 -0.00106
#
# Static dielectric constant tensor:
#      x y z
#    x 1.883000 0.000000 -0.004750 
#    y 0.000000 1.814590 0.000000 
#    z -0.004750 0.000000 1.896340 
# 
# From -- ./inp_files/59477.got.cif
#   From: 2010.05.17/outbox.cif.g08.bks.cpg/sg14_30_cif.got.tgz:59477.got - 2010.06.03 17:49:19.
