data_PCOD9246479
_publ_section_title
;
Structure prediction by ZEFSAII (Michael W. Deem and Ramdas Pophale) SiO2 
 PCOD9246479
Probable space group: P 21/C
;
_chemical_formula_sum "Si O2"
_cell_formula_units_Z 28
_cell_length_a 18.360570
_cell_length_b 9.224740
_cell_length_c 14.958226
_cell_angle_alpha 90.000000
_cell_angle_beta 23.915636
_cell_angle_gamma 90.000000
_cell_volume 1027.057040
_symmetry_space_group_name_H-M "P 21/C"
_symmetry_group_IT_number 14
_symmetry_cell_setting 'monoclinic'
loop_
_space_group_symop_operation_xyz
x,y,z
-x,1/2+y,1/2-z
-x,-y,-z
x,1/2-y,1/2+z
loop_
_atom_site_type_symbol
_atom_site_label
_atom_site_fract_x
_atom_site_fract_y
_atom_site_fract_z
Si Si1 0.797850 0.491859 0.620008
Si Si2 0.229131 0.588112 0.992806
Si Si3 0.376593 0.796969 0.140086
Si Si4 0.508322 0.489380 0.173301
Si Si5 0.975408 0.835302 0.285795
Si Si6 0.775975 0.023185 0.850876
Si Si7 0.736763 0.771347 0.310758
O O1 0.694585 0.367148 0.791225
O O2 0.643813 0.554481 0.726906
O O3 0.936388 0.405302 0.402811
O O4 0.860448 0.619903 0.614901
O O5 0.036289 0.669419 0.217069
O O6 0.214957 0.413943 0.002570
O O7 0.316060 0.650541 0.806464
O O8 0.345800 0.620910 0.949903
O O9 0.286928 0.894179 0.166238
O O10 0.591550 0.799850 0.906418
O O11 0.388242 0.523257 0.395105
O O12 0.614905 0.624463 0.010356
O O13 0.063609 0.900928 0.276407
O O14 0.822894 0.857962 0.769979
#
# Coordination Sequence:
#
# PCOD9246479 Si02
#       7
#     4   4   4   4   4   4   4
#     4   9  22  43  67  94 128 165 212 261 320 385
#     4  11  24  45  64  90 130 174 213 264 314 374
#     4  10  21  41  63  98 131 158 205 272 321 364
#     4  10  22  39  67  93 127 167 209 262 320 374
#     4  10  26  44  65  91 127 175 218 255 314 381
#     4  11  24  39  66 101 126 162 217 263 318 376
#     4  11  22  37  67 101 125 159 209 264 319 382
#
# _framework density 27.262360999999999
#
# number of rings (size 3 to 8) (size 9 to 14) (size 15 to 20)
#    0.000    1.714    1.429    3.000    6.000    2.857 
#    0.000    0.714    0.000    0.000    0.000    0.000 
#    0.000    0.000    0.000    0.000    0.000    0.000 
#
# Total GULP energy -156914.265335 kJ/mol
# GULP energy per Si atom -5604.080905 kJ/mol
# Density = 2.720031 g / cm^3
# Si number density = 27.262361 Si / 1000 Ang^3
#
#
#
# Elastic Constant Matrix: (Units=GPa)
#
#
# Indices 1 2 3 4 5 6 
#
# 1 118.7969 42.8580 14.2855 0.0000 22.5142 0.0000
# 2 42.8580 109.1727 19.9328 0.0000 18.8364 0.0000
# 3 14.2855 19.9328 50.8557 0.0000 18.0599 0.0000
# 4 0.0000 0.0000 0.0000 35.4344 0.0000 0.8026
# 5 22.5142 18.8364 18.0599 0.0000 37.9365 0.0000
# 6 0.0000 0.0000 0.0000 0.8026 0.0000 43.7118
#
#
#
# Elastic Compliance Matrix: (Units=1/GPa)
#
#
# Indices 1 2 3 4 5 6 
#
# 1 0.010484 -0.003325 -0.000022 0.000000 -0.004561 0.000000
# 2 -0.003325 0.011366 -0.002669 0.000000 -0.002400 0.000000
# 3 -0.000022 -0.002669 0.024358 0.000000 -0.010258 0.000000
# 4 0.000000 0.000000 0.000000 0.028233 0.000000 -0.000518
# 5 -0.004561 -0.002400 -0.010258 0.000000 0.035141 0.000000
# 6 0.000000 0.000000 0.000000 -0.000518 0.000000 0.022887
#
#
# Mechanical properties :
#
#
# Convention : Reuss Voigt Hill
#
# Bulk Modulus (GPa) = 29.25931 48.10865 38.68398
# Shear Modulus (GPa) = 32.07304 36.86648 34.46976
#
# Velocity S-wave (km/s) = 3.43368 3.68133 3.55966
# Velocity P-wave (km/s) = 5.14548 5.97950 5.57810
#
# Compressibility (1/GPa) = 0.03417716
#
# Stress axis : x y z
#
# Youngs Moduli (GPa) = 95.38139 87.97861 41.05351
#
# Poissons Ratio (x) = 0.29252 0.00092
# Poissons Ratio (y) = 0.31713 0.10956
# Poissons Ratio (z) = 0.00213 0.23480
#
# Static dielectric constant tensor:
#      x y z
#    x 2.112450 0.000000 -0.020630 
#    y 0.000000 2.105000 0.000000 
#    z -0.020630 0.000000 2.132570 
# 
# From -- ./inp_files/50036.got.cif
#   From: 2010.05.17/outbox.cif.g08.bks.cpg/sg14_26_cif.got.tgz:50036.got - 2010.06.03 17:49:19.
