data_PCOD9246783
_publ_section_title
;
Structure prediction by ZEFSAII (Michael W. Deem and Ramdas Pophale) SiO2 
 PCOD9246783
Probable space group: P 21/C
;
_chemical_formula_sum "Si O2"
_cell_formula_units_Z 28
_cell_length_a 18.974767
_cell_length_b 5.068527
_cell_length_c 11.633418
_cell_angle_alpha 90.000000
_cell_angle_beta 109.477098
_cell_angle_gamma 90.000000
_cell_volume 1054.808290
_symmetry_space_group_name_H-M "P 21/C"
_symmetry_group_IT_number 14
_symmetry_cell_setting 'monoclinic'
loop_
_space_group_symop_operation_xyz
x,y,z
-x,1/2+y,1/2-z
-x,-y,-z
x,1/2-y,1/2+z
loop_
_atom_site_type_symbol
_atom_site_label
_atom_site_fract_x
_atom_site_fract_y
_atom_site_fract_z
Si Si1 0.395132 0.406186 0.750270
Si Si2 0.325864 0.839428 0.004729
Si Si3 0.916205 0.884427 0.955801
Si Si4 0.560680 0.102451 0.121085
Si Si5 0.950383 0.750702 0.729134
Si Si6 0.230983 0.161143 0.482455
Si Si7 0.219114 0.106490 0.210417
O O1 0.387344 0.542011 0.623522
O O2 0.449943 0.596727 0.849878
O O3 0.308794 0.425480 0.749594
O O4 0.426026 0.113071 0.773445
O O5 0.359208 0.885611 0.898648
O O6 0.300783 0.545886 0.020411
O O7 0.256511 0.035630 0.980606
O O8 0.919537 0.702296 0.841545
O O9 0.847207 0.074198 0.881393
O O10 0.906571 0.797961 0.084487
O O11 0.000000 0.000000 0.000000
O O12 0.500000 0.000000 0.000000
O O13 0.020437 0.549955 0.760656
O O14 0.200703 0.098639 0.336598
O O15 0.207303 0.162192 0.605402
#
# Coordination Sequence:
#
# PCOD9246783 Si02
#       7
#     4   4   4   4   4   4   4
#     4  11  24  42  66  97 138 180 235 284 348 427
#     4  11  23  44  66 100 140 182 231 295 351 421
#     4  10  22  42  68 100 140 182 235 294 353 420
#     4  12  24  43  69 100 137 178 231 290 352 422
#     4  10  21  42  64  93 134 179 224 287 349 417
#     4  11  24  41  72  99 142 184 241 293 350 427
#     4  11  22  44  69 103 137 191 235 296 356 422
#
# _framework density 26.545106000000001
#
# number of rings (size 3 to 8) (size 9 to 14) (size 15 to 20)
#    0.000    1.143    2.857    3.429    0.000    1.143 
#    0.000   35.714    0.000    0.000    0.000    0.000 
#    0.000    0.000    0.000    0.000    0.000    0.000 
#
# Total GULP energy -155883.575162 kJ/mol
# GULP energy per Si atom -5567.270542 kJ/mol
# Density = 2.648469 g / cm^3
# Si number density = 26.545106 Si / 1000 Ang^3
#
#
#
# Elastic Constant Matrix: (Units=GPa)
#
#
# Indices 1 2 3 4 5 6 
#
# 1 116.7032 15.8325 55.1478 0.0000 -44.5395 0.0000
# 2 15.8325 67.1922 37.5726 0.0000 -3.4446 0.0000
# 3 55.1478 37.5726 210.4989 0.0000 1.5827 0.0000
# 4 0.0000 0.0000 0.0000 9.0379 0.0000 -3.3784
# 5 -44.5395 -3.4446 1.5827 0.0000 72.5818 0.0000
# 6 0.0000 0.0000 0.0000 -3.3784 0.0000 13.5925
#
#
#
# Elastic Compliance Matrix: (Units=1/GPa)
#
#
# Indices 1 2 3 4 5 6 
#
# 1 0.013480 -0.000823 -0.003447 0.000000 0.008308 0.000000
# 2 -0.000823 0.016636 -0.002756 0.000000 0.000345 0.000000
# 3 -0.003447 -0.002756 0.006164 0.000000 -0.002381 0.000000
# 4 0.000000 0.000000 0.000000 0.121977 0.000000 0.030317
# 5 0.008308 0.000345 -0.002381 0.000000 0.018944 0.000000
# 6 0.000000 0.000000 0.000000 0.030317 0.000000 0.081105
#
#
# Mechanical properties :
#
#
# Convention : Reuss Voigt Hill
#
# Bulk Modulus (GPa) = 44.99121 67.94444 56.46782
# Shear Modulus (GPa) = 17.87198 38.09852 27.98525
#
# Velocity S-wave (km/s) = 2.59756 3.79256 3.25045
# Velocity P-wave (km/s) = 5.09727 6.69548 5.95028
#
# Compressibility (1/GPa) = 0.02222656
#
# Stress axis : x y z
#
# Youngs Moduli (GPa) = 74.18333 60.11231 162.24208
#
# Poissons Ratio (x) = 0.04946 0.55928
# Poissons Ratio (y) = 0.06104 0.44720
# Poissons Ratio (z) = 0.25573 0.16569
#
# Static dielectric constant tensor:
#      x y z
#    x 2.877130 0.000000 -0.285110 
#    y 0.000000 1.999600 0.000000 
#    z -0.285110 0.000000 2.329530 
# 
# From -- ./inp_files/34598.got.cif
#   From: 2010.05.17/outbox.cif.g08.bks.cpg/sg14_18_cif.got.tgz:34598.got - 2010.06.03 17:49:19.
