data_PCOD9246038
_publ_section_title
;
Structure prediction by ZEFSAII (Michael W. Deem and Ramdas Pophale) SiO2 
 PCOD9246038
Probable space group: P 21/C
;
_chemical_formula_sum "Si O2"
_cell_formula_units_Z 32
_cell_length_a 13.196718
_cell_length_b 19.017736
_cell_length_c 9.781195
_cell_angle_alpha 90.000000
_cell_angle_beta 142.600924
_cell_angle_gamma 90.000000
_cell_volume 1490.956661
_symmetry_space_group_name_H-M "P 21/C"
_symmetry_group_IT_number 14
_symmetry_cell_setting 'monoclinic'
loop_
_space_group_symop_operation_xyz
x,y,z
-x,1/2+y,1/2-z
-x,-y,-z
x,1/2-y,1/2+z
loop_
_atom_site_type_symbol
_atom_site_label
_atom_site_fract_x
_atom_site_fract_y
_atom_site_fract_z
Si Si1 0.176467 0.809423 0.091775
Si Si2 0.811640 0.471073 0.314573
Si Si3 0.658662 0.259191 0.973958
Si Si4 0.360518 0.579230 0.141736
Si Si5 0.717465 0.921050 0.934500
Si Si6 0.903466 0.714249 0.927437
Si Si7 0.700557 0.764564 0.947174
Si Si8 0.040774 0.928725 0.467568
O O1 0.184484 0.892907 0.116295
O O2 0.312405 0.770116 0.334307
O O3 0.207010 0.783565 0.970515
O O4 0.012417 0.779858 0.991317
O O5 0.718072 0.462959 0.070115
O O6 0.715097 0.524662 0.308705
O O7 0.000000 0.500000 0.500000
O O8 0.477167 0.227965 0.751464
O O9 0.660038 0.338227 0.915845
O O10 0.232493 0.567584 0.127197
O O11 0.558272 0.564136 0.362629
O O12 0.691275 0.840321 0.861296
O O13 0.902466 0.924667 0.197944
O O14 0.836125 0.721886 0.007452
O O15 0.751520 0.715921 0.655536
O O16 0.004115 0.642462 0.011307
O O17 0.000000 0.000000 0.500000
#
# Coordination Sequence:
#
# PCOD9246038 Si02
#       8
#     4   4   4   4   4   4   4   4
#     4  11  22  36  64  87 122 158 201 249 303 369
#     4  11  21  38  63  92 121 156 206 255 303 361
#     4  10  21  40  60  89 119 160 201 249 308 363
#     4  10  21  42  64  85 124 163 197 253 309 361
#     4  10  22  41  65  90 122 162 203 249 311 361
#     4  11  22  40  63  90 121 161 204 248 311 360
#     4  10  22  40  64  89 124 157 201 257 301 364
#     4  11  24  42  61  87 126 164 204 249 305 366
#
# _framework density 21.462729
#
# number of rings (size 3 to 8) (size 9 to 14) (size 15 to 20)
#    0.000    1.500    2.500    2.625    3.500    2.500 
#    4.500    0.000    0.000    0.000    0.000    0.000 
#    0.000    0.000    0.000    0.000    0.000    0.000 
#
# Total GULP energy -178682.574693 kJ/mol
# GULP energy per Si atom -5583.830459 kJ/mol
# Density = 2.141388 g / cm^3
# Si number density = 21.462729 Si / 1000 Ang^3
#
#
#
# Elastic Constant Matrix: (Units=GPa)
#
#
# Indices 1 2 3 4 5 6 
#
# 1 106.4399 4.2219 3.5157 0.0000 17.2626 0.0000
# 2 4.2219 33.9655 -10.0126 0.0000 -11.3089 0.0000
# 3 3.5157 -10.0126 33.3513 0.0000 11.2477 0.0000
# 4 0.0000 0.0000 0.0000 23.2410 0.0000 -5.6793
# 5 17.2626 -11.3089 11.2477 0.0000 35.8844 0.0000
# 6 0.0000 0.0000 0.0000 -5.6793 0.0000 32.8158
#
#
#
# Elastic Compliance Matrix: (Units=1/GPa)
#
#
# Indices 1 2 3 4 5 6 
#
# 1 0.010519 -0.003356 -0.000059 0.000000 -0.006099 0.000000
# 2 -0.003356 0.035555 0.007497 0.000000 0.010469 0.000000
# 3 -0.000059 0.007497 0.035150 0.000000 -0.008626 0.000000
# 4 0.000000 0.000000 0.000000 0.044927 0.000000 0.007775
# 5 -0.006099 0.010469 -0.008626 0.000000 0.036805 0.000000
# 6 0.000000 0.000000 0.000000 0.007775 0.000000 0.031819
#
#
# Mechanical properties :
#
#
# Convention : Reuss Voigt Hill
#
# Bulk Modulus (GPa) = 11.18725 18.80075 14.99400
# Shear Modulus (GPa) = 23.10462 30.12369 26.61415
#
# Velocity S-wave (km/s) = 3.28456 3.75044 3.52521
# Velocity P-wave (km/s) = 4.42812 5.24720 4.85497
#
# Compressibility (1/GPa) = 0.08938748
#
# Stress axis : x y z
#
# Youngs Moduli (GPa) = 95.06383 28.12579 28.44947
#
# Poissons Ratio (x) = 0.09439 0.00169
# Poissons Ratio (y) = 0.31902 -0.21328
# Poissons Ratio (z) = 0.00564 -0.21086
#
# Static dielectric constant tensor:
#      x y z
#    x 2.878210 0.000000 -2.709380 
#    y 0.000000 1.750280 0.000000 
#    z -2.709380 0.000000 8.949410 
# 
# From -- ./inp_files/14351.got.cif
#   From: 2010.05.17/outbox.cif.g08.bks.cpg/sg14_8_cif.got.tgz:14351.got - 2010.06.03 17:49:19.
