data_PCOD9246531
_publ_section_title
;
Structure prediction by ZEFSAII (Michael W. Deem and Ramdas Pophale) SiO2 
 PCOD9246531
Probable space group: P 21/C
;
_chemical_formula_sum "Si O2"
_cell_formula_units_Z 24
_cell_length_a 5.265616
_cell_length_b 22.037010
_cell_length_c 10.203490
_cell_angle_alpha 90.000000
_cell_angle_beta 89.133944
_cell_angle_gamma 90.000000
_cell_volume 1183.861728
_symmetry_space_group_name_H-M "P 21/C"
_symmetry_group_IT_number 14
_symmetry_cell_setting 'monoclinic'
loop_
_space_group_symop_operation_xyz
x,y,z
-x,1/2+y,1/2-z
-x,-y,-z
x,1/2-y,1/2+z
loop_
_atom_site_type_symbol
_atom_site_label
_atom_site_fract_x
_atom_site_fract_y
_atom_site_fract_z
Si Si1 0.868954 0.437982 0.338352
Si Si2 0.752808 0.876858 0.767313
Si Si3 0.748782 0.201996 0.193761
Si Si4 0.748494 0.510602 0.084452
Si Si5 0.637336 0.575759 0.543353
Si Si6 0.315686 0.812489 0.109408
O O1 0.762745 0.463855 0.205101
O O2 0.646694 0.451663 0.446127
O O3 0.877784 0.364928 0.343658
O O4 0.155578 0.456324 0.366764
O O5 0.482829 0.843671 0.776093
O O6 0.758154 0.922327 0.645991
O O7 0.985903 0.829882 0.769365
O O8 0.760757 0.916857 0.900146
O O9 0.690498 0.260618 0.282279
O O10 0.747792 0.211886 0.036021
O O11 0.500000 0.500000 0.000000
O O12 0.000000 0.500000 0.000000
O O13 0.568581 0.645434 0.591179
#
# Coordination Sequence:
#
# PCOD9246531 Si02
#       6
#     4   4   4   4   4   4
#     4  10  21  41  65  90 126 165 214 265 315 381
#     4  11  23  42  64  93 129 167 216 264 321 383
#     4  11  23  40  65  96 131 170 216 268 321 394
#     4  12  27  44  63  95 135 168 216 268 329 393
#     4   9  19  40  63  93 118 158 220 255 314 375
#     4   9  23  39  64  95 130 167 218 262 326 381
#
# _framework density 20.272637
#
# number of rings (size 3 to 8) (size 9 to 14) (size 15 to 20)
#    1.000    0.667    1.667    2.000    2.333    4.000 
#    0.000    0.000    0.000    0.000    0.000    0.000 
#    0.000    0.000    0.000    0.000    0.000    0.000 
#
# Total GULP energy -133850.842805 kJ/mol
# GULP energy per Si atom -5577.118450 kJ/mol
# Density = 2.022650 g / cm^3
# Si number density = 20.272637 Si / 1000 Ang^3
#
#
#
# Elastic Constant Matrix: (Units=GPa)
#
#
# Indices 1 2 3 4 5 6 
#
# 1 111.1918 9.5885 28.5222 0.0000 11.7734 0.0000
# 2 9.5885 64.5014 51.5820 0.0000 1.7040 0.0000
# 3 28.5222 51.5820 101.2837 0.0000 10.6139 0.0000
# 4 0.0000 0.0000 0.0000 49.6331 0.0000 -6.7990
# 5 11.7734 1.7040 10.6139 0.0000 31.7944 0.0000
# 6 0.0000 0.0000 0.0000 -6.7990 0.0000 24.9695
#
#
#
# Elastic Compliance Matrix: (Units=1/GPa)
#
#
# Indices 1 2 3 4 5 6 
#
# 1 0.009975 0.001024 -0.003044 0.000000 -0.002732 0.000000
# 2 0.001024 0.026571 -0.014125 0.000000 0.002912 0.000000
# 3 -0.003044 -0.014125 0.018370 0.000000 -0.004248 0.000000
# 4 0.000000 0.000000 0.000000 0.020928 0.000000 0.005699
# 5 -0.002732 0.002912 -0.004248 0.000000 0.033726 0.000000
# 6 0.000000 0.000000 0.000000 0.005699 0.000000 0.041601
#
#
# Mechanical properties :
#
#
# Convention : Reuss Voigt Hill
#
# Bulk Modulus (GPa) = 44.20133 50.70692 47.45412
# Shear Modulus (GPa) = 26.17755 33.76503 29.97129
#
# Velocity S-wave (km/s) = 3.59733 4.08554 3.84918
# Velocity P-wave (km/s) = 6.25341 6.87912 6.57371
#
# Compressibility (1/GPa) = 0.02262375
#
# Stress axis : x y z
#
# Youngs Moduli (GPa) = 100.24677 37.63560 54.43802
#
# Poissons Ratio (x) = -0.03853 0.16572
# Poissons Ratio (y) = -0.10262 0.76896
# Poissons Ratio (z) = 0.30517 0.53162
#
# Static dielectric constant tensor:
#      x y z
#    x 1.738960 0.000000 0.031400 
#    y 0.000000 1.814780 0.000000 
#    z 0.031400 0.000000 1.739000 
# 
# From -- ./inp_files/6267.got.cif
#   From: 2010.05.17/outbox.cif.g08.bks.cpg/sg14_4_cif.got.tgz:6267.got - 2010.06.03 17:49:19.
