data_PCOD9246158
_publ_section_title
;
Structure prediction by ZEFSAII (Michael W. Deem and Ramdas Pophale) SiO2 
 PCOD9246158
Probable space group: P 21/C
;
_chemical_formula_sum "Si O2"
_cell_formula_units_Z 16
_cell_length_a 15.092764
_cell_length_b 4.916974
_cell_length_c 20.607355
_cell_angle_alpha 90.000000
_cell_angle_beta 29.361974
_cell_angle_gamma 90.000000
_cell_volume 749.848232
_symmetry_space_group_name_H-M "P 21/C"
_symmetry_group_IT_number 14
_symmetry_cell_setting 'monoclinic'
loop_
_space_group_symop_operation_xyz
x,y,z
-x,1/2+y,1/2-z
-x,-y,-z
x,1/2-y,1/2+z
loop_
_atom_site_type_symbol
_atom_site_label
_atom_site_fract_x
_atom_site_fract_y
_atom_site_fract_z
Si Si1 0.030094 0.748649 0.528402
Si Si2 0.407310 0.525906 0.334175
Si Si3 0.304531 0.324567 0.168357
Si Si4 0.537625 0.679662 0.559244
O O1 0.882420 0.754038 0.679585
O O2 0.000000 0.500000 0.500000
O O3 0.227010 0.691536 0.432193
O O4 0.000000 0.000000 0.500000
O O5 0.446473 0.273430 0.260119
O O6 0.403451 0.366619 0.404801
O O7 0.371055 0.613506 0.153567
O O8 0.462136 0.114311 0.087394
O O9 0.309976 0.296241 0.086763
#
# Coordination Sequence:
#
# PCOD9246158 Si02
#       4
#     4   4   4   4
#     4  12  24  40  63  91 126 165 209 258 310 371
#     4  12  24  40  63  92 126 164 210 262 312 368
#     4  10  21  40  64  89 121 162 203 250 311 373
#     4  10  21  40  64  88 121 161 203 252 310 372
#
# _framework density 21.33765
#
# number of rings (size 3 to 8) (size 9 to 14) (size 15 to 20)
#    0.000    1.000    0.000    9.000    0.000    0.000 
#    0.000   12.500    0.000    0.000    0.000    0.000 
#    0.000    0.000    0.000    0.000    0.000    0.000 
#
# Total GULP energy -89345.548396 kJ/mol
# GULP energy per Si atom -5584.096775 kJ/mol
# Density = 2.128908 g / cm^3
# Si number density = 21.337650 Si / 1000 Ang^3
#
#
#
# Elastic Constant Matrix: (Units=GPa)
#
#
# Indices 1 2 3 4 5 6 
#
# 1 112.4925 38.2330 57.0416 0.0000 20.4255 0.0000
# 2 38.2330 141.1325 32.8220 0.0000 12.6101 0.0000
# 3 57.0416 32.8220 151.6903 0.0000 20.2750 0.0000
# 4 0.0000 0.0000 0.0000 23.6776 0.0000 4.4512
# 5 20.4255 12.6101 20.2750 0.0000 24.7529 0.0000
# 6 0.0000 0.0000 0.0000 4.4512 0.0000 34.9066
#
#
#
# Elastic Compliance Matrix: (Units=1/GPa)
#
#
# Indices 1 2 3 4 5 6 
#
# 1 0.012468 -0.002010 -0.003386 0.000000 -0.006491 0.000000
# 2 -0.002010 0.007960 -0.000726 0.000000 -0.001802 0.000000
# 3 -0.003386 -0.000726 0.008534 0.000000 -0.003827 0.000000
# 4 0.000000 0.000000 0.000000 0.043271 0.000000 -0.005518
# 5 -0.006491 -0.001802 -0.003827 0.000000 0.049808 0.000000
# 6 0.000000 0.000000 0.000000 -0.005518 0.000000 0.029352
#
#
# Mechanical properties :
#
#
# Convention : Reuss Voigt Hill
#
# Bulk Modulus (GPa) = 59.81350 73.50094 66.65722
# Shear Modulus (GPa) = 29.54919 35.14865 32.34892
#
# Velocity S-wave (km/s) = 3.72538 4.06305 3.89787
# Velocity P-wave (km/s) = 6.82623 7.51881 7.18087
#
# Compressibility (1/GPa) = 0.01671863
#
# Stress axis : x y z
#
# Youngs Moduli (GPa) = 80.20389 125.63039 117.17701
#
# Poissons Ratio (x) = 0.25255 0.39676
# Poissons Ratio (y) = 0.16123 0.08501
# Poissons Ratio (z) = 0.27157 0.09115
#
# Static dielectric constant tensor:
#      x y z
#    x 1.822070 0.000000 0.024370 
#    y 0.000000 1.746320 0.000000 
#    z 0.024370 0.000000 1.877520 
# 
# From -- ./inp_files/67581.got.cif
#   From: 2010.05.17/outbox.cif.g08.bks.cpg/sg14_34_cif.got.tgz:67581.got - 2010.06.03 17:49:19.
