data_PCOD9246654
_publ_section_title
;
Structure prediction by ZEFSAII (Michael W. Deem and Ramdas Pophale) SiO2 
 PCOD9246654
Probable space group: P 21/C
;
_chemical_formula_sum "Si O2"
_cell_formula_units_Z 32
_cell_length_a 16.252040
_cell_length_b 10.620964
_cell_length_c 13.518907
_cell_angle_alpha 90.000000
_cell_angle_beta 37.053603
_cell_angle_gamma 90.000000
_cell_volume 1406.096359
_symmetry_space_group_name_H-M "P 21/C"
_symmetry_group_IT_number 14
_symmetry_cell_setting 'monoclinic'
loop_
_space_group_symop_operation_xyz
x,y,z
-x,1/2+y,1/2-z
-x,-y,-z
x,1/2-y,1/2+z
loop_
_atom_site_type_symbol
_atom_site_label
_atom_site_fract_x
_atom_site_fract_y
_atom_site_fract_z
Si Si1 0.686222 0.387007 0.497519
Si Si2 0.191577 0.085644 0.986355
Si Si3 0.391968 0.455677 0.746598
Si Si4 0.385891 0.319610 0.152864
Si Si5 0.644284 0.400403 0.016018
Si Si6 0.158423 0.998360 0.319279
Si Si7 0.772674 0.748520 0.865100
Si Si8 0.078921 0.999106 0.820301
O O1 0.739820 0.457697 0.542186
O O2 0.557353 0.471137 0.580503
O O3 0.650299 0.242631 0.551740
O O4 0.802481 0.397683 0.302405
O O5 0.240097 0.195278 0.013923
O O6 0.030317 0.068857 0.146168
O O7 0.247776 0.116880 0.824773
O O8 0.387560 0.313817 0.708084
O O9 0.363581 0.499640 0.886456
O O10 0.271653 0.519783 0.797188
O O11 0.513123 0.397734 0.070774
O O12 0.365915 0.299675 0.055400
O O13 0.779244 0.425702 0.823196
O O14 0.182810 0.133823 0.244902
O O15 0.000000 0.000000 0.500000
O O16 0.884210 0.638721 0.752782
O O17 0.000000 0.000000 0.000000
#
# Coordination Sequence:
#
# PCOD9246654 Si02
#       8
#     4   4   4   4   4   4   4   4
#     4  10  23  42  65  98 136 179 230 284 337 404
#     4  11  23  44  71  95 143 177 232 280 346 410
#     4  10  21  41  68  97 135 177 231 283 343 403
#     4  10  21  46  70  99 135 181 232 283 343 412
#     4  11  25  42  68 102 137 176 233 285 340 411
#     4  10  23  39  70  98 130 179 232 283 343 409
#     4  10  24  45  68  98 134 188 224 280 354 405
#     4  12  27  44  66 101 141 179 222 291 346 410
#
# _framework density 22.758040999999999
#
# number of rings (size 3 to 8) (size 9 to 14) (size 15 to 20)
#    0.000    1.500    2.500    1.125    7.000    1.500 
#    0.000    0.000    0.000    0.000    0.000    0.000 
#    0.000    0.000    0.000    0.000    0.000    0.000 
#
# Total GULP energy -178618.719293 kJ/mol
# GULP energy per Si atom -5581.834978 kJ/mol
# Density = 2.270624 g / cm^3
# Si number density = 22.758041 Si / 1000 Ang^3
#
#
#
# Elastic Constant Matrix: (Units=GPa)
#
#
# Indices 1 2 3 4 5 6 
#
# 1 87.8715 25.0557 21.4138 0.0000 0.4268 0.0000
# 2 25.0557 65.8643 3.9243 0.0000 3.3206 0.0000
# 3 21.4138 3.9243 89.0156 0.0000 -15.1784 0.0000
# 4 0.0000 0.0000 0.0000 17.4786 0.0000 -4.9177
# 5 0.4268 3.3206 -15.1784 0.0000 33.2345 0.0000
# 6 0.0000 0.0000 0.0000 -4.9177 0.0000 25.0020
#
#
#
# Elastic Compliance Matrix: (Units=1/GPa)
#
#
# Indices 1 2 3 4 5 6 
#
# 1 0.013579 -0.004913 -0.003249 0.000000 -0.001167 0.000000
# 2 -0.004913 0.017122 0.000158 0.000000 -0.001575 0.000000
# 3 -0.003249 0.000158 0.013028 0.000000 0.005976 0.000000
# 4 0.000000 0.000000 0.000000 0.060564 0.000000 0.011912
# 5 -0.001167 -0.001575 0.005976 0.000000 0.032991 0.000000
# 6 0.000000 0.000000 0.000000 0.011912 0.000000 0.042340
#
#
# Mechanical properties :
#
#
# Convention : Reuss Voigt Hill
#
# Bulk Modulus (GPa) = 36.07405 38.17098 37.12251
# Shear Modulus (GPa) = 24.40571 27.96686 26.18629
#
# Velocity S-wave (km/s) = 3.27830 3.50934 3.39579
# Velocity P-wave (km/s) = 5.49684 5.76451 5.63226
#
# Compressibility (1/GPa) = 0.02772076
#
# Stress axis : x y z
#
# Youngs Moduli (GPa) = 73.64545 58.40549 76.76069
#
# Poissons Ratio (x) = 0.28695 0.24939
# Poissons Ratio (y) = 0.36182 -0.01217
# Poissons Ratio (z) = 0.23927 -0.00926
#
# Static dielectric constant tensor:
#      x y z
#    x 1.909440 0.000000 -0.018800 
#    y 0.000000 1.878250 0.000000 
#    z -0.018800 0.000000 1.827110 
# 
# From -- ./inp_files/48903.got.cif
#   From: 2010.05.17/outbox.cif.g08.bks.cpg/sg14_25_cif.got.tgz:48903.got - 2010.06.03 17:49:19.
