data_PCOD9246762
_publ_section_title
;
Structure prediction by ZEFSAII (Michael W. Deem and Ramdas Pophale) SiO2 
 PCOD9246762
Probable space group: P 21/C
;
_chemical_formula_sum "Si O2"
_cell_formula_units_Z 28
_cell_length_a 14.683352
_cell_length_b 7.566761
_cell_length_c 13.898479
_cell_angle_alpha 90.000000
_cell_angle_beta 135.821539
_cell_angle_gamma 90.000000
_cell_volume 1076.143513
_symmetry_space_group_name_H-M "P 21/C"
_symmetry_group_IT_number 14
_symmetry_cell_setting 'monoclinic'
loop_
_space_group_symop_operation_xyz
x,y,z
-x,1/2+y,1/2-z
-x,-y,-z
x,1/2-y,1/2+z
loop_
_atom_site_type_symbol
_atom_site_label
_atom_site_fract_x
_atom_site_fract_y
_atom_site_fract_z
Si Si1 0.260626 0.798717 0.078161
Si Si2 0.998800 0.063335 0.154640
Si Si3 0.580119 0.337134 0.463945
Si Si4 0.132682 0.350630 0.136671
Si Si5 0.803742 0.597727 0.029659
Si Si6 0.173004 0.739650 0.219299
Si Si7 0.381227 0.270354 0.459027
O O1 0.254424 0.804611 0.187908
O O2 0.157459 0.944122 0.959671
O O3 0.401159 0.809736 0.135067
O O4 0.208693 0.608501 0.004536
O O5 0.027407 0.211958 0.095658
O O6 0.068665 0.122525 0.306154
O O7 0.075653 0.890599 0.180065
O O8 0.720765 0.300187 0.618708
O O9 0.482905 0.216205 0.452193
O O10 0.554674 0.547146 0.454221
O O11 0.179372 0.319751 0.063160
O O12 0.254972 0.315043 0.299252
O O13 0.102995 0.556418 0.136484
O O14 0.678980 0.657453 0.999266
#
# Coordination Sequence:
#
# PCOD9246762 Si02
#       7
#     4   4   4   4   4   4   4
#     4  11  24  39  61  95 125 169 222 264 324 395
#     4  11  23  42  62  95 129 174 219 266 330 389
#     4  10  21  42  63  96 126 167 219 266 326 398
#     4   9  22  42  64  95 132 167 217 267 326 396
#     4  10  22  42  64  96 125 174 219 267 331 389
#     4  10  22  43  62  93 132 167 215 272 324 387
#     4   9  21  41  67  89 130 170 209 274 326 384
#
# _framework density 26.018833000000001
#
# number of rings (size 3 to 8) (size 9 to 14) (size 15 to 20)
#    0.000    2.000    1.429    0.429    2.000    8.571 
#    2.571    0.000    0.000    0.000    0.000    0.000 
#    0.000    0.000    0.000    0.000    0.000    0.000 
#
# Total GULP energy -156803.991459 kJ/mol
# GULP energy per Si atom -5600.142552 kJ/mol
# Density = 2.595961 g / cm^3
# Si number density = 26.018833 Si / 1000 Ang^3
#
#
#
# Elastic Constant Matrix: (Units=GPa)
#
#
# Indices 1 2 3 4 5 6 
#
# 1 211.6408 57.0154 13.8570 0.0000 -35.7237 0.0000
# 2 57.0154 96.5871 10.5543 0.0000 -3.5910 0.0000
# 3 13.8570 10.5543 39.4951 0.0000 -25.6804 0.0000
# 4 0.0000 0.0000 0.0000 20.9176 0.0000 -6.5413
# 5 -35.7237 -3.5910 -25.6804 0.0000 42.8920 0.0000
# 6 0.0000 0.0000 0.0000 -6.5413 0.0000 46.1933
#
#
#
# Elastic Compliance Matrix: (Units=1/GPa)
#
#
# Indices 1 2 3 4 5 6 
#
# 1 0.006889 -0.004180 0.003608 0.000000 0.007548 0.000000
# 2 -0.004180 0.013248 -0.005921 0.000000 -0.005918 0.000000
# 3 0.003608 -0.005921 0.044650 0.000000 0.029242 0.000000
# 4 0.000000 0.000000 0.000000 0.050022 0.000000 0.007083
# 5 0.007548 -0.005918 0.029242 0.000000 0.046613 0.000000
# 6 0.000000 0.000000 0.000000 0.007083 0.000000 0.022651
#
#
# Mechanical properties :
#
#
# Convention : Reuss Voigt Hill
#
# Bulk Modulus (GPa) = 19.30550 56.73070 38.01810
# Shear Modulus (GPa) = 23.32894 39.75368 31.54131
#
# Velocity S-wave (km/s) = 2.99761 3.91305 3.48551
# Velocity P-wave (km/s) = 4.40645 6.50131 5.55355
#
# Compressibility (1/GPa) = 0.05179870
#
# Stress axis : x y z
#
# Youngs Moduli (GPa) = 145.16153 75.48361 22.39659
#
# Poissons Ratio (x) = 0.31553 -0.08080
# Poissons Ratio (y) = 0.60679 0.13262
# Poissons Ratio (z) = -0.52369 0.44697
#
# Static dielectric constant tensor:
#      x y z
#    x 2.115570 0.000000 0.010400 
#    y 0.000000 2.068380 0.000000 
#    z 0.010400 0.000000 2.035750 
# 
# From -- ./inp_files/46557.got.cif
#   From: 2010.05.17/outbox.cif.g08.bks.cpg/sg14_24_cif.got.tgz:46557.got - 2010.06.03 17:49:19.
