data_PCOD9246743
_publ_section_title
;
Structure prediction by ZEFSAII (Michael W. Deem and Ramdas Pophale) SiO2 
 PCOD9246743
Probable space group: P 21/C
;
_chemical_formula_sum "Si O2"
_cell_formula_units_Z 28
_cell_length_a 6.543701
_cell_length_b 9.537170
_cell_length_c 23.588315
_cell_angle_alpha 90.000000
_cell_angle_beta 50.632108
_cell_angle_gamma 90.000000
_cell_volume 1138.071289
_symmetry_space_group_name_H-M "P 21/C"
_symmetry_group_IT_number 14
_symmetry_cell_setting 'monoclinic'
loop_
_space_group_symop_operation_xyz
x,y,z
-x,1/2+y,1/2-z
-x,-y,-z
x,1/2-y,1/2+z
loop_
_atom_site_type_symbol
_atom_site_label
_atom_site_fract_x
_atom_site_fract_y
_atom_site_fract_z
Si Si1 0.922905 0.205978 0.027918
Si Si2 0.767033 0.274547 0.431753
Si Si3 0.047739 0.550653 0.183172
Si Si4 0.484724 0.879537 0.213770
Si Si5 0.198995 0.314239 0.077034
Si Si6 0.435518 0.464460 0.424510
Si Si7 0.176711 0.892286 0.790923
O O1 0.985736 0.326483 0.062364
O O2 0.645523 0.121240 0.080670
O O3 0.934407 0.239341 0.959519
O O4 0.162259 0.097662 0.997498
O O5 0.915049 0.195694 0.355785
O O6 0.667154 0.425839 0.427179
O O7 0.484194 0.206997 0.498753
O O8 0.116118 0.569532 0.236718
O O9 0.763312 0.479245 0.228587
O O10 0.224667 0.442424 0.115914
O O11 0.502070 0.877884 0.142930
O O12 0.409003 0.726560 0.250122
O O13 0.732576 0.966501 0.193654
O O14 0.067873 0.188990 0.137029
#
# Coordination Sequence:
#
# PCOD9246743 Si02
#       7
#     4   4   4   4   4   4   4
#     4  10  22  39  67  96 132 174 228 280 338 404
#     4  11  23  41  71  95 133 178 228 280 346 402
#     4  11  26  42  65 100 136 180 228 281 349 415
#     4  11  25  43  71  96 140 179 230 281 353 405
#     4  10  24  43  64  99 134 179 227 283 338 413
#     4  10  21  42  62  98 130 171 228 282 336 408
#     4  11  25  46  67 100 139 183 230 287 344 413
#
# _framework density 24.603026
#
# number of rings (size 3 to 8) (size 9 to 14) (size 15 to 20)
#    0.000    1.429    2.857    0.857    4.000    6.286 
#    0.000    0.000    0.000    0.000    0.000    0.000 
#    0.000    0.000    0.000    0.000    0.000    0.000 
#
# Total GULP energy -156507.971961 kJ/mol
# GULP energy per Si atom -5589.570427 kJ/mol
# Density = 2.454703 g / cm^3
# Si number density = 24.603026 Si / 1000 Ang^3
#
#
#
# Elastic Constant Matrix: (Units=GPa)
#
#
# Indices 1 2 3 4 5 6 
#
# 1 110.4314 35.2149 36.0253 0.0000 22.4864 0.0000
# 2 35.2149 90.9224 16.1338 0.0000 7.9945 0.0000
# 3 36.0253 16.1338 90.8403 0.0000 26.5157 0.0000
# 4 0.0000 0.0000 0.0000 45.0242 0.0000 -0.4778
# 5 22.4864 7.9945 26.5157 0.0000 61.4500 0.0000
# 6 0.0000 0.0000 0.0000 -0.4778 0.0000 20.5048
#
#
#
# Elastic Compliance Matrix: (Units=1/GPa)
#
#
# Indices 1 2 3 4 5 6 
#
# 1 0.011834 -0.003783 -0.003319 0.000000 -0.002406 0.000000
# 2 -0.003783 0.012592 -0.000757 0.000000 0.000073 0.000000
# 3 -0.003319 -0.000757 0.013816 0.000000 -0.004649 0.000000
# 4 0.000000 0.000000 0.000000 0.022216 0.000000 0.000518
# 5 -0.002406 0.000073 -0.004649 0.000000 0.019150 0.000000
# 6 0.000000 0.000000 0.000000 0.000518 0.000000 0.048781
#
#
# Mechanical properties :
#
#
# Convention : Reuss Voigt Hill
#
# Bulk Modulus (GPa) = 44.39888 51.88246 48.14067
# Shear Modulus (GPa) = 32.97809 39.05048 36.01428
#
# Velocity S-wave (km/s) = 3.66513 3.98832 3.83013
# Velocity P-wave (km/s) = 5.99968 6.50711 6.25854
#
# Compressibility (1/GPa) = 0.02252309
#
# Stress axis : x y z
#
# Youngs Moduli (GPa) = 84.49884 79.41826 72.38004
#
# Poissons Ratio (x) = 0.30044 0.24023
# Poissons Ratio (y) = 0.31966 0.05482
# Poissons Ratio (z) = 0.28045 0.06015
#
# Static dielectric constant tensor:
#      x y z
#    x 1.980670 0.000000 0.002710 
#    y 0.000000 2.001240 0.000000 
#    z 0.002710 0.000000 1.943830 
# 
# From -- ./inp_files/63471.got.cif
#   From: 2010.05.17/outbox.cif.g08.bks.cpg/sg14_32_cif.got.tgz:63471.got - 2010.06.03 17:49:19.
