data_PCOD9246025
_publ_section_title
;
Structure prediction by ZEFSAII (Michael W. Deem and Ramdas Pophale) SiO2 
 PCOD9246025
Probable space group: P 21/C
;
_chemical_formula_sum "Si O2"
_cell_formula_units_Z 28
_cell_length_a 8.172315
_cell_length_b 35.557855
_cell_length_c 5.096473
_cell_angle_alpha 90.000000
_cell_angle_beta 116.860545
_cell_angle_gamma 90.000000
_cell_volume 1321.199010
_symmetry_space_group_name_H-M "P 21/C"
_symmetry_group_IT_number 14
_symmetry_cell_setting 'monoclinic'
loop_
_space_group_symop_operation_xyz
x,y,z
-x,1/2+y,1/2-z
-x,-y,-z
x,1/2-y,1/2+z
loop_
_atom_site_type_symbol
_atom_site_label
_atom_site_fract_x
_atom_site_fract_y
_atom_site_fract_z
Si Si1 0.365530 0.725942 0.009307
Si Si2 0.722403 0.509196 0.390813
Si Si3 0.800796 0.725463 0.290741
Si Si4 0.823224 0.948914 0.450598
Si Si5 0.871778 0.387355 0.862233
Si Si6 0.092474 0.662677 0.616300
Si Si7 0.557626 0.441072 0.534054
O O1 0.323557 0.740926 0.269482
O O2 0.582978 0.718298 0.148701
O O3 0.250222 0.690202 0.838571
O O4 0.794493 0.522256 0.166034
O O5 0.683467 0.466203 0.432075
O O6 0.527420 0.530396 0.310174
O O7 0.852830 0.527255 0.707320
O O8 0.844639 0.742522 0.038156
O O9 0.915577 0.688648 0.440126
O O10 0.625392 0.929017 0.254231
O O11 0.978141 0.918525 0.607098
O O12 0.933101 0.368456 0.177688
O O13 0.677253 0.408405 0.743153
O O14 0.858215 0.356982 0.621225
#
# Coordination Sequence:
#
# PCOD9246025 Si02
#       7
#     4   4   4   4   4   4   4
#     4  10  21  40  68  92 113 152 205 245 287 337
#     4   9  20  40  66  83 113 151 211 264 307 322
#     4  10  21  40  67  89 115 153 198 246 288 338
#     4  10  21  40  58  87 114 157 196 255 293 362
#     4  12  27  37  59  87 129 164 198 225 315 366
#     4  12  25  40  57  92 126 162 188 242 291 366
#     4   9  23  39  63  87 115 155 206 261 301 349
#
# _framework density 21.192871
#
# number of rings (size 3 to 8) (size 9 to 14) (size 15 to 20)
#    0.857    0.857    0.000    3.857    2.000    3.429 
#    0.000    0.000    0.000    0.000    0.000    0.000 
#    0.000    0.000    0.000    0.000    0.000    0.000 
#
# Total GULP energy -156519.998737 kJ/mol
# GULP energy per Si atom -5589.999955 kJ/mol
# Density = 2.114464 g / cm^3
# Si number density = 21.192871 Si / 1000 Ang^3
#
#
#
# Elastic Constant Matrix: (Units=GPa)
#
#
# Indices 1 2 3 4 5 6 
#
# 1 33.8898 38.9003 17.8138 0.0000 19.0930 0.0000
# 2 38.9003 12.3663 20.0246 0.0000 20.0530 0.0000
# 3 17.8138 20.0246 94.0616 0.0000 4.9192 0.0000
# 4 0.0000 0.0000 0.0000 -32.2164 0.0000 -31.6234
# 5 19.0930 20.0530 4.9192 0.0000 25.9481 0.0000
# 6 0.0000 0.0000 0.0000 -31.6234 0.0000 0.2262
#
#
#
# Elastic Compliance Matrix: (Units=1/GPa)
#
#
# Indices 1 2 3 4 5 6 
#
# 1 0.010360 0.037691 -0.008145 0.000000 -0.035207 0.000000
# 2 0.037691 -0.030744 -0.000389 0.000000 -0.003901 0.000000
# 3 -0.008145 -0.000389 0.012047 0.000000 0.004010 0.000000
# 4 0.000000 0.000000 0.000000 -0.000225 0.000000 -0.031393
# 5 -0.035207 -0.003901 0.004010 0.000000 0.066699 0.000000
# 6 0.000000 0.000000 0.000000 -0.031393 0.000000 0.031982
#
#
# Mechanical properties :
#
#
# Convention : Reuss Voigt Hill
#
# Bulk Modulus (GPa) = 20.00883 32.64391 26.32637
# Shear Modulus (GPa) = 103.16865 3.03016 53.09940
#
# Velocity S-wave (km/s) = 6.98473 1.19704 5.01096
# Velocity P-wave (km/s) = 8.63195 4.16500 6.77708
#
# Compressibility (1/GPa) = 0.04997793
#
# Stress axis : x y z
#
# Youngs Moduli (GPa) = 96.52592 -32.52695 83.00836
#
# Poissons Ratio (x) = 1.22599 0.67609
# Poissons Ratio (y) = -3.63820 0.03231
# Poissons Ratio (z) = 0.78618 -0.01266
#
# Static dielectric constant tensor:
#      x y z
#    x 1.773970 0.000000 0.018010 
#    y 0.000000 1.726310 0.000000 
#    z 0.018010 0.000000 1.779170 
# 
# From -- ./inp_files/2284.got.cif
#   From: 2010.05.17/outbox.cif.g08.bks.cpg/sg14_2_cif.got.tgz:2284.got - 2010.06.03 17:49:19.
