data_PCOD9246899
_publ_section_title
;
Structure prediction by ZEFSAII (Michael W. Deem and Ramdas Pophale) SiO2 
 PCOD9246899
Probable space group: P 21/C
;
_chemical_formula_sum "Si O2"
_cell_formula_units_Z 20
_cell_length_a 7.031397
_cell_length_b 14.412894
_cell_length_c 7.667266
_cell_angle_alpha 90.000000
_cell_angle_beta 88.064177
_cell_angle_gamma 90.000000
_cell_volume 776.578595
_symmetry_space_group_name_H-M "P 21/C"
_symmetry_group_IT_number 14
_symmetry_cell_setting 'monoclinic'
loop_
_space_group_symop_operation_xyz
x,y,z
-x,1/2+y,1/2-z
-x,-y,-z
x,1/2-y,1/2+z
loop_
_atom_site_type_symbol
_atom_site_label
_atom_site_fract_x
_atom_site_fract_y
_atom_site_fract_z
Si Si1 0.482007 0.542605 0.195669
Si Si2 0.942698 0.706746 0.083094
Si Si3 0.816279 0.889674 0.283175
Si Si4 0.844204 0.025821 0.858486
Si Si5 0.209843 0.673111 0.368275
O O1 0.336294 0.463772 0.275351
O O2 0.677475 0.536733 0.293781
O O3 0.384401 0.642095 0.238952
O O4 0.500000 0.500000 0.000000
O O5 0.029136 0.652911 0.245416
O O6 0.854514 0.804340 0.151213
O O7 0.126111 0.732094 0.954098
O O8 0.785373 0.655706 0.972788
O O9 0.017375 0.942139 0.299906
O O10 0.752457 0.114893 0.957358
O O11 0.000000 0.000000 0.000000
#
# Coordination Sequence:
#
# PCOD9246899 Si02
#       5
#     4   4   4   4   4
#     4  12  26  41  69 106 129 176 232 278 326 396
#     4   9  21  42  70  96 134 187 205 282 343 397
#     4  10  22  44  67  96 136 172 227 270 337 399
#     4  11  23  41  72  95 131 172 218 282 333 386
#     4  10  21  42  69  95 136 169 231 266 338 398
#
# _framework density 25.753993999999999
#
# number of rings (size 3 to 8) (size 9 to 14) (size 15 to 20)
#    0.000    1.600    2.000    1.800    2.800    1.600 
#    0.000   16.000    0.000    0.000    0.000    0.000 
#    0.000    0.000    0.000    0.000    0.000    0.000 
#
# Total GULP energy -111483.555054 kJ/mol
# GULP energy per Si atom -5574.177753 kJ/mol
# Density = 2.569538 g / cm^3
# Si number density = 25.753994 Si / 1000 Ang^3
#
#
#
# Elastic Constant Matrix: (Units=GPa)
#
#
# Indices 1 2 3 4 5 6 
#
# 1 131.6242 33.7504 31.2064 0.0000 14.4475 0.0000
# 2 33.7504 72.0495 20.1149 0.0000 7.7290 0.0000
# 3 31.2064 20.1149 107.7927 0.0000 3.8362 0.0000
# 4 0.0000 0.0000 0.0000 42.8104 0.0000 0.7735
# 5 14.4475 7.7290 3.8362 0.0000 37.6291 0.0000
# 6 0.0000 0.0000 0.0000 0.7735 0.0000 46.5283
#
#
#
# Elastic Compliance Matrix: (Units=1/GPa)
#
#
# Indices 1 2 3 4 5 6 
#
# 1 0.009243 -0.003509 -0.001927 0.000000 -0.002632 0.000000
# 2 -0.003509 0.016261 -0.001955 0.000000 -0.001793 0.000000
# 3 -0.001927 -0.001955 0.010196 0.000000 0.000102 0.000000
# 4 0.000000 0.000000 0.000000 0.023366 0.000000 -0.000388
# 5 -0.002632 -0.001793 0.000102 0.000000 0.027944 0.000000
# 6 0.000000 0.000000 0.000000 -0.000388 0.000000 0.021499
#
#
# Mechanical properties :
#
#
# Convention : Reuss Voigt Hill
#
# Bulk Modulus (GPa) = 47.80639 53.51221 50.65930
# Shear Modulus (GPa) = 38.38357 40.48654 39.43505
#
# Velocity S-wave (km/s) = 3.86475 3.96921 3.91733
# Velocity P-wave (km/s) = 6.20629 6.46757 6.33828
#
# Compressibility (1/GPa) = 0.02091771
#
# Stress axis : x y z
#
# Youngs Moduli (GPa) = 108.18956 61.49550 98.07601
#
# Poissons Ratio (x) = 0.21581 0.18903
# Poissons Ratio (y) = 0.37968 0.19171
# Poissons Ratio (z) = 0.20852 0.12020
#
# Static dielectric constant tensor:
#      x y z
#    x 2.045960 0.000000 -0.160560 
#    y 0.000000 2.190570 0.000000 
#    z -0.160560 0.000000 2.136360 
# 
# From -- ./inp_files/5497.got.cif
#   From: 2010.05.17/outbox.cif.g08.bks.cpg/sg14_3_cif.got.tgz:5497.got - 2010.06.03 17:49:19.
