data_PCOD9246909
_publ_section_title
;
Structure prediction by ZEFSAII (Michael W. Deem and Ramdas Pophale) SiO2 
 PCOD9246909
Probable space group: P 21/C
;
_chemical_formula_sum "Si O2"
_cell_formula_units_Z 28
_cell_length_a 9.737577
_cell_length_b 7.203584
_cell_length_c 27.996790
_cell_angle_alpha 90.000000
_cell_angle_beta 148.144370
_cell_angle_gamma 90.000000
_cell_volume 1036.480890
_symmetry_space_group_name_H-M "P 21/C"
_symmetry_group_IT_number 14
_symmetry_cell_setting 'monoclinic'
loop_
_space_group_symop_operation_xyz
x,y,z
-x,1/2+y,1/2-z
-x,-y,-z
x,1/2-y,1/2+z
loop_
_atom_site_type_symbol
_atom_site_label
_atom_site_fract_x
_atom_site_fract_y
_atom_site_fract_z
Si Si1 0.639807 0.862612 0.612145
Si Si2 0.464725 0.271443 0.567075
Si Si3 0.677062 0.910584 0.269430
Si Si4 0.993275 0.618997 0.306374
Si Si5 0.694745 0.681773 0.882365
Si Si6 0.726457 0.242820 0.919509
Si Si7 0.010068 0.275357 0.369995
O O1 0.446828 0.725355 0.583520
O O2 0.772545 0.786615 0.604460
O O3 0.868257 0.905225 0.717604
O O4 0.489705 0.054198 0.559892
O O5 0.698587 0.373096 0.609551
O O6 0.492314 0.271669 0.632657
O O7 0.176817 0.325831 0.465767
O O8 0.659064 0.811456 0.315346
O O9 0.405680 0.881986 0.160737
O O10 0.885955 0.806159 0.297637
O O11 0.192227 0.610110 0.183275
O O12 0.894302 0.458339 0.312005
O O13 0.694439 0.460093 0.894384
O O14 0.975378 0.768903 0.977884
#
# Coordination Sequence:
#
# PCOD9246909 Si02
#       7
#     4   4   4   4   4   4   4
#     4  10  21  42  70 102 144 189 241 311 373 430
#     4  11  23  46  73 107 146 195 246 309 381 447
#     4  11  24  47  76 108 146 201 252 305 386 446
#     4  11  25  44  69 115 143 187 256 306 374 452
#     4  10  22  48  76 104 154 201 252 311 378 457
#     4   9  21  43  72 108 144 199 254 300 377 461
#     4  12  24  41  76 105 147 189 243 318 373 439
#
# _framework density 27.014486000000002
#
# number of rings (size 3 to 8) (size 9 to 14) (size 15 to 20)
#    0.000    1.429    1.429    4.286    4.000    0.000 
#   20.571    0.714    3.143    0.000    0.000    0.000 
#    0.000    0.000    0.000    0.000    0.000    0.000 
#
# Total GULP energy -157134.009527 kJ/mol
# GULP energy per Si atom -5611.928912 kJ/mol
# Density = 2.695300 g / cm^3
# Si number density = 27.014486 Si / 1000 Ang^3
#
#
#
# Elastic Constant Matrix: (Units=GPa)
#
#
# Indices 1 2 3 4 5 6 
#
# 1 129.9216 28.4629 50.8183 0.0000 -1.9837 0.0000
# 2 28.4629 82.1883 51.2714 0.0000 -1.9349 0.0000
# 3 50.8183 51.2714 150.8839 0.0000 4.0571 0.0000
# 4 0.0000 0.0000 0.0000 39.8229 0.0000 7.6280
# 5 -1.9837 -1.9349 4.0571 0.0000 47.3456 0.0000
# 6 0.0000 0.0000 0.0000 7.6280 0.0000 46.0068
#
#
#
# Elastic Compliance Matrix: (Units=1/GPa)
#
#
# Indices 1 2 3 4 5 6 
#
# 1 0.009033 -0.001534 -0.002535 0.000000 0.000533 0.000000
# 2 -0.001534 0.015756 -0.004864 0.000000 0.000996 0.000000
# 3 -0.002535 -0.004864 0.009164 0.000000 -0.001090 0.000000
# 4 0.000000 0.000000 0.000000 0.025935 0.000000 -0.004300
# 5 0.000533 0.000996 -0.001090 0.000000 0.021278 0.000000
# 6 0.000000 0.000000 0.000000 -0.004300 0.000000 0.022449
#
#
# Mechanical properties :
#
#
# Convention : Reuss Voigt Hill
#
# Bulk Modulus (GPa) = 62.16700 69.34432 65.75566
# Shear Modulus (GPa) = 39.41862 42.13114 40.77488
#
# Velocity S-wave (km/s) = 3.82405 3.95343 3.88928
# Velocity P-wave (km/s) = 6.52382 6.82382 6.67550
#
# Compressibility (1/GPa) = 0.01608570
#
# Stress axis : x y z
#
# Youngs Moduli (GPa) = 110.70698 63.46649 109.12561
#
# Poissons Ratio (x) = 0.09736 0.27667
# Poissons Ratio (y) = 0.16983 0.53081
# Poissons Ratio (z) = 0.28068 0.30872
#
# Static dielectric constant tensor:
#      x y z
#    x 2.040550 0.000000 0.018750 
#    y 0.000000 2.125980 0.000000 
#    z 0.018750 0.000000 2.083740 
# 
# From -- ./inp_files/76399.got.cif
#   From: 2010.05.17/outbox.cif.g08.bks.cpg/sg14_39_cif.got.tgz:76399.got - 2010.06.03 17:49:19.
