data_PCOD9246335
_publ_section_title
;
Structure prediction by ZEFSAII (Michael W. Deem and Ramdas Pophale) SiO2 
 PCOD9246335
Probable space group: P 21/C
;
_chemical_formula_sum "Si O2"
_cell_formula_units_Z 28
_cell_length_a 9.524794
_cell_length_b 10.745567
_cell_length_c 27.482321
_cell_angle_alpha 90.000000
_cell_angle_beta 152.440590
_cell_angle_gamma 90.000000
_cell_volume 1301.391299
_symmetry_space_group_name_H-M "P 21/C"
_symmetry_group_IT_number 14
_symmetry_cell_setting 'monoclinic'
loop_
_space_group_symop_operation_xyz
x,y,z
-x,1/2+y,1/2-z
-x,-y,-z
x,1/2-y,1/2+z
loop_
_atom_site_type_symbol
_atom_site_label
_atom_site_fract_x
_atom_site_fract_y
_atom_site_fract_z
Si Si1 0.270865 0.907553 0.011948
Si Si2 0.039300 0.800834 0.843933
Si Si3 0.111087 0.815693 0.682372
Si Si4 0.217627 0.239734 0.588141
Si Si5 0.341190 0.190525 0.022653
Si Si6 0.947097 0.428517 0.082156
Si Si7 0.310830 0.325571 0.857255
O O1 0.121614 0.895384 0.912473
O O2 0.035915 0.844297 0.977232
O O3 0.558166 0.815183 0.099957
O O4 0.352524 0.049382 0.045544
O O5 0.344439 0.776952 0.906762
O O6 0.962381 0.673986 0.848949
O O7 0.790775 0.847144 0.729313
O O8 0.462300 0.784614 0.792519
O O9 0.920974 0.707576 0.597642
O O10 0.970298 0.836017 0.692598
O O11 0.042535 0.939027 0.630652
O O12 0.263040 0.225168 0.544888
O O13 0.109341 0.117146 0.582926
O O14 0.586976 0.410631 0.961549
#
# Coordination Sequence:
#
# PCOD9246335 Si02
#       7
#     4   4   4   4   4   4   4
#     4  10  24  44  64  98 133 168 214 273 315 391
#     4  10  21  40  68  96 128 169 217 262 324 384
#     4  12  24  42  68  95 133 168 216 274 319 387
#     4  10  25  43  64  96 126 178 215 253 341 381
#     4  12  23  42  66  99 130 164 222 268 316 388
#     4  10  25  46  62  97 132 170 216 269 321 386
#     4  10  21  41  68  96 126 172 215 266 328 383
#
# _framework density 21.515435
#
# number of rings (size 3 to 8) (size 9 to 14) (size 15 to 20)
#    0.000    1.714    4.286    1.286    4.000    5.143 
#    2.571    0.000    0.000    0.000    0.000    0.000 
#    0.000    0.000    0.000    0.000    0.000    0.000 
#
# Total GULP energy -156563.124665 kJ/mol
# GULP energy per Si atom -5591.540167 kJ/mol
# Density = 2.146646 g / cm^3
# Si number density = 21.515435 Si / 1000 Ang^3
#
#
#
# Elastic Constant Matrix: (Units=GPa)
#
#
# Indices 1 2 3 4 5 6 
#
# 1 60.1705 -2.2426 0.6535 0.0000 0.3290 0.0000
# 2 -2.2426 42.6592 -1.2091 0.0000 9.1240 0.0000
# 3 0.6535 -1.2091 42.8111 0.0000 -3.9598 0.0000
# 4 0.0000 0.0000 0.0000 3.1912 0.0000 -4.9482
# 5 0.3290 9.1240 -3.9598 0.0000 37.0585 0.0000
# 6 0.0000 0.0000 0.0000 -4.9482 0.0000 4.7514
#
#
#
# Elastic Compliance Matrix: (Units=1/GPa)
#
#
# Indices 1 2 3 4 5 6 
#
# 1 0.016660 0.000956 -0.000265 0.000000 -0.000412 0.000000
# 2 0.000956 0.024800 0.000121 0.000000 -0.006101 0.000000
# 3 -0.000265 0.000121 0.023597 0.000000 0.002494 0.000000
# 4 0.000000 0.000000 0.000000 -0.509664 0.000000 -0.530782
# 5 -0.000412 -0.006101 0.002494 0.000000 0.028757 0.000000
# 6 0.000000 0.000000 0.000000 -0.530782 0.000000 -0.342308
#
#
# Mechanical properties :
#
#
# Convention : Reuss Voigt Hill
#
# Bulk Modulus (GPa) = 14.99656 15.56050 15.27853
# Shear Modulus (GPa) = -6.77915 18.89613 6.05849
#
# Velocity S-wave (km/s) = -1.77698 2.96676 1.67988
# Velocity P-wave (km/s) = 1.66585 4.35701 3.29837
#
# Compressibility (1/GPa) = 0.06668194
#
# Stress axis : x y z
#
# Youngs Moduli (GPa) = 60.02324 40.32207 42.37899
#
# Poissons Ratio (x) = -0.03856 0.01125
# Poissons Ratio (y) = -0.05740 -0.00515
# Poissons Ratio (z) = 0.01593 -0.00490
#
# Static dielectric constant tensor:
#      x y z
#    x 1.771540 0.000000 -0.022420 
#    y 0.000000 1.762850 0.000000 
#    z -0.022420 0.000000 1.774340 
# 
# From -- ./inp_files/76659.got.cif
#   From: 2010.05.17/outbox.cif.g08.bks.cpg/sg14_39_cif.got.tgz:76659.got - 2010.06.03 17:49:19.
