data_PCOD9246034
_publ_section_title
;
Structure prediction by ZEFSAII (Michael W. Deem and Ramdas Pophale) SiO2 
 PCOD9246034
Probable space group: P 21/C
;
_chemical_formula_sum "Si O2"
_cell_formula_units_Z 28
_cell_length_a 20.758554
_cell_length_b 5.054272
_cell_length_c 13.190526
_cell_angle_alpha 90.000000
_cell_angle_beta 56.026656
_cell_angle_gamma 90.000000
_cell_volume 1147.699656
_symmetry_space_group_name_H-M "P 21/C"
_symmetry_group_IT_number 14
_symmetry_cell_setting 'monoclinic'
loop_
_space_group_symop_operation_xyz
x,y,z
-x,1/2+y,1/2-z
-x,-y,-z
x,1/2-y,1/2+z
loop_
_atom_site_type_symbol
_atom_site_label
_atom_site_fract_x
_atom_site_fract_y
_atom_site_fract_z
Si Si1 0.178095 0.270601 0.377887
Si Si2 0.616813 0.849414 0.899977
Si Si3 0.069519 0.874491 0.093553
Si Si4 0.089405 0.370368 0.778132
Si Si5 0.285002 0.655306 0.157668
Si Si6 0.799799 0.989811 0.459030
Si Si7 0.500605 0.972262 0.821144
O O1 0.102141 0.378390 0.503727
O O2 0.142304 0.065881 0.327556
O O3 0.219154 0.509982 0.282165
O O4 0.234857 0.180907 0.418976
O O5 0.689779 0.050512 0.835811
O O6 0.569070 0.891817 0.838864
O O7 0.642989 0.546913 0.890996
O O8 0.567281 0.936847 0.041965
O O9 0.141502 0.676325 0.032414
O O10 0.988422 0.778928 0.121606
O O11 0.059119 0.915683 0.224446
O O12 0.147121 0.191944 0.659742
O O13 0.257286 0.642676 0.065161
O O14 0.519717 0.219914 0.731049
#
# Coordination Sequence:
#
# PCOD9246034 Si02
#       7
#     4   4   4   4   4   4   4
#     4  10  25  39  61  93 124 173 232 279 341 415
#     4  11  26  47  73 108 143 187 223 274 337 400
#     4  11  21  40  62  86 121 171 226 290 355 405
#     4  10  21  40  60  86 121 163 225 294 355 398
#     4  11  26  45  68  97 149 181 220 275 337 404
#     4  10  24  40  61  90 126 174 225 283 339 414
#     4  11  24  47  78 112 143 177 231 277 324 396
#
# _framework density 24.396626000000001
#
# number of rings (size 3 to 8) (size 9 to 14) (size 15 to 20)
#    0.000    1.429    1.429    2.143    8.000    7.429 
#    0.000    0.000    0.000    0.000    0.000    0.000 
#    0.000    0.000    0.000    0.000    0.000    0.000 
#
# Total GULP energy -156583.368303 kJ/mol
# GULP energy per Si atom -5592.263154 kJ/mol
# Density = 2.434110 g / cm^3
# Si number density = 24.396626 Si / 1000 Ang^3
#
#
#
# Elastic Constant Matrix: (Units=GPa)
#
#
# Indices 1 2 3 4 5 6 
#
# 1 87.8058 -3.7680 42.4481 0.0000 18.5439 0.0000
# 2 -3.7680 50.1993 0.1075 0.0000 12.3140 0.0000
# 3 42.4481 0.1075 91.5693 0.0000 20.8103 0.0000
# 4 0.0000 0.0000 0.0000 27.0322 0.0000 -15.1339
# 5 18.5439 12.3140 20.8103 0.0000 36.0201 0.0000
# 6 0.0000 0.0000 0.0000 -15.1339 0.0000 -12.2210
#
#
#
# Elastic Compliance Matrix: (Units=1/GPa)
#
#
# Indices 1 2 3 4 5 6 
#
# 1 0.015523 0.002502 -0.005972 0.000000 -0.005396 0.000000
# 2 0.002502 0.022443 0.000979 0.000000 -0.009526 0.000000
# 3 -0.005972 0.000979 0.015040 0.000000 -0.005949 0.000000
# 4 0.000000 0.000000 0.000000 0.021847 0.000000 -0.027054
# 5 -0.005396 -0.009526 -0.005949 0.000000 0.037234 0.000000
# 6 0.000000 0.000000 0.000000 -0.027054 0.000000 -0.048324
#
#
# Mechanical properties :
#
#
# Convention : Reuss Voigt Hill
#
# Bulk Modulus (GPa) = 20.82360 34.12773 27.47567
# Shear Modulus (GPa) = 58.99380 22.88536 40.93958
#
# Velocity S-wave (km/s) = 4.92277 3.06609 4.10089
# Velocity P-wave (km/s) = 6.39261 5.15302 5.80599
#
# Compressibility (1/GPa) = 0.04802243
#
# Stress axis : x y z
#
# Youngs Moduli (GPa) = 64.42036 44.55730 66.48848
#
# Poissons Ratio (x) = -0.11147 0.39710
# Poissons Ratio (y) = -0.16116 -0.06508
# Poissons Ratio (z) = 0.38475 -0.04362
#
# Static dielectric constant tensor:
#      x y z
#    x 1.898920 0.000000 -0.029600 
#    y 0.000000 2.040510 0.000000 
#    z -0.029600 0.000000 1.971790 
# 
# From -- ./inp_files/34682.got.cif
#   From: 2010.05.17/outbox.cif.g08.bks.cpg/sg14_18_cif.got.tgz:34682.got - 2010.06.03 17:49:19.
