data_PCOD9246956
_publ_section_title
;
Structure prediction by ZEFSAII (Michael W. Deem and Ramdas Pophale) SiO2 
 PCOD9246956
Probable space group: P 21/C
;
_chemical_formula_sum "Si O2"
_cell_formula_units_Z 32
_cell_length_a 14.223992
_cell_length_b 7.910668
_cell_length_c 13.495697
_cell_angle_alpha 90.000000
_cell_angle_beta 57.020734
_cell_angle_gamma 90.000000
_cell_volume 1273.864984
_symmetry_space_group_name_H-M "P 21/C"
_symmetry_group_IT_number 14
_symmetry_cell_setting 'monoclinic'
loop_
_space_group_symop_operation_xyz
x,y,z
-x,1/2+y,1/2-z
-x,-y,-z
x,1/2-y,1/2+z
loop_
_atom_site_type_symbol
_atom_site_label
_atom_site_fract_x
_atom_site_fract_y
_atom_site_fract_z
Si Si1 0.791782 0.750948 0.642700
Si Si2 0.493328 0.166169 0.863044
Si Si3 0.319656 0.108046 0.551716
Si Si4 0.630156 0.360495 0.454608
Si Si5 0.437425 0.335616 0.173770
Si Si6 0.886560 0.498680 0.927045
Si Si7 0.984808 0.650146 0.679010
Si Si8 0.807002 0.559537 0.442646
O O1 0.665683 0.800323 0.749171
O O2 0.857250 0.900368 0.545610
O O3 0.765055 0.606667 0.576079
O O4 0.873116 0.665573 0.676348
O O5 0.479982 0.116016 0.757755
O O6 0.426897 0.032113 0.968861
O O7 0.425601 0.339141 0.923577
O O8 0.613148 0.167808 0.847557
O O9 0.368637 0.060090 0.630318
O O10 0.235565 0.975653 0.553071
O O11 0.240164 0.278961 0.592013
O O12 0.548166 0.228359 0.554918
O O13 0.754894 0.397133 0.418468
O O14 0.950356 0.321492 0.889087
O O15 0.956781 0.619407 0.811359
O O16 0.063931 0.488488 0.614040
#
# Coordination Sequence:
#
# PCOD9246956 Si02
#       8
#     4   4   4   4   4   4   4   4
#     4  11  22  41  66  90 124 165 208 255 316 371
#     4   9  17  36  57  86 116 159 199 246 296 366
#     4   9  18  36  64  85 123 161 205 248 310 364
#     4   9  19  35  59  86 119 156 202 244 302 365
#     4  11  18  34  65  91 117 164 203 253 306 376
#     4  11  22  41  59  92 120 165 209 256 309 369
#     4  12  25  40  65  88 127 164 209 257 314 371
#     4  10  21  43  61  91 126 163 206 259 305 375
#
# _framework density 25.120404000000001
#
# number of rings (size 3 to 8) (size 9 to 14) (size 15 to 20)
#    0.000    1.750    5.000    3.000    0.000    0.000 
#    2.250    3.750    0.000    3.000    0.000    0.000 
#    0.000    0.000    0.000    0.000    0.000    0.000 
#
# Total GULP energy -178276.157742 kJ/mol
# GULP energy per Si atom -5571.129929 kJ/mol
# Density = 2.506323 g / cm^3
# Si number density = 25.120404 Si / 1000 Ang^3
#
#
#
# Elastic Constant Matrix: (Units=GPa)
#
#
# Indices 1 2 3 4 5 6 
#
# 1 167.6630 29.3301 39.1871 0.0000 28.7220 0.0000
# 2 29.3301 89.9906 10.4335 0.0000 3.2896 0.0000
# 3 39.1871 10.4335 87.2873 0.0000 16.0540 0.0000
# 4 0.0000 0.0000 0.0000 25.3335 0.0000 -10.7113
# 5 28.7220 3.2896 16.0540 0.0000 43.4403 0.0000
# 6 0.0000 0.0000 0.0000 -10.7113 0.0000 32.8620
#
#
#
# Elastic Compliance Matrix: (Units=1/GPa)
#
#
# Indices 1 2 3 4 5 6 
#
# 1 0.007565 -0.002040 -0.002426 0.000000 -0.003951 0.000000
# 2 -0.002040 0.011824 -0.000623 0.000000 0.000684 0.000000
# 3 -0.002426 -0.000623 0.013214 0.000000 -0.003233 0.000000
# 4 0.000000 0.000000 0.000000 0.045783 0.000000 0.014923
# 5 -0.003951 0.000684 -0.003233 0.000000 0.026775 0.000000
# 6 0.000000 0.000000 0.000000 0.014923 0.000000 0.035294
#
#
# Mechanical properties :
#
#
# Convention : Reuss Voigt Hill
#
# Bulk Modulus (GPa) = 44.59137 55.87134 50.23136
# Shear Modulus (GPa) = 31.62357 38.05983 34.84170
#
# Velocity S-wave (km/s) = 3.55192 3.89665 3.72827
# Velocity P-wave (km/s) = 5.88312 6.52187 6.21071
#
# Compressibility (1/GPa) = 0.02242586
#
# Stress axis : x y z
#
# Youngs Moduli (GPa) = 132.18806 84.57084 75.67449
#
# Poissons Ratio (x) = 0.17252 0.18357
# Poissons Ratio (y) = 0.26966 0.04717
# Poissons Ratio (z) = 0.32066 0.05271
#
# Static dielectric constant tensor:
#      x y z
#    x 2.077950 0.000000 -0.053330 
#    y 0.000000 2.154550 0.000000 
#    z -0.053330 0.000000 2.061610 
# 
# From -- ./inp_files/46487.got.cif
#   From: 2010.05.17/outbox.cif.g08.bks.cpg/sg14_24_cif.got.tgz:46487.got - 2010.06.03 17:49:19.
