data_PCOD9246954
_publ_section_title
;
Structure prediction by ZEFSAII (Michael W. Deem and Ramdas Pophale) SiO2 
 PCOD9246954
Probable space group: P 21/C
;
_chemical_formula_sum "Si O2"
_cell_formula_units_Z 16
_cell_length_a 9.459809
_cell_length_b 11.811496
_cell_length_c 11.611549
_cell_angle_alpha 90.000000
_cell_angle_beta 139.312947
_cell_angle_gamma 90.000000
_cell_volume 845.817080
_symmetry_space_group_name_H-M "P 21/C"
_symmetry_group_IT_number 14
_symmetry_cell_setting 'monoclinic'
loop_
_space_group_symop_operation_xyz
x,y,z
-x,1/2+y,1/2-z
-x,-y,-z
x,1/2-y,1/2+z
loop_
_atom_site_type_symbol
_atom_site_label
_atom_site_fract_x
_atom_site_fract_y
_atom_site_fract_z
Si Si1 0.358792 0.664086 0.969659
Si Si2 0.086808 0.005240 0.424895
Si Si3 0.427817 0.961572 0.289950
Si Si4 0.329992 0.927230 0.969883
O O1 0.156652 0.618388 0.920089
O O2 0.324059 0.624187 0.816748
O O3 0.394386 0.795704 0.003740
O O4 0.555463 0.585499 0.139817
O O5 0.316726 0.070272 0.564705
O O6 0.000000 0.000000 0.500000
O O7 0.905067 0.057371 0.231645
O O8 0.330585 0.964227 0.103425
O O9 0.500000 0.000000 0.000000
#
# Coordination Sequence:
#
# PCOD9246954 Si02
#       4
#     4   4   4   4
#     4   9  23  44  60  95 131 159 213 265 301 386
#     4  10  21  43  57  91 126 159 211 254 306 370
#     4   9  22  45  60  88 134 162 207 262 313 367
#     4  12  23  38  71  94 121 173 210 250 330 367
#
# _framework density 18.916620000000002
#
# number of rings (size 3 to 8) (size 9 to 14) (size 15 to 20)
#    1.500    0.500    2.500    0.000    7.000    3.000 
#    0.000    0.000    0.000    0.000    0.000    0.000 
#    0.000    0.000    0.000    0.000    0.000    0.000 
#
# Total GULP energy -89118.118708 kJ/mol
# GULP energy per Si atom -5569.882419 kJ/mol
# Density = 1.887356 g / cm^3
# Si number density = 18.916620 Si / 1000 Ang^3
#
#
#
# Elastic Constant Matrix: (Units=GPa)
#
#
# Indices 1 2 3 4 5 6 
#
# 1 115.2681 22.9120 26.0533 0.0000 -31.3187 0.0000
# 2 22.9120 104.1747 1.7211 0.0000 -18.1059 0.0000
# 3 26.0533 1.7211 120.6802 0.0000 -31.1376 0.0000
# 4 0.0000 0.0000 0.0000 9.5818 0.0000 2.3865
# 5 -31.3187 -18.1059 -31.1376 0.0000 44.6482 0.0000
# 6 0.0000 0.0000 0.0000 2.3865 0.0000 14.1447
#
#
#
# Elastic Compliance Matrix: (Units=1/GPa)
#
#
# Indices 1 2 3 4 5 6 
#
# 1 0.010878 -0.001214 -0.000597 0.000000 0.006722 0.000000
# 2 -0.001214 0.010592 0.001219 0.000000 0.004294 0.000000
# 3 -0.000597 0.001219 0.010264 0.000000 0.007234 0.000000
# 4 0.000000 0.000000 0.000000 0.108942 0.000000 -0.018381
# 5 0.006722 0.004294 0.007234 0.000000 0.033899 0.000000
# 6 0.000000 0.000000 0.000000 -0.018381 0.000000 0.073799
#
#
# Mechanical properties :
#
#
# Convention : Reuss Voigt Hill
#
# Bulk Modulus (GPa) = 32.73269 49.05506 40.89388
# Shear Modulus (GPa) = 19.24985 32.97073 26.11029
#
# Velocity S-wave (km/s) = 3.19347 4.17940 3.71925
# Velocity P-wave (km/s) = 5.56227 7.01985 6.33314
#
# Compressibility (1/GPa) = 0.03055049
#
# Stress axis : x y z
#
# Youngs Moduli (GPa) = 91.92846 94.40662 97.42488
#
# Poissons Ratio (x) = 0.11464 0.05814
# Poissons Ratio (y) = 0.11163 -0.11876
# Poissons Ratio (z) = 0.05486 -0.11508
#
# Static dielectric constant tensor:
#      x y z
#    x 1.677500 0.000000 0.009470 
#    y 0.000000 1.642600 0.000000 
#    z 0.009470 0.000000 1.659890 
# 
# From -- ./inp_files/23240.got.cif
#   From: 2010.05.17/outbox.cif.g08.bks.cpg/sg14_12_cif.got.tgz:23240.got - 2010.06.03 17:49:19.
