data_PCOD9246263
_publ_section_title
;
Structure prediction by ZEFSAII (Michael W. Deem and Ramdas Pophale) SiO2 
 PCOD9246263
Probable space group: P 21/C
;
_chemical_formula_sum "Si O2"
_cell_formula_units_Z 28
_cell_length_a 5.323869
_cell_length_b 18.369045
_cell_length_c 13.931711
_cell_angle_alpha 90.000000
_cell_angle_beta 65.488579
_cell_angle_gamma 90.000000
_cell_volume 1239.657869
_symmetry_space_group_name_H-M "P 21/C"
_symmetry_group_IT_number 14
_symmetry_cell_setting 'monoclinic'
loop_
_space_group_symop_operation_xyz
x,y,z
-x,1/2+y,1/2-z
-x,-y,-z
x,1/2-y,1/2+z
loop_
_atom_site_type_symbol
_atom_site_label
_atom_site_fract_x
_atom_site_fract_y
_atom_site_fract_z
Si Si1 0.803692 0.301514 0.685985
Si Si2 0.540287 0.898578 0.434687
Si Si3 0.165798 0.948932 0.317387
Si Si4 0.615814 0.758072 0.985547
Si Si5 0.257018 0.229425 0.321698
Si Si6 0.835907 0.331629 0.334861
Si Si7 0.890040 0.403059 0.836841
O O1 0.481867 0.296539 0.707689
O O2 0.809164 0.228513 0.753048
O O3 0.819723 0.377815 0.740672
O O4 0.082574 0.291353 0.582499
O O5 0.388204 0.929858 0.364093
O O6 0.535365 0.810563 0.433104
O O7 0.366881 0.923395 0.555343
O O8 0.860468 0.919467 0.394757
O O9 0.217459 0.907195 0.209021
O O10 0.116694 0.034274 0.309415
O O11 0.638282 0.721801 0.087530
O O12 0.373177 0.815676 0.044792
O O13 0.141673 0.310622 0.323543
O O14 0.009067 0.172604 0.357761
#
# Coordination Sequence:
#
# PCOD9246263 Si02
#       7
#     4   4   4   4   4   4   4
#     4  10  22  39  65  95 128 178 218 276 328 389
#     4  12  24  41  68 100 135 173 214 279 338 398
#     4  12  28  40  68 100 138 177 221 267 344 402
#     4  11  22  39  68  99 129 169 228 280 325 390
#     4  10  21  40  66  93 135 171 226 272 333 387
#     4  10  23  39  63  93 133 171 221 275 319 397
#     4  11  24  42  61  98 139 177 215 274 336 408
#
# _framework density 22.586877000000001
#
# number of rings (size 3 to 8) (size 9 to 14) (size 15 to 20)
#    0.000    1.143    5.714    1.714    6.000    2.286 
#    0.000    0.714    0.000    1.714    0.000    0.000 
#    0.000    0.000    0.000    0.000    0.000    0.000 
#
# Total GULP energy -156227.382008 kJ/mol
# GULP energy per Si atom -5579.549357 kJ/mol
# Density = 2.253547 g / cm^3
# Si number density = 22.586877 Si / 1000 Ang^3
#
#
#
# Elastic Constant Matrix: (Units=GPa)
#
#
# Indices 1 2 3 4 5 6 
#
# 1 69.2343 -3.7764 8.7440 0.0000 -17.8787 0.0000
# 2 -3.7764 49.5300 12.8922 0.0000 8.3312 0.0000
# 3 8.7440 12.8922 83.3032 0.0000 -38.6064 0.0000
# 4 0.0000 0.0000 0.0000 29.2648 0.0000 0.2082
# 5 -17.8787 8.3312 -38.6064 0.0000 41.6114 0.0000
# 6 0.0000 0.0000 0.0000 0.2082 0.0000 22.2558
#
#
#
# Elastic Compliance Matrix: (Units=1/GPa)
#
#
# Indices 1 2 3 4 5 6 
#
# 1 0.016669 -0.001375 0.003351 0.000000 0.010546 0.000000
# 2 -0.001375 0.025816 -0.011439 0.000000 -0.016372 0.000000
# 3 0.003351 -0.011439 0.026580 0.000000 0.028391 0.000000
# 4 0.000000 0.000000 0.000000 0.034173 0.000000 -0.000320
# 5 0.010546 -0.016372 0.028391 0.000000 0.058181 0.000000
# 6 0.000000 0.000000 0.000000 -0.000320 0.000000 0.044935
#
#
# Mechanical properties :
#
#
# Convention : Reuss Voigt Hill
#
# Bulk Modulus (GPa) = 19.94446 26.42079 23.18262
# Shear Modulus (GPa) = 20.66163 30.90691 25.78427
#
# Velocity S-wave (km/s) = 3.02779 3.70314 3.38236
# Velocity P-wave (km/s) = 4.59049 5.47788 5.05370
#
# Compressibility (1/GPa) = 0.05013923
#
# Stress axis : x y z
#
# Youngs Moduli (GPa) = 59.99211 38.73539 37.62163
#
# Poissons Ratio (x) = 0.05326 -0.12605
# Poissons Ratio (y) = 0.08249 0.43034
# Poissons Ratio (z) = -0.20101 0.44308
#
# Static dielectric constant tensor:
#      x y z
#    x 2.086960 0.000000 -0.020790 
#    y 0.000000 1.852780 0.000000 
#    z -0.020790 0.000000 1.902740 
# 
# From -- ./inp_files/37803.got.cif
#   From: 2010.05.17/outbox.cif.g08.bks.cpg/sg14_19_cif.got.tgz:37803.got - 2010.06.03 17:49:19.
