data_PCOD9246328
_publ_section_title
;
Structure prediction by ZEFSAII (Michael W. Deem and Ramdas Pophale) SiO2 
 PCOD9246328
Probable space group: P 21/C
;
_chemical_formula_sum "Si O2"
_cell_formula_units_Z 32
_cell_length_a 10.750684
_cell_length_b 16.160523
_cell_length_c 23.833527
_cell_angle_alpha 90.000000
_cell_angle_beta 21.348424
_cell_angle_gamma 90.000000
_cell_volume 1507.395356
_symmetry_space_group_name_H-M "P 21/C"
_symmetry_group_IT_number 14
_symmetry_cell_setting 'monoclinic'
loop_
_space_group_symop_operation_xyz
x,y,z
-x,1/2+y,1/2-z
-x,-y,-z
x,1/2-y,1/2+z
loop_
_atom_site_type_symbol
_atom_site_label
_atom_site_fract_x
_atom_site_fract_y
_atom_site_fract_z
Si Si1 0.012403 0.222687 0.905185
Si Si2 0.996570 0.651938 0.284980
Si Si3 0.595119 0.958019 0.115384
Si Si4 0.683775 0.432215 0.749408
Si Si5 0.532697 0.090707 0.707551
Si Si6 0.297519 0.365248 0.710545
Si Si7 0.825930 0.704253 0.045634
Si Si8 0.526577 0.193976 0.901456
O O1 0.296046 0.153681 0.772097
O O2 0.088921 0.308108 0.841453
O O3 0.072610 0.237345 0.945964
O O4 0.639831 0.186377 0.051833
O O5 0.911931 0.623119 0.258530
O O6 0.658017 0.662849 0.464984
O O7 0.233842 0.589268 0.220765
O O8 0.177980 0.741496 0.208618
O O9 0.639721 0.937026 0.161688
O O10 0.377420 0.885563 0.176276
O O11 0.420651 0.047101 0.182847
O O12 0.959035 0.953938 0.930624
O O13 0.431545 0.508344 0.844279
O O14 0.513312 0.348556 0.797295
O O15 0.870139 0.138512 0.584910
O O16 0.743178 0.755301 0.024421
#
# Coordination Sequence:
#
# PCOD9246328 Si02
#       8
#     4   4   4   4   4   4   4   4
#     4  12  25  40  65  93 129 167 206 266 327 382
#     4  10  23  43  64  87 127 171 221 255 304 385
#     4  11  23  39  67  96 128 162 213 268 319 376
#     4  10  23  38  64  93 124 167 212 261 312 372
#     4  12  22  39  62  96 132 161 205 266 331 381
#     4  12  26  45  62  93 130 173 214 261 316 378
#     4  11  23  39  65  96 134 162 208 265 332 382
#     4  10  21  40  68  93 121 169 214 263 313 373
#
# _framework density 21.228670000000001
#
# number of rings (size 3 to 8) (size 9 to 14) (size 15 to 20)
#    0.000    1.000    3.750    3.000    5.250    2.000 
#    2.250    0.000    0.000    3.750    0.000    0.000 
#    0.000    0.000    0.000    0.000    0.000    0.000 
#
# Total GULP energy -178934.390534 kJ/mol
# GULP energy per Si atom -5591.699704 kJ/mol
# Density = 2.118035 g / cm^3
# Si number density = 21.228670 Si / 1000 Ang^3
#
#
#
# Elastic Constant Matrix: (Units=GPa)
#
#
# Indices 1 2 3 4 5 6 
#
# 1 84.9215 20.7378 2.8773 0.0000 -2.0344 0.0000
# 2 20.7378 116.0462 16.2670 0.0000 -3.2876 0.0000
# 3 2.8773 16.2670 28.3529 0.0000 -8.8587 0.0000
# 4 0.0000 0.0000 0.0000 30.9253 0.0000 -2.4602
# 5 -2.0344 -3.2876 -8.8587 0.0000 19.6944 0.0000
# 6 0.0000 0.0000 0.0000 -2.4602 0.0000 22.0069
#
#
#
# Elastic Compliance Matrix: (Units=1/GPa)
#
#
# Indices 1 2 3 4 5 6 
#
# 1 0.012332 -0.002224 0.000356 0.000000 0.001063 0.000000
# 2 -0.002224 0.009789 -0.005761 0.000000 -0.001187 0.000000
# 3 0.000356 -0.005761 0.044505 0.000000 0.019094 0.000000
# 4 0.000000 0.000000 0.000000 0.032626 0.000000 0.003647
# 5 0.001063 -0.001187 0.019094 0.000000 0.059276 0.000000
# 6 0.000000 0.000000 0.000000 0.003647 0.000000 0.045848
#
#
# Mechanical properties :
#
#
# Convention : Reuss Voigt Hill
#
# Bulk Modulus (GPa) = 19.46730 34.34276 26.90503
# Shear Modulus (GPa) = 21.11889 27.15456 24.13672
#
# Velocity S-wave (km/s) = 3.15751 3.58039 3.37558
# Velocity P-wave (km/s) = 4.74166 5.77104 5.28149
#
# Compressibility (1/GPa) = 0.05136818
#
# Stress axis : x y z
#
# Youngs Moduli (GPa) = 81.09003 102.15975 22.46960
#
# Poissons Ratio (x) = 0.22716 -0.00801
# Poissons Ratio (y) = 0.18031 0.12945
# Poissons Ratio (z) = -0.02890 0.58857
#
# Static dielectric constant tensor:
#      x y z
#    x 1.729040 0.000000 -0.007920 
#    y 0.000000 1.804780 0.000000 
#    z -0.007920 0.000000 1.809060 
# 
# From -- ./inp_files/77266.got.cif
#   From: 2010.05.17/outbox.cif.g08.bks.cpg/sg14_39_cif.got.tgz:77266.got - 2010.06.03 17:49:19.
