data_PCOD9246037
_publ_section_title
;
Structure prediction by ZEFSAII (Michael W. Deem and Ramdas Pophale) SiO2 
 PCOD9246037
Probable space group: P 21/C
;
_chemical_formula_sum "Si O2"
_cell_formula_units_Z 16
_cell_length_a 25.670804
_cell_length_b 5.302312
_cell_length_c 9.115829
_cell_angle_alpha 90.000000
_cell_angle_beta 31.472469
_cell_angle_gamma 90.000000
_cell_volume 647.806499
_symmetry_space_group_name_H-M "P 21/C"
_symmetry_group_IT_number 14
_symmetry_cell_setting 'monoclinic'
loop_
_space_group_symop_operation_xyz
x,y,z
-x,1/2+y,1/2-z
-x,-y,-z
x,1/2-y,1/2+z
loop_
_atom_site_type_symbol
_atom_site_label
_atom_site_fract_x
_atom_site_fract_y
_atom_site_fract_z
Si Si1 0.880645 0.526046 0.284312
Si Si2 0.382351 0.394953 0.571882
Si Si3 0.192213 0.973469 0.374748
Si Si4 0.576507 0.105526 0.433662
O O1 0.845126 0.497449 0.201241
O O2 0.853710 0.797967 0.418557
O O3 0.836674 0.296101 0.487118
O O4 0.000000 0.500000 0.000000
O O5 0.311512 0.487593 0.611277
O O6 0.376914 0.619754 0.703259
O O7 0.349801 0.118240 0.700096
O O8 0.498681 0.350128 0.255376
O O9 0.500000 0.000000 0.500000
#
# Coordination Sequence:
#
# PCOD9246037 Si02
#       4
#     4   4   4   4
#     4  12  26  49  73 104 140 181 227 290 356 413
#     4  10  23  37  60  94 126 174 224 270 332 391
#     4  12  26  44  74 106 138 183 232 287 338 423
#     4  10  21  40  60  87 131 173 217 274 328 394
#
# _framework density 24.698737000000001
#
# number of rings (size 3 to 8) (size 9 to 14) (size 15 to 20)
#    0.000    1.000    0.000    6.000    7.000    0.000 
#    0.000    0.000    0.000    0.000    0.000    0.000 
#    0.000    0.000    0.000    0.000    0.000    0.000 
#
# Total GULP energy -89511.964962 kJ/mol
# GULP energy per Si atom -5594.497810 kJ/mol
# Density = 2.464252 g / cm^3
# Si number density = 24.698737 Si / 1000 Ang^3
#
#
#
# Elastic Constant Matrix: (Units=GPa)
#
#
# Indices 1 2 3 4 5 6 
#
# 1 174.5607 7.8196 36.4670 0.0000 9.0062 0.0000
# 2 7.8196 151.7367 29.7309 0.0000 12.2124 0.0000
# 3 36.4670 29.7309 57.0038 0.0000 -17.9057 0.0000
# 4 0.0000 0.0000 0.0000 42.6311 0.0000 1.9720
# 5 9.0062 12.2124 -17.9057 0.0000 48.6754 0.0000
# 6 0.0000 0.0000 0.0000 1.9720 0.0000 41.2317
#
#
#
# Elastic Compliance Matrix: (Units=1/GPa)
#
#
# Indices 1 2 3 4 5 6 
#
# 1 0.007255 0.001240 -0.006566 0.000000 -0.004069 0.000000
# 2 0.001240 0.008184 -0.006534 0.000000 -0.004686 0.000000
# 3 -0.006566 -0.006534 0.029450 0.000000 0.013688 0.000000
# 4 0.000000 0.000000 0.000000 0.023509 0.000000 -0.001124
# 5 -0.004069 -0.004686 0.013688 0.000000 0.027508 0.000000
# 6 0.000000 0.000000 0.000000 -0.001124 0.000000 0.024307
#
#
# Mechanical properties :
#
#
# Convention : Reuss Voigt Hill
#
# Bulk Modulus (GPa) = 47.23695 59.03736 53.13716
# Shear Modulus (GPa) = 33.11512 47.12656 40.12084
#
# Velocity S-wave (km/s) = 3.66561 4.37287 4.03477
# Velocity P-wave (km/s) = 6.08953 7.03213 6.57774
#
# Compressibility (1/GPa) = 0.02116987
#
# Stress axis : x y z
#
# Youngs Moduli (GPa) = 137.84167 122.19233 33.95549
#
# Poissons Ratio (x) = -0.15153 0.22295
# Poissons Ratio (y) = -0.17094 0.22186
# Poissons Ratio (z) = 0.90505 0.79837
#
# Static dielectric constant tensor:
#      x y z
#    x 1.920920 0.000000 0.024860 
#    y 0.000000 2.012930 0.000000 
#    z 0.024860 0.000000 2.039810 
# 
# From -- ./inp_files/14824.got.cif
#   From: 2010.05.17/outbox.cif.g08.bks.cpg/sg14_8_cif.got.tgz:14824.got - 2010.06.03 17:49:19.
