data_PCOD9246374
_publ_section_title
;
Structure prediction by ZEFSAII (Michael W. Deem and Ramdas Pophale) SiO2 
 PCOD9246374
Probable space group: P 21/C
;
_chemical_formula_sum "Si O2"
_cell_formula_units_Z 26
_cell_length_a 18.782983
_cell_length_b 12.821857
_cell_length_c 13.126741
_cell_angle_alpha 90.000000
_cell_angle_beta 159.061280
_cell_angle_gamma 90.000000
_cell_volume 1129.768823
_symmetry_space_group_name_H-M "P 21/C"
_symmetry_group_IT_number 14
_symmetry_cell_setting 'monoclinic'
loop_
_space_group_symop_operation_xyz
x,y,z
-x,1/2+y,1/2-z
-x,-y,-z
x,1/2-y,1/2+z
loop_
_atom_site_type_symbol
_atom_site_label
_atom_site_fract_x
_atom_site_fract_y
_atom_site_fract_z
Si Si1 0.333145 0.131032 0.625034
Si Si2 0.238180 0.625862 0.343645
Si Si3 0.882635 0.743325 0.318296
Si Si4 0.818350 0.938453 0.092683
Si Si5 0.463742 0.230991 0.487918
Si Si6 0.500000 0.000000 0.500000
Si Si7 0.757468 0.085722 0.390740
O O1 0.140135 0.157050 0.299922
O O2 0.316082 0.019273 0.654977
O O3 0.530918 0.138142 0.819346
O O4 0.376176 0.216675 0.768392
O O5 0.139331 0.544977 0.288658
O O6 0.250468 0.581487 0.243910
O O7 0.102274 0.728308 0.150836
O O8 0.801280 0.848955 0.155402
O O9 0.730652 0.714465 0.203180
O O10 0.007021 0.905646 0.275845
O O11 0.629980 0.956321 0.770895
O O12 0.621097 0.316819 0.739004
O O13 0.570387 0.121187 0.616937
#
# Coordination Sequence:
#
# PCOD9246374 Si02
#       7
#     4   4   4   4   4   2   4
#     4  11  21  41  66 105 137 172 238 289 344 418
#     4  10  21  40  71 102 132 189 236 287 350 429
#     4  11  22  41  69 103 134 183 236 287 345 426
#     4  11  22  43  68 103 140 184 237 282 361 427
#     4  11  23  43  67  96 141 180 228 291 355 409
#     4  12  26  44  64 102 148 188 222 302 352 408
#     4  10  22  40  73 102 129 182 235 290 344 428
#
# _framework density 23.013559000000001
#
# number of rings (size 3 to 8) (size 9 to 14) (size 15 to 20)
#    0.000    1.231    1.538    7.385    0.000    3.692 
#    5.538    0.000    0.000   11.077    0.000    0.000 
#    0.000    0.000    0.000    0.000    0.000    0.000 
#
# Total GULP energy -144813.910858 kJ/mol
# GULP energy per Si atom -5569.765802 kJ/mol
# Density = 2.296118 g / cm^3
# Si number density = 23.013559 Si / 1000 Ang^3
#
#
#
# Elastic Constant Matrix: (Units=GPa)
#
#
# Indices 1 2 3 4 5 6 
#
# 1 32.8656 4.3794 14.3189 0.0000 7.1407 0.0000
# 2 4.3794 123.8708 3.4651 0.0000 -0.8087 0.0000
# 3 14.3189 3.4651 57.0925 0.0000 -4.2262 0.0000
# 4 0.0000 0.0000 0.0000 25.0824 0.0000 -4.8189
# 5 7.1407 -0.8087 -4.2262 0.0000 18.3793 0.0000
# 6 0.0000 0.0000 0.0000 -4.8189 0.0000 0.8515
#
#
#
# Elastic Compliance Matrix: (Units=1/GPa)
#
#
# Indices 1 2 3 4 5 6 
#
# 1 0.039312 -0.001196 -0.011110 0.000000 -0.017881 0.000000
# 2 -0.001196 0.008124 -0.000135 0.000000 0.000791 0.000000
# 3 -0.011110 -0.000135 0.020986 0.000000 0.009136 0.000000
# 4 0.000000 0.000000 0.000000 -0.456914 0.000000 -2.585762
# 5 -0.017881 0.000791 0.009136 0.000000 0.063492 0.000000
# 6 0.000000 0.000000 0.000000 -2.585762 0.000000-13.458947
#
#
# Mechanical properties :
#
#
# Convention : Reuss Voigt Hill
#
# Bulk Modulus (GPa) = 22.96706 28.68399 25.82552
# Shear Modulus (GPa) = -0.36378 21.64036 10.63829
#
# Velocity S-wave (km/s) = -0.39801 3.06981 2.15236
# Velocity P-wave (km/s) = 3.12894 5.00559 4.17410
#
# Compressibility (1/GPa) = 0.04354062
#
# Stress axis : x y z
#
# Youngs Moduli (GPa) = 25.43763 123.09005 47.64985
#
# Poissons Ratio (x) = 0.14719 0.52941
# Poissons Ratio (y) = 0.03042 0.00641
# Poissons Ratio (z) = 0.28262 0.01657
#
# Static dielectric constant tensor:
#      x y z
#    x 1.935880 0.000000 -0.029110 
#    y 0.000000 1.848280 0.000000 
#    z -0.029110 0.000000 1.942390 
# 
# From -- ./inp_files/50501.got.cif
#   From: 2010.05.17/outbox.cif.g08.bks.cpg/sg14_26_cif.got.tgz:50501.got - 2010.06.03 17:49:19.
