data_PCOD9246190
_publ_section_title
;
Structure prediction by ZEFSAII (Michael W. Deem and Ramdas Pophale) SiO2 
 PCOD9246190
Probable space group: P 21/C
;
_chemical_formula_sum "Si O2"
_cell_formula_units_Z 32
_cell_length_a 14.042330
_cell_length_b 17.247969
_cell_length_c 5.398619
_cell_angle_alpha 90.000000
_cell_angle_beta 73.139917
_cell_angle_gamma 90.000000
_cell_volume 1251.350468
_symmetry_space_group_name_H-M "P 21/C"
_symmetry_group_IT_number 14
_symmetry_cell_setting 'monoclinic'
loop_
_space_group_symop_operation_xyz
x,y,z
-x,1/2+y,1/2-z
-x,-y,-z
x,1/2-y,1/2+z
loop_
_atom_site_type_symbol
_atom_site_label
_atom_site_fract_x
_atom_site_fract_y
_atom_site_fract_z
Si Si1 0.274903 0.286742 0.706286
Si Si2 0.347726 0.554573 0.625116
Si Si3 0.078234 0.437200 0.545731
Si Si4 0.824811 0.158805 0.889694
Si Si5 0.092243 0.663915 0.176751
Si Si6 0.801353 0.551544 0.046612
Si Si7 0.494316 0.271274 0.031795
Si Si8 0.543394 0.560454 0.774467
O O1 0.239136 0.269939 0.454712
O O2 0.249269 0.369555 0.828068
O O3 0.394396 0.280211 0.599138
O O4 0.285709 0.629381 0.586820
O O5 0.281487 0.515488 0.889585
O O6 0.458135 0.574279 0.631551
O O7 0.363765 0.484159 0.417072
O O8 0.124898 0.463078 0.773714
O O9 0.000000 0.500000 0.500000
O O10 0.019526 0.356318 0.652801
O O11 0.152058 0.432660 0.256669
O O12 0.891002 0.130143 0.608322
O O13 0.862147 0.248807 0.880547
O O14 0.846357 0.126405 0.145434
O O15 0.550653 0.253994 0.736539
O O16 0.451942 0.358093 0.088002
O O17 0.500000 0.500000 0.000000
#
# Coordination Sequence:
#
# PCOD9246190 Si02
#       8
#     4   4   4   4   4   4   4   4
#     4  10  21  40  64  94 137 177 233 283 362 416
#     4  11  26  46  72 112 142 201 252 308 384 442
#     4  12  25  45  72 109 148 192 241 304 377 439
#     4  10  22  44  74  97 147 194 239 308 367 449
#     4  10  22  45  69 102 145 192 242 309 369 448
#     4  12  26  43  75 106 144 191 246 300 366 461
#     4  10  23  45  73  99 146 195 237 307 378 433
#     4  11  28  46  79 107 158 197 261 320 378 460
#
# _framework density 25.572374
#
# number of rings (size 3 to 8) (size 9 to 14) (size 15 to 20)
#    0.000    1.250    0.000    4.875   10.500    0.000 
#   18.000    0.000    0.000    0.000    0.000    0.000 
#    0.000    0.000    0.000    0.000    0.000    0.000 
#
# Total GULP energy -178789.631082 kJ/mol
# GULP energy per Si atom -5587.175971 kJ/mol
# Density = 2.551417 g / cm^3
# Si number density = 25.572374 Si / 1000 Ang^3
#
#
#
# Elastic Constant Matrix: (Units=GPa)
#
#
# Indices 1 2 3 4 5 6 
#
# 1 68.2638 33.0307 7.7332 0.0000 -0.0902 0.0000
# 2 33.0307 130.5975 36.0580 0.0000 -18.1283 0.0000
# 3 7.7332 36.0580 161.5452 0.0000 9.2581 0.0000
# 4 0.0000 0.0000 0.0000 39.1793 0.0000 -12.5957
# 5 -0.0902 -18.1283 9.2581 0.0000 41.6760 0.0000
# 6 0.0000 0.0000 0.0000 -12.5957 0.0000 52.0371
#
#
#
# Elastic Compliance Matrix: (Units=1/GPa)
#
#
# Indices 1 2 3 4 5 6 
#
# 1 0.016855 -0.004645 0.000348 0.000000 -0.002061 0.000000
# 2 -0.004645 0.010158 -0.002327 0.000000 0.004926 0.000000
# 3 0.000348 -0.002327 0.006838 0.000000 -0.002531 0.000000
# 4 0.000000 0.000000 0.000000 0.027677 0.000000 0.006699
# 5 -0.002061 0.004926 -0.002531 0.000000 0.026695 0.000000
# 6 0.000000 0.000000 0.000000 0.006699 0.000000 0.020839
#
#
# Mechanical properties :
#
#
# Convention : Reuss Voigt Hill
#
# Bulk Modulus (GPa) = 48.53842 57.11671 52.82756
# Shear Modulus (GPa) = 38.70636 45.48413 42.09524
#
# Velocity S-wave (km/s) = 3.89472 4.22197 4.06164
# Velocity P-wave (km/s) = 6.26476 6.79342 6.53444
#
# Compressibility (1/GPa) = 0.02060224
#
# Stress axis : x y z
#
# Youngs Moduli (GPa) = 59.33133 98.44224 146.24043
#
# Poissons Ratio (x) = 0.45727 -0.05091
# Poissons Ratio (y) = 0.27560 0.34035
# Poissons Ratio (z) = -0.02065 0.22911
#
# Static dielectric constant tensor:
#      x y z
#    x 2.049380 0.000000 0.074080 
#    y 0.000000 2.499910 0.000000 
#    z 0.074080 0.000000 2.122050 
# 
# From -- ./inp_files/3785.got.cif
#   From: 2010.05.17/outbox.cif.g08.bks.cpg/sg14_2_cif.got.tgz:3785.got - 2010.06.03 17:49:19.
