data_PCOD9246696
_publ_section_title
;
Structure prediction by ZEFSAII (Michael W. Deem and Ramdas Pophale) SiO2 
 PCOD9246696
Probable space group: P 21/C
;
_chemical_formula_sum "Si O2"
_cell_formula_units_Z 26
_cell_length_a 16.644117
_cell_length_b 11.447970
_cell_length_c 12.391338
_cell_angle_alpha 90.000000
_cell_angle_beta 155.173421
_cell_angle_gamma 90.000000
_cell_volume 991.346657
_symmetry_space_group_name_H-M "P 21/C"
_symmetry_group_IT_number 14
_symmetry_cell_setting 'monoclinic'
loop_
_space_group_symop_operation_xyz
x,y,z
-x,1/2+y,1/2-z
-x,-y,-z
x,1/2-y,1/2+z
loop_
_atom_site_type_symbol
_atom_site_label
_atom_site_fract_x
_atom_site_fract_y
_atom_site_fract_z
Si Si1 0.593934 0.294905 0.233934
Si Si2 0.421190 0.627585 0.021725
Si Si3 0.877785 0.087475 0.594106
Si Si4 0.754439 0.506733 0.550559
Si Si5 0.000000 0.500000 0.000000
Si Si6 0.039940 0.733577 0.610017
Si Si7 0.230222 0.098957 0.368815
O O1 0.703353 0.172873 0.356903
O O2 0.740264 0.394903 0.455864
O O3 0.526458 0.332369 0.032812
O O4 0.409429 0.313957 0.084639
O O5 0.599786 0.592821 0.313257
O O6 0.269640 0.719212 0.883573
O O7 0.296402 0.507579 0.871385
O O8 0.005974 0.159823 0.837645
O O9 0.023164 0.058111 0.673772
O O10 0.811336 0.969191 0.571342
O O11 0.755960 0.486152 0.678601
O O12 0.027432 0.364336 0.979319
O O13 0.950046 0.665056 0.399024
#
# Coordination Sequence:
#
# PCOD9246696 Si02
#       7
#     4   4   4   4   2   4   4
#     4  11  21  41  68 104 140 173 244 293 349 425
#     4  10  21  41  73 102 131 186 237 296 351 435
#     4  11  22  41  71 104 138 186 239 292 354 432
#     4  11  23  43  67 100 142 184 234 293 363 420
#     4  12  26  44  68 102 152 190 230 310 358 416
#     4  11  22  43  68 103 143 186 241 288 369 430
#     4  10  22  39  71 100 137 190 242 292 355 436
#
# _framework density 26.226952000000001
#
# number of rings (size 3 to 8) (size 9 to 14) (size 15 to 20)
#    0.000    1.231    1.538    7.385    0.000    3.692 
#    0.000    0.000    0.000   12.923    0.000    0.000 
#    0.000    0.000    0.000    0.000    0.000    0.000 
#
# Total GULP energy -145139.699916 kJ/mol
# GULP energy per Si atom -5582.296151 kJ/mol
# Density = 2.616726 g / cm^3
# Si number density = 26.226952 Si / 1000 Ang^3
#
#
#
# Elastic Constant Matrix: (Units=GPa)
#
#
# Indices 1 2 3 4 5 6 
#
# 1 82.7519 48.6713 27.4645 0.0000 0.6313 0.0000
# 2 48.6713 160.9312 61.1054 0.0000 -1.4455 0.0000
# 3 27.4645 61.1054 193.5467 0.0000 -17.7255 0.0000
# 4 0.0000 0.0000 0.0000 53.2634 0.0000 -2.8885
# 5 0.6313 -1.4455 -17.7255 0.0000 43.2379 0.0000
# 6 0.0000 0.0000 0.0000 -2.8885 0.0000 14.8901
#
#
#
# Elastic Compliance Matrix: (Units=1/GPa)
#
#
# Indices 1 2 3 4 5 6 
#
# 1 0.014823 -0.004165 -0.000853 0.000000 -0.000705 0.000000
# 2 -0.004165 0.008251 -0.002061 0.000000 -0.000508 0.000000
# 3 -0.000853 -0.002061 0.006165 0.000000 0.002471 0.000000
# 4 0.000000 0.000000 0.000000 0.018974 0.000000 0.003681
# 5 -0.000705 -0.000508 0.002471 0.000000 0.024134 0.000000
# 6 0.000000 0.000000 0.000000 0.003681 0.000000 0.067873
#
#
# Mechanical properties :
#
#
# Convention : Reuss Voigt Hill
#
# Bulk Modulus (GPa) = 66.30852 79.07914 72.69383
# Shear Modulus (GPa) = 31.36679 42.27750 36.82215
#
# Velocity S-wave (km/s) = 3.46204 4.01931 3.75104
# Velocity P-wave (km/s) = 6.42794 7.19424 6.82186
#
# Compressibility (1/GPa) = 0.01508102
#
# Stress axis : x y z
#
# Youngs Moduli (GPa) = 67.46417 121.19111 162.21764
#
# Poissons Ratio (x) = 0.50481 0.13835
# Poissons Ratio (y) = 0.28102 0.33426
# Poissons Ratio (z) = 0.05754 0.24972
#
# Static dielectric constant tensor:
#      x y z
#    x 2.250540 0.000000 -0.089960 
#    y 0.000000 2.128120 0.000000 
#    z -0.089960 0.000000 2.151980 
# 
# From -- ./inp_files/50498.got.cif
#   From: 2010.05.17/outbox.cif.g08.bks.cpg/sg14_26_cif.got.tgz:50498.got - 2010.06.03 17:49:19.
