data_PCOD9246277
_publ_section_title
;
Structure prediction by ZEFSAII (Michael W. Deem and Ramdas Pophale) SiO2 
 PCOD9246277
Probable space group: P 21/C
;
_chemical_formula_sum "Si O2"
_cell_formula_units_Z 28
_cell_length_a 12.613438
_cell_length_b 16.491907
_cell_length_c 8.487193
_cell_angle_alpha 90.000000
_cell_angle_beta 134.119204
_cell_angle_gamma 90.000000
_cell_volume 1267.442175
_symmetry_space_group_name_H-M "P 21/C"
_symmetry_group_IT_number 14
_symmetry_cell_setting 'monoclinic'
loop_
_space_group_symop_operation_xyz
x,y,z
-x,1/2+y,1/2-z
-x,-y,-z
x,1/2-y,1/2+z
loop_
_atom_site_type_symbol
_atom_site_label
_atom_site_fract_x
_atom_site_fract_y
_atom_site_fract_z
Si Si1 0.101555 0.644214 0.276811
Si Si2 0.729030 0.258957 0.819106
Si Si3 0.249725 0.159663 0.557592
Si Si4 0.426712 0.644802 0.062684
Si Si5 0.770482 0.994651 0.659993
Si Si6 0.709700 0.834116 0.046827
Si Si7 0.079551 0.463709 0.351760
O O1 0.164593 0.690321 0.496286
O O2 0.183494 0.687128 0.216807
O O3 0.126062 0.547575 0.314688
O O4 0.926125 0.656467 0.092551
O O5 0.594947 0.210003 0.598339
O O6 0.667175 0.315452 0.892134
O O7 0.276082 0.241133 0.488119
O O8 0.327593 0.158903 0.807732
O O9 0.291303 0.081781 0.498372
O O10 0.586992 0.631168 0.301084
O O11 0.351827 0.561422 0.935044
O O12 0.903707 0.033526 0.694238
O O13 0.848579 0.965435 0.900349
O O14 0.858613 0.885245 0.171163
#
# Coordination Sequence:
#
# PCOD9246277 Si02
#       7
#     4   4   4   4   4   4   4
#     4  10  21  40  66  97 120 165 214 270 314 369
#     4  10  22  39  67  92 126 165 216 259 318 381
#     4  11  25  41  66  94 129 169 212 269 319 380
#     4  11  24  43  64  94 131 170 208 263 318 389
#     4  10  23  43  66  95 130 166 216 266 317 377
#     4  12  26  43  64  95 131 171 211 259 327 385
#     4  10  23  42  65  96 128 164 217 266 320 373
#
# _framework density 22.091739
#
# number of rings (size 3 to 8) (size 9 to 14) (size 15 to 20)
#    0.000    1.429    1.429    2.571    8.000    2.286 
#    5.143    0.000    0.000    0.000    0.000    0.000 
#    0.000    0.000    0.000    0.000    0.000    0.000 
#
# Total GULP energy -156749.657198 kJ/mol
# GULP energy per Si atom -5598.202043 kJ/mol
# Density = 2.204146 g / cm^3
# Si number density = 22.091739 Si / 1000 Ang^3
#
#
#
# Elastic Constant Matrix: (Units=GPa)
#
#
# Indices 1 2 3 4 5 6 
#
# 1 17.8902 14.5479 -6.9082 0.0000 -4.2175 0.0000
# 2 14.5479 61.4580 3.6135 0.0000 -11.2379 0.0000
# 3 -6.9082 3.6135 77.8703 0.0000 -10.8119 0.0000
# 4 0.0000 0.0000 0.0000 20.9827 0.0000 10.2370
# 5 -4.2175 -11.2379 -10.8119 0.0000 27.9396 0.0000
# 6 0.0000 0.0000 0.0000 10.2370 0.0000 7.5366
#
#
#
# Elastic Compliance Matrix: (Units=1/GPa)
#
#
# Indices 1 2 3 4 5 6 
#
# 1 0.074621 -0.016733 0.008482 0.000000 0.007816 0.000000
# 2 -0.016733 0.021318 -0.001727 0.000000 0.005380 0.000000
# 3 0.008482 -0.001727 0.014537 0.000000 0.006211 0.000000
# 4 0.000000 0.000000 0.000000 0.141286 0.000000 -0.191908
# 5 0.007816 0.005380 0.006211 0.000000 0.041539 0.000000
# 6 0.000000 0.000000 0.000000 -0.191908 0.000000 0.393352
#
#
# Mechanical properties :
#
#
# Convention : Reuss Voigt Hill
#
# Bulk Modulus (GPa) = 11.04741 19.96945 15.50843
# Shear Modulus (GPa) = 6.78626 21.02283 13.90454
#
# Velocity S-wave (km/s) = 1.75457 3.08817 2.51151
# Velocity P-wave (km/s) = 3.01931 4.66634 3.93007
#
# Compressibility (1/GPa) = 0.09051898
#
# Stress axis : x y z
#
# Youngs Moduli (GPa) = 13.40099 46.90956 68.79082
#
# Poissons Ratio (x) = 0.78496 -0.58346
# Poissons Ratio (y) = 0.22424 0.11878
# Poissons Ratio (z) = -0.11366 0.08100
#
# Static dielectric constant tensor:
#      x y z
#    x 1.799840 0.000000 0.002820 
#    y 0.000000 1.767820 0.000000 
#    z 0.002820 0.000000 1.819290 
# 
# From -- ./inp_files/13177.got.cif
#   From: 2010.05.17/outbox.cif.g08.bks.cpg/sg14_7_cif.got.tgz:13177.got - 2010.06.03 17:49:19.
