data_PCOD9246054
_publ_section_title
;
Structure prediction by ZEFSAII (Michael W. Deem and Ramdas Pophale) SiO2 
 PCOD9246054
Probable space group: P 21/C
;
_chemical_formula_sum "Si O2"
_cell_formula_units_Z 16
_cell_length_a 12.229048
_cell_length_b 8.184254
_cell_length_c 9.399684
_cell_angle_alpha 90.000000
_cell_angle_beta 37.871953
_cell_angle_gamma 90.000000
_cell_volume 577.539682
_symmetry_space_group_name_H-M "P 21/C"
_symmetry_group_IT_number 14
_symmetry_cell_setting 'monoclinic'
loop_
_space_group_symop_operation_xyz
x,y,z
-x,1/2+y,1/2-z
-x,-y,-z
x,1/2-y,1/2+z
loop_
_atom_site_type_symbol
_atom_site_label
_atom_site_fract_x
_atom_site_fract_y
_atom_site_fract_z
Si Si1 0.027722 0.039138 0.763351
Si Si2 0.533482 0.271532 0.423833
Si Si3 0.616820 0.560856 0.681674
Si Si4 0.074138 0.739002 0.884078
O O1 0.036600 0.112965 0.597461
O O2 0.037920 0.180038 0.873016
O O3 0.135158 0.884954 0.711772
O O4 0.825920 0.972577 0.977208
O O5 0.435964 0.214688 0.666777
O O6 0.443099 0.403964 0.416517
O O7 0.738493 0.316667 0.244803
O O8 0.532501 0.102653 0.333394
#
# Coordination Sequence:
#
# PCOD9246054 Si02
#       4
#     4   4   4   4
#     4  10  23  41  61  88 119 155 196 243 293 349
#     4  10  21  40  61  89 122 152 196 246 290 348
#     4  10  22  38  61  88 120 156 196 243 292 346
#     4  10  22  41  61  87 121 153 196 243 291 349
#
# _framework density 27.703724999999999
#
# number of rings (size 3 to 8) (size 9 to 14) (size 15 to 20)
#    0.000    2.000    0.000    3.000    0.000   13.000 
#    0.000    0.000    0.000    0.000    0.000    0.000 
#    0.000    0.000    0.000    0.000    0.000    0.000 
#
# Total GULP energy -89833.125197 kJ/mol
# GULP energy per Si atom -5614.570325 kJ/mol
# Density = 2.764067 g / cm^3
# Si number density = 27.703725 Si / 1000 Ang^3
#
#
#
# Elastic Constant Matrix: (Units=GPa)
#
#
# Indices 1 2 3 4 5 6 
#
# 1 164.3612 44.0775 42.6292 0.0000 46.7776 0.0000
# 2 44.0775 86.8761 41.7477 0.0000 19.5935 0.0000
# 3 42.6292 41.7477 59.9520 0.0000 26.2373 0.0000
# 4 0.0000 0.0000 0.0000 54.4153 0.0000 22.6119
# 5 46.7776 19.5935 26.2373 0.0000 45.1498 0.0000
# 6 0.0000 0.0000 0.0000 22.6119 0.0000 73.6976
#
#
#
# Elastic Compliance Matrix: (Units=1/GPa)
#
#
# Indices 1 2 3 4 5 6 
#
# 1 0.009302 -0.002140 -0.001760 0.000000 -0.007686 0.000000
# 2 -0.002140 0.017808 -0.011355 0.000000 0.001088 0.000000
# 3 -0.001760 -0.011355 0.030689 0.000000 -0.011082 0.000000
# 4 0.000000 0.000000 0.000000 0.021063 0.000000 -0.006462
# 5 -0.007686 0.001088 -0.011082 0.000000 0.036079 0.000000
# 6 0.000000 0.000000 0.000000 -0.006462 0.000000 0.015552
#
#
# Mechanical properties :
#
#
# Convention : Reuss Voigt Hill
#
# Bulk Modulus (GPa) = 36.64645 63.12204 49.88425
# Shear Modulus (GPa) = 29.39477 46.83484 38.11481
#
# Velocity S-wave (km/s) = 3.26090 4.11610 3.71320
# Velocity P-wave (km/s) = 5.23781 6.73972 6.03567
#
# Compressibility (1/GPa) = 0.02728777
#
# Stress axis : x y z
#
# Youngs Moduli (GPa) = 107.50328 56.15600 32.58534
#
# Poissons Ratio (x) = 0.12018 0.05736
# Poissons Ratio (y) = 0.23007 0.36999
# Poissons Ratio (z) = 0.18925 0.63763
#
# Static dielectric constant tensor:
#      x y z
#    x 2.062470 0.000000 0.043840 
#    y 0.000000 2.264160 0.000000 
#    z 0.043840 0.000000 2.127570 
# 
# From -- ./inp_files/7189.got.cif
#   From: 2010.05.17/outbox.cif.g08.bks.cpg/sg14_4_cif.got.tgz:7189.got - 2010.06.03 17:49:19.
