data_PCOD9246779
_publ_section_title
;
Structure prediction by ZEFSAII (Michael W. Deem and Ramdas Pophale) SiO2 
 PCOD9246779
Probable space group: P 21/C
;
_chemical_formula_sum "Si O2"
_cell_formula_units_Z 32
_cell_length_a 6.859717
_cell_length_b 16.661384
_cell_length_c 13.087529
_cell_angle_alpha 90.000000
_cell_angle_beta 90.181254
_cell_angle_gamma 90.000000
_cell_volume 1495.797341
_symmetry_space_group_name_H-M "P 21/C"
_symmetry_group_IT_number 14
_symmetry_cell_setting 'monoclinic'
loop_
_space_group_symop_operation_xyz
x,y,z
-x,1/2+y,1/2-z
-x,-y,-z
x,1/2-y,1/2+z
loop_
_atom_site_type_symbol
_atom_site_label
_atom_site_fract_x
_atom_site_fract_y
_atom_site_fract_z
Si Si1 0.783354 0.012775 0.462754
Si Si2 0.827036 0.301167 0.918893
Si Si3 0.546787 0.050570 0.654302
Si Si4 0.197448 0.038780 0.956738
Si Si5 0.873099 0.810476 0.194458
Si Si6 0.490805 0.712375 0.228950
Si Si7 0.808943 0.298176 0.145459
Si Si8 0.535215 0.950495 0.844703
O O1 0.795377 0.103081 0.418483
O O2 0.658109 0.999801 0.566646
O O3 0.679182 0.959444 0.376235
O O4 0.000000 0.000000 0.500000
O O5 0.613986 0.272924 0.880323
O O6 0.003576 0.262767 0.856090
O O7 0.873621 0.275801 0.033717
O O8 0.638732 0.136409 0.635977
O O9 0.587803 0.024435 0.769734
O O10 0.158084 0.116360 0.884609
O O11 0.324368 0.974451 0.891214
O O12 0.326357 0.060691 0.057136
O O13 0.000000 0.000000 0.000000
O O14 0.670627 0.773269 0.233603
O O15 0.015867 0.833644 0.287805
O O16 0.303631 0.726959 0.300574
O O17 0.551222 0.624233 0.266533
#
# Coordination Sequence:
#
# PCOD9246779 Si02
#       8
#     4   4   4   4   4   4   4   4
#     4  10  22  38  64  99 133 177 222 278 340 418
#     4  10  24  42  64 100 135 171 222 280 340 414
#     4  10  21  42  64  92 138 173 225 277 345 398
#     4  11  27  46  70 100 137 178 234 283 337 413
#     4  11  26  43  70 103 133 179 230 284 345 413
#     4  11  25  43  68  95 138 174 225 280 347 408
#     4  10  24  43  66  98 134 175 221 286 340 410
#     4  11  25  43  70  99 129 186 226 277 344 410
#
# _framework density 21.393270999999999
#
# number of rings (size 3 to 8) (size 9 to 14) (size 15 to 20)
#    0.000    1.500    1.250    1.500    7.000    8.000 
#    0.000    0.000    0.000    0.000    0.000    0.000 
#    0.000    0.000    0.000    0.000    0.000    0.000 
#
# Total GULP energy -178398.783511 kJ/mol
# GULP energy per Si atom -5574.961985 kJ/mol
# Density = 2.134458 g / cm^3
# Si number density = 21.393271 Si / 1000 Ang^3
#
#
#
# Elastic Constant Matrix: (Units=GPa)
#
#
# Indices 1 2 3 4 5 6 
#
# 1 128.2096 23.0057 34.8174 0.0000 10.6617 0.0000
# 2 23.0057 37.0606 6.6096 0.0000 0.8875 0.0000
# 3 34.8174 6.6096 99.6874 0.0000 9.2041 0.0000
# 4 0.0000 0.0000 0.0000 29.2911 0.0000 -1.9701
# 5 10.6617 0.8875 9.2041 0.0000 32.9768 0.0000
# 6 0.0000 0.0000 0.0000 -1.9701 0.0000 28.8993
#
#
#
# Elastic Compliance Matrix: (Units=1/GPa)
#
#
# Indices 1 2 3 4 5 6 
#
# 1 0.009737 -0.005486 -0.002833 0.000000 -0.002210 0.000000
# 2 -0.005486 0.030399 -0.000193 0.000000 0.001009 0.000000
# 3 -0.002833 -0.000193 0.011238 0.000000 -0.002216 0.000000
# 4 0.000000 0.000000 0.000000 0.034297 0.000000 0.002338
# 5 -0.002210 0.001009 -0.002216 0.000000 0.031630 0.000000
# 6 0.000000 0.000000 0.000000 0.002338 0.000000 0.034762
#
#
# Mechanical properties :
#
#
# Convention : Reuss Voigt Hill
#
# Bulk Modulus (GPa) = 29.11192 43.75811 36.43502
# Shear Modulus (GPa) = 27.69503 31.60177 29.64840
#
# Velocity S-wave (km/s) = 3.60191 3.84758 3.72677
# Velocity P-wave (km/s) = 5.56200 6.34327 5.96544
#
# Compressibility (1/GPa) = 0.03435019
#
# Stress axis : x y z
#
# Youngs Moduli (GPa) = 102.69755 32.89620 88.98225
#
# Poissons Ratio (x) = 0.18048 0.25210
# Poissons Ratio (y) = 0.56343 0.01713
# Poissons Ratio (z) = 0.29096 0.00633
#
# Static dielectric constant tensor:
#      x y z
#    x 1.835200 0.000000 0.064620 
#    y 0.000000 1.742330 0.000000 
#    z 0.064620 0.000000 1.963180 
# 
# From -- ./inp_files/37864.got.cif
#   From: 2010.05.17/outbox.cif.g08.bks.cpg/sg14_19_cif.got.tgz:37864.got - 2010.06.03 17:49:19.
