data_PCOD9246822
_publ_section_title
;
Structure prediction by ZEFSAII (Michael W. Deem and Ramdas Pophale) SiO2 
 PCOD9246822
Probable space group: P 21/C
;
_chemical_formula_sum "Si O2"
_cell_formula_units_Z 28
_cell_length_a 5.188893
_cell_length_b 25.650800
_cell_length_c 9.506834
_cell_angle_alpha 90.000000
_cell_angle_beta 82.494185
_cell_angle_gamma 90.000000
_cell_volume 1254.510502
_symmetry_space_group_name_H-M "P 21/C"
_symmetry_group_IT_number 14
_symmetry_cell_setting 'monoclinic'
loop_
_space_group_symop_operation_xyz
x,y,z
-x,1/2+y,1/2-z
-x,-y,-z
x,1/2-y,1/2+z
loop_
_atom_site_type_symbol
_atom_site_label
_atom_site_fract_x
_atom_site_fract_y
_atom_site_fract_z
Si Si1 0.535480 0.199783 0.432073
Si Si2 0.448720 0.613636 0.660516
Si Si3 0.013057 0.050098 0.901331
Si Si4 0.571311 0.411353 0.026502
Si Si5 0.168676 0.502147 0.123632
Si Si6 0.859988 0.242733 0.153641
Si Si7 0.178444 0.288966 0.378644
O O1 0.458143 0.140960 0.469824
O O2 0.723959 0.208504 0.284948
O O3 0.665713 0.225930 0.562186
O O4 0.286672 0.231814 0.403086
O O5 0.216480 0.593004 0.577436
O O6 0.330027 0.607657 0.827061
O O7 0.579688 0.670865 0.639417
O O8 0.704135 0.577462 0.616256
O O9 0.989937 0.019169 0.757320
O O10 0.000000 0.000000 0.000000
O O11 0.388672 0.458688 0.087356
O O12 0.732445 0.438653 0.889040
O O13 0.000000 0.500000 0.000000
O O14 0.030897 0.283379 0.238747
O O15 0.005708 0.204651 0.031880
#
# Coordination Sequence:
#
# PCOD9246822 Si02
#       7
#     4   4   4   4   4   4   4
#     4  11  23  43  68  96 140 174 229 281 345 410
#     4  11  24  42  74  93 136 183 224 275 352 406
#     4  11  25  45  67 100 132 178 225 283 344 413
#     4  10  22  39  68  98 124 180 222 286 337 409
#     4  10  21  42  66  93 131 165 233 278 341 410
#     4  10  24  41  66  96 139 178 226 283 337 420
#     4  11  24  43  65 100 137 179 230 279 341 424
#
# _framework density 22.319464
#
# number of rings (size 3 to 8) (size 9 to 14) (size 15 to 20)
#    0.000    1.429    1.429    3.000    6.000    3.429 
#    2.571    0.000    0.000    0.000    0.000    0.000 
#    0.000    0.000    0.000    0.000    0.000    0.000 
#
# Total GULP energy -155944.148259 kJ/mol
# GULP energy per Si atom -5569.433866 kJ/mol
# Density = 2.226866 g / cm^3
# Si number density = 22.319464 Si / 1000 Ang^3
#
#
#
# Elastic Constant Matrix: (Units=GPa)
#
#
# Indices 1 2 3 4 5 6 
#
# 1 55.1696 -11.6937 12.5908 0.0000 12.8018 0.0000
# 2 -11.6937 83.7917 10.7225 0.0000 5.4991 0.0000
# 3 12.5908 10.7225 103.7255 0.0000 5.2344 0.0000
# 4 0.0000 0.0000 0.0000 29.0126 0.0000 3.6238
# 5 12.8018 5.4991 5.2344 0.0000 23.8079 0.0000
# 6 0.0000 0.0000 0.0000 3.6238 0.0000 29.2763
#
#
#
# Elastic Compliance Matrix: (Units=1/GPa)
#
#
# Indices 1 2 3 4 5 6 
#
# 1 0.022528 0.004293 -0.002545 0.000000 -0.012546 0.000000
# 2 0.004293 0.013067 -0.001621 0.000000 -0.004970 0.000000
# 3 -0.002545 -0.001621 0.010142 0.000000 -0.000487 0.000000
# 4 0.000000 0.000000 0.000000 0.035009 0.000000 -0.004333
# 5 -0.012546 -0.004970 -0.000487 0.000000 0.050004 0.000000
# 6 0.000000 0.000000 0.000000 -0.004333 0.000000 0.034694
#
#
# Mechanical properties :
#
#
# Convention : Reuss Voigt Hill
#
# Bulk Modulus (GPa) = 21.74376 29.54730 25.64553
# Shear Modulus (GPa) = 27.69773 31.82384 29.76078
#
# Velocity S-wave (km/s) = 3.52656 3.78012 3.65554
# Velocity P-wave (km/s) = 5.13277 5.68502 5.41594
#
# Compressibility (1/GPa) = 0.04599021
#
# Stress axis : x y z
#
# Youngs Moduli (GPa) = 44.38945 76.52811 98.60057
#
# Poissons Ratio (x) = -0.32853 0.25096
# Poissons Ratio (y) = -0.19056 0.15984
# Poissons Ratio (z) = 0.11298 0.12406
#
# Static dielectric constant tensor:
#      x y z
#    x 1.937300 0.000000 -0.049940 
#    y 0.000000 1.715150 0.000000 
#    z -0.049940 0.000000 1.864350 
# 
# From -- ./inp_files/6524.got.cif
#   From: 2010.05.17/outbox.cif.g08.bks.cpg/sg14_4_cif.got.tgz:6524.got - 2010.06.03 17:49:19.
