data_PCOD9246658
_publ_section_title
;
Structure prediction by ZEFSAII (Michael W. Deem and Ramdas Pophale) SiO2 
 PCOD9246658
Probable space group: P 21/C
;
_chemical_formula_sum "Si O2"
_cell_formula_units_Z 32
_cell_length_a 22.947911
_cell_length_b 5.403355
_cell_length_c 12.416440
_cell_angle_alpha 90.000000
_cell_angle_beta 104.160434
_cell_angle_gamma 90.000000
_cell_volume 1492.804247
_symmetry_space_group_name_H-M "P 21/C"
_symmetry_group_IT_number 14
_symmetry_cell_setting 'monoclinic'
loop_
_space_group_symop_operation_xyz
x,y,z
-x,1/2+y,1/2-z
-x,-y,-z
x,1/2-y,1/2+z
loop_
_atom_site_type_symbol
_atom_site_label
_atom_site_fract_x
_atom_site_fract_y
_atom_site_fract_z
Si Si1 0.786683 0.408732 0.665369
Si Si2 0.265411 0.420379 0.764081
Si Si3 0.076974 0.509358 0.240983
Si Si4 0.524842 0.603985 0.622595
Si Si5 0.971102 0.993684 0.869991
Si Si6 0.695260 0.012789 0.943407
Si Si7 0.381520 0.129923 0.454586
Si Si8 0.587843 0.313372 0.825663
O O1 0.762674 0.668580 0.702057
O O2 0.857126 0.453067 0.680342
O O3 0.748299 0.374309 0.538526
O O4 0.774197 0.167246 0.733759
O O5 0.277864 0.361096 0.644137
O O6 0.326160 0.474756 0.860634
O O7 0.068309 0.251885 0.172256
O O8 0.025983 0.508736 0.309619
O O9 0.064636 0.751622 0.163624
O O10 0.500000 0.500000 0.500000
O O11 0.564125 0.837016 0.604239
O O12 0.573147 0.440678 0.707286
O O13 0.468304 0.635633 0.674974
O O14 0.000000 0.000000 0.000000
O O15 0.653599 0.202197 0.860143
O O16 0.648997 0.871295 0.002469
O O17 0.409731 0.989337 0.568619
#
# Coordination Sequence:
#
# PCOD9246658 Si02
#       8
#     4   4   4   4   4   4   4   4
#     4  11  25  46  65 103 136 183 228 279 330 396
#     4  11  26  42  71  93 135 180 227 276 340 399
#     4  10  22  40  68 101 144 176 235 276 326 398
#     4  12  26  42  66  94 124 165 217 285 352 426
#     4  10  21  41  69 105 139 189 219 281 336 383
#     4  11  26  44  66  95 128 176 221 276 341 412
#     4  11  24  46  66  92 125 171 213 285 343 418
#     4  12  26  44  66  94 125 164 222 274 357 421
#
# _framework density 21.436166
#
# number of rings (size 3 to 8) (size 9 to 14) (size 15 to 20)
#    0.000    1.000    2.500    3.000    8.750    2.000 
#    0.000    0.000    0.000    0.000    0.000    0.000 
#    0.000    0.000    0.000    0.000    0.000    0.000 
#
# Total GULP energy -178733.563202 kJ/mol
# GULP energy per Si atom -5585.423850 kJ/mol
# Density = 2.138738 g / cm^3
# Si number density = 21.436166 Si / 1000 Ang^3
#
#
#
# Elastic Constant Matrix: (Units=GPa)
#
#
# Indices 1 2 3 4 5 6 
#
# 1 35.9748 -2.3759 -23.0875 0.0000 9.0992 0.0000
# 2 -2.3759 80.5681 2.0757 0.0000 -3.1775 0.0000
# 3 -23.0875 2.0757 54.1576 0.0000 -12.1987 0.0000
# 4 0.0000 0.0000 0.0000 30.8441 0.0000 3.5677
# 5 9.0992 -3.1775 -12.1987 0.0000 19.4242 0.0000
# 6 0.0000 0.0000 0.0000 3.5677 0.0000 26.1830
#
#
#
# Elastic Compliance Matrix: (Units=1/GPa)
#
#
# Indices 1 2 3 4 5 6 
#
# 1 0.039664 0.000425 0.014819 0.000000 -0.009204 0.000000
# 2 0.000425 0.012497 0.000137 0.000000 0.001931 0.000000
# 3 0.014819 0.000137 0.027044 0.000000 0.010064 0.000000
# 4 0.000000 0.000000 0.000000 0.032940 0.000000 -0.004488
# 5 -0.009204 0.001931 0.010064 0.000000 0.062430 0.000000
# 6 0.000000 0.000000 0.000000 -0.004488 0.000000 0.038804
#
#
# Mechanical properties :
#
#
# Convention : Reuss Voigt Hill
#
# Bulk Modulus (GPa) = 9.09357 13.76944 11.43151
# Shear Modulus (GPa) = 22.80264 28.22948 25.51606
#
# Velocity S-wave (km/s) = 3.26505 3.63286 3.45386
# Velocity P-wave (km/s) = 4.29714 4.90248 4.60976
#
# Compressibility (1/GPa) = 0.10996780
#
# Stress axis : x y z
#
# Youngs Moduli (GPa) = 25.21182 80.01903 36.97694
#
# Poissons Ratio (x) = -0.03400 -0.54798
# Poissons Ratio (y) = -0.01071 -0.00507
# Poissons Ratio (z) = -0.37362 -0.01098
#
# Static dielectric constant tensor:
#      x y z
#    x 1.815130 0.000000 -0.040710 
#    y 0.000000 1.812270 0.000000 
#    z -0.040710 0.000000 1.784520 
# 
# From -- ./inp_files/35608.got.cif
#   From: 2010.05.17/outbox.cif.g08.bks.cpg/sg14_18_cif.got.tgz:35608.got - 2010.06.03 17:49:19.
