data_PCOD9246182
_publ_section_title
;
Structure prediction by ZEFSAII (Michael W. Deem and Ramdas Pophale) SiO2 
 PCOD9246182
Probable space group: P 21/C
;
_chemical_formula_sum "Si O2"
_cell_formula_units_Z 28
_cell_length_a 5.426239
_cell_length_b 8.760777
_cell_length_c 27.667649
_cell_angle_alpha 90.000000
_cell_angle_beta 67.706289
_cell_angle_gamma 90.000000
_cell_volume 1216.952243
_symmetry_space_group_name_H-M "P 21/C"
_symmetry_group_IT_number 14
_symmetry_cell_setting 'monoclinic'
loop_
_space_group_symop_operation_xyz
x,y,z
-x,1/2+y,1/2-z
-x,-y,-z
x,1/2-y,1/2+z
loop_
_atom_site_type_symbol
_atom_site_label
_atom_site_fract_x
_atom_site_fract_y
_atom_site_fract_z
Si Si1 0.743395 0.635332 0.065694
Si Si2 0.193002 0.264693 0.835334
Si Si3 0.427292 0.219839 0.110935
Si Si4 0.105960 0.997834 0.189064
Si Si5 0.752593 0.470548 0.850240
Si Si6 0.719308 0.239709 0.258497
Si Si7 0.026751 0.191821 0.552545
O O1 0.750696 0.742010 0.112051
O O2 0.437903 0.576835 0.090658
O O3 0.936236 0.487941 0.059995
O O4 0.823782 0.710092 0.009552
O O5 0.404895 0.237891 0.776021
O O6 0.056535 0.430362 0.838586
O O7 0.989013 0.129730 0.840774
O O8 0.365928 0.071245 0.146625
O O9 0.346094 0.360426 0.151941
O O10 0.737457 0.227911 0.074804
O O11 0.222319 0.250473 0.081062
O O12 0.893345 0.135323 0.210748
O O13 0.159089 0.901679 0.234133
O O14 0.695666 0.365743 0.808411
#
# Coordination Sequence:
#
# PCOD9246182 Si02
#       7
#     4   4   4   4   4   4   4
#     4   9  19  37  65  94 131 166 216 264 320 377
#     4  10  21  40  64  93 124 166 210 269 322 387
#     4  11  23  40  62 100 131 170 215 269 315 378
#     4  11  25  41  64  87 131 162 217 265 329 386
#     4   9  19  38  64  92 127 162 215 266 320 377
#     4  10  23  43  62  91 119 170 210 268 325 393
#     4  10  22  37  67  98 131 173 219 264 317 382
#
# _framework density 23.008299000000001
#
# number of rings (size 3 to 8) (size 9 to 14) (size 15 to 20)
#    0.000    2.000    1.429    0.857    4.000    5.143 
#    0.000    1.429    0.000    0.000    0.000    0.000 
#    0.000    0.000    0.000    0.000    0.000    0.000 
#
# Total GULP energy -156068.874696 kJ/mol
# GULP energy per Si atom -5573.888382 kJ/mol
# Density = 2.295593 g / cm^3
# Si number density = 23.008299 Si / 1000 Ang^3
#
#
#
# Elastic Constant Matrix: (Units=GPa)
#
#
# Indices 1 2 3 4 5 6 
#
# 1 68.0451 13.9014 18.4234 0.0000 -11.0661 0.0000
# 2 13.9014 55.4330 17.2528 0.0000 -5.6335 0.0000
# 3 18.4234 17.2528 98.0677 0.0000 -3.4213 0.0000
# 4 0.0000 0.0000 0.0000 22.7351 0.0000 -11.1798
# 5 -11.0661 -5.6335 -3.4213 0.0000 27.5747 0.0000
# 6 0.0000 0.0000 0.0000 -11.1798 0.0000 21.6805
#
#
#
# Elastic Compliance Matrix: (Units=1/GPa)
#
#
# Indices 1 2 3 4 5 6 
#
# 1 0.016909 -0.002874 -0.002465 0.000000 0.005893 0.000000
# 2 -0.002874 0.019915 -0.002874 0.000000 0.002559 0.000000
# 3 -0.002465 -0.002874 0.011159 0.000000 -0.000192 0.000000
# 4 0.000000 0.000000 0.000000 0.058927 0.000000 0.030387
# 5 0.005893 0.002559 -0.000192 0.000000 0.039129 0.000000
# 6 0.000000 0.000000 0.000000 0.030387 0.000000 0.061794
#
#
# Mechanical properties :
#
#
# Convention : Reuss Voigt Hill
#
# Bulk Modulus (GPa) = 31.69020 35.63343 33.66182
# Shear Modulus (GPa) = 21.29650 25.86260 23.57955
#
# Velocity S-wave (km/s) = 3.04567 3.35633 3.20477
# Velocity P-wave (km/s) = 5.11580 5.52637 5.32504
#
# Compressibility (1/GPa) = 0.03155550
#
# Stress axis : x y z
#
# Youngs Moduli (GPa) = 59.13939 50.21280 89.61231
#
# Poissons Ratio (x) = 0.14433 0.22093
# Poissons Ratio (y) = 0.16998 0.25758
# Poissons Ratio (z) = 0.14580 0.14433
#
# Static dielectric constant tensor:
#      x y z
#    x 2.120450 0.000000 -0.048640 
#    y 0.000000 1.896860 0.000000 
#    z -0.048640 0.000000 1.858960 
# 
# From -- ./inp_files/75679.got.cif
#   From: 2010.05.17/outbox.cif.g08.bks.cpg/sg14_38_cif.got.tgz:75679.got - 2010.06.03 17:49:19.
