data_PCOD9246945
_publ_section_title
;
Structure prediction by ZEFSAII (Michael W. Deem and Ramdas Pophale) SiO2 
 PCOD9246945
Probable space group: P 21/C
;
_chemical_formula_sum "Si O2"
_cell_formula_units_Z 20
_cell_length_a 13.829992
_cell_length_b 5.302888
_cell_length_c 14.055169
_cell_angle_alpha 90.000000
_cell_angle_beta 39.990628
_cell_angle_gamma 90.000000
_cell_volume 662.450264
_symmetry_space_group_name_H-M "P 21/C"
_symmetry_group_IT_number 14
_symmetry_cell_setting 'monoclinic'
loop_
_space_group_symop_operation_xyz
x,y,z
-x,1/2+y,1/2-z
-x,-y,-z
x,1/2-y,1/2+z
loop_
_atom_site_type_symbol
_atom_site_label
_atom_site_fract_x
_atom_site_fract_y
_atom_site_fract_z
Si Si1 0.650649 0.412078 0.579968
Si Si2 0.164306 0.245884 0.443588
Si Si3 0.952906 0.259023 0.380708
Si Si4 0.439054 0.790775 0.147616
Si Si5 0.259495 0.423662 0.169441
O O1 0.697437 0.682326 0.590845
O O2 0.806061 0.291949 0.424038
O O3 0.610652 0.261067 0.705781
O O4 0.521512 0.438828 0.599379
O O5 0.066716 0.495768 0.537449
O O6 0.224125 0.252093 0.291010
O O7 0.923976 0.002881 0.459046
O O8 0.115414 0.323750 0.216538
O O9 0.299510 0.691280 0.190569
O O10 0.586703 0.640686 0.000562
#
# Coordination Sequence:
#
# PCOD9246945 Si02
#       5
#     4   4   4   4   4
#     4   9  23  40  69  93 144 185 238 274 374 415
#     4   9  21  40  73  99 135 185 231 292 343 429
#     4  10  21  43  73  97 140 185 239 286 357 428
#     4  10  22  43  67 107 142 192 230 308 351 439
#     4  10  21  42  73 103 147 176 254 292 363 414
#
# _framework density 30.190944999999999
#
# number of rings (size 3 to 8) (size 9 to 14) (size 15 to 20)
#    1.200    1.200    0.000    1.200    2.800    0.000 
#    3.600    5.000    0.000    0.000    0.000    0.000 
#    0.000    0.000    0.000    0.000    0.000    0.000 
#
# Total GULP energy -111719.937036 kJ/mol
# GULP energy per Si atom -5585.996852 kJ/mol
# Density = 3.012223 g / cm^3
# Si number density = 30.190945 Si / 1000 Ang^3
#
#
#
# Elastic Constant Matrix: (Units=GPa)
#
#
# Indices 1 2 3 4 5 6 
#
# 1 111.4109 12.9316 22.4537 0.0000 -15.5579 0.0000
# 2 12.9316 184.2707 56.6546 0.0000 2.7921 0.0000
# 3 22.4537 56.6546 126.3174 0.0000 -21.5425 0.0000
# 4 0.0000 0.0000 0.0000 79.5137 0.0000 -6.1896
# 5 -15.5579 2.7921 -21.5425 0.0000 54.3480 0.0000
# 6 0.0000 0.0000 0.0000 -6.1896 0.0000 7.2285
#
#
#
# Elastic Compliance Matrix: (Units=1/GPa)
#
#
# Indices 1 2 3 4 5 6 
#
# 1 0.009570 -0.000353 -0.001150 0.000000 0.002302 0.000000
# 2 -0.000353 0.006432 -0.003105 0.000000 -0.001662 0.000000
# 3 -0.001150 -0.003105 0.010173 0.000000 0.003862 0.000000
# 4 0.000000 0.000000 0.000000 0.013475 0.000000 0.011538
# 5 0.002302 -0.001662 0.003862 0.000000 0.020675 0.000000
# 6 0.000000 0.000000 0.000000 0.011538 0.000000 0.148222
#
#
# Mechanical properties :
#
#
# Convention : Reuss Voigt Hill
#
# Bulk Modulus (GPa) = 58.97273 67.34210 63.15741
# Shear Modulus (GPa) = 22.37982 50.21528 36.29755
#
# Velocity S-wave (km/s) = 2.72559 4.08273 3.47113
# Velocity P-wave (km/s) = 5.42962 6.67673 6.08521
#
# Compressibility (1/GPa) = 0.01695699
#
# Stress axis : x y z
#
# Youngs Moduli (GPa) = 104.49326 155.48457 98.30363
#
# Poissons Ratio (x) = 0.05485 0.11308
# Poissons Ratio (y) = 0.03686 0.30527
# Poissons Ratio (z) = 0.12020 0.48284
#
# Static dielectric constant tensor:
#      x y z
#    x 2.505690 0.000000 -0.148100 
#    y 0.000000 2.404800 0.000000 
#    z -0.148100 0.000000 2.381730 
# 
# From -- ./inp_files/59855.got.cif
#   From: 2010.05.17/outbox.cif.g08.bks.cpg/sg14_30_cif.got.tgz:59855.got - 2010.06.03 17:49:19.
