data_PCOD9246232
_publ_section_title
;
Structure prediction by ZEFSAII (Michael W. Deem and Ramdas Pophale) SiO2 
 PCOD9246232
Probable space group: P 21/C
;
_chemical_formula_sum "Si O2"
_cell_formula_units_Z 28
_cell_length_a 5.459869
_cell_length_b 8.919071
_cell_length_c 26.559705
_cell_angle_alpha 90.000000
_cell_angle_beta 102.407232
_cell_angle_gamma 90.000000
_cell_volume 1263.170270
_symmetry_space_group_name_H-M "P 21/C"
_symmetry_group_IT_number 14
_symmetry_cell_setting 'monoclinic'
loop_
_space_group_symop_operation_xyz
x,y,z
-x,1/2+y,1/2-z
-x,-y,-z
x,1/2-y,1/2+z
loop_
_atom_site_type_symbol
_atom_site_label
_atom_site_fract_x
_atom_site_fract_y
_atom_site_fract_z
Si Si1 0.184702 0.000653 0.134618
Si Si2 0.196709 0.754158 0.382511
Si Si3 0.898695 0.551779 0.789314
Si Si4 0.277753 0.566086 0.526248
Si Si5 0.515187 0.745519 0.808537
Si Si6 0.072283 0.770217 0.209068
Si Si7 0.239729 0.593827 0.990385
O O1 0.314492 0.976842 0.086483
O O2 0.140871 0.842582 0.159448
O O3 0.322913 0.101602 0.183433
O O4 0.926167 0.092398 0.113803
O O5 0.460748 0.755448 0.366085
O O6 0.184815 0.852051 0.431267
O O7 0.040457 0.830788 0.331054
O O8 0.624058 0.582630 0.798800
O O9 0.033889 0.395097 0.801967
O O10 0.905982 0.612349 0.732851
O O11 0.500000 0.500000 0.500000
O O12 0.272966 0.746951 0.520598
O O13 0.000000 0.500000 0.500000
O O14 0.303271 0.765878 0.756993
O O15 0.500000 0.500000 0.000000
O O16 0.000000 0.500000 0.000000
#
# Coordination Sequence:
#
# PCOD9246232 Si02
#       7
#     4   4   4   4   4   4   4
#     4  11  24  41  72  98 138 188 241 300 370 444
#     4  10  23  43  66  93 136 184 229 294 368 427
#     4  10  22  38  63  90 139 169 230 284 355 438
#     4  12  26  50  78 111 149 201 260 315 374 458
#     4  10  21  40  65  94 132 181 223 294 359 434
#     4  11  22  40  62 100 130 180 229 287 361 440
#     4  12  28  47  74 108 151 192 247 318 380 442
#
# _framework density 22.166447999999999
#
# number of rings (size 3 to 8) (size 9 to 14) (size 15 to 20)
#    0.000    1.143    1.429    5.143    6.000    1.143 
#    0.000    0.000    0.000    0.000    0.000    0.000 
#    0.000    0.000    0.000    0.000    0.000    0.000 
#
# Total GULP energy -156034.331191 kJ/mol
# GULP energy per Si atom -5572.654685 kJ/mol
# Density = 2.211600 g / cm^3
# Si number density = 22.166448 Si / 1000 Ang^3
#
#
#
# Elastic Constant Matrix: (Units=GPa)
#
#
# Indices 1 2 3 4 5 6 
#
# 1 85.4732 48.2864 30.4106 0.0000 -21.4896 0.0000
# 2 48.2864 143.8699 36.8539 0.0000 -24.7632 0.0000
# 3 30.4106 36.8539 128.2733 0.0000 -30.6592 0.0000
# 4 0.0000 0.0000 0.0000 41.3010 0.0000 -4.6696
# 5 -21.4896 -24.7632 -30.6592 0.0000 31.6298 0.0000
# 6 0.0000 0.0000 0.0000 -4.6696 0.0000 31.0124
#
#
#
# Elastic Compliance Matrix: (Units=1/GPa)
#
#
# Indices 1 2 3 4 5 6 
#
# 1 0.015998 -0.003936 -0.001042 0.000000 0.006778 0.000000
# 2 -0.003936 0.009111 -0.000805 0.000000 0.003678 0.000000
# 3 -0.001042 -0.000805 0.010353 0.000000 0.008697 0.000000
# 4 0.000000 0.000000 0.000000 0.024632 0.000000 0.003709
# 5 0.006778 0.003678 0.008697 0.000000 0.047531 0.000000
# 6 0.000000 0.000000 0.000000 0.003709 0.000000 0.032804
#
#
# Mechanical properties :
#
#
# Convention : Reuss Voigt Hill
#
# Bulk Modulus (GPa) = 41.84868 65.41314 53.63091
# Shear Modulus (GPa) = 31.25799 36.92635 34.09217
#
# Velocity S-wave (km/s) = 3.75927 4.08593 3.92600
# Velocity P-wave (km/s) = 6.14517 7.19957 6.69316
#
# Compressibility (1/GPa) = 0.02389562
#
# Stress axis : x y z
#
# Youngs Moduli (GPa) = 62.50874 109.75591 96.59091
#
# Poissons Ratio (x) = 0.43197 0.10064
# Poissons Ratio (y) = 0.24602 0.07780
# Poissons Ratio (z) = 0.06513 0.08840
#
# Static dielectric constant tensor:
#      x y z
#    x 2.421680 0.000000 -0.109690 
#    y 0.000000 1.889770 0.000000 
#    z -0.109690 0.000000 1.826810 
# 
# From -- ./inp_files/75686.got.cif
#   From: 2010.05.17/outbox.cif.g08.bks.cpg/sg14_38_cif.got.tgz:75686.got - 2010.06.03 17:49:19.
