data_PCOD9246704
_publ_section_title
;
Structure prediction by ZEFSAII (Michael W. Deem and Ramdas Pophale) SiO2 
 PCOD9246704
Probable space group: P 21/C
;
_chemical_formula_sum "Si O2"
_cell_formula_units_Z 32
_cell_length_a 16.544805
_cell_length_b 5.325402
_cell_length_c 15.355408
_cell_angle_alpha 90.000000
_cell_angle_beta 76.917496
_cell_angle_gamma 90.000000
_cell_volume 1317.815134
_symmetry_space_group_name_H-M "P 21/C"
_symmetry_group_IT_number 14
_symmetry_cell_setting 'monoclinic'
loop_
_space_group_symop_operation_xyz
x,y,z
-x,1/2+y,1/2-z
-x,-y,-z
x,1/2-y,1/2+z
loop_
_atom_site_type_symbol
_atom_site_label
_atom_site_fract_x
_atom_site_fract_y
_atom_site_fract_z
Si Si1 0.756619 0.994943 0.071757
Si Si2 0.308609 0.874841 0.280888
Si Si3 0.600721 0.841359 0.010959
Si Si4 0.361243 0.642317 0.089532
Si Si5 0.821633 0.114201 0.448843
Si Si6 0.849658 0.886765 0.633634
Si Si7 0.013275 0.515786 0.193516
Si Si8 0.458015 0.307151 0.792920
O O1 0.691731 0.830239 0.034152
O O2 0.810824 0.889869 0.138073
O O3 0.697793 0.207869 0.130219
O O4 0.821148 0.101831 0.985788
O O5 0.348228 0.725152 0.191968
O O6 0.213988 0.961574 0.289340
O O7 0.365301 0.117752 0.285041
O O8 0.542657 0.777332 0.106578
O O9 0.594905 0.621630 0.941348
O O10 0.598282 0.120526 0.971732
O O11 0.267602 0.603667 0.075340
O O12 0.895465 0.044272 0.367750
O O13 0.834514 0.967633 0.537044
O O14 0.942711 0.923102 0.639373
O O15 0.999375 0.235400 0.232264
O O16 0.505318 0.570299 0.767129
#
# Coordination Sequence:
#
# PCOD9246704 Si02
#       8
#     4   4   4   4   4   4   4   4
#     4  10  21  41  74  96 133 180 241 283 328 418
#     4  11  25  43  70 109 134 181 237 290 345 415
#     4  11  22  45  65 104 134 180 224 277 339 424
#     4  11  24  40  72 100 143 175 225 293 346 398
#     4  10  23  43  65 102 133 186 233 286 344 408
#     4  11  23  44  74  93 134 187 241 280 337 418
#     4  12  30  45  64 102 147 182 228 296 356 396
#     4  12  25  45  73 101 139 185 232 283 341 424
#
# _framework density 24.282616999999998
#
# number of rings (size 3 to 8) (size 9 to 14) (size 15 to 20)
#    0.000    1.000    2.500    4.125    8.750    0.500 
#    0.000    3.750    0.000    0.000    0.000    0.000 
#    0.000    0.000    0.000    0.000    0.000    0.000 
#
# Total GULP energy -179014.062113 kJ/mol
# GULP energy per Si atom -5594.189441 kJ/mol
# Density = 2.422735 g / cm^3
# Si number density = 24.282617 Si / 1000 Ang^3
#
#
#
# Elastic Constant Matrix: (Units=GPa)
#
#
# Indices 1 2 3 4 5 6 
#
# 1 79.3368 28.6720 15.7112 0.0000 12.4944 0.0000
# 2 28.6720 94.4684 20.1670 0.0000 -19.1704 0.0000
# 3 15.7112 20.1670 97.7381 0.0000 -20.0761 0.0000
# 4 0.0000 0.0000 0.0000 -36.3505 0.0000 44.9807
# 5 12.4944 -19.1704 -20.0761 0.0000 38.4774 0.0000
# 6 0.0000 0.0000 0.0000 44.9807 0.0000 2.5642
#
#
#
# Elastic Compliance Matrix: (Units=1/GPa)
#
#
# Indices 1 2 3 4 5 6 
#
# 1 0.017498 -0.006751 -0.003671 0.000000 -0.010961 0.000000
# 2 -0.006751 0.014548 0.000025 0.000000 0.009453 0.000000
# 3 -0.003671 0.000025 0.012392 0.000000 0.007670 0.000000
# 4 0.000000 0.000000 0.000000 -0.001212 0.000000 0.021253
# 5 -0.010961 0.009453 0.007670 0.000000 0.038261 0.000000
# 6 0.000000 0.000000 0.000000 0.021253 0.000000 0.017175
#
#
# Mechanical properties :
#
#
# Convention : Reuss Voigt Hill
#
# Bulk Modulus (GPa) = 42.29585 44.51598 43.40591
# Shear Modulus (GPa) = 39.26618 14.73776 27.00197
#
# Velocity S-wave (km/s) = 4.02562 2.46626 3.33827
# Velocity P-wave (km/s) = 6.25007 5.14608 5.72475
#
# Compressibility (1/GPa) = 0.02364298
#
# Stress axis : x y z
#
# Youngs Moduli (GPa) = 57.15087 68.73997 80.69811
#
# Poissons Ratio (x) = 0.46408 0.29625
# Poissons Ratio (y) = 0.38584 -0.00205
# Poissons Ratio (z) = 0.20981 -0.00174
#
# Static dielectric constant tensor:
#      x y z
#    x 1.937370 0.000000 0.007120 
#    y 0.000000 2.097220 0.000000 
#    z 0.007120 0.000000 1.886510 
# 
# From -- ./inp_files/48133.got.cif
#   From: 2010.05.17/outbox.cif.g08.bks.cpg/sg14_25_cif.got.tgz:48133.got - 2010.06.03 17:49:19.
