data_PCOD9246212
_publ_section_title
;
Structure prediction by ZEFSAII (Michael W. Deem and Ramdas Pophale) SiO2 
 PCOD9246212
Probable space group: P 21/C
;
_chemical_formula_sum "Si O2"
_cell_formula_units_Z 20
_cell_length_a 11.909221
_cell_length_b 9.846378
_cell_length_c 18.197146
_cell_angle_alpha 90.000000
_cell_angle_beta 28.449379
_cell_angle_gamma 90.000000
_cell_volume 1016.526269
_symmetry_space_group_name_H-M "P 21/C"
_symmetry_group_IT_number 14
_symmetry_cell_setting 'monoclinic'
loop_
_space_group_symop_operation_xyz
x,y,z
-x,1/2+y,1/2-z
-x,-y,-z
x,1/2-y,1/2+z
loop_
_atom_site_type_symbol
_atom_site_label
_atom_site_fract_x
_atom_site_fract_y
_atom_site_fract_z
Si Si1 0.467104 0.841838 0.545569
Si Si2 0.264804 0.426113 0.606486
Si Si3 0.191830 0.644143 0.064944
Si Si4 0.139473 0.930637 0.025876
Si Si5 0.363318 0.973830 0.744695
O O1 0.680359 0.735791 0.418328
O O2 0.271774 0.798868 0.599046
O O3 0.500000 0.000000 0.500000
O O4 0.396318 0.845395 0.671504
O O5 0.500000 0.500000 0.500000
O O6 0.205453 0.477883 0.558615
O O7 0.034325 0.449204 0.789289
O O8 0.137000 0.774229 0.048912
O O9 0.409371 0.565745 0.902770
O O10 0.878558 0.963189 0.146985
O O11 0.321875 0.950452 0.854110
#
# Coordination Sequence:
#
# PCOD9246212 Si02
#       5
#     4   4   4   4   4
#     4  10  21  40  65  91 128 176 218 260 325 389
#     4  12  25  40  69 103 130 170 230 275 324 395
#     4  11  22  42  69  94 133 173 224 275 325 398
#     4  11  24  43  65 100 135 173 222 279 326 401
#     4  10  24  44  66  92 135 180 216 267 347 385
#
# _framework density 19.674848000000001
#
# number of rings (size 3 to 8) (size 9 to 14) (size 15 to 20)
#    0.000    1.200    4.000    2.400    5.600    0.000 
#    0.000    1.000    0.000    0.000    0.000    0.000 
#    0.000    0.000    0.000    0.000    0.000    0.000 
#
# Total GULP energy -111524.579436 kJ/mol
# GULP energy per Si atom -5576.228972 kJ/mol
# Density = 1.963007 g / cm^3
# Si number density = 19.674848 Si / 1000 Ang^3
#
#
#
# Elastic Constant Matrix: (Units=GPa)
#
#
# Indices 1 2 3 4 5 6 
#
# 1 89.4816 31.0720 55.4465 0.0000 11.3314 0.0000
# 2 31.0720 45.3746 44.8585 0.0000 13.9062 0.0000
# 3 55.4465 44.8585 161.4823 0.0000 10.8483 0.0000
# 4 0.0000 0.0000 0.0000 29.9708 0.0000 -5.4228
# 5 11.3314 13.9062 10.8483 0.0000 28.4769 0.0000
# 6 0.0000 0.0000 0.0000 -5.4228 0.0000 24.7056
#
#
#
# Elastic Compliance Matrix: (Units=1/GPa)
#
#
# Indices 1 2 3 4 5 6 
#
# 1 0.015939 -0.007059 -0.003404 0.000000 -0.001598 0.000000
# 2 -0.007059 0.038046 -0.007272 0.000000 -0.013000 0.000000
# 3 -0.003404 -0.007272 0.009290 0.000000 0.001367 0.000000
# 4 0.000000 0.000000 0.000000 0.034746 0.000000 0.007627
# 5 -0.001598 -0.013000 0.001367 0.000000 0.041580 0.000000
# 6 0.000000 0.000000 0.000000 0.007627 0.000000 0.042151
#
#
# Mechanical properties :
#
#
# Convention : Reuss Voigt Hill
#
# Bulk Modulus (GPa) = 35.96620 62.12137 49.04378
# Shear Modulus (GPa) = 22.07616 27.62812 24.85214
#
# Velocity S-wave (km/s) = 3.35334 3.75138 3.55793
# Velocity P-wave (km/s) = 5.77175 7.09974 6.46991
#
# Compressibility (1/GPa) = 0.02780388
#
# Stress axis : x y z
#
# Youngs Moduli (GPa) = 62.74092 26.28399 107.64566
#
# Poissons Ratio (x) = 0.18554 0.36646
# Poissons Ratio (y) = 0.44290 0.78277
# Poissons Ratio (z) = 0.21359 0.19113
#
# Static dielectric constant tensor:
#      x y z
#    x 1.739010 0.000000 -0.042730 
#    y 0.000000 1.754950 0.000000 
#    z -0.042730 0.000000 1.766670 
# 
# From -- ./inp_files/27750.got.cif
#   From: 2010.05.17/outbox.cif.g08.bks.cpg/sg14_14_cif.got.tgz:27750.got - 2010.06.03 17:49:19.
