data_PCOD9246139
_publ_section_title
;
Structure prediction by ZEFSAII (Michael W. Deem and Ramdas Pophale) SiO2 
 PCOD9246139
Probable space group: P 21/C
;
_chemical_formula_sum "Si O2"
_cell_formula_units_Z 32
_cell_length_a 12.447400
_cell_length_b 14.291303
_cell_length_c 8.773271
_cell_angle_alpha 90.000000
_cell_angle_beta 110.877703
_cell_angle_gamma 90.000000
_cell_volume 1458.204590
_symmetry_space_group_name_H-M "P 21/C"
_symmetry_group_IT_number 14
_symmetry_cell_setting 'monoclinic'
loop_
_space_group_symop_operation_xyz
x,y,z
-x,1/2+y,1/2-z
-x,-y,-z
x,1/2-y,1/2+z
loop_
_atom_site_type_symbol
_atom_site_label
_atom_site_fract_x
_atom_site_fract_y
_atom_site_fract_z
Si Si1 0.112172 0.152710 0.750285
Si Si2 0.503444 0.018597 0.801404
Si Si3 0.699846 0.716219 0.280237
Si Si4 0.592855 0.352275 0.587448
Si Si5 0.229042 0.464862 0.536098
Si Si6 0.968855 0.212448 0.392094
Si Si7 0.546794 0.675286 0.937773
Si Si8 0.835044 0.343978 0.537497
O O1 0.221240 0.218939 0.781456
O O2 0.046024 0.156348 0.554402
O O3 0.034405 0.201757 0.840951
O O4 0.168192 0.058259 0.844143
O O5 0.485992 0.073230 0.636639
O O6 0.414268 0.935269 0.790858
O O7 0.633435 0.982378 0.894172
O O8 0.498219 0.104879 0.920957
O O9 0.778105 0.629592 0.371770
O O10 0.648334 0.780050 0.387280
O O11 0.593312 0.675047 0.132115
O O12 0.554107 0.251616 0.626572
O O13 0.710740 0.339853 0.555905
O O14 0.168974 0.559641 0.559610
O O15 0.867965 0.259157 0.443173
O O16 0.922948 0.155075 0.224038
#
# Coordination Sequence:
#
# PCOD9246139 Si02
#       8
#     4   4   4   4   4   4   4   4
#     4  11  21  43  71  90 131 165 221 278 328 386
#     4  10  22  40  62  98 135 171 212 264 322 399
#     4  12  22  40  66 101 126 179 214 267 330 391
#     4  10  21  40  63  94 135 176 207 266 324 390
#     4  11  23  42  67  98 132 166 219 269 325 387
#     4  10  23  46  66  96 123 174 222 272 335 388
#     4  12  23  38  68  94 137 176 219 258 330 395
#     4  10  25  41  69  94 133 170 221 267 329 390
#
# _framework density 21.944794000000002
#
# number of rings (size 3 to 8) (size 9 to 14) (size 15 to 20)
#    0.000    1.250    5.000    0.000    7.000    1.500 
#    0.000    2.500    0.000    0.000    0.000    0.000 
#    0.000    0.000    0.000    0.000    0.000    0.000 
#
# Total GULP energy -178509.956435 kJ/mol
# GULP energy per Si atom -5578.436139 kJ/mol
# Density = 2.189485 g / cm^3
# Si number density = 21.944794 Si / 1000 Ang^3
#
#
#
# Elastic Constant Matrix: (Units=GPa)
#
#
# Indices 1 2 3 4 5 6 
#
# 1 66.8242 7.4858 -1.4499 0.0000 -3.1921 0.0000
# 2 7.4858 59.0568 3.0549 0.0000 -0.6811 0.0000
# 3 -1.4499 3.0549 61.4039 0.0000 3.6377 0.0000
# 4 0.0000 0.0000 0.0000 30.6089 0.0000 14.4915
# 5 -3.1921 -0.6811 3.6377 0.0000 20.7442 0.0000
# 6 0.0000 0.0000 0.0000 14.4915 0.0000 18.4246
#
#
#
# Elastic Compliance Matrix: (Units=1/GPa)
#
#
# Indices 1 2 3 4 5 6 
#
# 1 0.015295 -0.001930 0.000325 0.000000 0.002233 0.000000
# 2 -0.001930 0.017230 -0.000928 0.000000 0.000432 0.000000
# 3 0.000325 -0.000928 0.016510 0.000000 -0.002876 0.000000
# 4 0.000000 0.000000 0.000000 0.052054 0.000000 -0.040942
# 5 0.002233 0.000432 -0.002876 0.000000 0.049068 0.000000
# 6 0.000000 0.000000 0.000000 -0.040942 0.000000 0.086477
#
#
# Mechanical properties :
#
#
# Convention : Reuss Voigt Hill
#
# Bulk Modulus (GPa) = 22.74363 22.82960 22.78662
# Shear Modulus (GPa) = 19.50404 25.83514 22.66959
#
# Velocity S-wave (km/s) = 2.98447 3.43487 3.21756
# Velocity P-wave (km/s) = 4.71833 5.11438 4.92034
#
# Compressibility (1/GPa) = 0.04396836
#
# Stress axis : x y z
#
# Youngs Moduli (GPa) = 65.38284 58.03673 60.56997
#
# Poissons Ratio (x) = 0.11199 -0.01968
# Poissons Ratio (y) = 0.12617 0.05623
# Poissons Ratio (z) = -0.02124 0.05388
#
# Static dielectric constant tensor:
#      x y z
#    x 1.819930 0.000000 -0.010160 
#    y 0.000000 1.822180 0.000000 
#    z -0.010160 0.000000 1.864530 
# 
# From -- ./inp_files/13364.got.cif
#   From: 2010.05.17/outbox.cif.g08.bks.cpg/sg14_7_cif.got.tgz:13364.got - 2010.06.03 17:49:19.
