data_PCOD9246823
_publ_section_title
;
Structure prediction by ZEFSAII (Michael W. Deem and Ramdas Pophale) SiO2 
 PCOD9246823
Probable space group: P 21/C
;
_chemical_formula_sum "Si O2"
_cell_formula_units_Z 32
_cell_length_a 8.430571
_cell_length_b 15.086305
_cell_length_c 11.879868
_cell_angle_alpha 90.000000
_cell_angle_beta 108.183100
_cell_angle_gamma 90.000000
_cell_volume 1435.504022
_symmetry_space_group_name_H-M "P 21/C"
_symmetry_group_IT_number 14
_symmetry_cell_setting 'monoclinic'
loop_
_space_group_symop_operation_xyz
x,y,z
-x,1/2+y,1/2-z
-x,-y,-z
x,1/2-y,1/2+z
loop_
_atom_site_type_symbol
_atom_site_label
_atom_site_fract_x
_atom_site_fract_y
_atom_site_fract_z
Si Si1 0.502320 0.985437 0.135150
Si Si2 0.094014 0.132254 0.503020
Si Si3 0.462993 0.640195 0.183655
Si Si4 0.253259 0.020952 0.361046
Si Si5 0.319782 0.308155 0.236690
Si Si6 0.218364 0.841427 0.428676
Si Si7 0.983109 0.229527 0.798813
Si Si8 0.883409 0.040596 0.879335
O O1 0.608125 0.900069 0.198589
O O2 0.309516 0.966537 0.126050
O O3 0.568348 0.071618 0.220260
O O4 0.500000 0.000000 0.000000
O O5 0.177178 0.049337 0.462228
O O6 0.245042 0.182584 0.595750
O O7 0.003117 0.189537 0.387612
O O8 0.960840 0.119199 0.572150
O O9 0.600006 0.586016 0.140990
O O10 0.545476 0.731136 0.240146
O O11 0.320181 0.670270 0.064926
O O12 0.311534 0.919166 0.381480
O O13 0.113398 0.019339 0.232924
O O14 0.164237 0.279656 0.280901
O O15 0.160318 0.764878 0.329902
O O16 0.939432 0.139672 0.857936
O O17 0.000000 0.000000 0.000000
#
# Coordination Sequence:
#
# PCOD9246823 Si02
#       8
#     4   4   4   4   4   4   4   4
#     4  11  26  46  69 107 144 183 235 289 350 421
#     4  11  23  40  69  92 137 170 231 276 340 406
#     4  11  24  44  68 100 136 183 224 282 359 405
#     4  10  21  42  66  95 123 183 215 277 342 410
#     4  11  25  44  68  99 139 184 230 281 345 422
#     4  10  23  41  64  98 134 165 237 278 341 412
#     4  10  23  43  65  96 131 178 222 284 339 402
#     4  10  23  40  70  93 139 173 225 273 345 404
#
# _framework density 22.291820999999999
#
# number of rings (size 3 to 8) (size 9 to 14) (size 15 to 20)
#    0.000    1.500    1.250    2.250    7.000    5.000 
#    2.250    0.000    0.000    0.000    0.000    0.000 
#    0.000    0.000    0.000    0.000    0.000    0.000 
#
# Total GULP energy -178703.184226 kJ/mol
# GULP energy per Si atom -5584.474507 kJ/mol
# Density = 2.224108 g / cm^3
# Si number density = 22.291821 Si / 1000 Ang^3
#
#
#
# Elastic Constant Matrix: (Units=GPa)
#
#
# Indices 1 2 3 4 5 6 
#
# 1 20.1181 13.2059 13.2353 0.0000 12.5403 0.0000
# 2 13.2059 72.0088 26.2726 0.0000 10.0144 0.0000
# 3 13.2353 26.2726 126.5716 0.0000 23.5431 0.0000
# 4 0.0000 0.0000 0.0000 23.6751 0.0000 -5.5052
# 5 12.5403 10.0144 23.5431 0.0000 41.3861 0.0000
# 6 0.0000 0.0000 0.0000 -5.5052 0.0000 29.7037
#
#
#
# Elastic Compliance Matrix: (Units=1/GPa)
#
#
# Indices 1 2 3 4 5 6 
#
# 1 0.067833 -0.009336 -0.001960 0.000000 -0.017180 0.000000
# 2 -0.009336 0.016472 -0.002491 0.000000 0.000260 0.000000
# 3 -0.001960 -0.002491 0.009394 0.000000 -0.004147 0.000000
# 4 0.000000 0.000000 0.000000 0.044141 0.000000 0.008181
# 5 -0.017180 0.000260 -0.004147 0.000000 0.031665 0.000000
# 6 0.000000 0.000000 0.000000 0.008181 0.000000 0.035182
#
#
# Mechanical properties :
#
#
# Convention : Reuss Voigt Hill
#
# Bulk Modulus (GPa) = 15.12275 36.01402 25.56838
# Shear Modulus (GPa) = 19.66164 30.01861 24.84013
#
# Velocity S-wave (km/s) = 2.97309 3.67361 3.34176
# Velocity P-wave (km/s) = 4.31096 5.84677 5.13659
#
# Compressibility (1/GPa) = 0.06612554
#
# Stress axis : x y z
#
# Youngs Moduli (GPa) = 14.74210 60.70874 106.44932
#
# Poissons Ratio (x) = 0.56676 0.20861
# Poissons Ratio (y) = 0.13763 0.26520
# Poissons Ratio (z) = 0.02889 0.15124
#
# Static dielectric constant tensor:
#      x y z
#    x 1.685380 0.000000 -0.126860 
#    y 0.000000 1.800390 0.000000 
#    z -0.126860 0.000000 1.754650 
# 
# From -- ./inp_files/26133.got.cif
#   From: 2010.05.17/outbox.cif.g08.bks.cpg/sg14_14_cif.got.tgz:26133.got - 2010.06.03 17:49:19.
