data_PCOD9246494
_publ_section_title
;
Structure prediction by ZEFSAII (Michael W. Deem and Ramdas Pophale) SiO2 
 PCOD9246494
Probable space group: P 21/C
;
_chemical_formula_sum "Si O2"
_cell_formula_units_Z 28
_cell_length_a 18.826751
_cell_length_b 5.411038
_cell_length_c 13.697929
_cell_angle_alpha 90.000000
_cell_angle_beta 47.528692
_cell_angle_gamma 90.000000
_cell_volume 1029.297559
_symmetry_space_group_name_H-M "P 21/C"
_symmetry_group_IT_number 14
_symmetry_cell_setting 'monoclinic'
loop_
_space_group_symop_operation_xyz
x,y,z
-x,1/2+y,1/2-z
-x,-y,-z
x,1/2-y,1/2+z
loop_
_atom_site_type_symbol
_atom_site_label
_atom_site_fract_x
_atom_site_fract_y
_atom_site_fract_z
Si Si1 0.424784 0.990336 0.923549
Si Si2 0.852009 0.430615 0.625134
Si Si3 0.854999 0.175062 0.817615
Si Si4 0.308501 0.277727 0.698449
Si Si5 0.069881 0.193701 0.114341
Si Si6 0.229924 0.574758 0.939848
Si Si7 0.546200 0.491508 0.826008
O O1 0.498755 0.219786 0.874697
O O2 0.403255 0.003909 0.828029
O O3 0.471076 0.721092 0.895003
O O4 0.341094 0.049770 0.079123
O O5 0.860624 0.220873 0.697994
O O6 0.795810 0.660260 0.723914
O O7 0.936635 0.517565 0.475031
O O8 0.779562 0.325054 0.611277
O O9 0.962572 0.266363 0.750009
O O10 0.861320 0.911236 0.863853
O O11 0.772136 0.340955 0.945786
O O12 0.304392 0.417706 0.807528
O O13 0.384580 0.060142 0.648616
O O14 0.128603 0.429568 0.022281
#
# Coordination Sequence:
#
# PCOD9246494 Si02
#       7
#     4   4   4   4   4   4   4
#     4  10  23  43  69 102 128 184 230 277 341 404
#     4  10  25  40  61  99 125 172 217 271 342 409
#     4  11  21  42  67  88 129 167 225 278 333 403
#     4  11  24  41  65  94 138 172 211 281 342 401
#     4  10  21  41  64  91 122 173 220 279 335 395
#     4  10  24  42  59  97 127 167 223 267 346 400
#     4  10  23  43  70 100 133 176 237 275 333 420
#
# _framework density 27.203016999999999
#
# number of rings (size 3 to 8) (size 9 to 14) (size 15 to 20)
#    0.000    1.714    1.429    1.286    6.000    2.857 
#    5.143    0.000    0.000    0.000    0.000    0.000 
#    0.000    0.000    0.000    0.000    0.000    0.000 
#
# Total GULP energy -156526.576127 kJ/mol
# GULP energy per Si atom -5590.234862 kJ/mol
# Density = 2.714110 g / cm^3
# Si number density = 27.203017 Si / 1000 Ang^3
#
#
#
# Elastic Constant Matrix: (Units=GPa)
#
#
# Indices 1 2 3 4 5 6 
#
# 1 35.7517 11.5238 20.6014 0.0000 20.4429 0.0000
# 2 11.5238 101.8331 47.6093 0.0000 -5.7599 0.0000
# 3 20.6014 47.6093 174.6857 0.0000 11.4420 0.0000
# 4 0.0000 0.0000 0.0000 55.9238 0.0000 -0.3249
# 5 20.4429 -5.7599 11.4420 0.0000 36.5814 0.0000
# 6 0.0000 0.0000 0.0000 -0.3249 0.0000 27.0177
#
#
#
# Elastic Compliance Matrix: (Units=1/GPa)
#
#
# Indices 1 2 3 4 5 6 
#
# 1 0.045784 -0.005621 -0.002178 0.000000 -0.025790 0.000000
# 2 -0.005621 0.012230 -0.003065 0.000000 0.006026 0.000000
# 3 -0.002178 -0.003065 0.006910 0.000000 -0.001427 0.000000
# 4 0.000000 0.000000 0.000000 0.017883 0.000000 0.000215
# 5 -0.025790 0.006026 -0.001427 0.000000 0.043143 0.000000
# 6 0.000000 0.000000 0.000000 0.000215 0.000000 0.037015
#
#
# Mechanical properties :
#
#
# Convention : Reuss Voigt Hill
#
# Bulk Modulus (GPa) = 23.15067 52.41549 37.78308
# Shear Modulus (GPa) = 25.11382 39.40698 32.26040
#
# Velocity S-wave (km/s) = 3.04172 3.81021 3.44744
# Velocity P-wave (km/s) = 4.56781 6.21828 5.45582
#
# Compressibility (1/GPa) = 0.04319529
#
# Stress axis : x y z
#
# Youngs Moduli (GPa) = 21.84151 81.76694 144.71328
#
# Poissons Ratio (x) = 0.45965 0.31522
# Poissons Ratio (y) = 0.12278 0.44353
# Poissons Ratio (z) = 0.04758 0.25061
#
# Static dielectric constant tensor:
#      x y z
#    x 2.156780 0.000000 -0.088090 
#    y 0.000000 2.167180 0.000000 
#    z -0.088090 0.000000 2.130220 
# 
# From -- ./inp_files/48009.got.cif
#   From: 2010.05.17/outbox.cif.g08.bks.cpg/sg14_25_cif.got.tgz:48009.got - 2010.06.03 17:49:19.
