data_PCOD9246645
_publ_section_title
;
Structure prediction by ZEFSAII (Michael W. Deem and Ramdas Pophale) SiO2 
 PCOD9246645
Probable space group: P 21/C
;
_chemical_formula_sum "Si O2"
_cell_formula_units_Z 32
_cell_length_a 15.207623
_cell_length_b 5.278306
_cell_length_c 19.888107
_cell_angle_alpha 90.000000
_cell_angle_beta 123.411353
_cell_angle_gamma 90.000000
_cell_volume 1332.600387
_symmetry_space_group_name_H-M "P 21/C"
_symmetry_group_IT_number 14
_symmetry_cell_setting 'monoclinic'
loop_
_space_group_symop_operation_xyz
x,y,z
-x,1/2+y,1/2-z
-x,-y,-z
x,1/2-y,1/2+z
loop_
_atom_site_type_symbol
_atom_site_label
_atom_site_fract_x
_atom_site_fract_y
_atom_site_fract_z
Si Si1 0.503863 0.700985 0.439520
Si Si2 0.173494 0.658071 0.456930
Si Si3 0.964654 0.793872 0.041218
Si Si4 0.227810 0.167696 0.280663
Si Si5 0.003699 0.330977 0.206744
Si Si6 0.825575 0.107457 0.402758
Si Si7 0.325097 0.965905 0.444657
Si Si8 0.668046 0.344986 0.727389
O O1 0.500000 0.500000 0.500000
O O2 0.415648 0.898256 0.429188
O O3 0.454659 0.638655 0.345689
O O4 0.616876 0.835415 0.482795
O O5 0.106131 0.403385 0.428992
O O6 0.086946 0.845476 0.387725
O O7 0.196758 0.703613 0.545035
O O8 0.279306 0.720391 0.461811
O O9 0.080666 0.691533 0.108673
O O10 0.886178 0.614906 0.966849
O O11 0.000000 0.000000 0.000000
O O12 0.285377 0.438011 0.301705
O O13 0.107830 0.224769 0.213600
O O14 0.235006 0.083662 0.360963
O O15 0.281600 0.936843 0.261937
O O16 0.024276 0.599563 0.252762
O O17 0.717035 0.062830 0.318500
#
# Coordination Sequence:
#
# PCOD9246645 Si02
#       8
#     4   4   4   4   4   4   4   4
#     4  10  21  41  68  93 123 168 226 289 350 416
#     4  11  24  40  63  95 139 179 220 281 337 416
#     4   9  21  39  59  90 130 180 226 256 326 396
#     4  11  23  40  64  99 132 175 222 279 336 417
#     4  12  26  39  58  95 139 176 215 267 336 411
#     4  10  23  40  63  95 133 188 228 278 325 419
#     4  10  22  42  63  98 129 170 219 284 360 403
#     4  11  24  40  71  94 129 173 234 281 337 407
#
# _framework density 24.013199
#
# number of rings (size 3 to 8) (size 9 to 14) (size 15 to 20)
#    0.000    1.500    2.500    1.500   12.250    1.000 
#    0.000    0.000    2.750    0.000    0.000    0.000 
#    0.000    0.000    0.000    0.000    0.000    0.000 
#
# Total GULP energy -178394.137123 kJ/mol
# GULP energy per Si atom -5574.816785 kJ/mol
# Density = 2.395854 g / cm^3
# Si number density = 24.013199 Si / 1000 Ang^3
#
#
#
# Elastic Constant Matrix: (Units=GPa)
#
#
# Indices 1 2 3 4 5 6 
#
# 1 37.1381 1.2326 -1.6918 0.0000 -2.5585 0.0000
# 2 1.2326 80.9592 1.0354 0.0000 -4.6447 0.0000
# 3 -1.6918 1.0354 147.5672 0.0000 11.3530 0.0000
# 4 0.0000 0.0000 0.0000 31.0855 0.0000 -4.9012
# 5 -2.5585 -4.6447 11.3530 0.0000 21.8243 0.0000
# 6 0.0000 0.0000 0.0000 -4.9012 0.0000 34.9891
#
#
#
# Elastic Compliance Matrix: (Units=1/GPa)
#
#
# Indices 1 2 3 4 5 6 
#
# 1 0.027151 -0.000237 0.000075 0.000000 0.003094 0.000000
# 2 -0.000237 0.012520 -0.000306 0.000000 0.002796 0.000000
# 3 0.000075 -0.000306 0.007067 0.000000 -0.003732 0.000000
# 4 0.000000 0.000000 0.000000 0.032896 0.000000 0.004608
# 5 0.003094 0.002796 -0.003732 0.000000 0.048720 0.000000
# 6 0.000000 0.000000 0.000000 0.004608 0.000000 0.029226
#
#
# Mechanical properties :
#
#
# Convention : Reuss Voigt Hill
#
# Bulk Modulus (GPa) = 21.83295 29.64634 25.73965
# Shear Modulus (GPa) = 28.77177 35.25234 32.01206
#
# Velocity S-wave (km/s) = 3.46521 3.83566 3.65513
# Velocity P-wave (km/s) = 5.01219 5.65588 5.34374
#
# Compressibility (1/GPa) = 0.04580232
#
# Stress axis : x y z
#
# Youngs Moduli (GPa) = 36.83112 79.87342 141.50826
#
# Poissons Ratio (x) = 0.01892 -0.01060
# Poissons Ratio (y) = 0.00872 0.04325
# Poissons Ratio (z) = -0.00276 0.02441
#
# Static dielectric constant tensor:
#      x y z
#    x 1.950350 0.000000 -0.006540 
#    y 0.000000 2.063920 0.000000 
#    z -0.006540 0.000000 2.042520 
# 
# From -- ./inp_files/68970.got.cif
#   From: 2010.05.17/outbox.cif.g08.bks.cpg/sg14_35_cif.got.tgz:68970.got - 2010.06.03 17:49:19.
