data_PCOD9246768
_publ_section_title
;
Structure prediction by ZEFSAII (Michael W. Deem and Ramdas Pophale) SiO2 
 PCOD9246768
Probable space group: P 21/C
;
_chemical_formula_sum "Si O2"
_cell_formula_units_Z 28
_cell_length_a 14.589390
_cell_length_b 8.370371
_cell_length_c 10.814712
_cell_angle_alpha 90.000000
_cell_angle_beta 58.571252
_cell_angle_gamma 90.000000
_cell_volume 1126.920001
_symmetry_space_group_name_H-M "P 21/C"
_symmetry_group_IT_number 14
_symmetry_cell_setting 'monoclinic'
loop_
_space_group_symop_operation_xyz
x,y,z
-x,1/2+y,1/2-z
-x,-y,-z
x,1/2-y,1/2+z
loop_
_atom_site_type_symbol
_atom_site_label
_atom_site_fract_x
_atom_site_fract_y
_atom_site_fract_z
Si Si1 0.002706 0.905563 0.369910
Si Si2 0.862943 0.844234 0.839638
Si Si3 0.372847 0.406263 0.395445
Si Si4 0.244271 0.140506 0.754701
Si Si5 0.652089 0.271515 0.087327
Si Si6 0.215127 0.788158 0.764586
Si Si7 0.427741 0.082743 0.446009
O O1 0.104145 0.790820 0.311033
O O2 0.901086 0.801690 0.398880
O O3 0.040779 0.030316 0.237527
O O4 0.000000 0.000000 0.500000
O O5 0.840603 0.773687 0.718358
O O6 0.746876 0.915847 0.957034
O O7 0.336515 0.328842 0.289993
O O8 0.402873 0.594345 0.363601
O O9 0.448760 0.270652 0.403423
O O10 0.308218 0.107007 0.583541
O O11 0.193876 0.970880 0.819343
O O12 0.729389 0.282957 0.151850
O O13 0.582727 0.434467 0.140234
O O14 0.709752 0.273756 0.911036
O O15 0.500000 0.000000 0.500000
#
# Coordination Sequence:
#
# PCOD9246768 Si02
#       7
#     4   4   4   4   4   4   4
#     4  12  26  36  61  94 126 167 222 273 322 381
#     4  11  23  39  61  89 127 165 217 264 324 378
#     4  10  21  42  64  89 125 172 215 251 327 391
#     4   9  21  41  64  86 123 170 207 258 324 392
#     4  10  22  42  68  93 128 176 212 260 326 396
#     4  10  22  41  64  91 129 171 217 260 323 383
#     4  10  23  41  65  97 129 158 213 272 325 384
#
# _framework density 24.846485000000001
#
# number of rings (size 3 to 8) (size 9 to 14) (size 15 to 20)
#    0.000    1.714    1.429    1.714   10.000    0.571 
#    7.714    3.571    0.000    0.000    0.000    0.000 
#    0.000    0.000    0.000    0.000    0.000    0.000 
#
# Total GULP energy -156225.913793 kJ/mol
# GULP energy per Si atom -5579.496921 kJ/mol
# Density = 2.478993 g / cm^3
# Si number density = 24.846485 Si / 1000 Ang^3
#
#
#
# Elastic Constant Matrix: (Units=GPa)
#
#
# Indices 1 2 3 4 5 6 
#
# 1 74.7345 20.9684 14.2624 0.0000 9.3756 0.0000
# 2 20.9684 77.7391 7.5902 0.0000 -10.6193 0.0000
# 3 14.2624 7.5902 50.9068 0.0000 7.1943 0.0000
# 4 0.0000 0.0000 0.0000 25.5460 0.0000 10.2626
# 5 9.3756 -10.6193 7.1943 0.0000 34.9452 0.0000
# 6 0.0000 0.0000 0.0000 10.2626 0.0000 53.2950
#
#
#
# Elastic Compliance Matrix: (Units=1/GPa)
#
#
# Indices 1 2 3 4 5 6 
#
# 1 0.015912 -0.004687 -0.003043 0.000000 -0.005067 0.000000
# 2 -0.004687 0.015159 -0.001829 0.000000 0.006241 0.000000
# 3 -0.003043 -0.001829 0.021353 0.000000 -0.004135 0.000000
# 4 0.000000 0.000000 0.000000 0.042427 0.000000 -0.008170
# 5 -0.005067 0.006241 -0.004135 0.000000 0.032723 0.000000
# 6 0.000000 0.000000 0.000000 -0.008170 0.000000 0.020337
#
#
# Mechanical properties :
#
#
# Convention : Reuss Voigt Hill
#
# Bulk Modulus (GPa) = 30.02445 32.11361 31.06903
# Shear Modulus (GPa) = 28.06909 33.46121 30.76515
#
# Velocity S-wave (km/s) = 3.36475 3.67375 3.52264
# Velocity P-wave (km/s) = 5.21590 5.56310 5.39229
#
# Compressibility (1/GPa) = 0.03330618
#
# Stress axis : x y z
#
# Youngs Moduli (GPa) = 62.84510 65.96831 46.83081
#
# Poissons Ratio (x) = 0.30919 0.14251
# Poissons Ratio (y) = 0.29455 0.08565
# Poissons Ratio (z) = 0.19125 0.12066
#
# Static dielectric constant tensor:
#      x y z
#    x 1.990110 0.000000 -0.016460 
#    y 0.000000 2.072930 0.000000 
#    z -0.016460 0.000000 2.132760 
# 
# From -- ./inp_files/31715.got.cif
#   From: 2010.05.17/outbox.cif.g08.bks.cpg/sg14_16_cif.got.tgz:31715.got - 2010.06.03 17:49:19.
