data_PCOD9246017
_publ_section_title
;
Structure prediction by ZEFSAII (Michael W. Deem and Ramdas Pophale) SiO2 
 PCOD9246017
Probable space group: P 21/C
;
_chemical_formula_sum "Si O2"
_cell_formula_units_Z 32
_cell_length_a 12.144041
_cell_length_b 14.266845
_cell_length_c 15.682340
_cell_angle_alpha 90.000000
_cell_angle_beta 152.474483
_cell_angle_gamma 90.000000
_cell_volume 1255.680005
_symmetry_space_group_name_H-M "P 21/C"
_symmetry_group_IT_number 14
_symmetry_cell_setting 'monoclinic'
loop_
_space_group_symop_operation_xyz
x,y,z
-x,1/2+y,1/2-z
-x,-y,-z
x,1/2-y,1/2+z
loop_
_atom_site_type_symbol
_atom_site_label
_atom_site_fract_x
_atom_site_fract_y
_atom_site_fract_z
Si Si1 0.508964 0.015389 0.261768
Si Si2 0.113390 0.860884 0.566962
Si Si3 0.303726 0.627673 0.372322
Si Si4 0.657969 0.728109 0.719373
Si Si5 0.495861 0.294191 0.207389
Si Si6 0.671047 0.640042 0.081406
Si Si7 0.240797 0.429134 0.419321
Si Si8 0.265726 0.567146 0.909681
O O1 0.745741 0.048890 0.372271
O O2 0.554307 0.056507 0.387132
O O3 0.469513 0.903795 0.242979
O O4 0.302466 0.057452 0.061080
O O5 0.105765 0.857150 0.664767
O O6 0.270370 0.769123 0.648910
O O7 0.848280 0.855940 0.348413
O O8 0.393228 0.700429 0.504813
O O9 0.253206 0.530597 0.383400
O O10 0.542119 0.622463 0.477620
O O11 0.633577 0.752984 0.801174
O O12 0.759355 0.803109 0.723030
O O13 0.342373 0.303703 0.015518
O O14 0.795582 0.540429 0.155772
O O15 0.399409 0.612918 0.922154
O O16 0.979810 0.386313 0.231478
#
# Coordination Sequence:
#
# PCOD9246017 Si02
#       8
#     4   4   4   4   4   4   4   4
#     4  10  22  42  68 102 140 176 232 287 342 435
#     4  11  25  43  67 104 136 186 238 286 360 414
#     4  10  22  40  62 105 135 167 237 290 328 428
#     4  12  24  43  70  93 140 184 219 302 348 402
#     4  11  24  46  67 102 139 177 240 289 346 428
#     4  10  24  45  64  99 138 174 242 287 338 429
#     4  10  21  39  70  98 134 179 222 285 356 405
#     4  10  22  44  67  93 136 185 222 288 354 417
#
# _framework density 25.484199
#
# number of rings (size 3 to 8) (size 9 to 14) (size 15 to 20)
#    0.000    1.500    2.500    1.500    5.250    0.500 
#    6.750    1.875    0.000    0.000    0.000    0.000 
#    0.000    0.000    0.000    0.000    0.000    0.000 
#
# Total GULP energy -179033.971759 kJ/mol
# GULP energy per Si atom -5594.811617 kJ/mol
# Density = 2.542620 g / cm^3
# Si number density = 25.484199 Si / 1000 Ang^3
#
#
#
# Elastic Constant Matrix: (Units=GPa)
#
#
# Indices 1 2 3 4 5 6 
#
# 1 122.2573 25.8987 33.9833 0.0000 -33.0629 0.0000
# 2 25.8987 93.1447 21.8845 0.0000 -12.8940 0.0000
# 3 33.9833 21.8845 84.9094 0.0000 -25.7164 0.0000
# 4 0.0000 0.0000 0.0000 11.0678 0.0000 -5.3455
# 5 -33.0629 -12.8940 -25.7164 0.0000 47.4519 0.0000
# 6 0.0000 0.0000 0.0000 -5.3455 0.0000 32.8715
#
#
#
# Elastic Compliance Matrix: (Units=1/GPa)
#
#
# Indices 1 2 3 4 5 6 
#
# 1 0.010699 -0.001675 -0.002070 0.000000 0.005878 0.000000
# 2 -0.001675 0.011821 -0.002102 0.000000 0.000906 0.000000
# 3 -0.002070 -0.002102 0.015000 0.000000 0.006115 0.000000
# 4 0.000000 0.000000 0.000000 0.098054 0.000000 0.015945
# 5 0.005878 0.000906 0.006115 0.000000 0.028730 0.000000
# 6 0.000000 0.000000 0.000000 0.015945 0.000000 0.033015
#
#
# Mechanical properties :
#
#
# Convention : Reuss Voigt Hill
#
# Bulk Modulus (GPa) = 38.72109 51.53827 45.12968
# Shear Modulus (GPa) = 22.97572 32.84789 27.91181
#
# Velocity S-wave (km/s) = 3.00587 3.59409 3.31306
# Velocity P-wave (km/s) = 5.22246 6.12298 5.69056
#
# Compressibility (1/GPa) = 0.02582572
#
# Stress axis : x y z
#
# Youngs Moduli (GPa) = 93.46394 84.59558 66.66763
#
# Poissons Ratio (x) = 0.14168 0.13802
# Poissons Ratio (y) = 0.15654 0.14014
# Poissons Ratio (z) = 0.19350 0.17782
#
# Static dielectric constant tensor:
#      x y z
#    x 2.021800 0.000000 -0.029580 
#    y 0.000000 2.051200 0.000000 
#    z -0.029580 0.000000 1.994480 
# 
# From -- ./inp_files/45395.got.cif
#   From: 2010.05.17/outbox.cif.g08.bks.cpg/sg14_23_cif.got.tgz:45395.got - 2010.06.03 17:49:19.
