data_PCOD9246377
_publ_section_title
;
Structure prediction by ZEFSAII (Michael W. Deem and Ramdas Pophale) SiO2 
 PCOD9246377
Probable space group: P 21/C
;
_chemical_formula_sum "Si O2"
_cell_formula_units_Z 20
_cell_length_a 24.710847
_cell_length_b 8.119118
_cell_length_c 13.002173
_cell_angle_alpha 90.000000
_cell_angle_beta 22.745876
_cell_angle_gamma 90.000000
_cell_volume 1008.612521
_symmetry_space_group_name_H-M "P 21/C"
_symmetry_group_IT_number 14
_symmetry_cell_setting 'monoclinic'
loop_
_space_group_symop_operation_xyz
x,y,z
-x,1/2+y,1/2-z
-x,-y,-z
x,1/2-y,1/2+z
loop_
_atom_site_type_symbol
_atom_site_label
_atom_site_fract_x
_atom_site_fract_y
_atom_site_fract_z
Si Si1 0.857502 0.920135 0.022638
Si Si2 0.443991 0.949158 0.987868
Si Si3 0.360811 0.299747 0.470131
Si Si4 0.840124 0.227946 0.476498
Si Si5 0.843481 0.995791 0.819096
O O1 0.840919 0.887724 0.928786
O O2 0.010323 0.859343 0.787843
O O3 0.741308 0.826532 0.291471
O O4 0.846892 0.118590 0.044637
O O5 0.535792 0.799302 0.784507
O O6 0.282903 0.894179 0.279710
O O7 0.500000 0.000000 0.000000
O O8 0.448050 0.097825 0.900260
O O9 0.264281 0.423945 0.573494
O O10 0.809768 0.322083 0.422029
O O11 0.000000 0.000000 0.500000
#
# Coordination Sequence:
#
# PCOD9246377 Si02
#       5
#     4   4   4   4   4
#     4  10  21  41  69 100 129 176 228 282 335 401
#     4  12  28  45  68 102 139 182 232 273 344 410
#     4  12  24  45  67  98 140 184 225 282 341 404
#     4  10  22  42  69  97 135 172 226 284 327 405
#     4  10  21  40  71  95 134 172 224 283 342 382
#
# _framework density 19.829221
#
# number of rings (size 3 to 8) (size 9 to 14) (size 15 to 20)
#    1.200    0.000    2.000    4.800    2.800    0.800 
#    3.600    2.000    0.000    0.000    0.000    0.000 
#    0.000    0.000    0.000    0.000    0.000    0.000 
#
# Total GULP energy -111688.170085 kJ/mol
# GULP energy per Si atom -5584.408504 kJ/mol
# Density = 1.978409 g / cm^3
# Si number density = 19.829221 Si / 1000 Ang^3
#
#
#
# Elastic Constant Matrix: (Units=GPa)
#
#
# Indices 1 2 3 4 5 6 
#
# 1 83.9713 23.3615 15.4782 0.0000 -4.2460 0.0000
# 2 23.3615 56.9309 -9.6004 0.0000 -9.2968 0.0000
# 3 15.4782 -9.6004 29.6100 0.0000 -4.9256 0.0000
# 4 0.0000 0.0000 0.0000 31.7573 0.0000 0.8150
# 5 -4.2460 -9.2968 -4.9256 0.0000 29.3783 0.0000
# 6 0.0000 0.0000 0.0000 0.8150 0.0000 41.1176
#
#
#
# Elastic Compliance Matrix: (Units=1/GPa)
#
#
# Indices 1 2 3 4 5 6 
#
# 1 0.016588 -0.009266 -0.012102 0.000000 -0.002564 0.000000
# 2 -0.009266 0.025312 0.014567 0.000000 0.009113 0.000000
# 3 -0.012102 0.014567 0.046597 0.000000 0.010673 0.000000
# 4 0.000000 0.000000 0.000000 0.031505 0.000000 -0.000624
# 5 -0.002564 0.009113 0.010673 0.000000 0.038342 0.000000
# 6 0.000000 0.000000 0.000000 -0.000624 0.000000 0.024333
#
#
# Mechanical properties :
#
#
# Convention : Reuss Voigt Hill
#
# Bulk Modulus (GPa) = 13.35221 25.44340 19.39780
# Shear Modulus (GPa) = 22.59949 29.86883 26.23416
#
# Velocity S-wave (km/s) = 3.37962 3.88532 3.64126
# Velocity P-wave (km/s) = 4.68799 5.74341 5.24233
#
# Compressibility (1/GPa) = 0.07489399
#
# Stress axis : x y z
#
# Youngs Moduli (GPa) = 60.28507 39.50672 21.46060
#
# Poissons Ratio (x) = 0.36608 0.25972
# Poissons Ratio (y) = 0.55862 -0.31261
# Poissons Ratio (z) = 0.72957 -0.57548
#
# Static dielectric constant tensor:
#      x y z
#    x 1.699720 0.000000 0.016220 
#    y 0.000000 1.699980 0.000000 
#    z 0.016220 0.000000 1.647180 
# 
# From -- ./inp_files/36370.got.cif
#   From: 2010.05.17/outbox.cif.g08.bks.cpg/sg14_19_cif.got.tgz:36370.got - 2010.06.03 17:49:19.
