data_PCOD9246751
_publ_section_title
;
Structure prediction by ZEFSAII (Michael W. Deem and Ramdas Pophale) SiO2 
 PCOD9246751
Probable space group: P 21/C
;
_chemical_formula_sum "Si O2"
_cell_formula_units_Z 28
_cell_length_a 6.192707
_cell_length_b 9.031493
_cell_length_c 30.143907
_cell_angle_alpha 90.000000
_cell_angle_beta 45.835765
_cell_angle_gamma 90.000000
_cell_volume 1209.394788
_symmetry_space_group_name_H-M "P 21/C"
_symmetry_group_IT_number 14
_symmetry_cell_setting 'monoclinic'
loop_
_space_group_symop_operation_xyz
x,y,z
-x,1/2+y,1/2-z
-x,-y,-z
x,1/2-y,1/2+z
loop_
_atom_site_type_symbol
_atom_site_label
_atom_site_fract_x
_atom_site_fract_y
_atom_site_fract_z
Si Si1 0.221578 0.652700 0.271583
Si Si2 0.811613 0.280327 0.386731
Si Si3 0.540501 0.848413 0.431899
Si Si4 0.452141 0.057730 0.806949
Si Si5 0.623828 0.448729 0.842618
Si Si6 0.908101 0.476181 0.940855
Si Si7 0.443228 0.056065 0.108378
O O1 0.308415 0.817093 0.242647
O O2 0.453719 0.584445 0.274226
O O3 0.242997 0.548473 0.225160
O O4 0.893692 0.624195 0.338443
O O5 0.755734 0.194380 0.348687
O O6 0.782201 0.158255 0.428593
O O7 0.574254 0.413126 0.420339
O O8 0.137683 0.355048 0.344646
O O9 0.268452 0.951658 0.488342
O O10 0.399089 0.690851 0.439484
O O11 0.679158 0.916700 0.367500
O O12 0.799554 0.873009 0.432096
O O13 0.466503 0.997820 0.855348
O O14 0.262140 0.450640 0.890309
#
# Coordination Sequence:
#
# PCOD9246751 Si02
#       7
#     4   4   4   4   4   4   4
#     4  11  26  37  67  89 126 167 208 261 318 381
#     4  10  21  42  63  89 123 167 206 259 320 379
#     4  10  25  39  66  96 124 165 212 264 314 381
#     4  11  25  42  60  95 127 165 212 258 319 383
#     4  11  22  40  68  88 126 168 211 261 319 376
#     4  10  21  44  65  92 124 163 216 262 318 372
#     4  11  25  40  60  96 127 162 211 258 317 389
#
# _framework density 23.152076999999998
#
# number of rings (size 3 to 8) (size 9 to 14) (size 15 to 20)
#    0.000    1.429    2.857    0.429    8.000    1.714 
#    0.000    2.857    0.000    0.000    0.000    0.000 
#    0.000    0.000    0.000    0.000    0.000    0.000 
#
# Total GULP energy -156327.922735 kJ/mol
# GULP energy per Si atom -5583.140098 kJ/mol
# Density = 2.309938 g / cm^3
# Si number density = 23.152077 Si / 1000 Ang^3
#
#
#
# Elastic Constant Matrix: (Units=GPa)
#
#
# Indices 1 2 3 4 5 6 
#
# 1 84.9947 34.1830 8.0577 0.0000 4.3462 0.0000
# 2 34.1830 96.2364 4.2317 0.0000 15.6411 0.0000
# 3 8.0577 4.2317 36.9426 0.0000 7.3458 0.0000
# 4 0.0000 0.0000 0.0000 30.5274 0.0000 9.0821
# 5 4.3462 15.6411 7.3458 0.0000 29.7612 0.0000
# 6 0.0000 0.0000 0.0000 9.0821 0.0000 27.8589
#
#
#
# Elastic Compliance Matrix: (Units=1/GPa)
#
#
# Indices 1 2 3 4 5 6 
#
# 1 0.013993 -0.005060 -0.002729 0.000000 0.001289 0.000000
# 2 -0.005060 0.013192 0.000867 0.000000 -0.006408 0.000000
# 3 -0.002729 0.000867 0.029000 0.000000 -0.007215 0.000000
# 4 0.000000 0.000000 0.000000 0.036276 0.000000 -0.011826
# 5 0.001289 -0.006408 -0.007215 0.000000 0.038561 0.000000
# 6 0.000000 0.000000 0.000000 -0.011826 0.000000 0.039750
#
#
# Mechanical properties :
#
#
# Convention : Reuss Voigt Hill
#
# Bulk Modulus (GPa) = 23.61811 34.56871 29.09341
# Shear Modulus (GPa) = 25.15985 29.07626 27.11806
#
# Velocity S-wave (km/s) = 3.30012 3.54769 3.42614
# Velocity P-wave (km/s) = 4.97439 5.63427 5.31458
#
# Compressibility (1/GPa) = 0.04234038
#
# Stress axis : x y z
#
# Youngs Moduli (GPa) = 71.46324 75.80518 34.48331
#
# Poissons Ratio (x) = 0.38357 0.09410
# Poissons Ratio (y) = 0.36160 -0.02989
# Poissons Ratio (z) = 0.19501 -0.06570
#
# Static dielectric constant tensor:
#      x y z
#    x 1.922400 0.000000 0.006080 
#    y 0.000000 1.962550 0.000000 
#    z 0.006080 0.000000 1.844270 
# 
# From -- ./inp_files/75637.got.cif
#   From: 2010.05.17/outbox.cif.g08.bks.cpg/sg14_38_cif.got.tgz:75637.got - 2010.06.03 17:49:19.
