data_PCOD9246185
_publ_section_title
;
Structure prediction by ZEFSAII (Michael W. Deem and Ramdas Pophale) SiO2 
 PCOD9246185
Probable space group: P 21/C
;
_chemical_formula_sum "Si O2"
_cell_formula_units_Z 32
_cell_length_a 17.549429
_cell_length_b 7.298796
_cell_length_c 15.244349
_cell_angle_alpha 90.000000
_cell_angle_beta 41.394139
_cell_angle_gamma 90.000000
_cell_volume 1291.156891
_symmetry_space_group_name_H-M "P 21/C"
_symmetry_group_IT_number 14
_symmetry_cell_setting 'monoclinic'
loop_
_space_group_symop_operation_xyz
x,y,z
-x,1/2+y,1/2-z
-x,-y,-z
x,1/2-y,1/2+z
loop_
_atom_site_type_symbol
_atom_site_label
_atom_site_fract_x
_atom_site_fract_y
_atom_site_fract_z
Si Si1 0.611284 0.899211 0.291019
Si Si2 0.372804 0.499254 0.022676
Si Si3 0.734816 0.283907 0.609966
Si Si4 0.983242 0.706676 0.900945
Si Si5 0.814467 0.497297 0.170139
Si Si6 0.429096 0.847856 0.904713
Si Si7 0.931984 0.448926 0.351324
Si Si8 0.732203 0.840206 0.921400
O O1 0.618021 0.912784 0.389385
O O2 0.563260 0.704786 0.298389
O O3 0.496477 0.020196 0.368833
O O4 0.717058 0.008801 0.161214
O O5 0.279613 0.376207 0.055343
O O6 0.365111 0.719056 0.033936
O O7 0.731056 0.136840 0.689281
O O8 0.635473 0.264550 0.623875
O O9 0.861764 0.282497 0.456564
O O10 0.990164 0.923246 0.874115
O O11 0.088878 0.632500 0.868253
O O12 0.993321 0.617688 0.795101
O O13 0.872803 0.636730 0.050352
O O14 0.761688 0.609241 0.295983
O O15 0.386707 0.053981 0.952234
O O16 0.830851 0.570389 0.394533
#
# Coordination Sequence:
#
# PCOD9246185 Si02
#       8
#     4   4   4   4   4   4   4   4
#     4   9  21  40  56  89 128 157 207 252 292 364
#     4   9  20  40  60  85 124 168 199 250 304 355
#     4  11  22  39  61  95 121 163 214 246 312 368
#     4  10  22  44  59  91 124 155 202 259 332 360
#     4  10  23  39  63  91 126 152 208 266 299 385
#     4   9  21  40  59  85 132 165 196 261 291 359
#     4  10  23  40  65  87 120 159 201 256 308 392
#     4  10  21  40  64  94 117 166 212 241 306 369
#
# _framework density 24.783975000000002
#
# number of rings (size 3 to 8) (size 9 to 14) (size 15 to 20)
#    0.750    1.500    0.000    1.500    3.500    3.000 
#    4.500    0.000    0.000    0.000    0.000    0.000 
#    0.000    0.000    0.000    0.000    0.000    0.000 
#
# Total GULP energy -178620.480794 kJ/mol
# GULP energy per Si atom -5581.890025 kJ/mol
# Density = 2.472757 g / cm^3
# Si number density = 24.783975 Si / 1000 Ang^3
#
#
#
# Elastic Constant Matrix: (Units=GPa)
#
#
# Indices 1 2 3 4 5 6 
#
# 1 39.4073 19.8992 16.2044 0.0000 6.4968 0.0000
# 2 19.8992 56.0111 5.2658 0.0000 -4.9512 0.0000
# 3 16.2044 5.2658 82.8303 0.0000 17.2378 0.0000
# 4 0.0000 0.0000 0.0000 14.2837 0.0000 -8.7948
# 5 6.4968 -4.9512 17.2378 0.0000 17.2674 0.0000
# 6 0.0000 0.0000 0.0000 -8.7948 0.0000 35.8307
#
#
#
# Elastic Compliance Matrix: (Units=1/GPa)
#
#
# Indices 1 2 3 4 5 6 
#
# 1 0.035988 -0.013749 -0.003191 0.000000 -0.014298 0.000000
# 2 -0.013749 0.024120 -0.001716 0.000000 0.013802 0.000000
# 3 -0.003191 -0.001716 0.015978 0.000000 -0.015242 0.000000
# 4 0.000000 0.000000 0.000000 0.082474 0.000000 0.020244
# 5 -0.014298 0.013802 -0.015242 0.000000 0.082466 0.000000
# 6 0.000000 0.000000 0.000000 0.020244 0.000000 0.032878
#
#
# Mechanical properties :
#
#
# Convention : Reuss Voigt Hill
#
# Bulk Modulus (GPa) = 25.79067 28.99860 27.39463
# Shear Modulus (GPa) = 15.42534 22.60164 19.01349
#
# Velocity S-wave (km/s) = 2.49748 3.02312 2.77279
# Velocity P-wave (km/s) = 4.32959 4.88995 4.61828
#
# Compressibility (1/GPa) = 0.03877372
#
# Stress axis : x y z
#
# Youngs Moduli (GPa) = 27.78685 41.45971 62.58473
#
# Poissons Ratio (x) = 0.57005 0.19970
# Poissons Ratio (y) = 0.38205 0.10739
# Poissons Ratio (z) = 0.08867 0.07114
#
# Static dielectric constant tensor:
#      x y z
#    x 1.952530 0.000000 -0.002720 
#    y 0.000000 2.017530 0.000000 
#    z -0.002720 0.000000 2.016040 
# 
# From -- ./inp_files/50077.got.cif
#   From: 2010.05.17/outbox.cif.g08.bks.cpg/sg14_26_cif.got.tgz:50077.got - 2010.06.03 17:49:19.
