data_PCOD9246663
_publ_section_title
;
Structure prediction by ZEFSAII (Michael W. Deem and Ramdas Pophale) SiO2 
 PCOD9246663
Probable space group: P 21/C
;
_chemical_formula_sum "Si O2"
_cell_formula_units_Z 20
_cell_length_a 11.325997
_cell_length_b 10.598265
_cell_length_c 11.089984
_cell_angle_alpha 90.000000
_cell_angle_beta 142.140494
_cell_angle_gamma 90.000000
_cell_volume 816.991654
_symmetry_space_group_name_H-M "P 21/C"
_symmetry_group_IT_number 14
_symmetry_cell_setting 'monoclinic'
loop_
_space_group_symop_operation_xyz
x,y,z
-x,1/2+y,1/2-z
-x,-y,-z
x,1/2-y,1/2+z
loop_
_atom_site_type_symbol
_atom_site_label
_atom_site_fract_x
_atom_site_fract_y
_atom_site_fract_z
Si Si1 0.131121 0.429304 0.705382
Si Si2 0.147159 0.239043 0.016269
Si Si3 0.224782 0.514847 0.458073
Si Si4 0.821706 0.096113 0.332824
Si Si5 0.375299 0.484639 0.112142
O O1 0.226629 0.317680 0.706934
O O2 0.000000 0.500000 0.500000
O O3 0.960441 0.398327 0.662648
O O4 0.288479 0.503366 0.909781
O O5 0.276344 0.355335 0.078935
O O6 0.155510 0.129233 0.922748
O O7 0.931538 0.277796 0.882183
O O8 0.285830 0.543741 0.371586
O O9 0.398637 0.532124 0.690528
O O10 0.693887 0.092121 0.349350
O O11 0.000000 0.000000 0.500000
#
# Coordination Sequence:
#
# PCOD9246663 Si02
#       5
#     4   4   4   4   4
#     4  10  23  43  65  95 136 172 221 275 330 392
#     4  10  24  41  69  94 137 178 215 271 341 382
#     4  11  23  45  67  99 134 175 226 277 323 400
#     4  10  21  41  69  94 131 175 221 268 330 392
#     4  11  24  42  68 100 133 174 225 276 323 404
#
# _framework density 24.480055
#
# number of rings (size 3 to 8) (size 9 to 14) (size 15 to 20)
#    0.000    1.600    4.000    0.600    5.600    4.800 
#   10.800    0.000    0.000    0.000    0.000    0.000 
#    0.000    0.000    0.000    0.000    0.000    0.000 
#
# Total GULP energy -111679.756914 kJ/mol
# GULP energy per Si atom -5583.987846 kJ/mol
# Density = 2.442434 g / cm^3
# Si number density = 24.480055 Si / 1000 Ang^3
#
#
#
# Elastic Constant Matrix: (Units=GPa)
#
#
# Indices 1 2 3 4 5 6 
#
# 1 56.5167 18.1684 30.6425 0.0000 -6.5841 0.0000
# 2 18.1684 79.7659 14.4694 0.0000 -5.3670 0.0000
# 3 30.6425 14.4694 175.5084 0.0000 -8.1395 0.0000
# 4 0.0000 0.0000 0.0000 19.2271 0.0000 -4.6448
# 5 -6.5841 -5.3670 -8.1395 0.0000 49.5178 0.0000
# 6 0.0000 0.0000 0.0000 -4.6448 0.0000 36.3655
#
#
#
# Elastic Compliance Matrix: (Units=1/GPa)
#
#
# Indices 1 2 3 4 5 6 
#
# 1 0.020970 -0.004066 -0.003242 0.000000 0.001815 0.000000
# 2 -0.004066 0.013589 -0.000370 0.000000 0.000871 0.000000
# 3 -0.003242 -0.000370 0.006321 0.000000 0.000568 0.000000
# 4 0.000000 0.000000 0.000000 0.053666 0.000000 0.006854
# 5 0.001815 0.000871 0.000568 0.000000 0.020624 0.000000
# 6 0.000000 0.000000 0.000000 0.006854 0.000000 0.028374
#
#
# Mechanical properties :
#
#
# Convention : Reuss Voigt Hill
#
# Bulk Modulus (GPa) = 39.17994 48.70573 43.94283
# Shear Modulus (GPa) = 29.86739 37.58947 33.72843
#
# Velocity S-wave (km/s) = 3.49674 3.92281 3.71589
# Velocity P-wave (km/s) = 5.68705 6.36060 6.03323
#
# Compressibility (1/GPa) = 0.02552327
#
# Stress axis : x y z
#
# Youngs Moduli (GPa) = 47.68688 73.59117 158.21371
#
# Poissons Ratio (x) = 0.29924 0.51290
# Poissons Ratio (y) = 0.19391 0.05853
# Poissons Ratio (z) = 0.15459 0.02722
#
# Static dielectric constant tensor:
#      x y z
#    x 2.033050 0.000000 -0.069200 
#    y 0.000000 2.080940 0.000000 
#    z -0.069200 0.000000 1.952300 
# 
# From -- ./inp_files/32414.got.cif
#   From: 2010.05.17/outbox.cif.g08.bks.cpg/sg14_17_cif.got.tgz:32414.got - 2010.06.03 17:49:19.
