data_PCOD9246637
_publ_section_title
;
Structure prediction by ZEFSAII (Michael W. Deem and Ramdas Pophale) SiO2 
 PCOD9246637
Probable space group: P 21/C
;
_chemical_formula_sum "Si O2"
_cell_formula_units_Z 20
_cell_length_a 7.611132
_cell_length_b 20.431899
_cell_length_c 8.910891
_cell_angle_alpha 90.000000
_cell_angle_beta 36.344776
_cell_angle_gamma 90.000000
_cell_volume 821.243881
_symmetry_space_group_name_H-M "P 21/C"
_symmetry_group_IT_number 14
_symmetry_cell_setting 'monoclinic'
loop_
_space_group_symop_operation_xyz
x,y,z
-x,1/2+y,1/2-z
-x,-y,-z
x,1/2-y,1/2+z
loop_
_atom_site_type_symbol
_atom_site_label
_atom_site_fract_x
_atom_site_fract_y
_atom_site_fract_z
Si Si1 0.799441 0.223287 0.008728
Si Si2 0.147998 0.190688 0.479821
Si Si3 0.355183 0.504938 0.760078
Si Si4 0.274310 0.957729 0.754253
Si Si5 0.795844 0.370717 0.971859
O O1 0.027803 0.241970 0.983707
O O2 0.493433 0.193404 0.274916
O O3 0.957681 0.184733 0.763769
O O4 0.698211 0.295840 0.021147
O O5 0.069226 0.140272 0.399861
O O6 0.500000 0.500000 0.500000
O O7 0.516454 0.448983 0.746318
O O8 0.407846 0.577025 0.798641
O O9 0.000000 0.500000 0.000000
O O10 0.159025 0.901849 0.722356
O O11 0.500000 0.000000 0.500000
O O12 0.000000 0.000000 0.000000
#
# Coordination Sequence:
#
# PCOD9246637 Si02
#       5
#     4   4   4   4   4
#     4  10  22  41  65  92 130 169 213 267 315 384
#     4  10  22  41  65  90 131 164 220 261 316 384
#     4  11  23  42  64  97 126 161 219 273 309 382
#     4  10  21  41  68  88 125 169 209 253 326 387
#     4   9  24  43  66  91 138 171 209 264 336 375
#
# _framework density 24.353304000000001
#
# number of rings (size 3 to 8) (size 9 to 14) (size 15 to 20)
#    1.200    0.800    0.000    3.600    0.000    9.600 
#   10.800    0.000    0.000    0.000    0.000    0.000 
#    0.000    0.000    0.000    0.000    0.000    0.000 
#
# Total GULP energy -111526.369070 kJ/mol
# GULP energy per Si atom -5576.318453 kJ/mol
# Density = 2.429787 g / cm^3
# Si number density = 24.353304 Si / 1000 Ang^3
#
#
#
# Elastic Constant Matrix: (Units=GPa)
#
#
# Indices 1 2 3 4 5 6 
#
# 1 101.4827 -5.7316 52.6219 0.0000 -6.9368 0.0000
# 2 -5.7316 102.7063 25.5501 0.0000 -1.5622 0.0000
# 3 52.6219 25.5501 169.0778 0.0000 -13.0657 0.0000
# 4 0.0000 0.0000 0.0000 20.6513 0.0000 19.0574
# 5 -6.9368 -1.5622 -13.0657 0.0000 49.3289 0.0000
# 6 0.0000 0.0000 0.0000 19.0574 0.0000 41.9169
#
#
#
# Elastic Compliance Matrix: (Units=1/GPa)
#
#
# Indices 1 2 3 4 5 6 
#
# 1 0.012041 0.001664 -0.003945 0.000000 0.000701 0.000000
# 2 0.001664 0.010347 -0.002081 0.000000 0.000011 0.000000
# 3 -0.003945 -0.002081 0.007563 0.000000 0.001383 0.000000
# 4 0.000000 0.000000 0.000000 0.083425 0.000000 -0.037929
# 5 0.000701 0.000011 0.001383 0.000000 0.020737 0.000000
# 6 0.000000 0.000000 0.000000 -0.037929 0.000000 0.041101
#
#
# Mechanical properties :
#
#
# Convention : Reuss Voigt Hill
#
# Bulk Modulus (GPa) = 47.10577 57.57197 52.33887
# Shear Modulus (GPa) = 26.17610 42.43451 34.30530
#
# Velocity S-wave (km/s) = 3.28204 4.17880 3.75727
# Velocity P-wave (km/s) = 5.80922 6.85382 6.35303
#
# Compressibility (1/GPa) = 0.02122882
#
# Stress axis : x y z
#
# Youngs Moduli (GPa) = 83.04722 96.64521 132.21453
#
# Poissons Ratio (x) = -0.16082 0.52157
# Poissons Ratio (y) = -0.13819 0.27509
# Poissons Ratio (z) = 0.32761 0.20109
#
# Static dielectric constant tensor:
#      x y z
#    x 1.959760 0.000000 0.007060 
#    y 0.000000 2.073350 0.000000 
#    z 0.007060 0.000000 1.833710 
# 
# From -- ./inp_files/10997.got.cif
#   From: 2010.05.17/outbox.cif.g08.bks.cpg/sg14_6_cif.got.tgz:10997.got - 2010.06.03 17:49:19.
