data_PCOD9246774
_publ_section_title
;
Structure prediction by ZEFSAII (Michael W. Deem and Ramdas Pophale) SiO2 
 PCOD9246774
Probable space group: P 21/C
;
_chemical_formula_sum "Si O2"
_cell_formula_units_Z 24
_cell_length_a 8.260270
_cell_length_b 12.703396
_cell_length_c 15.446673
_cell_angle_alpha 90.000000
_cell_angle_beta 33.516209
_cell_angle_gamma 90.000000
_cell_volume 895.002188
_symmetry_space_group_name_H-M "P 21/C"
_symmetry_group_IT_number 14
_symmetry_cell_setting 'monoclinic'
loop_
_space_group_symop_operation_xyz
x,y,z
-x,1/2+y,1/2-z
-x,-y,-z
x,1/2-y,1/2+z
loop_
_atom_site_type_symbol
_atom_site_label
_atom_site_fract_x
_atom_site_fract_y
_atom_site_fract_z
Si Si1 0.379752 0.848700 0.008339
Si Si2 0.161477 0.681275 0.963366
Si Si3 0.558466 0.975491 0.374753
Si Si4 0.144919 0.293916 0.165492
Si Si5 0.400136 0.234744 0.370849
Si Si6 0.901285 0.954038 0.952816
O O1 0.201101 0.815383 0.175581
O O2 0.305321 0.964158 0.006996
O O3 0.248905 0.763586 0.999422
O O4 0.721616 0.820371 0.869965
O O5 0.298286 0.568599 0.930864
O O6 0.309234 0.732905 0.811868
O O7 0.814643 0.678076 0.103137
O O8 0.752663 0.869338 0.301933
O O9 0.500000 0.000000 0.500000
O O10 0.785438 0.058759 0.234385
O O11 0.304337 0.323083 0.004155
O O12 0.261207 0.348501 0.452813
O O13 0.000000 0.000000 0.000000
#
# Coordination Sequence:
#
# PCOD9246774 Si02
#       6
#     4   4   4   4   4   4
#     4  10  21  42  64  91 129 171 218 260 324 394
#     4  11  22  40  65  95 124 168 217 261 326 394
#     4  10  23  41  64  91 127 172 214 260 329 389
#     4  10  23  40  65  94 126 168 218 267 325 388
#     4  12  24  40  70  94 130 168 219 272 329 386
#     4  11  21  41  64  94 129 174 211 265 334 386
#
# _framework density 26.815577000000001
#
# number of rings (size 3 to 8) (size 9 to 14) (size 15 to 20)
#    0.000    1.333    3.333    3.000    7.000    0.667 
#    0.000    0.833    0.000    0.000    0.000    0.000 
#    0.000    0.000    0.000    0.000    0.000    0.000 
#
# Total GULP energy -134178.206532 kJ/mol
# GULP energy per Si atom -5590.758605 kJ/mol
# Density = 2.675454 g / cm^3
# Si number density = 26.815577 Si / 1000 Ang^3
#
#
#
# Elastic Constant Matrix: (Units=GPa)
#
#
# Indices 1 2 3 4 5 6 
#
# 1 85.7769 -0.0702 7.4596 0.0000 13.4547 0.0000
# 2 -0.0702 65.1305 9.4181 0.0000 -4.0812 0.0000
# 3 7.4596 9.4181 135.0147 0.0000 16.9319 0.0000
# 4 0.0000 0.0000 0.0000 35.4252 0.0000 7.9229
# 5 13.4547 -4.0812 16.9319 0.0000 53.1123 0.0000
# 6 0.0000 0.0000 0.0000 7.9229 0.0000 49.4419
#
#
#
# Elastic Compliance Matrix: (Units=1/GPa)
#
#
# Indices 1 2 3 4 5 6 
#
# 1 0.012153 -0.000133 -0.000286 0.000000 -0.002998 0.000000
# 2 -0.000133 0.015643 -0.001290 0.000000 0.001647 0.000000
# 3 -0.000286 -0.001290 0.007829 0.000000 -0.002522 0.000000
# 4 0.000000 0.000000 0.000000 0.029278 0.000000 -0.004692
# 5 -0.002998 0.001647 -0.002522 0.000000 0.020518 0.000000
# 6 0.000000 0.000000 0.000000 -0.004692 0.000000 0.020978
#
#
# Mechanical properties :
#
#
# Convention : Reuss Voigt Hill
#
# Bulk Modulus (GPa) = 31.05078 35.50415 33.27746
# Shear Modulus (GPa) = 41.47515 45.53683 43.50599
#
# Velocity S-wave (km/s) = 3.93705 4.12533 4.03229
# Velocity P-wave (km/s) = 5.68082 5.99667 5.84088
#
# Compressibility (1/GPa) = 0.03220531
#
# Stress axis : x y z
#
# Youngs Moduli (GPa) = 82.28324 63.92441 127.73416
#
# Poissons Ratio (x) = 0.00853 0.03656
# Poissons Ratio (y) = 0.01097 0.16483
# Poissons Ratio (z) = 0.02355 0.08249
#
# Static dielectric constant tensor:
#      x y z
#    x 2.188140 0.000000 -0.054300 
#    y 0.000000 2.173560 0.000000 
#    z -0.054300 0.000000 2.167630 
# 
# From -- ./inp_files/55904.got.cif
#   From: 2010.05.17/outbox.cif.g08.bks.cpg/sg14_28_cif.got.tgz:55904.got - 2010.06.03 17:49:19.
