data_PCOD9246357
_publ_section_title
;
Structure prediction by ZEFSAII (Michael W. Deem and Ramdas Pophale) SiO2 
 PCOD9246357
Probable space group: P 21/C
;
_chemical_formula_sum "Si O2"
_cell_formula_units_Z 32
_cell_length_a 16.766531
_cell_length_b 11.388243
_cell_length_c 13.877740
_cell_angle_alpha 90.000000
_cell_angle_beta 31.520220
_cell_angle_gamma 90.000000
_cell_volume 1385.331779
_symmetry_space_group_name_H-M "P 21/C"
_symmetry_group_IT_number 14
_symmetry_cell_setting 'monoclinic'
loop_
_space_group_symop_operation_xyz
x,y,z
-x,1/2+y,1/2-z
-x,-y,-z
x,1/2-y,1/2+z
loop_
_atom_site_type_symbol
_atom_site_label
_atom_site_fract_x
_atom_site_fract_y
_atom_site_fract_z
Si Si1 0.593694 0.033391 0.665894
Si Si2 0.882802 0.139609 0.078905
Si Si3 0.426439 0.540111 0.173414
Si Si4 0.931935 0.016583 0.230549
Si Si5 0.576894 0.715628 0.540407
Si Si6 0.385771 0.417117 0.677062
Si Si7 0.850050 0.100239 0.643289
Si Si8 0.872028 0.932942 0.781034
O O1 0.464576 0.048605 0.718846
O O2 0.760044 0.026726 0.447726
O O3 0.569644 0.918823 0.758483
O O4 0.562935 0.139843 0.771427
O O5 0.748419 0.062751 0.169769
O O6 0.802341 0.265745 0.177206
O O7 0.936794 0.097531 0.129248
O O8 0.020119 0.111778 0.861983
O O9 0.500000 0.500000 0.000000
O O10 0.524421 0.652603 0.106518
O O11 0.041921 0.053378 0.206093
O O12 0.607758 0.698201 0.393422
O O13 0.728547 0.654728 0.428231
O O14 0.500000 0.500000 0.500000
O O15 0.231024 0.492614 0.829062
O O16 0.013279 0.108569 0.422192
O O17 0.832121 0.060460 0.773492
#
# Coordination Sequence:
#
# PCOD9246357 Si02
#       8
#     4   4   4   4   4   4   4   4
#     4  11  22  44  64 100 132 178 232 280 337 416
#     4  11  25  44  66  93 138 188 224 285 355 403
#     4  12  26  45  69 100 144 181 232 284 341 418
#     4  11  24  43  67  97 139 179 232 285 343 417
#     4  10  24  43  69  99 135 183 221 284 349 405
#     4   9  18  39  67  95 131 165 226 277 331 407
#     4  10  21  40  69  97 130 175 226 283 345 411
#     4  10  22  43  68 102 134 170 233 285 339 422
#
# _framework density 23.099160000000001
#
# number of rings (size 3 to 8) (size 9 to 14) (size 15 to 20)
#    0.000    1.500    2.500    2.250    1.750    2.000 
#    6.750    0.000    0.000    0.000    0.000    0.000 
#    0.000    0.000    0.000    0.000    0.000    0.000 
#
# Total GULP energy -178301.060857 kJ/mol
# GULP energy per Si atom -5571.908152 kJ/mol
# Density = 2.304659 g / cm^3
# Si number density = 23.099160 Si / 1000 Ang^3
#
#
#
# Elastic Constant Matrix: (Units=GPa)
#
#
# Indices 1 2 3 4 5 6 
#
# 1 171.1636 15.8719 31.2220 0.0000 20.5898 0.0000
# 2 15.8719 37.8410 12.0864 0.0000 7.5475 0.0000
# 3 31.2220 12.0864 116.3991 0.0000 2.3339 0.0000
# 4 0.0000 0.0000 0.0000 24.9309 0.0000 -0.9628
# 5 20.5898 7.5475 2.3339 0.0000 34.1393 0.0000
# 6 0.0000 0.0000 0.0000 -0.9628 0.0000 18.3417
#
#
#
# Elastic Compliance Matrix: (Units=1/GPa)
#
#
# Indices 1 2 3 4 5 6 
#
# 1 0.006707 -0.001599 -0.001561 0.000000 -0.003585 0.000000
# 2 -0.001599 0.028936 -0.002470 0.000000 -0.005264 0.000000
# 3 -0.001561 -0.002470 0.009249 0.000000 0.000855 0.000000
# 4 0.000000 0.000000 0.000000 0.040192 0.000000 0.002110
# 5 -0.003585 -0.005264 0.000855 0.000000 0.032559 0.000000
# 6 0.000000 0.000000 0.000000 0.002110 0.000000 0.054631
#
#
# Mechanical properties :
#
#
# Convention : Reuss Voigt Hill
#
# Bulk Modulus (GPa) = 29.73460 49.30714 39.52087
# Shear Modulus (GPa) = 25.67451 33.23058 29.45255
#
# Velocity S-wave (km/s) = 3.33752 3.79701 3.57466
# Velocity P-wave (km/s) = 5.26807 6.37301 5.84670
#
# Compressibility (1/GPa) = 0.03363086
#
# Stress axis : x y z
#
# Youngs Moduli (GPa) = 149.10648 34.55897 108.11784
#
# Poissons Ratio (x) = 0.05528 0.16877
# Poissons Ratio (y) = 0.23850 0.26705
# Poissons Ratio (z) = 0.23275 0.08536
#
# Static dielectric constant tensor:
#      x y z
#    x 2.077790 0.000000 -0.064350 
#    y 0.000000 2.126670 0.000000 
#    z -0.064350 0.000000 1.959700 
# 
# From -- ./inp_files/48983.got.cif
#   From: 2010.05.17/outbox.cif.g08.bks.cpg/sg14_25_cif.got.tgz:48983.got - 2010.06.03 17:49:19.
