data_PCOD9246094
_publ_section_title
;
Structure prediction by ZEFSAII (Michael W. Deem and Ramdas Pophale) SiO2 
 PCOD9246094
Probable space group: P 21/C
;
_chemical_formula_sum "Si O2"
_cell_formula_units_Z 24
_cell_length_a 7.420069
_cell_length_b 15.348575
_cell_length_c 12.972558
_cell_angle_alpha 90.000000
_cell_angle_beta 39.160765
_cell_angle_gamma 90.000000
_cell_volume 932.983452
_symmetry_space_group_name_H-M "P 21/C"
_symmetry_group_IT_number 14
_symmetry_cell_setting 'monoclinic'
loop_
_space_group_symop_operation_xyz
x,y,z
-x,1/2+y,1/2-z
-x,-y,-z
x,1/2-y,1/2+z
loop_
_atom_site_type_symbol
_atom_site_label
_atom_site_fract_x
_atom_site_fract_y
_atom_site_fract_z
Si Si1 0.687428 0.252974 0.414403
Si Si2 0.818643 0.640760 0.283352
Si Si3 0.822935 0.575207 0.639113
Si Si4 0.283963 0.417810 0.087997
Si Si5 0.881853 0.329131 0.647208
Si Si6 0.660568 0.552532 0.156380
O O1 0.497343 0.328138 0.546016
O O2 0.468703 0.170816 0.511156
O O3 0.970007 0.218782 0.346184
O O4 0.797155 0.258441 0.246644
O O5 0.973259 0.616765 0.322052
O O6 0.806738 0.571549 0.199216
O O7 0.898899 0.582197 0.726320
O O8 0.890895 0.661883 0.544245
O O9 0.498936 0.540307 0.777991
O O10 0.000000 0.500000 0.500000
O O11 0.500000 0.500000 0.000000
O O12 0.166689 0.427018 0.024255
O O13 0.595003 0.375505 0.737413
#
# Coordination Sequence:
#
# PCOD9246094 Si02
#       6
#     4   4   4   4   4   4
#     4   9  21  41  61  89 128 162 214 259 306 377
#     4  10  21  40  62  92 126 165 214 254 312 380
#     4   9  17  34  66  91 121 163 203 251 318 370
#     4   9  18  38  64  89 121 163 204 260 315 361
#     4   8  19  38  61  87 125 158 209 256 304 372
#     4   9  18  37  63  90 122 165 201 262 312 370
#
# _framework density 25.723927
#
# number of rings (size 3 to 8) (size 9 to 14) (size 15 to 20)
#    1.000    2.000    0.000    1.000    0.000    3.333 
#   12.000    3.333    7.333    0.000    0.000    0.000 
#    0.000    0.000    0.000    0.000    0.000    0.000 
#
# Total GULP energy -133813.548219 kJ/mol
# GULP energy per Si atom -5575.564509 kJ/mol
# Density = 2.566538 g / cm^3
# Si number density = 25.723927 Si / 1000 Ang^3
#
#
#
# Elastic Constant Matrix: (Units=GPa)
#
#
# Indices 1 2 3 4 5 6 
#
# 1 76.0788 17.8948 75.0801 0.0000 23.4148 0.0000
# 2 17.8948 52.8128 45.2785 0.0000 9.1215 0.0000
# 3 75.0801 45.2785 163.6756 0.0000 32.1169 0.0000
# 4 0.0000 0.0000 0.0000 52.5551 0.0000 -5.3777
# 5 23.4148 9.1215 32.1169 0.0000 57.9101 0.0000
# 6 0.0000 0.0000 0.0000 -5.3777 0.0000 24.6522
#
#
#
# Elastic Compliance Matrix: (Units=1/GPa)
#
#
# Indices 1 2 3 4 5 6 
#
# 1 0.025021 0.001810 -0.011150 0.000000 -0.004218 0.000000
# 2 0.001810 0.024953 -0.007651 0.000000 -0.000419 0.000000
# 3 -0.011150 -0.007651 0.013712 0.000000 -0.001891 0.000000
# 4 0.000000 0.000000 0.000000 0.019462 0.000000 0.004246
# 5 -0.004218 -0.000419 -0.001891 0.000000 0.020088 0.000000
# 6 0.000000 0.000000 0.000000 0.004246 0.000000 0.041490
#
#
# Mechanical properties :
#
#
# Convention : Reuss Voigt Hill
#
# Bulk Modulus (GPa) = 33.66594 63.23044 48.44819
# Shear Modulus (GPa) = 26.50958 37.31107 31.91032
#
# Velocity S-wave (km/s) = 3.21369 3.81260 3.52588
# Velocity P-wave (km/s) = 5.18519 6.63438 5.95404
#
# Compressibility (1/GPa) = 0.02970361
#
# Stress axis : x y z
#
# Youngs Moduli (GPa) = 39.96701 40.07460 72.92773
#
# Poissons Ratio (x) = -0.07255 0.81318
# Poissons Ratio (y) = -0.07235 0.55799
# Poissons Ratio (z) = 0.44565 0.30662
#
# Static dielectric constant tensor:
#      x y z
#    x 2.002720 0.000000 0.019730 
#    y 0.000000 2.110150 0.000000 
#    z 0.019730 0.000000 2.094930 
# 
# From -- ./inp_files/41746.got.cif
#   From: 2010.05.17/outbox.cif.g08.bks.cpg/sg14_21_cif.got.tgz:41746.got - 2010.06.03 17:49:19.
