data_PCOD9246274
_publ_section_title
;
Structure prediction by ZEFSAII (Michael W. Deem and Ramdas Pophale) SiO2 
 PCOD9246274
Probable space group: P 21/C
;
_chemical_formula_sum "Si O2"
_cell_formula_units_Z 26
_cell_length_a 18.477325
_cell_length_b 4.981924
_cell_length_c 17.844164
_cell_angle_alpha 90.000000
_cell_angle_beta 33.525488
_cell_angle_gamma 90.000000
_cell_volume 907.222149
_symmetry_space_group_name_H-M "P 21/C"
_symmetry_group_IT_number 14
_symmetry_cell_setting 'monoclinic'
loop_
_space_group_symop_operation_xyz
x,y,z
-x,1/2+y,1/2-z
-x,-y,-z
x,1/2-y,1/2+z
loop_
_atom_site_type_symbol
_atom_site_label
_atom_site_fract_x
_atom_site_fract_y
_atom_site_fract_z
Si Si1 0.378178 0.949958 0.008936
Si Si2 0.878752 0.539586 0.180703
Si Si3 0.463877 0.717060 0.234458
Si Si4 0.788081 0.179824 0.478857
Si Si5 0.095754 0.179611 0.069714
Si Si6 0.803704 0.035142 0.170930
Si Si7 0.500000 0.500000 0.000000
O O1 0.262904 0.050962 0.159564
O O2 0.300654 0.786272 0.011929
O O3 0.476885 0.758167 0.965948
O O4 0.457719 0.205811 0.907796
O O5 0.897135 0.850145 0.144402
O O6 0.859990 0.338057 0.126425
O O7 0.975304 0.369253 0.150310
O O8 0.474354 0.416464 0.255703
O O9 0.313261 0.802737 0.363652
O O10 0.906811 0.387180 0.389339
O O11 0.825576 0.872099 0.441060
O O12 0.177011 0.117636 0.924034
O O13 0.656650 0.036072 0.330546
#
# Coordination Sequence:
#
# PCOD9246274 Si02
#       7
#     4   4   4   4   4   4   2
#     4  10  24  43  66 100 136 174 225 277 343 412
#     4  11  25  43  68  95 134 178 221 281 333 402
#     4  10  21  40  66  96 135 177 221 283 348 409
#     4  11  24  40  67  98 132 174 222 279 337 407
#     4  12  24  43  68  96 131 179 226 275 338 403
#     4  11  24  44  67  98 131 173 229 278 337 408
#     4  10  24  42  68  96 132 176 216 278 342 400
#
# _framework density 28.658913999999999
#
# number of rings (size 3 to 8) (size 9 to 14) (size 15 to 20)
#    0.000    1.231    0.000    5.538    0.000   14.769 
#    0.000    0.000    0.000    0.000    0.000    0.000 
#    0.000    0.000    0.000    0.000    0.000    0.000 
#
# Total GULP energy -145336.331687 kJ/mol
# GULP energy per Si atom -5589.858911 kJ/mol
# Density = 2.859368 g / cm^3
# Si number density = 28.658914 Si / 1000 Ang^3
#
#
#
# Elastic Constant Matrix: (Units=GPa)
#
#
# Indices 1 2 3 4 5 6 
#
# 1 75.1686 38.7901 -12.0308 0.0000 -28.1035 0.0000
# 2 38.7901 178.3820 6.3182 0.0000 -4.0685 0.0000
# 3 -12.0308 6.3182 110.6281 0.0000 -4.0342 0.0000
# 4 0.0000 0.0000 0.0000 20.8401 0.0000 -22.2839
# 5 -28.1035 -4.0685 -4.0342 0.0000 24.2446 0.0000
# 6 0.0000 0.0000 0.0000 -22.2839 0.0000 47.7113
#
#
#
# Elastic Compliance Matrix: (Units=1/GPa)
#
#
# Indices 1 2 3 4 5 6 
#
# 1 0.030143 -0.005935 0.004884 0.000000 0.034757 0.000000
# 2 -0.005935 0.006805 -0.001251 0.000000 -0.005946 0.000000
# 3 0.004884 -0.001251 0.009901 0.000000 0.007099 0.000000
# 4 0.000000 0.000000 0.000000 0.095857 0.000000 0.044771
# 5 0.034757 -0.005946 0.007099 0.000000 0.081719 0.000000
# 6 0.000000 0.000000 0.000000 0.044771 0.000000 0.041870
#
#
# Mechanical properties :
#
#
# Convention : Reuss Voigt Hill
#
# Bulk Modulus (GPa) = 23.67101 47.81485 35.74293
# Shear Modulus (GPa) = 17.54516 40.63261 29.08888
#
# Velocity S-wave (km/s) = 2.47696 3.76945 3.18937
# Velocity P-wave (km/s) = 4.05684 5.97205 5.10506
#
# Compressibility (1/GPa) = 0.04224577
#
# Stress axis : x y z
#
# Youngs Moduli (GPa) = 33.17570 146.94596 101.00186
#
# Poissons Ratio (x) = 0.87211 -0.49334
# Poissons Ratio (y) = 0.19690 0.12634
# Poissons Ratio (z) = -0.16204 0.18382
#
# Static dielectric constant tensor:
#      x y z
#    x 26.380620 0.000000 6.508100 
#    y 0.000000 2.231750 0.000000 
#    z 6.508100 0.000000 4.007240 
# 
# From -- ./inp_files/69580.got.cif
#   From: 2010.05.17/outbox.cif.g08.bks.cpg/sg14_35_cif.got.tgz:69580.got - 2010.06.03 17:49:19.
