data_PCOD9246376
_publ_section_title
;
Structure prediction by ZEFSAII (Michael W. Deem and Ramdas Pophale) SiO2 
 PCOD9246376
Probable space group: P 21/C
;
_chemical_formula_sum "Si O2"
_cell_formula_units_Z 30
_cell_length_a 12.709827
_cell_length_b 12.625719
_cell_length_c 14.803500
_cell_angle_alpha 90.000000
_cell_angle_beta 32.345409
_cell_angle_gamma 90.000000
_cell_volume 1270.959975
_symmetry_space_group_name_H-M "P 21/C"
_symmetry_group_IT_number 14
_symmetry_cell_setting 'monoclinic'
loop_
_space_group_symop_operation_xyz
x,y,z
-x,1/2+y,1/2-z
-x,-y,-z
x,1/2-y,1/2+z
loop_
_atom_site_type_symbol
_atom_site_label
_atom_site_fract_x
_atom_site_fract_y
_atom_site_fract_z
Si Si1 0.120438 0.855109 0.996914
Si Si2 0.078375 0.833534 0.663025
Si Si3 0.660605 0.980721 0.522072
Si Si4 0.521250 0.777054 0.715362
Si Si5 0.583159 0.230317 0.996892
Si Si6 0.288403 0.440421 0.479719
Si Si7 0.714392 0.587694 0.788378
Si Si8 0.500000 0.000000 0.000000
O O1 0.044217 0.766522 0.123554
O O2 0.919415 0.884823 0.091299
O O3 0.200167 0.962453 0.986070
O O4 0.311876 0.797551 0.816387
O O5 0.204680 0.786611 0.654920
O O6 0.881863 0.892864 0.832570
O O7 0.222793 0.923074 0.516175
O O8 0.656163 0.873193 0.581811
O O9 0.759681 0.966720 0.351632
O O10 0.439445 0.018098 0.657054
O O11 0.467250 0.786548 0.860081
O O12 0.620788 0.663416 0.632452
O O13 0.413563 0.310624 0.090037
O O14 0.574126 0.123601 0.949272
O O15 0.450260 0.489163 0.428163
#
# Coordination Sequence:
#
# PCOD9246376 Si02
#       8
#     4   4   4   4   4   4   4   2
#     4  11  23  42  66  98 135 176 224 276 344 409
#     4  10  21  41  67  97 127 178 221 276 329 413
#     4  10  21  40  71  95 131 171 227 277 333 402
#     4  11  25  42  64  97 136 183 213 279 351 392
#     4  10  23  41  68  98 140 169 224 282 338 406
#     4  12  25  43  72  94 136 182 231 281 340 407
#     4  10  21  42  65 100 124 172 228 278 317 411
#     4  12  22  42  70  98 132 178 232 280 326 412
#
# _framework density 23.604206999999999
#
# number of rings (size 3 to 8) (size 9 to 14) (size 15 to 20)
#    0.000    1.333    4.000    2.400    5.600    0.533 
#    0.000    1.333    0.000    8.000    0.000    0.000 
#    0.000    0.000    0.000    0.000    0.000    0.000 
#
# Total GULP energy -167137.340332 kJ/mol
# GULP energy per Si atom -5571.244678 kJ/mol
# Density = 2.355048 g / cm^3
# Si number density = 23.604207 Si / 1000 Ang^3
#
#
#
# Elastic Constant Matrix: (Units=GPa)
#
#
# Indices 1 2 3 4 5 6 
#
# 1 24.4015 -3.2384 -8.4685 0.0000 -1.4791 0.0000
# 2 -3.2384 130.7841 1.9768 0.0000 7.0730 0.0000
# 3 -8.4685 1.9768 49.2410 0.0000 4.1477 0.0000
# 4 0.0000 0.0000 0.0000 37.4366 0.0000 4.2686
# 5 -1.4791 7.0730 4.1477 0.0000 17.9931 0.0000
# 6 0.0000 0.0000 0.0000 4.2686 0.0000 27.9740
#
#
#
# Elastic Compliance Matrix: (Units=1/GPa)
#
#
# Indices 1 2 3 4 5 6 
#
# 1 0.043746 0.000888 0.007357 0.000000 0.001551 0.000000
# 2 0.000888 0.007830 0.000093 0.000000 -0.003027 0.000000
# 3 0.007357 0.000093 0.021948 0.000000 -0.004491 0.000000
# 4 0.000000 0.000000 0.000000 0.027185 0.000000 -0.004148
# 5 0.001551 -0.003027 -0.004491 0.000000 0.057930 0.000000
# 6 0.000000 0.000000 0.000000 -0.004148 0.000000 0.036380
#
#
# Mechanical properties :
#
#
# Convention : Reuss Voigt Hill
#
# Bulk Modulus (GPa) = 11.08622 20.55183 15.81902
# Shear Modulus (GPa) = 23.99119 30.95785 27.47452
#
# Velocity S-wave (km/s) = 3.19155 3.62545 3.41540
# Velocity P-wave (km/s) = 4.27648 5.12356 4.71907
#
# Compressibility (1/GPa) = 0.09020210
#
# Stress axis : x y z
#
# Youngs Moduli (GPa) = 22.85911 127.70655 45.56195
#
# Poissons Ratio (x) = -0.11342 -0.33521
# Poissons Ratio (y) = -0.02030 -0.00425
# Poissons Ratio (z) = -0.16818 -0.01192
#
# Static dielectric constant tensor:
#      x y z
#    x 1.907430 0.000000 0.001480 
#    y 0.000000 1.899710 0.000000 
#    z 0.001480 0.000000 1.955280 
# 
# From -- ./inp_files/59386.got.cif
#   From: 2010.05.17/outbox.cif.g08.bks.cpg/sg14_30_cif.got.tgz:59386.got - 2010.06.03 17:49:19.
