data_PCOD9246638
_publ_section_title
;
Structure prediction by ZEFSAII (Michael W. Deem and Ramdas Pophale) SiO2 
 PCOD9246638
Probable space group: P 21/C
;
_chemical_formula_sum "Si O2"
_cell_formula_units_Z 28
_cell_length_a 10.705637
_cell_length_b 12.901962
_cell_length_c 8.538225
_cell_angle_alpha 90.000000
_cell_angle_beta 106.889513
_cell_angle_gamma 90.000000
_cell_volume 1128.463048
_symmetry_space_group_name_H-M "P 21/C"
_symmetry_group_IT_number 14
_symmetry_cell_setting 'monoclinic'
loop_
_space_group_symop_operation_xyz
x,y,z
-x,1/2+y,1/2-z
-x,-y,-z
x,1/2-y,1/2+z
loop_
_atom_site_type_symbol
_atom_site_label
_atom_site_fract_x
_atom_site_fract_y
_atom_site_fract_z
Si Si1 0.959907 0.649062 0.390489
Si Si2 0.461059 0.710797 0.119077
Si Si3 0.912886 0.365554 0.106142
Si Si4 0.295645 0.395738 0.862794
Si Si5 0.310874 0.972994 0.673684
Si Si6 0.321237 0.875240 0.260679
Si Si7 0.862622 0.533206 0.637681
O O1 0.856174 0.631464 0.212670
O O2 0.875988 0.621359 0.513146
O O3 0.019715 0.760891 0.418197
O O4 0.081434 0.570605 0.420254
O O5 0.616353 0.700844 0.159014
O O6 0.418667 0.616573 0.219146
O O7 0.383805 0.814437 0.138332
O O8 0.407602 0.669194 0.934651
O O9 0.824725 0.348867 0.230984
O O10 0.029893 0.440687 0.192353
O O11 0.814418 0.410598 0.942284
O O12 0.323625 0.499719 0.768053
O O13 0.331594 0.438004 0.050007
O O14 0.273350 0.018375 0.826756
#
# Coordination Sequence:
#
# PCOD9246638 Si02
#       7
#     4   4   4   4   4   4   4
#     4  11  24  38  63  98 132 158 216 265 318 369
#     4  10  22  42  67  92 118 170 216 258 306 386
#     4  10  22  38  66  91 127 170 205 254 324 391
#     4  10  22  45  63  89 131 168 207 264 312 381
#     4  10  21  41  68  88 125 175 212 251 326 384
#     4  10  21  41  68  89 123 166 214 255 319 373
#     4  11  23  39  62  94 130 164 205 266 315 382
#
# _framework density 24.812508000000001
#
# number of rings (size 3 to 8) (size 9 to 14) (size 15 to 20)
#    0.000    2.000    2.857    3.000    6.000    1.143 
#    7.714    1.429    0.000    0.000    0.000    0.000 
#    0.000    0.000    0.000    0.000    0.000    0.000 
#
# Total GULP energy -156620.785996 kJ/mol
# GULP energy per Si atom -5593.599500 kJ/mol
# Density = 2.475603 g / cm^3
# Si number density = 24.812508 Si / 1000 Ang^3
#
#
#
# Elastic Constant Matrix: (Units=GPa)
#
#
# Indices 1 2 3 4 5 6 
#
# 1 58.0360 42.7326 2.6632 0.0000 -14.3246 0.0000
# 2 42.7326 82.9930 30.5602 0.0000 -24.9880 0.0000
# 3 2.6632 30.5602 30.8468 0.0000 -14.8341 0.0000
# 4 0.0000 0.0000 0.0000 -43.4352 0.0000 19.6628
# 5 -14.3246 -24.9880 -14.8341 0.0000 23.3156 0.0000
# 6 0.0000 0.0000 0.0000 19.6628 0.0000 27.6550
#
#
#
# Elastic Compliance Matrix: (Units=1/GPa)
#
#
# Indices 1 2 3 4 5 6 
#
# 1 0.039382 -0.027122 0.030441 0.000000 0.014495 0.000000
# 2 -0.027122 0.040338 -0.035798 0.000000 0.003792 0.000000
# 3 0.030441 -0.035798 0.080397 0.000000 0.031488 0.000000
# 4 0.000000 0.000000 0.000000 -0.017417 0.000000 0.012383
# 5 0.014495 0.003792 0.031488 0.000000 0.075893 0.000000
# 6 0.000000 0.000000 0.000000 0.012383 0.000000 0.027355
#
#
# Mechanical properties :
#
#
# Convention : Reuss Voigt Hill
#
# Bulk Modulus (GPa) = 10.50874 35.97641 23.24257
# Shear Modulus (GPa) = 14.59317 7.90177 11.24747
#
# Velocity S-wave (km/s) = 2.42779 1.78648 2.13139
# Velocity P-wave (km/s) = 3.47898 4.33430 3.92998
#
# Compressibility (1/GPa) = 0.09515890
#
# Stress axis : x y z
#
# Youngs Moduli (GPa) = 25.39230 24.79073 12.43820
#
# Poissons Ratio (x) = 0.67238 -0.37863
# Poissons Ratio (y) = 0.68870 0.44526
# Poissons Ratio (z) = -0.77296 0.88745
#
# Static dielectric constant tensor:
#      x y z
#    x 1.988490 0.000000 -0.030230 
#    y 0.000000 1.957140 0.000000 
#    z -0.030230 0.000000 2.047950 
# 
# From -- ./inp_files/12901.got.cif
#   From: 2010.05.17/outbox.cif.g08.bks.cpg/sg14_7_cif.got.tgz:12901.got - 2010.06.03 17:49:19.
