data_PCOD9246438
_publ_section_title
;
Structure prediction by ZEFSAII (Michael W. Deem and Ramdas Pophale) SiO2 
 PCOD9246438
Probable space group: P 21/C
;
_chemical_formula_sum "Si O2"
_cell_formula_units_Z 26
_cell_length_a 21.077482
_cell_length_b 8.615725
_cell_length_c 11.997960
_cell_angle_alpha 90.000000
_cell_angle_beta 27.205391
_cell_angle_gamma 90.000000
_cell_volume 996.108667
_symmetry_space_group_name_H-M "P 21/C"
_symmetry_group_IT_number 14
_symmetry_cell_setting 'monoclinic'
loop_
_space_group_symop_operation_xyz
x,y,z
-x,1/2+y,1/2-z
-x,-y,-z
x,1/2-y,1/2+z
loop_
_atom_site_type_symbol
_atom_site_label
_atom_site_fract_x
_atom_site_fract_y
_atom_site_fract_z
Si Si1 0.000000 0.000000 0.500000
Si Si2 0.634335 0.490319 0.870070
Si Si3 0.487816 0.464296 0.698646
Si Si4 0.025526 0.663373 0.397716
Si Si5 0.314735 0.331380 0.768652
Si Si6 0.252182 0.734579 0.685083
Si Si7 0.952148 0.022394 0.365766
O O1 0.073820 0.974726 0.258441
O O2 0.937684 0.810231 0.578990
O O3 0.702314 0.653980 0.738267
O O4 0.732981 0.337915 0.725631
O O5 0.500000 0.500000 0.000000
O O6 0.586835 0.481417 0.073609
O O7 0.387085 0.370423 0.773281
O O8 0.575253 0.591161 0.491198
O O9 0.606187 0.349273 0.556441
O O10 0.186206 0.687044 0.181603
O O11 0.008781 0.633615 0.293829
O O12 0.000000 0.500000 0.500000
O O13 0.164923 0.411800 0.000147
O O14 0.134071 0.599614 0.893382
#
# Coordination Sequence:
#
# PCOD9246438 Si02
#       7
#     2   4   4   4   4   4   4
#     4  10  26  48  72 106 128 180 238 294 356 418
#     4  12  23  36  62 102 131 176 226 271 333 420
#     4  10  21  41  62  89 139 176 222 272 334 413
#     4  11  26  48  74 100 135 186 235 298 364 414
#     4  10  22  40  64  93 131 183 219 275 345 409
#     4  10  23  42  63 101 134 178 222 283 349 403
#     4  10  24  47  69  96 139 174 231 297 350 423
#
# _framework density 26.101569000000001
#
# number of rings (size 3 to 8) (size 9 to 14) (size 15 to 20)
#    0.000    1.538    1.538    1.846    8.615    0.000 
#    2.769    0.000    0.000    0.000    0.000    0.000 
#    0.000    0.000    0.000    0.000    0.000    0.000 
#
# Total GULP energy -144922.226600 kJ/mol
# GULP energy per Si atom -5573.931792 kJ/mol
# Density = 2.604216 g / cm^3
# Si number density = 26.101569 Si / 1000 Ang^3
#
#
#
# Elastic Constant Matrix: (Units=GPa)
#
#
# Indices 1 2 3 4 5 6 
#
# 1 182.7977 20.8477 47.6156 0.0000 -1.1471 0.0000
# 2 20.8477 114.8849 28.8266 0.0000 -17.3697 0.0000
# 3 47.6156 28.8266 66.4017 0.0000 10.3178 0.0000
# 4 0.0000 0.0000 0.0000 33.9797 0.0000 -5.8419
# 5 -1.1471 -17.3697 10.3178 0.0000 36.1777 0.0000
# 6 0.0000 0.0000 0.0000 -5.8419 0.0000 48.9327
#
#
#
# Elastic Compliance Matrix: (Units=1/GPa)
#
#
# Indices 1 2 3 4 5 6 
#
# 1 0.006838 0.000403 -0.005381 0.000000 0.001945 0.000000
# 2 0.000403 0.011315 -0.006328 0.000000 0.007250 0.000000
# 3 -0.005381 -0.006328 0.023192 0.000000 -0.009823 0.000000
# 4 0.000000 0.000000 0.000000 0.030046 0.000000 0.003587
# 5 0.001945 0.007250 -0.009823 0.000000 0.033986 0.000000
# 6 0.000000 0.000000 0.000000 0.003587 0.000000 0.020864
#
#
# Mechanical properties :
#
#
# Convention : Reuss Voigt Hill
#
# Bulk Modulus (GPa) = 53.37835 62.07380 57.72607
# Shear Modulus (GPa) = 32.23772 41.60431 36.92102
#
# Velocity S-wave (km/s) = 3.51819 3.99675 3.76508
# Velocity P-wave (km/s) = 6.08262 6.71803 6.40820
#
# Compressibility (1/GPa) = 0.01873419
#
# Stress axis : x y z
#
# Youngs Moduli (GPa) = 146.23293 88.37709 43.11822
#
# Poissons Ratio (x) = -0.03565 0.23202
# Poissons Ratio (y) = -0.05898 0.27285
# Poissons Ratio (z) = 0.78689 0.55925
#
# Static dielectric constant tensor:
#      x y z
#    x 2.432290 0.000000 -0.037810 
#    y 0.000000 3.626970 0.000000 
#    z -0.037810 0.000000 2.144990 
# 
# From -- ./inp_files/35693.got.cif
#   From: 2010.05.17/outbox.cif.g08.bks.cpg/sg14_18_cif.got.tgz:35693.got - 2010.06.03 17:49:19.
