data_PCOD9246144
_publ_section_title
;
Structure prediction by ZEFSAII (Michael W. Deem and Ramdas Pophale) SiO2 
 PCOD9246144
Probable space group: P 21/C
;
_chemical_formula_sum "Si O2"
_cell_formula_units_Z 24
_cell_length_a 14.332190
_cell_length_b 5.332469
_cell_length_c 15.060282
_cell_angle_alpha 90.000000
_cell_angle_beta 62.864189
_cell_angle_gamma 90.000000
_cell_volume 1024.303899
_symmetry_space_group_name_H-M "P 21/C"
_symmetry_group_IT_number 14
_symmetry_cell_setting 'monoclinic'
loop_
_space_group_symop_operation_xyz
x,y,z
-x,1/2+y,1/2-z
-x,-y,-z
x,1/2-y,1/2+z
loop_
_atom_site_type_symbol
_atom_site_label
_atom_site_fract_x
_atom_site_fract_y
_atom_site_fract_z
Si Si1 0.932809 0.252254 0.546745
Si Si2 0.351544 0.111950 0.861986
Si Si3 0.602155 0.242530 0.500647
Si Si4 0.006455 0.232557 0.194517
Si Si5 0.447500 0.620270 0.163309
Si Si6 0.793863 0.968753 0.488836
O O1 0.000000 0.500000 0.500000
O O2 0.915738 0.255790 0.659373
O O3 0.838726 0.214179 0.519333
O O4 0.000000 0.000000 0.500000
O O5 0.459009 0.273146 0.816363
O O6 0.253029 0.292639 0.913933
O O7 0.362937 0.961816 0.949083
O O8 0.356089 0.950258 0.770901
O O9 0.583994 0.298563 0.405160
O O10 0.499318 0.115800 0.589218
O O11 0.697255 0.042980 0.468125
O O12 0.983329 0.448788 0.276213
O O13 0.114831 0.326710 0.103058
#
# Coordination Sequence:
#
# PCOD9246144 Si02
#       6
#     4   4   4   4   4   4
#     4  10  22  43  71  94 136 180 225 286 367 430
#     4  11  21  40  66  94 142 177 240 284 352 436
#     4  10  22  40  65  92 140 168 237 286 339 432
#     4  11  24  44  69  97 136 178 230 294 365 434
#     4  10  21  40  63  97 129 194 218 284 363 407
#     4  10  25  41  65 100 128 183 231 297 352 432
#
# _framework density 23.430544999999999
#
# number of rings (size 3 to 8) (size 9 to 14) (size 15 to 20)
#    0.000    1.667    1.667    2.500    7.000    1.333 
#    3.000    0.000    0.000    0.000    0.000    0.000 
#    0.000    0.000    0.000    0.000    0.000    0.000 
#
# Total GULP energy -134136.912676 kJ/mol
# GULP energy per Si atom -5589.038028 kJ/mol
# Density = 2.337722 g / cm^3
# Si number density = 23.430545 Si / 1000 Ang^3
#
#
#
# Elastic Constant Matrix: (Units=GPa)
#
#
# Indices 1 2 3 4 5 6 
#
# 1 74.8795 8.4779 31.8383 0.0000 0.8051 0.0000
# 2 8.4779 86.4179 14.1826 0.0000 0.2613 0.0000
# 3 31.8383 14.1826 104.6653 0.0000 9.1388 0.0000
# 4 0.0000 0.0000 0.0000 41.9571 0.0000 -1.0424
# 5 0.8051 0.2613 9.1388 0.0000 38.9329 0.0000
# 6 0.0000 0.0000 0.0000 -1.0424 0.0000 37.6733
#
#
#
# Elastic Compliance Matrix: (Units=1/GPa)
#
#
# Indices 1 2 3 4 5 6 
#
# 1 0.015410 -0.000750 -0.004654 0.000000 0.000779 0.000000
# 2 -0.000750 0.011875 -0.001404 0.000000 0.000265 0.000000
# 3 -0.004654 -0.001404 0.011384 0.000000 -0.002567 0.000000
# 4 0.000000 0.000000 0.000000 0.023850 0.000000 0.000660
# 5 0.000779 0.000265 -0.002567 0.000000 0.026270 0.000000
# 6 0.000000 0.000000 0.000000 0.000660 0.000000 0.026562
#
#
# Mechanical properties :
#
#
# Convention : Reuss Voigt Hill
#
# Bulk Modulus (GPa) = 39.91584 41.66228 40.78906
# Shear Modulus (GPa) = 36.41145 37.81025 37.11085
#
# Velocity S-wave (km/s) = 3.94638 4.02147 3.98410
# Velocity P-wave (km/s) = 6.15126 6.27556 6.21372
#
# Compressibility (1/GPa) = 0.02505271
#
# Stress axis : x y z
#
# Youngs Moduli (GPa) = 64.89195 84.21116 87.84008
#
# Poissons Ratio (x) = 0.06319 0.40881
# Poissons Ratio (y) = 0.04869 0.12333
# Poissons Ratio (z) = 0.30201 0.11823
#
# Static dielectric constant tensor:
#      x y z
#    x 1.966280 0.000000 0.016660 
#    y 0.000000 1.974040 0.000000 
#    z 0.016660 0.000000 1.891510 
# 
# From -- ./inp_files/45791.got.cif
#   From: 2010.05.17/outbox.cif.g08.bks.cpg/sg14_23_cif.got.tgz:45791.got - 2010.06.03 17:49:19.
