data_PCOD9246317
_publ_section_title
;
Structure prediction by ZEFSAII (Michael W. Deem and Ramdas Pophale) SiO2 
 PCOD9246317
Probable space group: P 21/C
;
_chemical_formula_sum "Si O2"
_cell_formula_units_Z 16
_cell_length_a 16.470115
_cell_length_b 4.877847
_cell_length_c 10.226753
_cell_angle_alpha 90.000000
_cell_angle_beta 42.225139
_cell_angle_gamma 90.000000
_cell_volume 552.155354
_symmetry_space_group_name_H-M "P 21/C"
_symmetry_group_IT_number 14
_symmetry_cell_setting 'monoclinic'
loop_
_space_group_symop_operation_xyz
x,y,z
-x,1/2+y,1/2-z
-x,-y,-z
x,1/2-y,1/2+z
loop_
_atom_site_type_symbol
_atom_site_label
_atom_site_fract_x
_atom_site_fract_y
_atom_site_fract_z
Si Si1 0.016464 0.742433 0.139997
Si Si2 0.579444 0.290605 0.690741
Si Si3 0.767957 0.576793 0.868832
Si Si4 0.272909 0.503315 0.791920
O O1 0.909825 0.866863 0.179058
O O2 0.970341 0.456390 0.256714
O O3 0.147598 0.673751 0.925177
O O4 0.519487 0.581027 0.747532
O O5 0.700574 0.217424 0.461394
O O6 0.618724 0.199061 0.789229
O O7 0.704902 0.768958 0.839191
O O8 0.752809 0.660715 0.039609
#
# Coordination Sequence:
#
# PCOD9246317 Si02
#       4
#     4   4   4   4
#     4  10  21  40  67  98 129 164 209 266 327 380
#     4  10  24  42  64  92 128 172 216 258 310 376
#     4   9  21  41  67  95 128 167 213 265 321 377
#     4   9  21  41  67  95 128 167 213 265 321 377
#
# _framework density 28.977353999999998
#
# number of rings (size 3 to 8) (size 9 to 14) (size 15 to 20)
#    1.500    1.000    0.000    0.750    3.500    2.000 
#    0.000   41.250    0.000    0.000    0.000    0.000 
#    0.000    0.000    0.000    0.000    0.000    0.000 
#
# Total GULP energy -89612.943193 kJ/mol
# GULP energy per Si atom -5600.808950 kJ/mol
# Density = 2.891140 g / cm^3
# Si number density = 28.977354 Si / 1000 Ang^3
#
#
#
# Elastic Constant Matrix: (Units=GPa)
#
#
# Indices 1 2 3 4 5 6 
#
# 1 127.6301 15.3541 20.0074 0.0000 -19.7173 0.0000
# 2 15.3541 88.1976 26.3533 0.0000 1.9580 0.0000
# 3 20.0074 26.3533 135.5816 0.0000 -20.0932 0.0000
# 4 0.0000 0.0000 0.0000 46.3985 0.0000 -12.2244
# 5 -19.7173 1.9580 -20.0932 0.0000 42.9705 0.0000
# 6 0.0000 0.0000 0.0000 -12.2244 0.0000 52.2021
#
#
#
# Elastic Compliance Matrix: (Units=1/GPa)
#
#
# Indices 1 2 3 4 5 6 
#
# 1 0.008673 -0.001469 -0.000424 0.000000 0.003848 0.000000
# 2 -0.001469 0.012412 -0.002557 0.000000 -0.002435 0.000000
# 3 -0.000424 -0.002557 0.008514 0.000000 0.003903 0.000000
# 4 0.000000 0.000000 0.000000 0.022970 0.000000 0.005379
# 5 0.003848 -0.002435 0.003903 0.000000 0.026974 0.000000
# 6 0.000000 0.000000 0.000000 0.005379 0.000000 0.020416
#
#
# Mechanical properties :
#
#
# Convention : Reuss Voigt Hill
#
# Bulk Modulus (GPa) = 48.31010 52.75990 50.53500
# Shear Modulus (GPa) = 43.19443 47.62716 45.41080
#
# Velocity S-wave (km/s) = 3.86505 4.05853 3.96297
# Velocity P-wave (km/s) = 6.05195 6.34106 6.19819
#
# Compressibility (1/GPa) = 0.02069960
#
# Stress axis : x y z
#
# Youngs Moduli (GPa) = 115.30324 80.56837 117.45957
#
# Poissons Ratio (x) = 0.11832 0.04981
# Poissons Ratio (y) = 0.16933 0.30030
# Poissons Ratio (z) = 0.04890 0.20599
#
# Static dielectric constant tensor:
#      x y z
#    x 2.317600 0.000000 0.080590 
#    y 0.000000 2.259040 0.000000 
#    z 0.080590 0.000000 2.343710 
# 
# From -- ./inp_files/27364.got.cif
#   From: 2010.05.17/outbox.cif.g08.bks.cpg/sg14_14_cif.got.tgz:27364.got - 2010.06.03 17:49:19.
