data_PCOD9246761
_publ_section_title
;
Structure prediction by ZEFSAII (Michael W. Deem and Ramdas Pophale) SiO2 
 PCOD9246761
Probable space group: P 21/C
;
_chemical_formula_sum "Si O2"
_cell_formula_units_Z 28
_cell_length_a 14.496787
_cell_length_b 11.880486
_cell_length_c 13.952713
_cell_angle_alpha 90.000000
_cell_angle_beta 28.736681
_cell_angle_gamma 90.000000
_cell_volume 1155.355116
_symmetry_space_group_name_H-M "P 21/C"
_symmetry_group_IT_number 14
_symmetry_cell_setting 'monoclinic'
loop_
_space_group_symop_operation_xyz
x,y,z
-x,1/2+y,1/2-z
-x,-y,-z
x,1/2-y,1/2+z
loop_
_atom_site_type_symbol
_atom_site_label
_atom_site_fract_x
_atom_site_fract_y
_atom_site_fract_z
Si Si1 0.903406 0.325546 0.415737
Si Si2 0.895288 0.912283 0.450020
Si Si3 0.976246 0.824506 0.976103
Si Si4 0.660701 0.958452 0.154130
Si Si5 0.290921 0.847547 0.543821
Si Si6 0.238213 0.434962 0.650035
Si Si7 0.532107 0.635938 0.392066
O O1 0.984272 0.314820 0.447993
O O2 0.726900 0.412964 0.584175
O O3 0.829978 0.211724 0.431409
O O4 0.054281 0.384149 0.205810
O O5 0.676963 0.916238 0.682166
O O6 0.967960 0.800866 0.439743
O O7 0.021651 0.021667 0.361567
O O8 0.150433 0.881252 0.757762
O O9 0.789768 0.895856 0.116322
O O10 0.437590 0.942105 0.376941
O O11 0.721309 0.903209 0.996617
O O12 0.432494 0.749409 0.451317
O O13 0.360998 0.547702 0.560907
O O14 0.335754 0.349155 0.634330
#
# Coordination Sequence:
#
# PCOD9246761 Si02
#       7
#     4   4   4   4   4   4   4
#     4  10  24  45  64  94 136 167 217 274 312 390
#     4  10  21  42  63  95 127 162 215 264 320 381
#     4  11  23  42  63  91 133 171 213 259 323 393
#     4  11  23  43  63  97 130 171 220 257 327 390
#     4  11  24  43  64  96 129 166 220 268 315 392
#     4  10  23  39  68  98 125 163 215 277 320 379
#     4  11  20  40  65  94 128 159 211 273 323 374
#
# _framework density 24.234973
#
# number of rings (size 3 to 8) (size 9 to 14) (size 15 to 20)
#    0.000    1.429    5.714    0.857    2.000    5.143 
#    2.571    0.000    0.000    0.000    0.000    0.000 
#    0.000    0.000    0.000    0.000    0.000    0.000 
#
# Total GULP energy -156772.842335 kJ/mol
# GULP energy per Si atom -5599.030083 kJ/mol
# Density = 2.417981 g / cm^3
# Si number density = 24.234973 Si / 1000 Ang^3
#
#
#
# Elastic Constant Matrix: (Units=GPa)
#
#
# Indices 1 2 3 4 5 6 
#
# 1 166.8979 30.7610 21.3310 0.0000 28.3176 0.0000
# 2 30.7610 33.7761 3.9956 0.0000 -11.6326 0.0000
# 3 21.3310 3.9956 89.5550 0.0000 -10.6224 0.0000
# 4 0.0000 0.0000 0.0000 32.1620 0.0000 -13.8891
# 5 28.3176 -11.6326 -10.6224 0.0000 29.3873 0.0000
# 6 0.0000 0.0000 0.0000 -13.8891 0.0000 28.4345
#
#
#
# Elastic Compliance Matrix: (Units=1/GPa)
#
#
# Indices 1 2 3 4 5 6 
#
# 1 0.014841 -0.021393 -0.005518 0.000000 -0.024764 0.000000
# 2 -0.021393 0.065116 0.008037 0.000000 0.049295 0.000000
# 3 -0.005518 0.008037 0.013718 0.000000 0.013457 0.000000
# 4 0.000000 0.000000 0.000000 0.039405 0.000000 0.019248
# 5 -0.024764 0.049295 0.013457 0.000000 0.082268 0.000000
# 6 0.000000 0.000000 0.000000 0.019248 0.000000 0.044570
#
#
# Mechanical properties :
#
#
# Convention : Reuss Voigt Hill
#
# Bulk Modulus (GPa) = 17.87971 44.71157 31.29564
# Shear Modulus (GPa) = 15.80738 33.60619 24.70678
#
# Velocity S-wave (km/s) = 2.55670 3.72786 3.19638
# Velocity P-wave (km/s) = 4.01364 6.08428 5.15402
#
# Compressibility (1/GPa) = 0.05592932
#
# Stress axis : x y z
#
# Youngs Moduli (GPa) = 67.37879 15.35719 72.89552
#
# Poissons Ratio (x) = 0.32853 0.40223
# Poissons Ratio (y) = 1.44141 -0.58588
# Poissons Ratio (z) = 0.37179 -0.12343
#
# Static dielectric constant tensor:
#      x y z
#    x 1.959910 0.000000 0.007690 
#    y 0.000000 1.938480 0.000000 
#    z 0.007690 0.000000 1.922990 
# 
# From -- ./inp_files/47341.got.cif
#   From: 2010.05.17/outbox.cif.g08.bks.cpg/sg14_24_cif.got.tgz:47341.got - 2010.06.03 17:49:19.
