data_PCOD9246421
_publ_section_title
;
Structure prediction by ZEFSAII (Michael W. Deem and Ramdas Pophale) SiO2 
 PCOD9246421
Probable space group: P 21/C
;
_chemical_formula_sum "Si O2"
_cell_formula_units_Z 32
_cell_length_a 18.093727
_cell_length_b 6.881958
_cell_length_c 11.537257
_cell_angle_alpha 90.000000
_cell_angle_beta 86.139071
_cell_angle_gamma 90.000000
_cell_volume 1433.361830
_symmetry_space_group_name_H-M "P 21/C"
_symmetry_group_IT_number 14
_symmetry_cell_setting 'monoclinic'
loop_
_space_group_symop_operation_xyz
x,y,z
-x,1/2+y,1/2-z
-x,-y,-z
x,1/2-y,1/2+z
loop_
_atom_site_type_symbol
_atom_site_label
_atom_site_fract_x
_atom_site_fract_y
_atom_site_fract_z
Si Si1 0.054711 0.942695 0.596232
Si Si2 0.526931 0.587932 0.619278
Si Si3 0.168969 0.307661 0.174740
Si Si4 0.926517 0.075429 0.761891
Si Si5 0.343247 0.651759 0.443221
Si Si6 0.800657 0.309996 0.684933
Si Si7 0.582733 0.513733 0.159627
Si Si8 0.293161 0.482245 0.676647
O O1 0.129375 0.067780 0.578945
O O2 0.008960 0.023800 0.712683
O O3 0.071008 0.718557 0.626551
O O4 0.000000 0.000000 0.500000
O O5 0.500000 0.500000 0.500000
O O6 0.605743 0.486202 0.641425
O O7 0.472443 0.563382 0.734233
O O8 0.543143 0.812794 0.599845
O O9 0.184155 0.473837 0.269029
O O10 0.115334 0.128538 0.215116
O O11 0.244258 0.196849 0.138465
O O12 0.879786 0.199588 0.670659
O O13 0.257925 0.673908 0.412787
O O14 0.386229 0.853157 0.429988
O O15 0.342903 0.560707 0.568925
O O16 0.757336 0.165592 0.778404
O O17 0.655992 0.580021 0.222037
#
# Coordination Sequence:
#
# PCOD9246421 Si02
#       8
#     4   4   4   4   4   4   4   4
#     4  11  23  39  65  96 128 175 222 274 338 395
#     4  12  24  43  68 100 130 180 223 272 342 393
#     4  10  21  41  63  91 135 171 213 281 324 397
#     4  10  21  41  61  91 134 169 221 274 329 394
#     4  11  23  42  68  99 131 178 216 272 335 395
#     4   9  22  39  64  92 129 173 219 275 329 393
#     4  11  24  44  65  97 140 170 225 280 323 400
#     4  10  22  42  63  94 133 171 225 265 334 400
#
# _framework density 22.325139
#
# number of rings (size 3 to 8) (size 9 to 14) (size 15 to 20)
#    0.000    1.500    3.750    0.750    0.000    6.000 
#    4.500    0.000    0.000    0.000    0.000    0.000 
#    0.000    0.000    0.000    0.000    0.000    0.000 
#
# Total GULP energy -178617.142044 kJ/mol
# GULP energy per Si atom -5581.785689 kJ/mol
# Density = 2.227433 g / cm^3
# Si number density = 22.325139 Si / 1000 Ang^3
#
#
#
# Elastic Constant Matrix: (Units=GPa)
#
#
# Indices 1 2 3 4 5 6 
#
# 1 76.2937 32.3360 11.6329 0.0000 3.3510 0.0000
# 2 32.3360 154.5991 33.4442 0.0000 12.2108 0.0000
# 3 11.6329 33.4442 33.0283 0.0000 11.6956 0.0000
# 4 0.0000 0.0000 0.0000 20.4549 0.0000 5.1924
# 5 3.3510 12.2108 11.6956 0.0000 26.0848 0.0000
# 6 0.0000 0.0000 0.0000 5.1924 0.0000 42.6987
#
#
#
# Elastic Compliance Matrix: (Units=1/GPa)
#
#
# Indices 1 2 3 4 5 6 
#
# 1 0.014563 -0.002481 -0.002812 0.000000 0.000552 0.000000
# 2 -0.002481 0.008706 -0.007859 0.000000 -0.000233 0.000000
# 3 -0.002812 -0.007859 0.044928 0.000000 -0.016104 0.000000
# 4 0.000000 0.000000 0.000000 0.050445 0.000000 -0.006134
# 5 0.000552 -0.000233 -0.016104 0.000000 0.045595 0.000000
# 6 0.000000 0.000000 0.000000 -0.006134 0.000000 0.024166
#
#
# Mechanical properties :
#
#
# Convention : Reuss Voigt Hill
#
# Bulk Modulus (GPa) = 23.87066 46.52745 35.19906
# Shear Modulus (GPa) = 21.86527 30.28155 26.07341
#
# Velocity S-wave (km/s) = 3.13293 3.68691 3.42115
# Velocity P-wave (km/s) = 4.87878 6.24584 5.60415
#
# Compressibility (1/GPa) = 0.04189243
#
# Stress axis : x y z
#
# Youngs Moduli (GPa) = 68.66498 114.86497 22.25773
#
# Poissons Ratio (x) = 0.28502 0.06259
# Poissons Ratio (y) = 0.17038 0.17493
# Poissons Ratio (z) = 0.19310 0.90274
#
# Static dielectric constant tensor:
#      x y z
#    x 1.877630 0.000000 0.008090 
#    y 0.000000 2.022920 0.000000 
#    z 0.008090 0.000000 1.802850 
# 
# From -- ./inp_files/34719.got.cif
#   From: 2010.05.17/outbox.cif.g08.bks.cpg/sg14_18_cif.got.tgz:34719.got - 2010.06.03 17:49:19.
