data_PCOD9246077
_publ_section_title
;
Structure prediction by ZEFSAII (Michael W. Deem and Ramdas Pophale) SiO2 
 PCOD9246077
Probable space group: P 21/C
;
_chemical_formula_sum "Si O2"
_cell_formula_units_Z 28
_cell_length_a 7.125217
_cell_length_b 32.140443
_cell_length_c 5.063907
_cell_angle_alpha 90.000000
_cell_angle_beta 104.173157
_cell_angle_gamma 90.000000
_cell_volume 1124.373085
_symmetry_space_group_name_H-M "P 21/C"
_symmetry_group_IT_number 14
_symmetry_cell_setting 'monoclinic'
loop_
_space_group_symop_operation_xyz
x,y,z
-x,1/2+y,1/2-z
-x,-y,-z
x,1/2-y,1/2+z
loop_
_atom_site_type_symbol
_atom_site_label
_atom_site_fract_x
_atom_site_fract_y
_atom_site_fract_z
Si Si1 0.032296 0.899955 0.486734
Si Si2 0.286210 0.524558 0.105939
Si Si3 0.407081 0.775604 0.209704
Si Si4 0.060758 0.223801 0.950329
Si Si5 0.550912 0.365048 0.037270
Si Si6 0.813857 0.868163 0.928617
Si Si7 0.488342 0.051689 0.817070
O O1 0.100977 0.946569 0.581271
O O2 0.228847 0.874634 0.475389
O O3 0.935665 0.878389 0.705670
O O4 0.893319 0.897931 0.184954
O O5 0.444334 0.544883 0.361187
O O6 0.301154 0.476334 0.187324
O O7 0.351989 0.530801 0.826394
O O8 0.460521 0.739282 0.435715
O O9 0.475679 0.820169 0.337845
O O10 0.172901 0.778999 0.133297
O O11 0.120229 0.245485 0.239928
O O12 0.140844 0.177907 0.954552
O O13 0.492752 0.401330 0.220678
O O14 0.406344 0.369217 0.742085
#
# Coordination Sequence:
#
# PCOD9246077 Si02
#       7
#     4   4   4   4   4   4   4
#     4  11  24  43  65  95 134 170 211 268 318 373
#     4   9  18  36  64  90 128 169 208 255 321 369
#     4  10  23  38  64  91 123 166 212 258 322 378
#     4  10  21  40  62  87 124 164 210 267 313 376
#     4  11  25  44  69  95 133 169 215 268 320 380
#     4  12  26  41  66  99 124 171 219 257 326 390
#     4   9  19  36  62  97 122 167 216 254 311 384
#
# _framework density 24.902767999999998
#
# number of rings (size 3 to 8) (size 9 to 14) (size 15 to 20)
#    0.000    1.714    1.429    2.571    4.000    6.857 
#    0.000    1.429    0.000    0.000    0.000    0.000 
#    0.000    0.000    0.000    0.000    0.000    0.000 
#
# Total GULP energy -156931.952252 kJ/mol
# GULP energy per Si atom -5604.712580 kJ/mol
# Density = 2.484609 g / cm^3
# Si number density = 24.902768 Si / 1000 Ang^3
#
#
#
# Elastic Constant Matrix: (Units=GPa)
#
#
# Indices 1 2 3 4 5 6 
#
# 1 80.5306 31.2517 58.0201 0.0000 11.8263 0.0000
# 2 31.2517 134.0944 47.4341 0.0000 -15.0949 0.0000
# 3 58.0201 47.4341 190.4618 0.0000 -21.4540 0.0000
# 4 0.0000 0.0000 0.0000 42.2143 0.0000 0.4978
# 5 11.8263 -15.0949 -21.4540 0.0000 43.0503 0.0000
# 6 0.0000 0.0000 0.0000 0.4978 0.0000 16.3715
#
#
#
# Elastic Compliance Matrix: (Units=1/GPa)
#
#
# Indices 1 2 3 4 5 6 
#
# 1 0.019682 -0.003480 -0.006225 0.000000 -0.009729 0.000000
# 2 -0.003480 0.008953 -0.000750 0.000000 0.003721 0.000000
# 3 -0.006225 -0.000750 0.007942 0.000000 0.005405 0.000000
# 4 0.000000 0.000000 0.000000 0.023697 0.000000 -0.000721
# 5 -0.009729 0.003721 0.005405 0.000000 0.029900 0.000000
# 6 0.000000 0.000000 0.000000 -0.000721 0.000000 0.061104
#
#
# Mechanical properties :
#
#
# Convention : Reuss Voigt Hill
#
# Bulk Modulus (GPa) = 63.83157 75.38874 69.61015
# Shear Modulus (GPa) = 28.18323 38.21925 33.20124
#
# Velocity S-wave (km/s) = 3.36777 3.92182 3.65531
# Velocity P-wave (km/s) = 6.38831 7.13068 6.76968
#
# Compressibility (1/GPa) = 0.01566623
#
# Stress axis : x y z
#
# Youngs Moduli (GPa) = 50.80835 111.69616 125.90745
#
# Poissons Ratio (x) = 0.38873 0.78375
# Poissons Ratio (y) = 0.17683 0.09447
# Poissons Ratio (z) = 0.31627 0.08381
#
# Static dielectric constant tensor:
#      x y z
#    x 2.004940 0.000000 0.031450 
#    y 0.000000 1.965360 0.000000 
#    z 0.031450 0.000000 1.893640 
# 
# From -- ./inp_files/2177.got.cif
#   From: 2010.05.17/outbox.cif.g08.bks.cpg/sg14_2_cif.got.tgz:2177.got - 2010.06.03 17:49:19.
