data_PCOD9246860
_publ_section_title
;
Structure prediction by ZEFSAII (Michael W. Deem and Ramdas Pophale) SiO2 
 PCOD9246860
Probable space group: P 21/C
;
_chemical_formula_sum "Si O2"
_cell_formula_units_Z 28
_cell_length_a 7.692261
_cell_length_b 9.271868
_cell_length_c 22.018079
_cell_angle_alpha 90.000000
_cell_angle_beta 50.624398
_cell_angle_gamma 90.000000
_cell_volume 1213.898289
_symmetry_space_group_name_H-M "P 21/C"
_symmetry_group_IT_number 14
_symmetry_cell_setting 'monoclinic'
loop_
_space_group_symop_operation_xyz
x,y,z
-x,1/2+y,1/2-z
-x,-y,-z
x,1/2-y,1/2+z
loop_
_atom_site_type_symbol
_atom_site_label
_atom_site_fract_x
_atom_site_fract_y
_atom_site_fract_z
Si Si1 0.402220 0.240925 0.501543
Si Si2 0.187206 0.122976 0.237610
Si Si3 0.810687 0.266900 0.007531
Si Si4 0.528793 0.993343 0.618679
Si Si5 0.624547 0.509896 0.590637
Si Si6 0.290331 0.235836 0.340709
Si Si7 0.083652 0.347400 0.175469
O O1 0.618868 0.244610 0.497692
O O2 0.438094 0.109721 0.447106
O O3 0.381881 0.384202 0.465698
O O4 0.180666 0.210351 0.590596
O O5 0.270129 0.223835 0.273657
O O6 0.015450 0.214987 0.234289
O O7 0.390450 0.075766 0.149204
O O8 0.091187 0.977025 0.288213
O O9 0.728699 0.390318 0.071315
O O10 0.809928 0.113454 0.041269
O O11 0.047713 0.298242 0.924445
O O12 0.543043 0.887889 0.672406
O O13 0.299728 0.079144 0.659965
O O14 0.647096 0.610269 0.644792
#
# Coordination Sequence:
#
# PCOD9246860 Si02
#       7
#     4   4   4   4   4   4   4
#     4  10  21  42  70  97 128 176 223 284 320 398
#     4  12  27  45  66 103 134 181 218 283 342 400
#     4  11  20  41  68  97 128 172 230 269 324 396
#     4  10  21  42  67  95 131 175 220 273 329 402
#     4  11  25  43  69  99 136 172 225 276 339 391
#     4  11  26  40  65  95 140 174 214 267 344 410
#     4  11  25  43  68  96 133 174 231 277 338 393
#
# _framework density 23.066182999999999
#
# number of rings (size 3 to 8) (size 9 to 14) (size 15 to 20)
#    0.000    1.143    2.857    4.714    8.000    1.143 
#    0.000    2.857    0.000    0.000    0.000    0.000 
#    0.000    0.000    0.000    0.000    0.000    0.000 
#
# Total GULP energy -156745.358405 kJ/mol
# GULP energy per Si atom -5598.048514 kJ/mol
# Density = 2.301368 g / cm^3
# Si number density = 23.066183 Si / 1000 Ang^3
#
#
#
# Elastic Constant Matrix: (Units=GPa)
#
#
# Indices 1 2 3 4 5 6 
#
# 1 37.0709 14.2999 14.0855 0.0000 8.6699 0.0000
# 2 14.2999 116.0172 33.2955 0.0000 19.8008 0.0000
# 3 14.0855 33.2955 53.0676 0.0000 10.2896 0.0000
# 4 0.0000 0.0000 0.0000 31.6527 0.0000 -7.2862
# 5 8.6699 19.8008 10.2896 0.0000 30.2583 0.0000
# 6 0.0000 0.0000 0.0000 -7.2862 0.0000 34.2383
#
#
#
# Elastic Compliance Matrix: (Units=1/GPa)
#
#
# Indices 1 2 3 4 5 6 
#
# 1 0.031245 -0.000935 -0.006519 0.000000 -0.006124 0.000000
# 2 -0.000935 0.011286 -0.005838 0.000000 -0.005132 0.000000
# 3 -0.006519 -0.005838 0.024767 0.000000 -0.002734 0.000000
# 4 0.000000 0.000000 0.000000 0.033220 0.000000 0.007070
# 5 -0.006124 -0.005132 -0.002734 0.000000 0.039092 0.000000
# 6 0.000000 0.000000 0.000000 0.007070 0.000000 0.030712
#
#
# Mechanical properties :
#
#
# Convention : Reuss Voigt Hill
#
# Bulk Modulus (GPa) = 24.56137 36.61305 30.58721
# Shear Modulus (GPa) = 23.75555 28.86152 26.30853
#
# Velocity S-wave (km/s) = 3.21267 3.54114 3.38089
# Velocity P-wave (km/s) = 4.94297 5.71201 5.34135
#
# Compressibility (1/GPa) = 0.04071435
#
# Stress axis : x y z
#
# Youngs Moduli (GPa) = 32.00484 88.60573 40.37625
#
# Poissons Ratio (x) = 0.08285 0.26322
# Poissons Ratio (y) = 0.02993 0.23570
# Poissons Ratio (z) = 0.20865 0.51725
#
# Static dielectric constant tensor:
#      x y z
#    x 1.874260 0.000000 0.000680 
#    y 0.000000 1.880620 0.000000 
#    z 0.000680 0.000000 1.820170 
# 
# From -- ./inp_files/54934.got.cif
#   From: 2010.05.17/outbox.cif.g08.bks.cpg/sg14_28_cif.got.tgz:54934.got - 2010.06.03 17:49:19.
