data_PCOD9246742
_publ_section_title
;
Structure prediction by ZEFSAII (Michael W. Deem and Ramdas Pophale) SiO2 
 PCOD9246742
Probable space group: P 21/C
;
_chemical_formula_sum "Si O2"
_cell_formula_units_Z 28
_cell_length_a 9.467475
_cell_length_b 22.642305
_cell_length_c 8.722071
_cell_angle_alpha 90.000000
_cell_angle_beta 48.159422
_cell_angle_gamma 90.000000
_cell_volume 1392.941528
_symmetry_space_group_name_H-M "P 21/C"
_symmetry_group_IT_number 14
_symmetry_cell_setting 'monoclinic'
loop_
_space_group_symop_operation_xyz
x,y,z
-x,1/2+y,1/2-z
-x,-y,-z
x,1/2-y,1/2+z
loop_
_atom_site_type_symbol
_atom_site_label
_atom_site_fract_x
_atom_site_fract_y
_atom_site_fract_z
Si Si1 0.195875 0.822475 0.155237
Si Si2 0.249229 0.202785 0.460284
Si Si3 0.499434 0.622382 0.000559
Si Si4 0.199647 0.431589 0.440894
Si Si5 0.803916 0.822316 0.845461
Si Si6 0.801242 0.068355 0.057703
Si Si7 0.248947 0.703043 0.960842
O O1 0.284898 0.811276 0.257303
O O2 0.970114 0.812815 0.342900
O O3 0.224421 0.886739 0.064126
O O4 0.266819 0.772421 0.985777
O O5 0.377605 0.163982 0.477832
O O6 0.267217 0.272144 0.485369
O O7 0.285169 0.188605 0.256670
O O8 0.361826 0.582629 0.202514
O O9 0.636307 0.582460 0.798899
O O10 0.377335 0.664304 0.978524
O O11 0.224406 0.386508 0.563101
O O12 0.200169 0.499936 0.487449
O O13 0.000753 0.418927 0.498565
O O14 0.029639 0.812580 0.657740
#
# Coordination Sequence:
#
# PCOD9246742 Si02
#       7
#     4   4   4   4   4   4   4
#     4  10  21  42  62  95 130 170 200 262 320 381
#     4  10  22  37  68  96 130 159 212 260 323 369
#     4  12  23  42  68 100 119 168 214 268 302 384
#     4  11  24  43  65  91 129 172 211 259 313 373
#     4  10  21  42  62  95 130 170 200 262 320 381
#     4  11  24  43  65  91 129 172 211 259 313 373
#     4  10  22  37  68  96 130 159 212 260 323 369
#
# _framework density 20.101347000000001
#
# number of rings (size 3 to 8) (size 9 to 14) (size 15 to 20)
#    0.000    1.429    2.857    2.143    4.000    5.714 
#    0.000    7.143    0.000    0.000    0.000    0.000 
#    0.000    0.000    0.000    0.000    0.000    0.000 
#
# Total GULP energy -156755.669367 kJ/mol
# GULP energy per Si atom -5598.416763 kJ/mol
# Density = 2.005560 g / cm^3
# Si number density = 20.101347 Si / 1000 Ang^3
#
#
#
# Elastic Constant Matrix: (Units=GPa)
#
#
# Indices 1 2 3 4 5 6 
#
# 1 117.6452 50.5324 35.7134 0.0000 30.9031 0.0000
# 2 50.5324 130.5154 49.5779 0.0000 39.2584 0.0000
# 3 35.7134 49.5779 96.2773 0.0000 23.7900 0.0000
# 4 0.0000 0.0000 0.0000 31.8312 0.0000 7.2029
# 5 30.9031 39.2584 23.7900 0.0000 39.6466 0.0000
# 6 0.0000 0.0000 0.0000 7.2029 0.0000 11.3444
#
#
#
# Elastic Compliance Matrix: (Units=1/GPa)
#
#
# Indices 1 2 3 4 5 6 
#
# 1 0.011436 -0.001986 -0.001764 0.000000 -0.005888 0.000000
# 2 -0.001986 0.012338 -0.003499 0.000000 -0.008569 0.000000
# 3 -0.001764 -0.003499 0.013675 0.000000 -0.003366 0.000000
# 4 0.000000 0.000000 0.000000 0.036687 0.000000 -0.023293
# 5 -0.005888 -0.008569 -0.003366 0.000000 0.040317 0.000000
# 6 0.000000 0.000000 0.000000 -0.023293 0.000000 0.102939
#
#
# Mechanical properties :
#
#
# Convention : Reuss Voigt Hill
#
# Bulk Modulus (GPa) = 43.57547 68.45392 56.01469
# Shear Modulus (GPa) = 20.87342 30.47207 25.67274
#
# Velocity S-wave (km/s) = 3.22593 3.89771 3.57762
# Velocity P-wave (km/s) = 5.96661 7.37458 6.70764
#
# Compressibility (1/GPa) = 0.02294869
#
# Stress axis : x y z
#
# Youngs Moduli (GPa) = 87.44659 81.05262 73.12877
#
# Poissons Ratio (x) = 0.16100 0.12901
# Poissons Ratio (y) = 0.17370 0.25588
# Poissons Ratio (z) = 0.15427 0.28361
#
# Static dielectric constant tensor:
#      x y z
#    x 1.703250 0.000000 -0.033690 
#    y 0.000000 1.662490 0.000000 
#    z -0.033690 0.000000 1.722440 
# 
# From -- ./inp_files/10364.got.cif
#   From: 2010.05.17/outbox.cif.g08.bks.cpg/sg14_6_cif.got.tgz:10364.got - 2010.06.03 17:49:19.
