data_PCOD9246268
_publ_section_title
;
Structure prediction by ZEFSAII (Michael W. Deem and Ramdas Pophale) SiO2 
 PCOD9246268
Probable space group: P 21/C
;
_chemical_formula_sum "Si O2"
_cell_formula_units_Z 30
_cell_length_a 14.422186
_cell_length_b 13.477738
_cell_length_c 13.987865
_cell_angle_alpha 90.000000
_cell_angle_beta 29.791117
_cell_angle_gamma 90.000000
_cell_volume 1350.876290
_symmetry_space_group_name_H-M "P 21/C"
_symmetry_group_IT_number 14
_symmetry_cell_setting 'monoclinic'
loop_
_space_group_symop_operation_xyz
x,y,z
-x,1/2+y,1/2-z
-x,-y,-z
x,1/2-y,1/2+z
loop_
_atom_site_type_symbol
_atom_site_label
_atom_site_fract_x
_atom_site_fract_y
_atom_site_fract_z
Si Si1 0.985835 0.761923 0.451653
Si Si2 0.086886 0.978901 0.317927
Si Si3 0.049202 0.680036 0.110494
Si Si4 0.749067 0.768623 0.502132
Si Si5 0.500000 0.000000 0.000000
Si Si6 0.555059 0.381465 0.265262
Si Si7 0.190103 0.943117 0.795668
Si Si8 0.445557 0.037702 0.401434
O O1 0.055613 0.861879 0.336212
O O2 0.971048 0.789029 0.576481
O O3 0.118374 0.665915 0.327190
O O4 0.784540 0.745698 0.582148
O O5 0.304319 0.000736 0.116857
O O6 0.000000 0.000000 0.500000
O O7 0.989229 0.062068 0.339003
O O8 0.948056 0.749010 0.275912
O O9 0.269812 0.689528 0.912809
O O10 0.621161 0.688014 0.565797
O O11 0.653509 0.872475 0.566088
O O12 0.398531 0.940951 0.180320
O O13 0.523973 0.452417 0.203432
O O14 0.354425 0.935519 0.728977
O O15 0.298545 0.000562 0.613648
O O16 0.000000 0.000000 0.000000
#
# Coordination Sequence:
#
# PCOD9246268 Si02
#       8
#     4   4   4   4   2   4   4   4
#     4  11  23  42  68  97 132 176 224 270 339 400
#     4  10  21  40  66  95 131 172 219 277 333 392
#     4  11  23  45  67  97 139 172 223 284 335 406
#     4  12  26  43  69 100 132 182 223 278 345 397
#     4  12  22  42  72  98 136 178 212 284 350 390
#     4  12  25  45  67 105 134 174 229 285 337 403
#     4  11  24  50  70  95 137 188 222 273 339 409
#     4  11  27  45  69 100 138 173 232 282 328 407
#
# _framework density 22.207808
#
# number of rings (size 3 to 8) (size 9 to 14) (size 15 to 20)
#    0.000    0.800    4.000    4.000    1.867    1.067 
#    9.600    1.333    0.000    0.000    0.000    0.000 
#    0.000    0.000    0.000    0.000    0.000    0.000 
#
# Total GULP energy -167106.021611 kJ/mol
# GULP energy per Si atom -5570.200720 kJ/mol
# Density = 2.215726 g / cm^3
# Si number density = 22.207808 Si / 1000 Ang^3
#
#
#
# Elastic Constant Matrix: (Units=GPa)
#
#
# Indices 1 2 3 4 5 6 
#
# 1 106.6169 36.3045 10.5499 0.0000 -13.7189 0.0000
# 2 36.3045 82.8258 28.7914 0.0000 -5.8150 0.0000
# 3 10.5499 28.7914 87.0308 0.0000 -16.2405 0.0000
# 4 0.0000 0.0000 0.0000 21.2484 0.0000 -1.4418
# 5 -13.7189 -5.8150 -16.2405 0.0000 19.7570 0.0000
# 6 0.0000 0.0000 0.0000 -1.4418 0.0000 28.0044
#
#
#
# Elastic Compliance Matrix: (Units=1/GPa)
#
#
# Indices 1 2 3 4 5 6 
#
# 1 0.012097 -0.005365 0.001868 0.000000 0.008356 0.000000
# 2 -0.005365 0.016024 -0.005275 0.000000 -0.003345 0.000000
# 3 0.001868 -0.005275 0.015309 0.000000 0.012329 0.000000
# 4 0.000000 0.000000 0.000000 0.047227 0.000000 0.002431
# 5 0.008356 -0.003345 0.012329 0.000000 0.065567 0.000000
# 6 0.000000 0.000000 0.000000 0.002431 0.000000 0.035834
#
#
# Mechanical properties :
#
#
# Convention : Reuss Voigt Hill
#
# Bulk Modulus (GPa) = 38.63108 47.52945 43.08027
# Shear Modulus (GPa) = 22.91156 27.19048 25.05102
#
# Velocity S-wave (km/s) = 3.21548 3.50289 3.36226
# Velocity P-wave (km/s) = 5.58737 6.14890 5.87485
#
# Compressibility (1/GPa) = 0.02588589
#
# Stress axis : x y z
#
# Youngs Moduli (GPa) = 82.66837 62.40712 65.31914
#
# Poissons Ratio (x) = 0.33480 -0.12199
# Poissons Ratio (y) = 0.44350 0.34455
# Poissons Ratio (z) = -0.15440 0.32919
#
# Static dielectric constant tensor:
#      x y z
#    x 1.814770 0.000000 0.023180 
#    y 0.000000 6.915980 0.000000 
#    z 0.023180 0.000000 1.800840 
# 
# From -- ./inp_files/47361.got.cif
#   From: 2010.05.17/outbox.cif.g08.bks.cpg/sg14_24_cif.got.tgz:47361.got - 2010.06.03 17:49:19.
