data_PCOD9246423
_publ_section_title
;
Structure prediction by ZEFSAII (Michael W. Deem and Ramdas Pophale) SiO2 
 PCOD9246423
Probable space group: P 21/C
;
_chemical_formula_sum "Si O2"
_cell_formula_units_Z 22
_cell_length_a 14.830908
_cell_length_b 4.925135
_cell_length_c 10.414527
_cell_angle_alpha 90.000000
_cell_angle_beta 77.144913
_cell_angle_gamma 90.000000
_cell_volume 741.654252
_symmetry_space_group_name_H-M "P 21/C"
_symmetry_group_IT_number 14
_symmetry_cell_setting 'monoclinic'
loop_
_space_group_symop_operation_xyz
x,y,z
-x,1/2+y,1/2-z
-x,-y,-z
x,1/2-y,1/2+z
loop_
_atom_site_type_symbol
_atom_site_label
_atom_site_fract_x
_atom_site_fract_y
_atom_site_fract_z
Si Si1 0.283196 0.502550 0.089316
Si Si2 0.934359 0.928789 0.662814
Si Si3 0.500000 0.000000 0.500000
Si Si4 0.105821 0.294713 0.554889
Si Si5 0.535756 0.495740 0.253459
Si Si6 0.739836 0.197195 0.655419
O O1 0.389321 0.445508 0.039700
O O2 0.208883 0.293417 0.059312
O O3 0.267334 0.561415 0.242338
O O4 0.267690 0.751386 0.993687
O O5 0.925137 0.975230 0.817259
O O6 0.916196 0.648708 0.587054
O O7 0.840126 0.072822 0.645359
O O8 0.035453 0.041732 0.600009
O O9 0.509113 0.248128 0.642772
O O10 0.496744 0.725437 0.146985
O O11 0.648379 0.485916 0.220125
#
# Coordination Sequence:
#
# PCOD9246423 Si02
#       6
#     4   4   2   4   4   4
#     4  10  21  41  61  92 131 168 220 279 336 413
#     4  10  22  39  61  93 125 170 218 279 343 412
#     4  10  22  42  64  96 134 180 228 282 348 410
#     4  10  22  39  61  89 130 165 221 280 339 416
#     4  11  24  43  66  96 135 180 229 288 345 417
#     4  10  22  40  64  95 128 172 221 277 345 408
#
# _framework density 29.663414
#
# number of rings (size 3 to 8) (size 9 to 14) (size 15 to 20)
#    0.000    1.818    1.818    1.091    2.545    2.909 
#    0.000    0.000    0.000    0.000    0.000    0.000 
#    0.000    0.000    0.000    0.000    0.000    0.000 
#
# Total GULP energy -122614.667758 kJ/mol
# GULP energy per Si atom -5573.393989 kJ/mol
# Density = 2.959590 g / cm^3
# Si number density = 29.663414 Si / 1000 Ang^3
#
#
#
# Elastic Constant Matrix: (Units=GPa)
#
#
# Indices 1 2 3 4 5 6 
#
# 1 262.0435 54.0433 104.2833 0.0000 -0.8741 0.0000
# 2 54.0433 161.7047 51.9473 0.0000 -4.7201 0.0000
# 3 104.2833 51.9473 116.9970 0.0000 -18.3108 0.0000
# 4 0.0000 0.0000 0.0000 29.1040 0.0000 -13.1225
# 5 -0.8741 -4.7201 -18.3108 0.0000 68.9079 0.0000
# 6 0.0000 0.0000 0.0000 -13.1225 0.0000 23.7538
#
#
#
# Elastic Compliance Matrix: (Units=1/GPa)
#
#
# Indices 1 2 3 4 5 6 
#
# 1 0.006056 -0.000304 -0.005482 0.000000 -0.001401 0.000000
# 2 -0.000304 0.007237 -0.002990 0.000000 -0.000303 0.000000
# 3 -0.005482 -0.002990 0.015357 0.000000 0.003806 0.000000
# 4 0.000000 0.000000 0.000000 0.045757 0.000000 0.025278
# 5 -0.001401 -0.000303 0.003806 0.000000 0.015485 0.000000
# 6 0.000000 0.000000 0.000000 0.025278 0.000000 0.056063
#
#
# Mechanical properties :
#
#
# Convention : Reuss Voigt Hill
#
# Bulk Modulus (GPa) = 90.10391 106.81035 98.45713
# Shear Modulus (GPa) = 29.90319 46.38455 38.14387
#
# Velocity S-wave (km/s) = 3.17848 3.95865 3.58982
# Velocity P-wave (km/s) = 6.62659 7.54852 7.10253
#
# Compressibility (1/GPa) = 0.01109830
#
# Stress axis : x y z
#
# Youngs Moduli (GPa) = 165.13116 138.17243 65.11699
#
# Poissons Ratio (x) = 0.04196 0.35698
# Poissons Ratio (y) = 0.05015 0.19471
# Poissons Ratio (z) = 0.90527 0.41315
#
# Static dielectric constant tensor:
#      x y z
#    x 2.185310 0.000000 0.262060 
#    y 0.000000 6.695240 0.000000 
#    z 0.262060 0.000000 3.279540 
# 
# From -- ./inp_files/31080.got.cif
#   From: 2010.05.17/outbox.cif.g08.bks.cpg/sg14_16_cif.got.tgz:31080.got - 2010.06.03 17:49:19.
