data_PCOD9246794
_publ_section_title
;
Structure prediction by ZEFSAII (Michael W. Deem and Ramdas Pophale) SiO2 
 PCOD9246794
Probable space group: P 21/C
;
_chemical_formula_sum "Si O2"
_cell_formula_units_Z 20
_cell_length_a 17.226616
_cell_length_b 6.241097
_cell_length_c 23.878032
_cell_angle_alpha 90.000000
_cell_angle_beta 161.156270
_cell_angle_gamma 90.000000
_cell_volume 829.174575
_symmetry_space_group_name_H-M "P 21/C"
_symmetry_group_IT_number 14
_symmetry_cell_setting 'monoclinic'
loop_
_space_group_symop_operation_xyz
x,y,z
-x,1/2+y,1/2-z
-x,-y,-z
x,1/2-y,1/2+z
loop_
_atom_site_type_symbol
_atom_site_label
_atom_site_fract_x
_atom_site_fract_y
_atom_site_fract_z
Si Si1 0.733370 0.588671 0.963093
Si Si2 0.782383 0.231957 0.403494
Si Si3 0.202223 0.724064 0.760936
Si Si4 0.361561 0.554050 0.988961
Si Si5 0.285981 0.113741 0.740635
O O1 0.449564 0.623836 0.762085
O O2 0.782054 0.367825 0.964811
O O3 0.788434 0.571205 0.066711
O O4 0.910768 0.765026 0.055885
O O5 0.062476 0.280899 0.584580
O O6 0.735676 0.041599 0.326849
O O7 0.401638 0.586422 0.864166
O O8 0.266828 0.966221 0.783742
O O9 0.241480 0.634854 0.850242
O O10 0.466232 0.764515 0.089840
#
# Coordination Sequence:
#
# PCOD9246794 Si02
#       5
#     4   4   4   4   4
#     4  11  23  41  63 100 129 169 221 261 323 382
#     4  10  22  38  61  97 129 164 214 268 313 382
#     4  10  24  44  62  97 129 164 224 260 309 392
#     4  11  23  43  68  90 128 180 206 264 328 366
#     4  10  21  42  65  90 129 169 211 266 321 375
#
# _framework density 24.120372
#
# number of rings (size 3 to 8) (size 9 to 14) (size 15 to 20)
#    0.000    1.600    2.000    1.800    2.800    2.400 
#   14.400    0.000    0.000    0.000    0.000    0.000 
#    0.000    0.000    0.000    0.000    0.000    0.000 
#
# Total GULP energy -111494.641330 kJ/mol
# GULP energy per Si atom -5574.732066 kJ/mol
# Density = 2.406547 g / cm^3
# Si number density = 24.120372 Si / 1000 Ang^3
#
#
#
# Elastic Constant Matrix: (Units=GPa)
#
#
# Indices 1 2 3 4 5 6 
#
# 1 104.7899 -0.4569 -0.5161 0.0000 2.2526 0.0000
# 2 -0.4569 25.0971 16.7006 0.0000 0.1630 0.0000
# 3 -0.5161 16.7006 48.7529 0.0000 3.9435 0.0000
# 4 0.0000 0.0000 0.0000 32.5812 0.0000 6.2480
# 5 2.2526 0.1630 3.9435 0.0000 23.0990 0.0000
# 6 0.0000 0.0000 0.0000 6.2480 0.0000 17.7045
#
#
#
# Elastic Compliance Matrix: (Units=1/GPa)
#
#
# Indices 1 2 3 4 5 6 
#
# 1 0.009565 0.000079 0.000152 0.000000 -0.000959 0.000000
# 2 0.000079 0.051776 -0.017953 0.000000 0.002692 0.000000
# 3 0.000152 -0.017953 0.027027 0.000000 -0.004502 0.000000
# 4 0.000000 0.000000 0.000000 0.032920 0.000000 -0.011618
# 5 -0.000959 0.002692 -0.004502 0.000000 0.044135 0.000000
# 6 0.000000 0.000000 0.000000 -0.011618 0.000000 0.060583
#
#
# Mechanical properties :
#
#
# Convention : Reuss Voigt Hill
#
# Bulk Modulus (GPa) = 18.89509 23.34391 21.11950
# Shear Modulus (GPa) = 17.91528 25.53775 21.72652
#
# Velocity S-wave (km/s) = 2.72829 3.25739 3.00451
# Velocity P-wave (km/s) = 4.21609 4.88330 4.56191
#
# Compressibility (1/GPa) = 0.05292381
#
# Stress axis : x y z
#
# Youngs Moduli (GPa) = 104.55203 19.31404 36.99957
#
# Poissons Ratio (x) = -0.00153 -0.00561
# Poissons Ratio (y) = -0.00831 0.66425
# Poissons Ratio (z) = -0.01585 0.34675
#
# Static dielectric constant tensor:
#      x y z
#    x 1.951760 0.000000 0.013750 
#    y 0.000000 1.960860 0.000000 
#    z 0.013750 0.000000 1.897230 
# 
# From -- ./inp_files/36124.got.cif
#   From: 2010.05.17/outbox.cif.g08.bks.cpg/sg14_19_cif.got.tgz:36124.got - 2010.06.03 17:49:19.
