data_PCOD9246205
_publ_section_title
;
Structure prediction by ZEFSAII (Michael W. Deem and Ramdas Pophale) SiO2 
 PCOD9246205
Probable space group: P 21/C
;
_chemical_formula_sum "Si O2"
_cell_formula_units_Z 28
_cell_length_a 8.148773
_cell_length_b 18.300525
_cell_length_c 9.298209
_cell_angle_alpha 90.000000
_cell_angle_beta 100.424807
_cell_angle_gamma 90.000000
_cell_volume 1363.723872
_symmetry_space_group_name_H-M "P 21/C"
_symmetry_group_IT_number 14
_symmetry_cell_setting 'monoclinic'
loop_
_space_group_symop_operation_xyz
x,y,z
-x,1/2+y,1/2-z
-x,-y,-z
x,1/2-y,1/2+z
loop_
_atom_site_type_symbol
_atom_site_label
_atom_site_fract_x
_atom_site_fract_y
_atom_site_fract_z
Si Si1 0.885863 0.182551 0.500057
Si Si2 0.337183 0.459930 0.912081
Si Si3 0.039008 0.200875 0.208481
Si Si4 0.938649 0.532550 0.340722
Si Si5 0.493325 0.810727 0.525101
Si Si6 0.868085 0.564151 0.838566
Si Si7 0.358096 0.193920 0.761476
O O1 0.983020 0.195067 0.365813
O O2 0.900348 0.255719 0.596934
O O3 0.690911 0.167719 0.454384
O O4 0.978378 0.117954 0.600333
O O5 0.242895 0.488856 0.755136
O O6 0.385475 0.374881 0.898273
O O7 0.500000 0.500000 0.000000
O O8 0.206451 0.461128 0.022078
O O9 0.060598 0.119748 0.153499
O O10 0.203500 0.250297 0.211805
O O11 0.000000 0.500000 0.500000
O O12 0.071833 0.502665 0.246615
O O13 0.543534 0.731587 0.593711
O O14 0.523729 0.810126 0.359146
O O15 0.729326 0.614986 0.737898
#
# Coordination Sequence:
#
# PCOD9246205 Si02
#       7
#     4   4   4   4   4   4   4
#     4  11  23  41  70  97 129 178 240 276 332 413
#     4  11  23  44  70  95 131 181 225 270 345 412
#     4  11  23  42  66  95 133 178 225 280 333 410
#     4  12  26  42  66 104 137 175 228 281 350 401
#     4  11  22  39  65  94 127 169 221 285 330 399
#     4  10  23  42  67  92 132 184 223 275 335 427
#     4  10  21  40  65  89 129 170 224 273 342 384
#
# _framework density 20.532017
#
# number of rings (size 3 to 8) (size 9 to 14) (size 15 to 20)
#    0.000    1.143    2.857    3.857    8.000    0.000 
#    5.143    0.714    0.000    0.000    0.000    0.000 
#    0.000    0.000    0.000    0.000    0.000    0.000 
#
# Total GULP energy -156433.656467 kJ/mol
# GULP energy per Si atom -5586.916302 kJ/mol
# Density = 2.048529 g / cm^3
# Si number density = 20.532017 Si / 1000 Ang^3
#
#
#
# Elastic Constant Matrix: (Units=GPa)
#
#
# Indices 1 2 3 4 5 6 
#
# 1 76.1199 3.3419 15.8553 0.0000 -0.1640 0.0000
# 2 3.3419 59.5835 3.6349 0.0000 0.9355 0.0000
# 3 15.8553 3.6349 45.6928 0.0000 11.6721 0.0000
# 4 0.0000 0.0000 0.0000 32.7498 0.0000 1.8485
# 5 -0.1640 0.9355 11.6721 0.0000 23.4151 0.0000
# 6 0.0000 0.0000 0.0000 1.8485 0.0000 29.4642
#
#
#
# Elastic Compliance Matrix: (Units=1/GPa)
#
#
# Indices 1 2 3 4 5 6 
#
# 1 0.014352 -0.000504 -0.005696 0.000000 0.002960 0.000000
# 2 -0.000504 0.016883 -0.001140 0.000000 -0.000110 0.000000
# 3 -0.005696 -0.001140 0.027446 0.000000 -0.013676 0.000000
# 4 0.000000 0.000000 0.000000 0.030643 0.000000 -0.001922
# 5 0.002960 -0.000110 -0.013676 0.000000 0.049550 0.000000
# 6 0.000000 0.000000 0.000000 -0.001922 0.000000 0.034060
#
#
# Mechanical properties :
#
#
# Convention : Reuss Voigt Hill
#
# Bulk Modulus (GPa) = 22.72716 25.22895 23.97805
# Shear Modulus (GPa) = 24.71803 27.69674 26.20738
#
# Velocity S-wave (km/s) = 3.47346 3.67679 3.57657
# Velocity P-wave (km/s) = 5.21342 5.50812 5.36279
#
# Compressibility (1/GPa) = 0.04400022
#
# Stress axis : x y z
#
# Youngs Moduli (GPa) = 69.67588 59.23215 36.43510
#
# Poissons Ratio (x) = 0.02985 0.20754
# Poissons Ratio (y) = 0.03511 0.04154
# Poissons Ratio (z) = 0.39689 0.06753
#
# Static dielectric constant tensor:
#      x y z
#    x 1.712130 0.000000 0.028190 
#    y 0.000000 1.748110 0.000000 
#    z 0.028190 0.000000 1.727600 
# 
# From -- ./inp_files/9448.got.cif
#   From: 2010.05.17/outbox.cif.g08.bks.cpg/sg14_5_cif.got.tgz:9448.got - 2010.06.03 17:49:19.
