data_PCOD9246792
_publ_section_title
;
Structure prediction by ZEFSAII (Michael W. Deem and Ramdas Pophale) SiO2 
 PCOD9246792
Probable space group: P 21/C
;
_chemical_formula_sum "Si O2"
_cell_formula_units_Z 24
_cell_length_a 14.046603
_cell_length_b 8.892367
_cell_length_c 15.494584
_cell_angle_alpha 90.000000
_cell_angle_beta 145.773187
_cell_angle_gamma 90.000000
_cell_volume 1088.599815
_symmetry_space_group_name_H-M "P 21/C"
_symmetry_group_IT_number 14
_symmetry_cell_setting 'monoclinic'
loop_
_space_group_symop_operation_xyz
x,y,z
-x,1/2+y,1/2-z
-x,-y,-z
x,1/2-y,1/2+z
loop_
_atom_site_type_symbol
_atom_site_label
_atom_site_fract_x
_atom_site_fract_y
_atom_site_fract_z
Si Si1 0.813629 0.052957 0.246333
Si Si2 0.822807 0.605751 0.576298
Si Si3 0.811138 0.448012 0.933152
Si Si4 0.772522 0.392337 0.375330
Si Si5 0.193085 0.602899 0.787943
Si Si6 0.379177 0.411795 0.061966
O O1 0.748386 0.002090 0.291170
O O2 0.756977 0.223592 0.187333
O O3 0.769895 0.961517 0.128609
O O4 0.017789 0.037126 0.413300
O O5 0.780564 0.502315 0.462591
O O6 0.735921 0.766768 0.506658
O O7 0.026605 0.611087 0.723042
O O8 0.852808 0.270204 0.957292
O O9 0.668000 0.474328 0.896334
O O10 0.843641 0.452008 0.337075
O O11 0.573594 0.367839 0.208266
O O12 0.324029 0.494918 0.933177
#
# Coordination Sequence:
#
# PCOD9246792 Si02
#       6
#     4   4   4   4   4   4
#     4  10  22  40  67  93 118 167 216 272 305 367
#     4  12  23  40  66  99 120 171 220 260 322 379
#     4  10  21  42  65  89 129 162 217 262 317 374
#     4  11  26  41  64  94 135 170 207 270 326 381
#     4  11  22  43  66  94 126 170 219 264 314 386
#     4  12  24  42  64  96 133 168 211 266 329 382
#
# _framework density 22.046669999999999
#
# number of rings (size 3 to 8) (size 9 to 14) (size 15 to 20)
#    0.000    1.000    3.333    3.000    2.333    1.333 
#    0.000    9.167    0.000    0.000    0.000    0.000 
#    0.000    0.000    0.000    0.000    0.000    0.000 
#
# Total GULP energy -134167.063064 kJ/mol
# GULP energy per Si atom -5590.294294 kJ/mol
# Density = 2.199649 g / cm^3
# Si number density = 22.046670 Si / 1000 Ang^3
#
#
#
# Elastic Constant Matrix: (Units=GPa)
#
#
# Indices 1 2 3 4 5 6 
#
# 1 75.7380 19.9884 23.7109 0.0000 -33.8305 0.0000
# 2 19.9884 72.2433 27.6238 0.0000 -23.6142 0.0000
# 3 23.7109 27.6238 49.9814 0.0000 -19.7677 0.0000
# 4 0.0000 0.0000 0.0000 28.2173 0.0000 -13.4532
# 5 -33.8305 -23.6142 -19.7677 0.0000 52.3554 0.0000
# 6 0.0000 0.0000 0.0000 -13.4532 0.0000 26.1842
#
#
#
# Elastic Compliance Matrix: (Units=1/GPa)
#
#
# Indices 1 2 3 4 5 6 
#
# 1 0.019583 0.000030 -0.005051 0.000000 0.010761 0.000000
# 2 0.000030 0.018740 -0.008254 0.000000 0.005356 0.000000
# 3 -0.005051 -0.008254 0.028451 0.000000 0.003755 0.000000
# 4 0.000000 0.000000 0.000000 0.046937 0.000000 0.024116
# 5 0.010761 0.005356 0.003755 0.000000 0.029887 0.000000
# 6 0.000000 0.000000 0.000000 0.024116 0.000000 0.050581
#
#
# Mechanical properties :
#
#
# Convention : Reuss Voigt Hill
#
# Bulk Modulus (GPa) = 24.85979 37.84543 31.35261
# Shear Modulus (GPa) = 21.35505 29.79403 25.57454
#
# Velocity S-wave (km/s) = 3.11566 3.68014 3.40960
# Velocity P-wave (km/s) = 4.92377 5.93811 5.45457
#
# Compressibility (1/GPa) = 0.04022560
#
# Stress axis : x y z
#
# Youngs Moduli (GPa) = 51.06400 53.36083 35.14865
#
# Poissons Ratio (x) = -0.00162 0.17754
# Poissons Ratio (y) = -0.00155 0.29010
# Poissons Ratio (z) = 0.25793 0.44042
#
# Static dielectric constant tensor:
#      x y z
#    x 1.825690 0.000000 -0.013390 
#    y 0.000000 1.779080 0.000000 
#    z -0.013390 0.000000 1.810240 
# 
# From -- ./inp_files/39033.got.cif
#   From: 2010.05.17/outbox.cif.g08.bks.cpg/sg14_20_cif.got.tgz:39033.got - 2010.06.03 17:49:19.
