data_PCOD9246521
_publ_section_title
;
Structure prediction by ZEFSAII (Michael W. Deem and Ramdas Pophale) SiO2 
 PCOD9246521
Probable space group: P 21/C
;
_chemical_formula_sum "Si O2"
_cell_formula_units_Z 32
_cell_length_a 26.252926
_cell_length_b 9.286834
_cell_length_c 12.133765
_cell_angle_alpha 90.000000
_cell_angle_beta 153.920317
_cell_angle_gamma 90.000000
_cell_volume 1300.526221
_symmetry_space_group_name_H-M "P 21/C"
_symmetry_group_IT_number 14
_symmetry_cell_setting 'monoclinic'
loop_
_space_group_symop_operation_xyz
x,y,z
-x,1/2+y,1/2-z
-x,-y,-z
x,1/2-y,1/2+z
loop_
_atom_site_type_symbol
_atom_site_label
_atom_site_fract_x
_atom_site_fract_y
_atom_site_fract_z
Si Si1 0.837067 0.924370 0.115948
Si Si2 0.392456 0.738089 0.434781
Si Si3 0.762362 0.880083 0.372872
Si Si4 0.867428 0.499496 0.286628
Si Si5 0.087931 0.294332 0.026942
Si Si6 0.472426 0.021996 0.171023
Si Si7 0.387472 0.575024 0.729485
Si Si8 0.853053 0.183132 0.971429
O O1 0.928400 0.874940 0.387481
O O2 0.858780 0.042841 0.063885
O O3 0.798275 0.777812 0.982762
O O4 0.726646 0.984611 0.967640
O O5 0.371261 0.384711 0.420268
O O6 0.490531 0.612768 0.625673
O O7 0.378292 0.779082 0.278891
O O8 0.260024 0.725229 0.219593
O O9 0.789631 0.986923 0.526622
O O10 0.842031 0.897441 0.419558
O O11 0.846050 0.647826 0.312302
O O12 0.851420 0.370140 0.341859
O O13 0.000000 0.500000 0.500000
O O14 0.973031 0.243784 0.739440
O O15 0.413095 0.925595 0.151748
O O16 0.500000 0.000000 0.500000
O O17 0.563617 0.124024 0.407395
#
# Coordination Sequence:
#
# PCOD9246521 Si02
#       8
#     4   4   4   4   4   4   4   4
#     4  10  21  41  64  98 126 177 226 266 331 401
#     4  10  26  43  69 100 132 179 225 288 333 403
#     4  11  23  39  69  97 132 177 223 271 333 404
#     4  11  24  41  63  96 139 174 220 278 331 397
#     4  11  22  40  65  98 129 180 219 272 336 406
#     4  11  24  46  70  97 136 176 230 276 346 400
#     4   9  20  41  67  91 131 171 220 275 332 394
#     4  11  23  42  65  95 138 169 224 280 333 396
#
# _framework density 24.605423999999999
#
# number of rings (size 3 to 8) (size 9 to 14) (size 15 to 20)
#    0.000    1.500    3.750    0.375    7.000    1.000 
#    4.500    1.250    0.000    0.000    0.000    0.000 
#    0.000    0.000    0.000    0.000    0.000    0.000 
#
# Total GULP energy -178758.409749 kJ/mol
# GULP energy per Si atom -5586.200305 kJ/mol
# Density = 2.454942 g / cm^3
# Si number density = 24.605424 Si / 1000 Ang^3
#
#
#
# Elastic Constant Matrix: (Units=GPa)
#
#
# Indices 1 2 3 4 5 6 
#
# 1 41.3780 0.1724 11.8950 0.0000 -13.3283 0.0000
# 2 0.1724 73.7011 20.9099 0.0000 -12.1759 0.0000
# 3 11.8950 20.9099 119.3880 0.0000 -21.5275 0.0000
# 4 0.0000 0.0000 0.0000 38.4353 0.0000 -10.8433
# 5 -13.3283 -12.1759 -21.5275 0.0000 34.1190 0.0000
# 6 0.0000 0.0000 0.0000 -10.8433 0.0000 5.4017
#
#
#
# Elastic Compliance Matrix: (Units=1/GPa)
#
#
# Indices 1 2 3 4 5 6 
#
# 1 0.028023 0.002078 -0.001183 0.000000 0.010942 0.000000
# 2 0.002078 0.014925 -0.001934 0.000000 0.004917 0.000000
# 3 -0.001183 -0.001934 0.009732 0.000000 0.004988 0.000000
# 4 0.000000 0.000000 0.000000 0.059993 0.000000 0.120429
# 5 0.010942 0.004917 0.004988 0.000000 0.038486 0.000000
# 6 0.000000 0.000000 0.000000 0.120429 0.000000 0.426873
#
#
# Mechanical properties :
#
#
# Convention : Reuss Voigt Hill
#
# Bulk Modulus (GPa) = 19.76232 33.38020 26.57126
# Shear Modulus (GPa) = 8.37552 29.02385 18.69969
#
# Velocity S-wave (km/s) = 1.84698 3.43821 2.75977
# Velocity P-wave (km/s) = 3.54930 5.41825 4.58012
#
# Compressibility (1/GPa) = 0.05060136
#
# Stress axis : x y z
#
# Youngs Moduli (GPa) = 35.68443 67.00346 102.75252
#
# Poissons Ratio (x) = -0.13922 0.12155
# Poissons Ratio (y) = -0.07414 0.19875
# Poissons Ratio (z) = 0.04221 0.12960
#
# Static dielectric constant tensor:
#      x y z
#    x 2.660160 0.000000 -0.259010 
#    y 0.000000 2.050160 0.000000 
#    z -0.259010 0.000000 1.979190 
# 
# From -- ./inp_files/36452.got.cif
#   From: 2010.05.17/outbox.cif.g08.bks.cpg/sg14_19_cif.got.tgz:36452.got - 2010.06.03 17:49:19.
