data_PCOD9246746
_publ_section_title
;
Structure prediction by ZEFSAII (Michael W. Deem and Ramdas Pophale) SiO2 
 PCOD9246746
Probable space group: P 21/C
;
_chemical_formula_sum "Si O2"
_cell_formula_units_Z 28
_cell_length_a 11.661482
_cell_length_b 10.754161
_cell_length_c 18.461649
_cell_angle_alpha 90.000000
_cell_angle_beta 142.766828
_cell_angle_gamma 90.000000
_cell_volume 1400.874846
_symmetry_space_group_name_H-M "P 21/C"
_symmetry_group_IT_number 14
_symmetry_cell_setting 'monoclinic'
loop_
_space_group_symop_operation_xyz
x,y,z
-x,1/2+y,1/2-z
-x,-y,-z
x,1/2-y,1/2+z
loop_
_atom_site_type_symbol
_atom_site_label
_atom_site_fract_x
_atom_site_fract_y
_atom_site_fract_z
Si Si1 0.734661 0.620882 0.580330
Si Si2 0.915303 0.029862 0.535934
Si Si3 0.633037 0.245979 0.429499
Si Si4 0.933064 0.372317 0.499750
Si Si5 0.804905 0.730903 0.763663
Si Si6 0.988885 0.763670 0.607931
Si Si7 0.704515 0.153414 0.122623
O O1 0.791112 0.721909 0.670312
O O2 0.856519 0.655308 0.572371
O O3 0.509324 0.632780 0.456017
O O4 0.771776 0.482752 0.629384
O O5 0.733619 0.120373 0.451079
O O6 0.087046 0.104539 0.660067
O O7 0.879379 0.895157 0.552101
O O8 0.000000 0.000000 0.500000
O O9 0.407605 0.254959 0.313716
O O10 0.692089 0.264238 0.543324
O O11 0.724681 0.357204 0.428466
O O12 0.069094 0.335205 0.634888
O O13 0.952012 0.273678 0.443475
O O14 0.000000 0.500000 0.500000
O O15 0.165182 0.786368 0.750486
#
# Coordination Sequence:
#
# PCOD9246746 Si02
#       7
#     4   4   4   4   4   4   4
#     4  10  22  40  63  91 123 161 204 250 302 368
#     4  11  21  41  61  91 123 160 206 249 307 365
#     4  10  22  41  63  86 121 164 203 247 306 363
#     4  11  24  41  58  91 122 158 207 252 306 361
#     4  10  21  42  63  85 122 163 200 247 306 360
#     4  12  22  38  66  91 124 158 204 255 305 364
#     4  10  22  40  63  91 121 163 205 245 308 363
#
# _framework density 19.987511000000001
#
# number of rings (size 3 to 8) (size 9 to 14) (size 15 to 20)
#    0.000    1.429    4.286    2.571    0.000    2.286 
#    2.571    1.429    0.000    0.000    0.000    0.000 
#    0.000    0.000    0.000    0.000    0.000    0.000 
#
# Total GULP energy -156259.112191 kJ/mol
# GULP energy per Si atom -5580.682578 kJ/mol
# Density = 1.994202 g / cm^3
# Si number density = 19.987511 Si / 1000 Ang^3
#
#
#
# Elastic Constant Matrix: (Units=GPa)
#
#
# Indices 1 2 3 4 5 6 
#
# 1 68.1870 -16.7441 11.4520 0.0000 12.3394 0.0000
# 2 -16.7441 57.5909 7.2787 0.0000 3.5580 0.0000
# 3 11.4520 7.2787 23.6958 0.0000 12.7083 0.0000
# 4 0.0000 0.0000 0.0000 11.2739 0.0000 -2.4837
# 5 12.3394 3.5580 12.7083 0.0000 20.1812 0.0000
# 6 0.0000 0.0000 0.0000 -2.4837 0.0000 33.3285
#
#
#
# Elastic Compliance Matrix: (Units=1/GPa)
#
#
# Indices 1 2 3 4 5 6 
#
# 1 0.019056 0.006921 -0.006693 0.000000 -0.008657 0.000000
# 2 0.006921 0.020582 -0.008231 0.000000 -0.002677 0.000000
# 3 -0.006693 -0.008231 0.067934 0.000000 -0.037236 0.000000
# 4 0.000000 0.000000 0.000000 0.090181 0.000000 0.006720
# 5 -0.008657 -0.002677 -0.037236 0.000000 0.078764 0.000000
# 6 0.000000 0.000000 0.000000 0.006720 0.000000 0.030505
#
#
# Mechanical properties :
#
#
# Convention : Reuss Voigt Hill
#
# Bulk Modulus (GPa) = 10.92109 17.04968 13.98539
# Shear Modulus (GPa) = 14.14228 22.78919 18.46574
#
# Velocity S-wave (km/s) = 2.66288 3.38031 3.04281
# Velocity P-wave (km/s) = 3.86399 4.87688 4.39968
#
# Compressibility (1/GPa) = 0.09156592
#
# Stress axis : x y z
#
# Youngs Moduli (GPa) = 52.47777 48.58660 14.72010
#
# Poissons Ratio (x) = -0.33627 0.09852
# Poissons Ratio (y) = -0.36320 0.12117
# Poissons Ratio (z) = 0.35121 0.39993
#
# Static dielectric constant tensor:
#      x y z
#    x 1.693290 0.000000 -0.016080 
#    y 0.000000 1.737910 0.000000 
#    z -0.016080 0.000000 1.710120 
# 
# From -- ./inp_files/57613.got.cif
#   From: 2010.05.17/outbox.cif.g08.bks.cpg/sg14_29_cif.got.tgz:57613.got - 2010.06.03 17:49:19.
