data_PCOD9246981
_publ_section_title
;
Structure prediction by ZEFSAII (Michael W. Deem and Ramdas Pophale) SiO2 
 PCOD9246981
Probable space group: P 21/C
;
_chemical_formula_sum "Si O2"
_cell_formula_units_Z 20
_cell_length_a 18.651003
_cell_length_b 10.112314
_cell_length_c 12.568435
_cell_angle_alpha 90.000000
_cell_angle_beta 21.537351
_cell_angle_gamma 90.000000
_cell_volume 870.216712
_symmetry_space_group_name_H-M "P 21/C"
_symmetry_group_IT_number 14
_symmetry_cell_setting 'monoclinic'
loop_
_space_group_symop_operation_xyz
x,y,z
-x,1/2+y,1/2-z
-x,-y,-z
x,1/2-y,1/2+z
loop_
_atom_site_type_symbol
_atom_site_label
_atom_site_fract_x
_atom_site_fract_y
_atom_site_fract_z
Si Si1 0.101036 0.710549 0.423243
Si Si2 0.246303 0.245291 0.235016
Si Si3 0.330028 0.960364 0.154440
Si Si4 0.649878 0.161308 0.088838
Si Si5 0.733856 0.986954 0.160516
O O1 0.160913 0.577743 0.397914
O O2 0.877521 0.716135 0.697991
O O3 0.190521 0.833717 0.367949
O O4 0.210168 0.731560 0.159141
O O5 0.205804 0.092715 0.312284
O O6 0.208845 0.337725 0.389415
O O7 0.473316 0.269031 0.893158
O O8 0.500000 0.000000 0.000000
O O9 0.424851 0.921333 0.910024
O O10 0.761188 0.056198 0.009466
O O11 0.500000 0.000000 0.500000
#
# Coordination Sequence:
#
# PCOD9246981 Si02
#       5
#     4   4   4   4   4
#     4  10  23  43  63  98 133 168 218 267 319 389
#     4  11  22  41  69  95 129 172 220 267 319 387
#     4  10  22  42  65  91 134 172 213 266 323 381
#     4   9  24  40  66  91 136 169 214 258 338 366
#     4  10  21  43  65  94 130 173 215 265 318 393
#
# _framework density 22.982780000000002
#
# number of rings (size 3 to 8) (size 9 to 14) (size 15 to 20)
#    1.200    0.800    0.000    3.600    5.600    0.000 
#    7.200    0.000    0.000    0.000    0.000    0.000 
#    0.000    0.000    0.000    0.000    0.000    0.000 
#
# Total GULP energy -111596.699899 kJ/mol
# GULP energy per Si atom -5579.834995 kJ/mol
# Density = 2.293047 g / cm^3
# Si number density = 22.982780 Si / 1000 Ang^3
#
#
#
# Elastic Constant Matrix: (Units=GPa)
#
#
# Indices 1 2 3 4 5 6 
#
# 1 58.5738 -23.4681 2.1092 0.0000 1.0274 0.0000
# 2 -23.4681 58.8491 10.2861 0.0000 9.2717 0.0000
# 3 2.1092 10.2861 44.1423 0.0000 -5.9798 0.0000
# 4 0.0000 0.0000 0.0000 13.7251 0.0000 -10.0203
# 5 1.0274 9.2717 -5.9798 0.0000 33.9749 0.0000
# 6 0.0000 0.0000 0.0000 -10.0203 0.0000 45.2162
#
#
#
# Elastic Compliance Matrix: (Units=1/GPa)
#
#
# Indices 1 2 3 4 5 6 
#
# 1 0.021182 0.009740 -0.003820 0.000000 -0.003971 0.000000
# 2 0.009740 0.023339 -0.006973 0.000000 -0.007891 0.000000
# 3 -0.003820 -0.006973 0.025339 0.000000 0.006478 0.000000
# 4 0.000000 0.000000 0.000000 0.086922 0.000000 0.019263
# 5 -0.003971 -0.007891 0.006478 0.000000 0.032847 0.000000
# 6 0.000000 0.000000 0.000000 0.019263 0.000000 0.026385
#
#
# Mechanical properties :
#
#
# Convention : Reuss Voigt Hill
#
# Bulk Modulus (GPa) = 14.75891 15.49108 15.12499
# Shear Modulus (GPa) = 20.77242 30.09247 25.43245
#
# Velocity S-wave (km/s) = 3.00963 3.62242 3.33015
# Velocity P-wave (km/s) = 4.30265 4.92451 4.62405
#
# Compressibility (1/GPa) = 0.06775570
#
# Stress axis : x y z
#
# Youngs Moduli (GPa) = 47.20933 42.84689 39.46502
#
# Poissons Ratio (x) = -0.41735 0.15075
# Poissons Ratio (y) = -0.45984 0.27518
# Poissons Ratio (z) = 0.18033 0.29876
#
# Static dielectric constant tensor:
#      x y z
#    x 1.847370 0.000000 0.033460 
#    y 0.000000 1.863830 0.000000 
#    z 0.033460 0.000000 1.884050 
# 
# From -- ./inp_files/50001.got.cif
#   From: 2010.05.17/outbox.cif.g08.bks.cpg/sg14_26_cif.got.tgz:50001.got - 2010.06.03 17:49:19.
