data_PCOD9246974
_publ_section_title
;
Structure prediction by ZEFSAII (Michael W. Deem and Ramdas Pophale) SiO2 
 PCOD9246974
Probable space group: P 21/C
;
_chemical_formula_sum "Si O2"
_cell_formula_units_Z 24
_cell_length_a 13.643815
_cell_length_b 9.062393
_cell_length_c 14.918229
_cell_angle_alpha 90.000000
_cell_angle_beta 32.649535
_cell_angle_gamma 90.000000
_cell_volume 995.145462
_symmetry_space_group_name_H-M "P 21/C"
_symmetry_group_IT_number 14
_symmetry_cell_setting 'monoclinic'
loop_
_space_group_symop_operation_xyz
x,y,z
-x,1/2+y,1/2-z
-x,-y,-z
x,1/2-y,1/2+z
loop_
_atom_site_type_symbol
_atom_site_label
_atom_site_fract_x
_atom_site_fract_y
_atom_site_fract_z
Si Si1 0.944139 0.690694 0.217599
Si Si2 0.925107 0.515523 0.418374
Si Si3 0.689727 0.084219 0.367033
Si Si4 0.726088 0.474286 0.051305
Si Si5 0.394674 0.210268 0.797146
Si Si6 0.455952 0.332148 0.551458
O O1 0.916495 0.619753 0.336656
O O2 0.742676 0.708445 0.333506
O O3 0.076711 0.574250 0.065536
O O4 0.054708 0.845495 0.128632
O O5 0.114683 0.545419 0.323018
O O6 0.748652 0.576603 0.605136
O O7 0.724384 0.062381 0.446590
O O8 0.629761 0.244363 0.381190
O O9 0.500000 0.000000 0.500000
O O10 0.683656 0.646263 0.093027
O O11 0.566043 0.369441 0.211503
O O12 0.448292 0.282349 0.660867
O O13 0.500000 0.500000 0.500000
#
# Coordination Sequence:
#
# PCOD9246974 Si02
#       6
#     4   4   4   4   4   4
#     4  11  24  43  69 100 133 184 225 283 351 411
#     4  11  23  42  72  96 137 174 233 281 344 420
#     4  10  21  43  64  96 127 177 225 269 350 412
#     4  10  24  41  65  96 134 174 226 277 343 407
#     4  11  25  45  66 102 136 180 230 289 339 409
#     4  11  27  43  67  98 139 178 230 284 345 404
#
# _framework density 24.117077999999999
#
# number of rings (size 3 to 8) (size 9 to 14) (size 15 to 20)
#    0.000    1.333    1.667    3.000   11.667    1.333 
#    3.000    0.000    0.000    0.000    0.000    0.000 
#    0.000    0.000    0.000    0.000    0.000    0.000 
#
# Total GULP energy -134012.264561 kJ/mol
# GULP energy per Si atom -5583.844357 kJ/mol
# Density = 2.406219 g / cm^3
# Si number density = 24.117078 Si / 1000 Ang^3
#
#
#
# Elastic Constant Matrix: (Units=GPa)
#
#
# Indices 1 2 3 4 5 6 
#
# 1 51.5039 -5.2508 1.1445 0.0000 -10.9458 0.0000
# 2 -5.2508 119.3164 5.8461 0.0000 10.9742 0.0000
# 3 1.1445 5.8461 74.8576 0.0000 -17.1023 0.0000
# 4 0.0000 0.0000 0.0000 56.1446 0.0000 -5.0554
# 5 -10.9458 10.9742 -17.1023 0.0000 21.7143 0.0000
# 6 0.0000 0.0000 0.0000 -5.0554 0.0000 32.1137
#
#
#
# Elastic Compliance Matrix: (Units=1/GPa)
#
#
# Indices 1 2 3 4 5 6 
#
# 1 0.022204 -0.000412 0.002801 0.000000 0.013607 0.000000
# 2 -0.000412 0.009070 -0.002191 0.000000 -0.006517 0.000000
# 3 0.002801 -0.002191 0.017148 0.000000 0.016025 0.000000
# 4 0.000000 0.000000 0.000000 0.018067 0.000000 0.002844
# 5 0.013607 -0.006517 0.016025 0.000000 0.068827 0.000000
# 6 0.000000 0.000000 0.000000 0.002844 0.000000 0.031587
#
#
# Mechanical properties :
#
#
# Convention : Reuss Voigt Hill
#
# Bulk Modulus (GPa) = 20.48377 27.68417 24.08397
# Shear Modulus (GPa) = 27.35559 38.25706 32.80632
#
# Velocity S-wave (km/s) = 3.37157 3.98717 3.69222
# Velocity P-wave (km/s) = 4.86503 5.71845 5.30892
#
# Compressibility (1/GPa) = 0.04881914
#
# Stress axis : x y z
#
# Youngs Moduli (GPa) = 45.03782 110.25733 58.31518
#
# Poissons Ratio (x) = 0.04539 -0.16336
# Poissons Ratio (y) = 0.01854 0.12776
# Poissons Ratio (z) = -0.12617 0.24156
#
# Static dielectric constant tensor:
#      x y z
#    x 1.942940 0.000000 0.049380 
#    y 0.000000 2.117380 0.000000 
#    z 0.049380 0.000000 2.160080 
# 
# From -- ./inp_files/58993.got.cif
#   From: 2010.05.17/outbox.cif.g08.bks.cpg/sg14_30_cif.got.tgz:58993.got - 2010.06.03 17:49:19.
