data_PCOD9246592
_publ_section_title
;
Structure prediction by ZEFSAII (Michael W. Deem and Ramdas Pophale) SiO2 
 PCOD9246592
Probable space group: P 21/C
;
_chemical_formula_sum "Si O2"
_cell_formula_units_Z 32
_cell_length_a 24.760997
_cell_length_b 5.373749
_cell_length_c 13.235680
_cell_angle_alpha 90.000000
_cell_angle_beta 60.832763
_cell_angle_gamma 90.000000
_cell_volume 1537.821541
_symmetry_space_group_name_H-M "P 21/C"
_symmetry_group_IT_number 14
_symmetry_cell_setting 'monoclinic'
loop_
_space_group_symop_operation_xyz
x,y,z
-x,1/2+y,1/2-z
-x,-y,-z
x,1/2-y,1/2+z
loop_
_atom_site_type_symbol
_atom_site_label
_atom_site_fract_x
_atom_site_fract_y
_atom_site_fract_z
Si Si1 0.519560 0.841152 0.577174
Si Si2 0.214354 0.542001 0.170826
Si Si3 0.639690 0.969967 0.004247
Si Si4 0.746865 0.975220 0.759272
Si Si5 0.571120 0.371548 0.206808
Si Si6 0.987104 0.490977 0.129865
Si Si7 0.297741 0.403446 0.920455
Si Si8 0.923821 0.991162 0.270452
O O1 0.587970 0.725790 0.511214
O O2 0.463256 0.660833 0.655666
O O3 0.500000 0.000000 0.500000
O O4 0.521821 0.000788 0.677995
O O5 0.229761 0.287511 0.216771
O O6 0.149396 0.507039 0.174092
O O7 0.213426 0.785497 0.242637
O O8 0.267383 0.567599 0.036849
O O9 0.691430 0.859558 0.034102
O O10 0.599682 0.155424 0.109341
O O11 0.679613 0.040174 0.869760
O O12 0.741104 0.932654 0.645188
O O13 0.632148 0.530102 0.170487
O O14 0.952646 0.234615 0.190162
O O15 0.049640 0.495358 0.139981
O O16 0.948377 0.734863 0.198396
O O17 0.000000 0.500000 0.000000
#
# Coordination Sequence:
#
# PCOD9246592 Si02
#       8
#     4   4   4   4   4   4   4   4
#     4  11  25  37  61  87 117 157 204 265 329 392
#     4  11  24  43  62 100 128 165 221 263 306 375
#     4  10  23  42  57  87 121 156 208 266 319 390
#     4  11  25  42  67  89 127 171 216 259 327 379
#     4  11  22  41  57  86 118 151 208 258 319 388
#     4  10  21  41  66  98 133 178 210 254 317 370
#     4  10  25  41  64  85 121 169 204 267 318 379
#     4  10  22  39  65  96 137 168 213 267 305 364
#
# _framework density 20.808655999999999
#
# number of rings (size 3 to 8) (size 9 to 14) (size 15 to 20)
#    0.000    1.500    2.500    1.125    5.250    2.500 
#    0.000    0.000    0.000    0.000    0.000    0.000 
#    0.000    0.000    0.000    0.000    0.000    0.000 
#
# Total GULP energy -178502.532969 kJ/mol
# GULP energy per Si atom -5578.204155 kJ/mol
# Density = 2.076130 g / cm^3
# Si number density = 20.808656 Si / 1000 Ang^3
#
#
#
# Elastic Constant Matrix: (Units=GPa)
#
#
# Indices 1 2 3 4 5 6 
#
# 1 66.5251 10.8902 18.8576 0.0000 10.1161 0.0000
# 2 10.8902 82.6742 12.8168 0.0000 10.6978 0.0000
# 3 18.8576 12.8168 59.5810 0.0000 26.6588 0.0000
# 4 0.0000 0.0000 0.0000 16.2522 0.0000 -4.1205
# 5 10.1161 10.6978 26.6588 0.0000 20.6502 0.0000
# 6 0.0000 0.0000 0.0000 -4.1205 0.0000 13.6906
#
#
#
# Elastic Compliance Matrix: (Units=1/GPa)
#
#
# Indices 1 2 3 4 5 6 
#
# 1 0.016727 -0.001275 -0.003904 0.000000 -0.002493 0.000000
# 2 -0.001275 0.013069 0.000810 0.000000 -0.007191 0.000000
# 3 -0.003904 0.000810 0.040669 0.000000 -0.051010 0.000000
# 4 0.000000 0.000000 0.000000 0.066613 0.000000 0.020049
# 5 -0.002493 -0.007191 -0.051010 0.000000 0.119225 0.000000
# 6 0.000000 0.000000 0.000000 0.020049 0.000000 0.079077
#
#
# Mechanical properties :
#
#
# Convention : Reuss Voigt Hill
#
# Bulk Modulus (GPa) = 16.20092 32.65662 24.42877
# Shear Modulus (GPa) = 13.71016 21.19964 17.45490
#
# Velocity S-wave (km/s) = 2.56963 3.19531 2.89940
# Velocity P-wave (km/s) = 4.07511 5.41675 4.79311
#
# Compressibility (1/GPa) = 0.06172489
#
# Stress axis : x y z
#
# Youngs Moduli (GPa) = 59.78534 76.51921 24.58871
#
# Poissons Ratio (x) = 0.09760 0.09600
# Poissons Ratio (y) = 0.07625 -0.01992
# Poissons Ratio (z) = 0.23341 -0.06198
#
# Static dielectric constant tensor:
#      x y z
#    x 1.767870 0.000000 -0.042220 
#    y 0.000000 1.820750 0.000000 
#    z -0.042220 0.000000 1.766030 
# 
# From -- ./inp_files/34728.got.cif
#   From: 2010.05.17/outbox.cif.g08.bks.cpg/sg14_18_cif.got.tgz:34728.got - 2010.06.03 17:49:19.
