data_PCOD9246345
_publ_section_title
;
Structure prediction by ZEFSAII (Michael W. Deem and Ramdas Pophale) SiO2 
 PCOD9246345
Probable space group: P 21/C
;
_chemical_formula_sum "Si O2"
_cell_formula_units_Z 20
_cell_length_a 8.997041
_cell_length_b 9.175018
_cell_length_c 9.522281
_cell_angle_alpha 90.000000
_cell_angle_beta 76.831171
_cell_angle_gamma 90.000000
_cell_volume 765.374734
_symmetry_space_group_name_H-M "P 21/C"
_symmetry_group_IT_number 14
_symmetry_cell_setting 'monoclinic'
loop_
_space_group_symop_operation_xyz
x,y,z
-x,1/2+y,1/2-z
-x,-y,-z
x,1/2-y,1/2+z
loop_
_atom_site_type_symbol
_atom_site_label
_atom_site_fract_x
_atom_site_fract_y
_atom_site_fract_z
Si Si1 0.677262 0.477616 0.006733
Si Si2 0.126512 0.412427 0.603877
Si Si3 0.609233 0.688659 0.257159
Si Si4 0.307836 0.511535 0.306501
Si Si5 0.072850 0.619150 0.876502
O O1 0.751991 0.458054 0.837905
O O2 0.500000 0.500000 0.000000
O O3 0.691848 0.617049 0.104642
O O4 0.759178 0.359448 0.089651
O O5 0.825356 0.515336 0.553711
O O6 0.017095 0.271090 0.615019
O O7 0.283212 0.347316 0.635924
O O8 0.083562 0.539654 0.723856
O O9 0.444040 0.620094 0.315463
O O10 0.604823 0.857727 0.228460
O O11 0.000000 0.500000 0.000000
#
# Coordination Sequence:
#
# PCOD9246345 Si02
#       5
#     4   4   4   4   4
#     4   9  21  43  70 103 142 189 241 302 369 437
#     4  11  24  46  73 107 149 200 250 305 373 450
#     4  10  21  40  69 106 146 190 245 309 369 440
#     4  11  21  42  74 108 146 193 251 308 370 445
#     4  11  24  47  75 104 149 198 246 310 376 444
#
# _framework density 26.130991999999999
#
# number of rings (size 3 to 8) (size 9 to 14) (size 15 to 20)
#    0.000    1.600    0.000    5.400    0.000    0.000 
#    0.000   39.000    0.000    9.600    0.000    0.000 
#    0.000    0.000    0.000    0.000    0.000    0.000 
#
# Total GULP energy -111925.151091 kJ/mol
# GULP energy per Si atom -5596.257555 kJ/mol
# Density = 2.607152 g / cm^3
# Si number density = 26.130992 Si / 1000 Ang^3
#
#
#
# Elastic Constant Matrix: (Units=GPa)
#
#
# Indices 1 2 3 4 5 6 
#
# 1 163.2023 90.2665 90.4999 0.0000 7.8660 0.0000
# 2 90.2665 139.5018 58.5660 0.0000 6.6709 0.0000
# 3 90.4999 58.5660 221.2997 0.0000 5.5111 0.0000
# 4 0.0000 0.0000 0.0000 34.5089 0.0000 -8.7052
# 5 7.8660 6.6709 5.5111 0.0000 52.5601 0.0000
# 6 0.0000 0.0000 0.0000 -8.7052 0.0000 50.4431
#
#
#
# Elastic Compliance Matrix: (Units=1/GPa)
#
#
# Indices 1 2 3 4 5 6 
#
# 1 0.011041 -0.005879 -0.002944 0.000000 -0.000597 0.000000
# 2 -0.005879 0.011229 -0.000555 0.000000 -0.000487 0.000000
# 3 -0.002944 -0.000555 0.005872 0.000000 -0.000105 0.000000
# 4 0.000000 0.000000 0.000000 0.030297 0.000000 0.005228
# 5 -0.000597 -0.000487 -0.000105 0.000000 0.019188 0.000000
# 6 0.000000 0.000000 0.000000 0.005228 0.000000 0.020727
#
#
# Mechanical properties :
#
#
# Convention : Reuss Voigt Hill
#
# Bulk Modulus (GPa) = 106.55983 111.40763 108.98373
# Shear Modulus (GPa) = 41.58366 46.48052 44.03209
#
# Velocity S-wave (km/s) = 3.99351 4.22210 4.10939
# Velocity P-wave (km/s) = 7.88237 8.15445 8.01956
#
# Compressibility (1/GPa) = 0.00938440
#
# Stress axis : x y z
#
# Youngs Moduli (GPa) = 90.57424 89.05434 170.28998
#
# Poissons Ratio (x) = 0.52359 0.50137
# Poissons Ratio (y) = 0.53252 0.09455
# Poissons Ratio (z) = 0.26667 0.04945
#
# Static dielectric constant tensor:
#      x y z
#    x 2.267820 0.000000 -0.027210 
#    y 0.000000 1.996080 0.000000 
#    z -0.027210 0.000000 2.061830 
# 
# From -- ./inp_files/23121.got.cif
#   From: 2010.05.17/outbox.cif.g08.bks.cpg/sg14_12_cif.got.tgz:23121.got - 2010.06.03 17:49:19.
