data_PCOD9246295
_publ_section_title
;
Structure prediction by ZEFSAII (Michael W. Deem and Ramdas Pophale) SiO2 
 PCOD9246295
Probable space group: P 21/C
;
_chemical_formula_sum "Si O2"
_cell_formula_units_Z 28
_cell_length_a 8.586103
_cell_length_b 15.340395
_cell_length_c 17.593542
_cell_angle_alpha 90.000000
_cell_angle_beta 38.097162
_cell_angle_gamma 90.000000
_cell_volume 1429.778945
_symmetry_space_group_name_H-M "P 21/C"
_symmetry_group_IT_number 14
_symmetry_cell_setting 'monoclinic'
loop_
_space_group_symop_operation_xyz
x,y,z
-x,1/2+y,1/2-z
-x,-y,-z
x,1/2-y,1/2+z
loop_
_atom_site_type_symbol
_atom_site_label
_atom_site_fract_x
_atom_site_fract_y
_atom_site_fract_z
Si Si1 0.134868 0.584321 0.519506
Si Si2 0.490740 0.586535 0.952333
Si Si3 0.664450 0.014889 0.818846
Si Si4 0.776288 0.423771 0.679460
Si Si5 0.048668 0.861017 0.724286
Si Si6 0.963839 0.338695 0.288789
Si Si7 0.290920 0.983853 0.373794
O O1 0.383488 0.524173 0.439433
O O2 0.162012 0.622050 0.424122
O O3 0.894682 0.519932 0.618903
O O4 0.097732 0.655351 0.598300
O O5 0.777360 0.613909 0.832429
O O6 0.385279 0.573932 0.907842
O O7 0.500000 0.500000 0.000000
O O8 0.296737 0.642674 0.075795
O O9 0.682216 0.043881 0.724016
O O10 0.855195 0.933509 0.764091
O O11 0.746370 0.100358 0.834582
O O12 0.892394 0.390521 0.712554
O O13 0.476780 0.432503 0.805684
O O14 0.978338 0.760090 0.756150
O O15 0.000000 0.000000 0.500000
#
# Coordination Sequence:
#
# PCOD9246295 Si02
#       7
#     4   4   4   4   4   4   4
#     4  10  21  41  68  88 126 173 212 262 327 386
#     4  12  21  44  70  91 131 171 218 270 327 384
#     4  11  23  40  63  94 128 166 218 265 322 390
#     4  10  21  40  67  92 125 173 213 267 326 379
#     4  12  25  41  65  98 130 172 213 270 329 386
#     4  12  25  42  66  97 131 172 216 269 329 390
#     4  11  19  37  68  93 121 171 215 265 322 378
#
# _framework density 19.583448000000001
#
# number of rings (size 3 to 8) (size 9 to 14) (size 15 to 20)
#    0.000    0.857    7.143    0.429    2.000    0.000 
#    2.571    0.000    0.000    0.000    0.000    0.000 
#    0.000    0.000    0.000    0.000    0.000    0.000 
#
# Total GULP energy -156072.369533 kJ/mol
# GULP energy per Si atom -5574.013198 kJ/mol
# Density = 1.953888 g / cm^3
# Si number density = 19.583448 Si / 1000 Ang^3
#
#
#
# Elastic Constant Matrix: (Units=GPa)
#
#
# Indices 1 2 3 4 5 6 
#
# 1 110.3678 25.4547 40.1670 0.0000 25.7702 0.0000
# 2 25.4547 52.8216 14.3971 0.0000 13.6252 0.0000
# 3 40.1670 14.3971 108.1387 0.0000 9.7700 0.0000
# 4 0.0000 0.0000 0.0000 23.4689 0.0000 3.0723
# 5 25.7702 13.6252 9.7700 0.0000 49.1773 0.0000
# 6 0.0000 0.0000 0.0000 3.0723 0.0000 7.8060
#
#
#
# Elastic Compliance Matrix: (Units=1/GPa)
#
#
# Indices 1 2 3 4 5 6 
#
# 1 0.012358 -0.003741 -0.003667 0.000000 -0.004711 0.000000
# 2 -0.003741 0.022070 -0.001195 0.000000 -0.003917 0.000000
# 3 -0.003667 -0.001195 0.010758 0.000000 0.000115 0.000000
# 4 0.000000 0.000000 0.000000 0.044924 0.000000 -0.017681
# 5 -0.004711 -0.003917 0.000115 0.000000 0.023866 0.000000
# 6 0.000000 0.000000 0.000000 -0.017681 0.000000 0.135066
#
#
# Mechanical properties :
#
#
# Convention : Reuss Voigt Hill
#
# Bulk Modulus (GPa) = 35.73758 47.92951 41.83355
# Shear Modulus (GPa) = 18.14396 28.84438 23.49417
#
# Velocity S-wave (km/s) = 3.04714 3.84200 3.46742
# Velocity P-wave (km/s) = 5.53792 6.64898 6.11872
#
# Compressibility (1/GPa) = 0.02798175
#
# Stress axis : x y z
#
# Youngs Moduli (GPa) = 80.92121 45.30952 92.95445
#
# Poissons Ratio (x) = 0.16949 0.34082
# Poissons Ratio (y) = 0.30270 0.11108
# Poissons Ratio (z) = 0.29670 0.05415
#
# Static dielectric constant tensor:
#      x y z
#    x 1.770690 0.000000 -0.030790 
#    y 0.000000 1.792570 0.000000 
#    z -0.030790 0.000000 1.807110 
# 
# From -- ./inp_files/55933.got.cif
#   From: 2010.05.17/outbox.cif.g08.bks.cpg/sg14_28_cif.got.tgz:55933.got - 2010.06.03 17:49:19.
