data_PCOD9246100
_publ_section_title
;
Structure prediction by ZEFSAII (Michael W. Deem and Ramdas Pophale) SiO2 
 PCOD9246100
Probable space group: P 21/C
;
_chemical_formula_sum "Si O2"
_cell_formula_units_Z 28
_cell_length_a 11.338048
_cell_length_b 8.276289
_cell_length_c 13.731199
_cell_angle_alpha 90.000000
_cell_angle_beta 72.338657
_cell_angle_gamma 90.000000
_cell_volume 1227.762628
_symmetry_space_group_name_H-M "P 21/C"
_symmetry_group_IT_number 14
_symmetry_cell_setting 'monoclinic'
loop_
_space_group_symop_operation_xyz
x,y,z
-x,1/2+y,1/2-z
-x,-y,-z
x,1/2-y,1/2+z
loop_
_atom_site_type_symbol
_atom_site_label
_atom_site_fract_x
_atom_site_fract_y
_atom_site_fract_z
Si Si1 0.760601 0.845489 0.198195
Si Si2 0.618551 0.884465 0.878336
Si Si3 0.844110 0.331265 0.013033
Si Si4 0.333962 0.949793 0.941496
Si Si5 0.875737 0.816239 0.488313
Si Si6 0.961122 0.706255 0.261350
Si Si7 0.187429 0.888671 0.255775
O O1 0.675465 0.760427 0.300382
O O2 0.705289 0.999817 0.158011
O O3 0.783427 0.736367 0.096426
O O4 0.893777 0.849590 0.216996
O O5 0.471659 0.879168 0.905416
O O6 0.683700 0.046811 0.819006
O O7 0.652782 0.903253 0.983711
O O8 0.768988 0.176951 0.995132
O O9 0.834350 0.505376 0.965149
O O10 0.795466 0.355216 0.135244
O O11 0.990871 0.310220 0.990559
O O12 0.905719 0.713990 0.384522
O O13 0.907821 0.541227 0.230179
O O14 0.106732 0.743156 0.229953
#
# Coordination Sequence:
#
# PCOD9246100 Si02
#       7
#     4   4   4   4   4   4   4
#     4  11  22  41  66  93 131 175 220 272 339 397
#     4  10  24  45  63  96 135 174 226 283 316 393
#     4  10  22  41  62  96 130 176 222 268 340 400
#     4  11  26  43  70  95 131 185 228 271 334 397
#     4  10  21  40  62  96 138 164 214 286 334 398
#     4  10  22  36  62  97 131 168 215 272 342 392
#     4  10  21  40  63  92 136 171 216 280 326 403
#
# _framework density 22.805710000000001
#
# number of rings (size 3 to 8) (size 9 to 14) (size 15 to 20)
#    0.000    1.714    2.857    1.714    8.000    0.571 
#    0.000    0.000    0.000    6.857    0.000    0.000 
#    0.000    0.000    0.000    0.000    0.000    0.000 
#
# Total GULP energy -156186.784749 kJ/mol
# GULP energy per Si atom -5578.099455 kJ/mol
# Density = 2.275380 g / cm^3
# Si number density = 22.805710 Si / 1000 Ang^3
#
#
#
# Elastic Constant Matrix: (Units=GPa)
#
#
# Indices 1 2 3 4 5 6 
#
# 1 59.6671 23.0071 11.6978 0.0000 -4.0593 0.0000
# 2 23.0071 63.3526 8.5518 0.0000 1.4717 0.0000
# 3 11.6978 8.5518 93.9189 0.0000 -0.1511 0.0000
# 4 0.0000 0.0000 0.0000 34.7570 0.0000 -1.3407
# 5 -4.0593 1.4717 -0.1511 0.0000 27.4286 0.0000
# 6 0.0000 0.0000 0.0000 -1.3407 0.0000 25.0163
#
#
#
# Elastic Compliance Matrix: (Units=1/GPa)
#
#
# Indices 1 2 3 4 5 6 
#
# 1 0.020098 -0.007127 -0.001849 0.000000 0.003347 0.000000
# 2 -0.007127 0.018529 -0.000803 0.000000 -0.002053 0.000000
# 3 -0.001849 -0.000803 0.010951 0.000000 -0.000170 0.000000
# 4 0.000000 0.000000 0.000000 0.028831 0.000000 0.001545
# 5 0.003347 -0.002053 -0.000170 0.000000 0.037063 0.000000
# 6 0.000000 0.000000 0.000000 0.001545 0.000000 0.040057
#
#
# Mechanical properties :
#
#
# Convention : Reuss Voigt Hill
#
# Bulk Modulus (GPa) = 33.31087 33.71688 33.51387
# Shear Modulus (GPa) = 27.01365 29.01919 28.01642
#
# Velocity S-wave (km/s) = 3.44541 3.57102 3.50877
# Velocity P-wave (km/s) = 5.51959 5.64087 5.58056
#
# Compressibility (1/GPa) = 0.03002023
#
# Stress axis : x y z
#
# Youngs Moduli (GPa) = 49.75650 53.96960 91.31932
#
# Poissons Ratio (x) = 0.38464 0.16884
# Poissons Ratio (y) = 0.35461 0.07331
# Poissons Ratio (z) = 0.09199 0.04333
#
# Static dielectric constant tensor:
#      x y z
#    x 1.855400 0.000000 0.005310 
#    y 0.000000 1.940140 0.000000 
#    z 0.005310 0.000000 1.861660 
# 
# From -- ./inp_files/44011.got.cif
#   From: 2010.05.17/outbox.cif.g08.bks.cpg/sg14_23_cif.got.tgz:44011.got - 2010.06.03 17:49:19.
