data_PCOD9246572
_publ_section_title
;
Structure prediction by ZEFSAII (Michael W. Deem and Ramdas Pophale) SiO2 
 PCOD9246572
Probable space group: P 21/C
;
_chemical_formula_sum "Si O2"
_cell_formula_units_Z 28
_cell_length_a 20.070499
_cell_length_b 5.201131
_cell_length_c 12.605337
_cell_angle_alpha 90.000000
_cell_angle_beta 55.814102
_cell_angle_gamma 90.000000
_cell_volume 1088.506103
_symmetry_space_group_name_H-M "P 21/C"
_symmetry_group_IT_number 14
_symmetry_cell_setting 'monoclinic'
loop_
_space_group_symop_operation_xyz
x,y,z
-x,1/2+y,1/2-z
-x,-y,-z
x,1/2-y,1/2+z
loop_
_atom_site_type_symbol
_atom_site_label
_atom_site_fract_x
_atom_site_fract_y
_atom_site_fract_z
Si Si1 0.837021 0.663109 0.804509
Si Si2 0.458248 0.654897 0.446122
Si Si3 0.607563 0.690849 0.686365
Si Si4 0.916875 0.331501 0.568495
Si Si5 0.311033 0.587371 0.032266
Si Si6 0.777290 0.503420 0.534584
Si Si7 0.010696 0.072281 0.314494
O O1 0.880325 0.413788 0.716389
O O2 0.899421 0.888347 0.717379
O O3 0.819725 0.748685 0.941438
O O4 0.743636 0.624075 0.859540
O O5 0.500000 0.500000 0.500000
O O6 0.422214 0.471522 0.387610
O O7 0.531884 0.811688 0.330516
O O8 0.378119 0.804640 0.550758
O O9 0.690623 0.580525 0.657172
O O10 0.636163 0.963197 0.610554
O O11 0.841995 0.414043 0.561170
O O12 0.000000 0.500000 0.500000
O O13 0.948801 0.093598 0.466749
O O14 0.249588 0.793434 0.032149
O O15 0.000627 0.821303 0.251561
#
# Coordination Sequence:
#
# PCOD9246572 Si02
#       7
#     4   4   4   4   4   4   4
#     4  10  22  40  62  96 135 179 233 280 349 413
#     4  11  23  41  67 100 129 176 226 277 352 415
#     4  10  22  41  64  95 135 172 224 279 340 420
#     4  10  22  42  66 102 130 179 232 285 347 418
#     4  10  22  41  65  93 137 179 217 286 345 414
#     4  10  21  41  66  91 137 177 223 286 345 408
#     4  11  22  42  70  97 138 185 230 288 357 412
#
# _framework density 25.723327000000001
#
# number of rings (size 3 to 8) (size 9 to 14) (size 15 to 20)
#    0.000    1.714    2.857    0.857    0.000    5.143 
#    2.571    2.143    0.000    0.000    0.000    0.000 
#    0.000    0.000    0.000    0.000    0.000    0.000 
#
# Total GULP energy -156011.627319 kJ/mol
# GULP energy per Si atom -5571.843833 kJ/mol
# Density = 2.566478 g / cm^3
# Si number density = 25.723327 Si / 1000 Ang^3
#
#
#
# Elastic Constant Matrix: (Units=GPa)
#
#
# Indices 1 2 3 4 5 6 
#
# 1 198.2568 41.1256 51.7640 0.0000 -33.1485 0.0000
# 2 41.1256 92.0484 27.0618 0.0000 0.3511 0.0000
# 3 51.7640 27.0618 97.7550 0.0000 -25.2183 0.0000
# 4 0.0000 0.0000 0.0000 19.2781 0.0000 -1.2111
# 5 -33.1485 0.3511 -25.2183 0.0000 40.7544 0.0000
# 6 0.0000 0.0000 0.0000 -1.2111 0.0000 48.4450
#
#
#
# Elastic Compliance Matrix: (Units=1/GPa)
#
#
# Indices 1 2 3 4 5 6 
#
# 1 0.006766 -0.002530 -0.001734 0.000000 0.004452 0.000000
# 2 -0.002530 0.012996 -0.003353 0.000000 -0.004245 0.000000
# 3 -0.001734 -0.003353 0.013946 0.000000 0.007248 0.000000
# 4 0.000000 0.000000 0.000000 0.051954 0.000000 0.001299
# 5 0.004452 -0.004245 0.007248 0.000000 0.032680 0.000000
# 6 0.000000 0.000000 0.000000 0.001299 0.000000 0.020674
#
#
# Mechanical properties :
#
#
# Convention : Reuss Voigt Hill
#
# Bulk Modulus (GPa) = 54.12998 69.77367 61.95183
# Shear Modulus (GPa) = 31.17045 39.56941 35.36993
#
# Velocity S-wave (km/s) = 3.48481 3.92633 3.71214
# Velocity P-wave (km/s) = 6.10579 6.90929 6.51993
#
# Compressibility (1/GPa) = 0.01847405
#
# Stress axis : x y z
#
# Youngs Moduli (GPa) = 147.80042 76.94531 71.70620
#
# Poissons Ratio (x) = 0.19468 0.12432
# Poissons Ratio (y) = 0.37396 0.24043
# Poissons Ratio (z) = 0.25625 0.25800
#
# Static dielectric constant tensor:
#      x y z
#    x 2.024780 0.000000 -0.037650 
#    y 0.000000 2.213690 0.000000 
#    z -0.037650 0.000000 1.867840 
# 
# From -- ./inp_files/49656.got.cif
#   From: 2010.05.17/outbox.cif.g08.bks.cpg/sg14_25_cif.got.tgz:49656.got - 2010.06.03 17:49:19.
