data_PCOD9246379
_publ_section_title
;
Structure prediction by ZEFSAII (Michael W. Deem and Ramdas Pophale) SiO2 
 PCOD9246379
Probable space group: P 21/C
;
_chemical_formula_sum "Si O2"
_cell_formula_units_Z 26
_cell_length_a 12.755893
_cell_length_b 14.362416
_cell_length_c 9.000606
_cell_angle_alpha 90.000000
_cell_angle_beta 37.207742
_cell_angle_gamma 90.000000
_cell_volume 997.137223
_symmetry_space_group_name_H-M "P 21/C"
_symmetry_group_IT_number 14
_symmetry_cell_setting 'monoclinic'
loop_
_space_group_symop_operation_xyz
x,y,z
-x,1/2+y,1/2-z
-x,-y,-z
x,1/2-y,1/2+z
loop_
_atom_site_type_symbol
_atom_site_label
_atom_site_fract_x
_atom_site_fract_y
_atom_site_fract_z
Si Si1 0.500000 0.000000 0.000000
Si Si2 0.761590 0.420142 0.339337
Si Si3 0.152803 0.207559 0.022800
Si Si4 0.075547 0.965405 0.633865
Si Si5 0.509433 0.684590 0.661134
Si Si6 0.708827 0.207786 0.320235
Si Si7 0.066756 0.132446 0.811187
O O1 0.571836 0.044039 0.087621
O O2 0.448900 0.105536 0.003185
O O3 0.916331 0.474325 0.242537
O O4 0.775501 0.310318 0.300212
O O5 0.764392 0.462264 0.163047
O O6 0.101975 0.312183 0.119559
O O7 0.005957 0.135979 0.249746
O O8 0.326003 0.196282 0.920203
O O9 0.164193 0.181717 0.837852
O O10 0.116419 0.025789 0.731710
O O11 0.430509 0.768605 0.650748
O O12 0.362972 0.661486 0.949668
O O13 0.865290 0.150233 0.074456
#
# Coordination Sequence:
#
# PCOD9246379 Si02
#       7
#     2   4   4   4   4   4   4
#     4  10  22  40  68  98 136 186 226 284 360 430
#     4  10  21  40  71  99 135 186 231 286 359 422
#     4  12  25  46  68 108 140 186 240 306 350 433
#     4  11  23  42  69 104 141 180 237 298 350 434
#     4  11  24  44  72 102 143 183 243 291 366 415
#     4  11  23  44  72 103 138 192 235 294 349 441
#     4  12  26  43  74 103 143 187 245 293 367 418
#
# _framework density 26.074649000000001
#
# number of rings (size 3 to 8) (size 9 to 14) (size 15 to 20)
#    0.000    0.923    3.077    4.154    4.308    2.462 
#    0.000    2.308    0.000    0.000    0.000    0.000 
#    0.000    0.000    0.000    0.000    0.000    0.000 
#
# Total GULP energy -145150.893225 kJ/mol
# GULP energy per Si atom -5582.726663 kJ/mol
# Density = 2.601530 g / cm^3
# Si number density = 26.074649 Si / 1000 Ang^3
#
#
#
# Elastic Constant Matrix: (Units=GPa)
#
#
# Indices 1 2 3 4 5 6 
#
# 1 151.2554 -0.6354 6.8928 0.0000 -0.8525 0.0000
# 2 -0.6354 90.8924 10.7554 0.0000 -0.4861 0.0000
# 3 6.8928 10.7554 66.8642 0.0000 7.0391 0.0000
# 4 0.0000 0.0000 0.0000 43.0441 0.0000 2.2454
# 5 -0.8525 -0.4861 7.0391 0.0000 35.6611 0.0000
# 6 0.0000 0.0000 0.0000 2.2454 0.0000 36.2732
#
#
#
# Elastic Compliance Matrix: (Units=1/GPa)
#
#
# Indices 1 2 3 4 5 6 
#
# 1 0.006647 0.000136 -0.000739 0.000000 0.000307 0.000000
# 2 0.000136 0.011228 -0.001875 0.000000 0.000526 0.000000
# 3 -0.000739 -0.001875 0.015664 0.000000 -0.003135 0.000000
# 4 0.000000 0.000000 0.000000 0.023307 0.000000 -0.001443
# 5 0.000307 0.000526 -0.003135 0.000000 0.028675 0.000000
# 6 0.000000 0.000000 0.000000 -0.001443 0.000000 0.027658
#
#
# Mechanical properties :
#
#
# Convention : Reuss Voigt Hill
#
# Bulk Modulus (GPa) = 34.98915 38.11529 36.55222
# Shear Modulus (GPa) = 39.16531 42.46229 40.81380
#
# Velocity S-wave (km/s) = 3.87983 4.03983 3.96064
# Velocity P-wave (km/s) = 5.78954 6.03406 5.91306
#
# Compressibility (1/GPa) = 0.02858029
#
# Stress axis : x y z
#
# Youngs Moduli (GPa) = 150.43642 89.06540 63.84225
#
# Poissons Ratio (x) = -0.01208 0.04720
# Poissons Ratio (y) = -0.02040 0.11973
# Poissons Ratio (z) = 0.11122 0.16704
#
# Static dielectric constant tensor:
#      x y z
#    x 1.854110 0.000000 0.428610 
#    y 0.000000 1.803100 0.000000 
#    z 0.428610 0.000000 1.540440 
# 
# From -- ./inp_files/16165.got.cif
#   From: 2010.05.17/outbox.cif.g08.bks.cpg/sg14_9_cif.got.tgz:16165.got - 2010.06.03 17:49:19.
