data_PCOD9246246
_publ_section_title
;
Structure prediction by ZEFSAII (Michael W. Deem and Ramdas Pophale) SiO2 
 PCOD9246246
Probable space group: P 21/C
;
_chemical_formula_sum "Si O2"
_cell_formula_units_Z 32
_cell_length_a 10.481511
_cell_length_b 5.142627
_cell_length_c 26.260817
_cell_angle_alpha 90.000000
_cell_angle_beta 63.950962
_cell_angle_gamma 90.000000
_cell_volume 1271.732741
_symmetry_space_group_name_H-M "P 21/C"
_symmetry_group_IT_number 14
_symmetry_cell_setting 'monoclinic'
loop_
_space_group_symop_operation_xyz
x,y,z
-x,1/2+y,1/2-z
-x,-y,-z
x,1/2-y,1/2+z
loop_
_atom_site_type_symbol
_atom_site_label
_atom_site_fract_x
_atom_site_fract_y
_atom_site_fract_z
Si Si1 0.588026 0.704996 0.694165
Si Si2 0.688276 0.425611 0.578809
Si Si3 0.772398 0.790167 0.478452
Si Si4 0.071198 0.790226 0.086549
Si Si5 0.752362 0.282539 0.345677
Si Si6 0.265043 0.840380 0.764801
Si Si7 0.408766 0.285844 0.087456
Si Si8 0.186515 0.935216 0.375098
O O1 0.612433 0.500163 0.644974
O O2 0.423756 0.715324 0.736008
O O3 0.688549 0.627293 0.724214
O O4 0.652694 0.961147 0.658041
O O5 0.731592 0.681825 0.540471
O O6 0.573491 0.272610 0.565472
O O7 0.817888 0.247798 0.575092
O O8 0.834376 0.076439 0.460145
O O9 0.640909 0.766354 0.462339
O O10 0.887486 0.577503 0.438353
O O11 0.118356 0.766585 0.137192
O O12 0.914121 0.684152 0.105775
O O13 0.793094 0.209131 0.281071
O O14 0.679906 0.563736 0.366466
O O15 0.637861 0.065760 0.383385
O O16 0.165684 0.722821 0.826171
#
# Coordination Sequence:
#
# PCOD9246246 Si02
#       8
#     4   4   4   4   4   4   4   4
#     4  11  23  39  62  96 130 160 217 268 329 393
#     4  11  24  39  67 100 128 171 217 269 338 389
#     4  10  24  44  70  93 132 176 215 273 323 383
#     4  10  25  48  63  94 134 171 225 266 314 393
#     4  10  22  41  67  92 129 173 210 266 322 389
#     4  11  22  39  64  93 126 171 209 272 335 382
#     4  10  21  40  66 100 130 162 216 270 326 387
#     4  11  26  42  63  94 132 174 220 273 322 400
#
# _framework density 25.162519
#
# number of rings (size 3 to 8) (size 9 to 14) (size 15 to 20)
#    0.000    1.500    2.500    1.125    8.750    1.000 
#    2.250    3.750    0.000    0.000    0.000    0.000 
#    0.000    0.000    0.000    0.000    0.000    0.000 
#
# Total GULP energy -179228.893700 kJ/mol
# GULP energy per Si atom -5600.902928 kJ/mol
# Density = 2.510525 g / cm^3
# Si number density = 25.162519 Si / 1000 Ang^3
#
#
#
# Elastic Constant Matrix: (Units=GPa)
#
#
# Indices 1 2 3 4 5 6 
#
# 1 91.9587 1.9606 34.3891 0.0000 10.3596 0.0000
# 2 1.9606 67.2183 11.6750 0.0000 3.3789 0.0000
# 3 34.3891 11.6750 121.6507 0.0000 29.0240 0.0000
# 4 0.0000 0.0000 0.0000 36.1727 0.0000 -5.3486
# 5 10.3596 3.3789 29.0240 0.0000 24.8233 0.0000
# 6 0.0000 0.0000 0.0000 -5.3486 0.0000 31.5955
#
#
#
# Elastic Compliance Matrix: (Units=1/GPa)
#
#
# Indices 1 2 3 4 5 6 
#
# 1 0.012203 0.000261 -0.003122 0.000000 -0.001478 0.000000
# 2 0.000261 0.015139 -0.001399 0.000000 -0.000533 0.000000
# 3 -0.003122 -0.001399 0.012317 0.000000 -0.012907 0.000000
# 4 0.000000 0.000000 0.000000 0.028355 0.000000 0.004800
# 5 -0.001478 -0.000533 -0.012907 0.000000 0.056066 0.000000
# 6 0.000000 0.000000 0.000000 0.004800 0.000000 0.032463
#
#
# Mechanical properties :
#
#
# Convention : Reuss Voigt Hill
#
# Bulk Modulus (GPa) = 32.11599 41.87524 36.99561
# Shear Modulus (GPa) = 28.49936 34.03851 31.26894
#
# Velocity S-wave (km/s) = 3.36908 3.68196 3.52899
# Velocity P-wave (km/s) = 5.28445 5.89524 5.59818
#
# Compressibility (1/GPa) = 0.03113714
#
# Stress axis : x y z
#
# Youngs Moduli (GPa) = 81.94777 66.05384 81.19103
#
# Poissons Ratio (x) = -0.01721 0.25348
# Poissons Ratio (y) = -0.02136 0.11362
# Poissons Ratio (z) = 0.25584 0.09243
#
# Static dielectric constant tensor:
#      x y z
#    x 1.970010 0.000000 0.003380 
#    y 0.000000 2.056930 0.000000 
#    z 0.003380 0.000000 1.973920 
# 
# From -- ./inp_files/72748.got.cif
#   From: 2010.05.17/outbox.cif.g08.bks.cpg/sg14_37_cif.got.tgz:72748.got - 2010.06.03 17:49:19.
