data_PCOD9246928
_publ_section_title
;
Structure prediction by ZEFSAII (Michael W. Deem and Ramdas Pophale) SiO2 
 PCOD9246928
Probable space group: P 21/C
;
_chemical_formula_sum "Si O2"
_cell_formula_units_Z 20
_cell_length_a 11.958712
_cell_length_b 5.118688
_cell_length_c 13.155734
_cell_angle_alpha 90.000000
_cell_angle_beta 67.012150
_cell_angle_gamma 90.000000
_cell_volume 741.350036
_symmetry_space_group_name_H-M "P 21/C"
_symmetry_group_IT_number 14
_symmetry_cell_setting 'monoclinic'
loop_
_space_group_symop_operation_xyz
x,y,z
-x,1/2+y,1/2-z
-x,-y,-z
x,1/2-y,1/2+z
loop_
_atom_site_type_symbol
_atom_site_label
_atom_site_fract_x
_atom_site_fract_y
_atom_site_fract_z
Si Si1 0.664848 0.061440 0.005476
Si Si2 0.279054 0.308949 0.195182
Si Si3 0.543275 0.211080 0.359115
Si Si4 0.066658 0.833553 0.764849
Si Si5 0.769728 0.401501 0.141909
O O1 0.740557 0.261841 0.046887
O O2 0.586749 0.851488 0.100296
O O3 0.577307 0.229143 0.963960
O O4 0.729632 0.884224 0.896996
O O5 0.415273 0.410717 0.168537
O O6 0.198258 0.553544 0.188167
O O7 0.219143 0.197987 0.320125
O O8 0.641819 0.345078 0.249097
O O9 0.104405 0.724086 0.861807
O O10 0.017225 0.587034 0.719664
#
# Coordination Sequence:
#
# PCOD9246928 Si02
#       5
#     4   4   4   4   4
#     4  10  21  43  66 103 142 182 229 285 347 426
#     4  10  21  42  71 101 139 183 233 293 346 421
#     4   9  21  41  66  98 145 183 221 284 350 414
#     4  11  22  44  74  97 138 188 234 300 364 407
#     4  10  22  42  69 102 138 184 239 281 345 428
#
# _framework density 26.977810000000002
#
# number of rings (size 3 to 8) (size 9 to 14) (size 15 to 20)
#    0.000    2.000    2.000    0.600    0.000    3.200 
#   25.200    2.000    0.000    0.000    0.000    0.000 
#    0.000    0.000    0.000    0.000    0.000    0.000 
#
# Total GULP energy -111486.197380 kJ/mol
# GULP energy per Si atom -5574.309869 kJ/mol
# Density = 2.691641 g / cm^3
# Si number density = 26.977810 Si / 1000 Ang^3
#
#
#
# Elastic Constant Matrix: (Units=GPa)
#
#
# Indices 1 2 3 4 5 6 
#
# 1 105.3043 44.5591 30.6235 0.0000 38.8131 0.0000
# 2 44.5591 166.5656 39.3540 0.0000 19.0493 0.0000
# 3 30.6235 39.3540 85.4643 0.0000 43.8822 0.0000
# 4 0.0000 0.0000 0.0000 25.0000 0.0000 -11.4760
# 5 38.8131 19.0493 43.8822 0.0000 44.8182 0.0000
# 6 0.0000 0.0000 0.0000 -11.4760 0.0000 55.3650
#
#
#
# Elastic Compliance Matrix: (Units=1/GPa)
#
#
# Indices 1 2 3 4 5 6 
#
# 1 0.015709 -0.003351 0.004360 0.000000 -0.016449 0.000000
# 2 -0.003351 0.007454 -0.004213 0.000000 0.003859 0.000000
# 3 0.004360 -0.004213 0.026340 0.000000 -0.027775 0.000000
# 4 0.000000 0.000000 0.000000 0.044206 0.000000 0.009163
# 5 -0.016449 0.003859 -0.027775 0.000000 0.062112 0.000000
# 6 0.000000 0.000000 0.000000 0.009163 0.000000 0.019961
#
#
# Mechanical properties :
#
#
# Convention : Reuss Voigt Hill
#
# Bulk Modulus (GPa) = 23.20496 65.15638 44.18067
# Shear Modulus (GPa) = 25.43806 41.22315 33.33060
#
# Velocity S-wave (km/s) = 3.07404 3.91325 3.51876
# Velocity P-wave (km/s) = 4.60650 6.68000 5.73769
#
# Compressibility (1/GPa) = 0.04309424
#
# Stress axis : x y z
#
# Youngs Moduli (GPa) = 63.65685 134.15116 37.96566
#
# Poissons Ratio (x) = 0.44960 -0.16554
# Poissons Ratio (y) = 0.21334 0.15995
# Poissons Ratio (z) = -0.27755 0.56520
#
# Static dielectric constant tensor:
#      x y z
#    x 2.204090 0.000000 -0.003520 
#    y 0.000000 2.452560 0.000000 
#    z -0.003520 0.000000 2.155780 
# 
# From -- ./inp_files/42472.got.cif
#   From: 2010.05.17/outbox.cif.g08.bks.cpg/sg14_22_cif.got.tgz:42472.got - 2010.06.03 17:49:19.
