data_PCOD9246833
_publ_section_title
;
Structure prediction by ZEFSAII (Michael W. Deem and Ramdas Pophale) SiO2 
 PCOD9246833
Probable space group: P 21/C
;
_chemical_formula_sum "Si O2"
_cell_formula_units_Z 30
_cell_length_a 18.037496
_cell_length_b 5.410807
_cell_length_c 14.029248
_cell_angle_alpha 90.000000
_cell_angle_beta 64.596648
_cell_angle_gamma 90.000000
_cell_volume 1236.828820
_symmetry_space_group_name_H-M "P 21/C"
_symmetry_group_IT_number 14
_symmetry_cell_setting 'monoclinic'
loop_
_space_group_symop_operation_xyz
x,y,z
-x,1/2+y,1/2-z
-x,-y,-z
x,1/2-y,1/2+z
loop_
_atom_site_type_symbol
_atom_site_label
_atom_site_fract_x
_atom_site_fract_y
_atom_site_fract_z
Si Si1 0.479801 0.725217 0.817886
Si Si2 0.355049 0.841543 0.141741
Si Si3 0.802352 0.037547 0.243581
Si Si4 0.500000 0.000000 0.000000
Si Si5 0.837140 0.222352 0.520440
Si Si6 0.321242 0.540914 0.460139
Si Si7 0.722906 0.849421 0.658649
Si Si8 0.046691 0.884140 0.701322
O O1 0.503946 0.461465 0.761331
O O2 0.382271 0.737527 0.899407
O O3 0.519364 0.821178 0.895021
O O4 0.281546 0.649794 0.167086
O O5 0.448764 0.773282 0.081368
O O6 0.329759 0.954650 0.255305
O O7 0.352313 0.025058 0.049194
O O8 0.872861 0.044200 0.282188
O O9 0.775166 0.779183 0.213995
O O10 0.834461 0.182685 0.130922
O O11 0.774679 0.393253 0.494176
O O12 0.922905 0.190272 0.421256
O O13 0.789278 0.964649 0.551406
O O14 0.330374 0.339641 0.372567
O O15 0.007822 0.632610 0.765908
#
# Coordination Sequence:
#
# PCOD9246833 Si02
#       8
#     4   4   4   2   4   4   4   4
#     4  11  26  44  67 100 150 188 242 301 361 417
#     4  10  21  42  66  98 142 185 240 294 348 422
#     4  10  24  44  70 102 137 187 235 287 356 427
#     4  10  24  44  64 108 146 192 248 300 360 416
#     4  10  24  44  71 100 138 179 238 281 357 431
#     4  10  22  40  68  99 133 192 235 289 350 426
#     4  10  23  39  72  96 136 186 234 291 348 430
#     4  12  30  48  76 108 146 180 229 296 360 434
#
# _framework density 24.255578
#
# number of rings (size 3 to 8) (size 9 to 14) (size 15 to 20)
#    0.000    1.600    1.333    0.800   16.800    1.600 
#    7.200    0.000    0.000    0.000    0.000    0.000 
#    0.000    0.000    0.000    0.000    0.000    0.000 
#
# Total GULP energy -167011.974171 kJ/mol
# GULP energy per Si atom -5567.065806 kJ/mol
# Density = 2.420037 g / cm^3
# Si number density = 24.255578 Si / 1000 Ang^3
#
#
#
# Elastic Constant Matrix: (Units=GPa)
#
#
# Indices 1 2 3 4 5 6 
#
# 1 41.0273 14.5525 27.1983 0.0000 10.9952 0.0000
# 2 14.5525 55.3992 22.9373 0.0000 3.7034 0.0000
# 3 27.1983 22.9373 126.5364 0.0000 -3.4950 0.0000
# 4 0.0000 0.0000 0.0000 21.2058 0.0000 0.5844
# 5 10.9952 3.7034 -3.4950 0.0000 47.6657 0.0000
# 6 0.0000 0.0000 0.0000 0.5844 0.0000 23.9087
#
#
#
# Elastic Compliance Matrix: (Units=1/GPa)
#
#
# Indices 1 2 3 4 5 6 
#
# 1 0.032423 -0.005453 -0.006188 0.000000 -0.007509 0.000000
# 2 -0.005453 0.020584 -0.002574 0.000000 -0.000530 0.000000
# 3 -0.006188 -0.002574 0.009764 0.000000 0.002343 0.000000
# 4 0.000000 0.000000 0.000000 0.047189 0.000000 -0.001153
# 5 -0.007509 -0.000530 0.002343 0.000000 0.022925 0.000000
# 6 0.000000 0.000000 0.000000 -0.001153 0.000000 0.041854
#
#
# Mechanical properties :
#
#
# Convention : Reuss Voigt Hill
#
# Bulk Modulus (GPa) = 29.11911 39.14880 34.13395
# Shear Modulus (GPa) = 23.29744 29.10768 26.20256
#
# Velocity S-wave (km/s) = 3.10255 3.46792 3.29031
# Velocity P-wave (km/s) = 4.98654 5.67542 5.34210
#
# Compressibility (1/GPa) = 0.03434171
#
# Stress axis : x y z
#
# Youngs Moduli (GPa) = 30.84240 48.58061 102.41436
#
# Poissons Ratio (x) = 0.26491 0.63375
# Poissons Ratio (y) = 0.16818 0.26361
# Poissons Ratio (z) = 0.19086 0.12504
#
# Static dielectric constant tensor:
#      x y z
#    x 1.440640 0.000000 0.167140 
#    y 0.000000 2.014370 0.000000 
#    z 0.167140 0.000000 1.902790 
# 
# From -- ./inp_files/48114.got.cif
#   From: 2010.05.17/outbox.cif.g08.bks.cpg/sg14_25_cif.got.tgz:48114.got - 2010.06.03 17:49:19.
