data_PCOD9246855
_publ_section_title
;
Structure prediction by ZEFSAII (Michael W. Deem and Ramdas Pophale) SiO2 
 PCOD9246855
Probable space group: P 21/C
;
_chemical_formula_sum "Si O2"
_cell_formula_units_Z 28
_cell_length_a 5.107168
_cell_length_b 16.563160
_cell_length_c 16.026149
_cell_angle_alpha 90.000000
_cell_angle_beta 103.608905
_cell_angle_gamma 90.000000
_cell_volume 1317.604355
_symmetry_space_group_name_H-M "P 21/C"
_symmetry_group_IT_number 14
_symmetry_cell_setting 'monoclinic'
loop_
_space_group_symop_operation_xyz
x,y,z
-x,1/2+y,1/2-z
-x,-y,-z
x,1/2-y,1/2+z
loop_
_atom_site_type_symbol
_atom_site_label
_atom_site_fract_x
_atom_site_fract_y
_atom_site_fract_z
Si Si1 0.672863 0.428917 0.974825
Si Si2 0.112913 0.590838 0.612000
Si Si3 0.248703 0.942465 0.951719
Si Si4 0.925713 0.549456 0.858746
Si Si5 0.818789 0.093078 0.238424
Si Si6 0.663777 0.647256 0.708115
Si Si7 0.622634 0.668271 0.179720
O O1 0.831655 0.477553 0.914073
O O2 0.485242 0.361603 0.918584
O O3 0.500000 0.500000 0.000000
O O4 0.853893 0.406039 0.067538
O O5 0.168034 0.618389 0.520163
O O6 0.408147 0.590544 0.672397
O O7 0.997759 0.502385 0.586751
O O8 0.897884 0.635027 0.655553
O O9 0.279515 0.902342 0.864139
O O10 0.500000 0.000000 0.000000
O O11 0.949681 0.493766 0.776555
O O12 0.754147 0.622079 0.807327
O O13 0.553461 0.114009 0.271025
O O14 0.061765 0.153141 0.280784
O O15 0.564956 0.738504 0.691965
#
# Coordination Sequence:
#
# PCOD9246855 Si02
#       7
#     4   4   4   4   4   4   4
#     4  10  21  42  67  95 125 173 229 281 323 397
#     4  11  24  40  69  94 136 177 215 274 336 415
#     4  11  23  41  68 107 128 169 232 277 330 403
#     4  10  22  39  70  95 124 174 230 274 332 398
#     4  11  23  42  70  92 131 178 224 279 321 402
#     4  12  25  45  65 100 138 182 217 279 354 406
#     4  11  26  44  65  98 139 173 225 282 340 396
#
# _framework density 21.250689999999999
#
# number of rings (size 3 to 8) (size 9 to 14) (size 15 to 20)
#    0.000    1.143    4.286    0.857   10.000    0.000 
#    2.571    0.000    0.000    0.000    0.000    0.000 
#    0.000    0.000    0.000    0.000    0.000    0.000 
#
# Total GULP energy -155888.131689 kJ/mol
# GULP energy per Si atom -5567.433275 kJ/mol
# Density = 2.120232 g / cm^3
# Si number density = 21.250690 Si / 1000 Ang^3
#
#
#
# Elastic Constant Matrix: (Units=GPa)
#
#
# Indices 1 2 3 4 5 6 
#
# 1 65.5302 -8.2861 27.4663 0.0000 17.0250 0.0000
# 2 -8.2861 48.3104 28.3860 0.0000 16.2277 0.0000
# 3 27.4663 28.3860 159.0740 0.0000 31.8569 0.0000
# 4 0.0000 0.0000 0.0000 23.2493 0.0000 2.1042
# 5 17.0250 16.2277 31.8569 0.0000 32.6902 0.0000
# 6 0.0000 0.0000 0.0000 2.1042 0.0000 20.6534
#
#
#
# Elastic Compliance Matrix: (Units=1/GPa)
#
#
# Indices 1 2 3 4 5 6 
#
# 1 0.021002 0.009583 -0.002725 0.000000 -0.013039 0.000000
# 2 0.009583 0.030001 -0.003760 0.000000 -0.016219 0.000000
# 3 -0.002725 -0.003760 0.008411 0.000000 -0.004911 0.000000
# 4 0.000000 0.000000 0.000000 0.043412 0.000000 -0.004423
# 5 -0.013039 -0.016219 -0.004911 0.000000 0.050219 0.000000
# 6 0.000000 0.000000 0.000000 -0.004423 0.000000 0.048869
#
#
# Mechanical properties :
#
#
# Convention : Reuss Voigt Hill
#
# Bulk Modulus (GPa) = 15.24149 40.89409 28.06779
# Shear Modulus (GPa) = 22.97931 30.34181 26.66056
#
# Velocity S-wave (km/s) = 3.29195 3.78273 3.54584
# Velocity P-wave (km/s) = 4.65156 6.19388 5.47728
#
# Compressibility (1/GPa) = 0.06561040
#
# Stress axis : x y z
#
# Youngs Moduli (GPa) = 47.61511 33.33262 118.88619
#
# Poissons Ratio (x) = -0.31944 0.32397
# Poissons Ratio (y) = -0.45631 0.44701
# Poissons Ratio (z) = 0.12975 0.12533
#
# Static dielectric constant tensor:
#      x y z
#    x 1.759970 0.000000 -0.067950 
#    y 0.000000 1.780400 0.000000 
#    z -0.067950 0.000000 1.752230 
# 
# From -- ./inp_files/37919.got.cif
#   From: 2010.05.17/outbox.cif.g08.bks.cpg/sg14_19_cif.got.tgz:37919.got - 2010.06.03 17:49:19.
