data_PCOD9246415
_publ_section_title
;
Structure prediction by ZEFSAII (Michael W. Deem and Ramdas Pophale) SiO2 
 PCOD9246415
Probable space group: P 21/C
;
_chemical_formula_sum "Si O2"
_cell_formula_units_Z 16
_cell_length_a 7.586381
_cell_length_b 18.830967
_cell_length_c 4.973070
_cell_angle_alpha 90.000000
_cell_angle_beta 68.071291
_cell_angle_gamma 90.000000
_cell_volume 659.045866
_symmetry_space_group_name_H-M "P 21/C"
_symmetry_group_IT_number 14
_symmetry_cell_setting 'monoclinic'
loop_
_space_group_symop_operation_xyz
x,y,z
-x,1/2+y,1/2-z
-x,-y,-z
x,1/2-y,1/2+z
loop_
_atom_site_type_symbol
_atom_site_label
_atom_site_fract_x
_atom_site_fract_y
_atom_site_fract_z
Si Si1 0.046582 0.107928 0.998629
Si Si2 0.753091 0.007289 0.422882
Si Si3 0.659132 0.702316 0.393271
Si Si4 0.661237 0.089504 0.987217
O O1 0.145018 0.166308 0.124851
O O2 0.861764 0.129484 0.930086
O O3 0.198627 0.070546 0.714092
O O4 0.953932 0.048674 0.247781
O O5 0.697452 0.027168 0.753448
O O6 0.616942 0.050580 0.294319
O O7 0.640571 0.731021 0.103100
O O8 0.496378 0.643414 0.520696
#
# Coordination Sequence:
#
# PCOD9246415 Si02
#       4
#     4   4   4   4
#     4   9  23  40  67  91 123 150 205 254 307 354
#     4   9  20  40  68  95 115 151 199 258 323 346
#     4  12  28  41  58  89 124 170 210 233 290 372
#     4  10  21  41  61  90 123 153 196 255 302 357
#
# _framework density 24.277518000000001
#
# number of rings (size 3 to 8) (size 9 to 14) (size 15 to 20)
#    1.500    0.500    0.000    2.250    3.500    4.000 
#    0.000    0.000    0.000    0.000    0.000    0.000 
#    0.000    0.000    0.000    0.000    0.000    0.000 
#
# Total GULP energy -89471.144885 kJ/mol
# GULP energy per Si atom -5591.946555 kJ/mol
# Density = 2.422226 g / cm^3
# Si number density = 24.277518 Si / 1000 Ang^3
#
#
#
# Elastic Constant Matrix: (Units=GPa)
#
#
# Indices 1 2 3 4 5 6 
#
# 1 140.3855 28.4240 2.0874 0.0000 22.0508 0.0000
# 2 28.4240 61.7172 7.9750 0.0000 3.3424 0.0000
# 3 2.0874 7.9750 91.1581 0.0000 7.4310 0.0000
# 4 0.0000 0.0000 0.0000 37.5978 0.0000 20.1496
# 5 22.0508 3.3424 7.4310 0.0000 27.2038 0.0000
# 6 0.0000 0.0000 0.0000 20.1496 0.0000 50.4160
#
#
#
# Elastic Compliance Matrix: (Units=1/GPa)
#
#
# Indices 1 2 3 4 5 6 
#
# 1 0.008994 -0.003853 0.000703 0.000000 -0.007009 0.000000
# 2 -0.003853 0.018113 -0.001605 0.000000 0.001337 0.000000
# 3 0.000703 -0.001605 0.011378 0.000000 -0.003480 0.000000
# 4 0.000000 0.000000 0.000000 0.033847 0.000000 -0.013528
# 5 -0.007009 0.001337 -0.003480 0.000000 0.043227 0.000000
# 6 0.000000 0.000000 0.000000 -0.013528 0.000000 0.025241
#
#
# Mechanical properties :
#
#
# Convention : Reuss Voigt Hill
#
# Bulk Modulus (GPa) = 34.51587 41.13708 37.82648
# Shear Modulus (GPa) = 31.25589 40.02848 35.64218
#
# Velocity S-wave (km/s) = 3.59199 4.06493 3.83576
# Velocity P-wave (km/s) = 5.60814 6.24603 5.93566
#
# Compressibility (1/GPa) = 0.02897218
#
# Stress axis : x y z
#
# Youngs Moduli (GPa) = 111.18683 55.21001 87.88888
#
# Poissons Ratio (x) = 0.21274 -0.06174
# Poissons Ratio (y) = 0.42844 0.14109
# Poissons Ratio (z) = -0.07811 0.08863
#
# Static dielectric constant tensor:
#      x y z
#    x 2.040720 0.000000 -0.038690 
#    y 0.000000 1.918810 0.000000 
#    z -0.038690 0.000000 1.949550 
# 
# From -- ./inp_files/880.got.cif
#   From: 2010.05.17/outbox.cif.g08.bks.cpg/sg14_1_cif.got.tgz:880.got - 2010.06.03 17:49:19.
