data_PCOD9246575
_publ_section_title
;
Structure prediction by ZEFSAII (Michael W. Deem and Ramdas Pophale) SiO2 
 PCOD9246575
Probable space group: P 21/C
;
_chemical_formula_sum "Si O2"
_cell_formula_units_Z 24
_cell_length_a 9.048888
_cell_length_b 8.117715
_cell_length_c 13.425168
_cell_angle_alpha 90.000000
_cell_angle_beta 98.897859
_cell_angle_gamma 90.000000
_cell_volume 974.295250
_symmetry_space_group_name_H-M "P 21/C"
_symmetry_group_IT_number 14
_symmetry_cell_setting 'monoclinic'
loop_
_space_group_symop_operation_xyz
x,y,z
-x,1/2+y,1/2-z
-x,-y,-z
x,1/2-y,1/2+z
loop_
_atom_site_type_symbol
_atom_site_label
_atom_site_fract_x
_atom_site_fract_y
_atom_site_fract_z
Si Si1 0.917694 0.727899 0.501932
Si Si2 0.650394 0.079812 0.257952
Si Si3 0.177311 0.905604 0.913564
Si Si4 0.325406 0.308423 0.693168
Si Si5 0.283076 0.070298 0.400387
Si Si6 0.413688 0.730042 0.034448
O O1 0.906733 0.578019 0.579403
O O2 0.792801 0.688620 0.406531
O O3 0.866119 0.888281 0.555548
O O4 0.072047 0.724539 0.459089
O O5 0.783353 0.125247 0.196870
O O6 0.491418 0.123878 0.191041
O O7 0.646627 0.172269 0.363577
O O8 0.657118 0.884446 0.277069
O O9 0.333563 0.894490 0.990177
O O10 0.266045 0.413692 0.780972
O O11 0.408051 0.211369 0.439424
O O12 0.359804 0.904806 0.447125
#
# Coordination Sequence:
#
# PCOD9246575 Si02
#       6
#     4   4   4   4   4   4
#     4  11  24  44  62  92 130 171 210 256 314 379
#     4  11  24  43  65  99 123 164 212 265 320 368
#     4  11  26  42  64  92 131 173 211 253 316 384
#     4  11  24  41  68  96 128 162 212 269 310 373
#     4  10  21  41  66  94 123 163 210 266 315 363
#     4  10  23  41  66  95 125 160 218 264 311 375
#
# _framework density 24.633191
#
# number of rings (size 3 to 8) (size 9 to 14) (size 15 to 20)
#    0.000    1.333    3.333    1.000    9.333    3.333 
#    3.000    0.000    0.000    0.000    0.000    0.000 
#    0.000    0.000    0.000    0.000    0.000    0.000 
#
# Total GULP energy -134364.437078 kJ/mol
# GULP energy per Si atom -5598.518212 kJ/mol
# Density = 2.457712 g / cm^3
# Si number density = 24.633191 Si / 1000 Ang^3
#
#
#
# Elastic Constant Matrix: (Units=GPa)
#
#
# Indices 1 2 3 4 5 6 
#
# 1 74.0781 10.9452 38.9700 0.0000 -42.6408 0.0000
# 2 10.9452 52.7823 -1.1517 0.0000 -6.6975 0.0000
# 3 38.9700 -1.1517 108.3665 0.0000 -34.2856 0.0000
# 4 0.0000 0.0000 0.0000 19.2391 0.0000 0.4162
# 5 -42.6408 -6.6975 -34.2856 0.0000 37.4309 0.0000
# 6 0.0000 0.0000 0.0000 0.4162 0.0000 28.4020
#
#
#
# Elastic Compliance Matrix: (Units=1/GPa)
#
#
# Indices 1 2 3 4 5 6 
#
# 1 0.039546 -0.002570 -0.000198 0.000000 0.044408 0.000000
# 2 -0.002570 0.019816 0.001873 0.000000 0.002334 0.000000
# 3 -0.000198 0.001873 0.013171 0.000000 0.012173 0.000000
# 4 0.000000 0.000000 0.000000 0.051994 0.000000 -0.000762
# 5 0.044408 0.002334 0.012173 0.000000 0.088873 0.000000
# 6 0.000000 0.000000 0.000000 -0.000762 0.000000 0.035220
#
#
# Mechanical properties :
#
#
# Convention : Reuss Voigt Hill
#
# Bulk Modulus (GPa) = 14.13585 36.97263 25.55424
# Shear Modulus (GPa) = 18.24890 29.44531 23.84711
#
# Velocity S-wave (km/s) = 2.72476 3.46114 3.11479
# Velocity P-wave (km/s) = 3.95602 5.56906 4.83035
#
# Compressibility (1/GPa) = 0.07074210
#
# Stress axis : x y z
#
# Youngs Moduli (GPa) = 25.28729 50.46517 75.92699
#
# Poissons Ratio (x) = 0.12968 0.01505
# Poissons Ratio (y) = 0.06498 -0.14222
# Poissons Ratio (z) = 0.00501 -0.09453
#
# Static dielectric constant tensor:
#      x y z
#    x 1.952270 0.000000 -0.023260 
#    y 0.000000 2.012990 0.000000 
#    z -0.023260 0.000000 1.947720 
# 
# From -- ./inp_files/38892.got.cif
#   From: 2010.05.17/outbox.cif.g08.bks.cpg/sg14_20_cif.got.tgz:38892.got - 2010.06.03 17:49:19.
