data_PCOD9246210
_publ_section_title
;
Structure prediction by ZEFSAII (Michael W. Deem and Ramdas Pophale) SiO2 
 PCOD9246210
Probable space group: P 21/C
;
_chemical_formula_sum "Si O2"
_cell_formula_units_Z 32
_cell_length_a 17.172979
_cell_length_b 12.221304
_cell_length_c 13.748627
_cell_angle_alpha 90.000000
_cell_angle_beta 34.120735
_cell_angle_gamma 90.000000
_cell_volume 1618.593767
_symmetry_space_group_name_H-M "P 21/C"
_symmetry_group_IT_number 14
_symmetry_cell_setting 'monoclinic'
loop_
_space_group_symop_operation_xyz
x,y,z
-x,1/2+y,1/2-z
-x,-y,-z
x,1/2-y,1/2+z
loop_
_atom_site_type_symbol
_atom_site_label
_atom_site_fract_x
_atom_site_fract_y
_atom_site_fract_z
Si Si1 0.863367 0.218239 0.979957
Si Si2 0.557376 0.259229 0.281438
Si Si3 0.913655 0.749941 0.916178
Si Si4 0.871149 0.520672 0.565829
Si Si5 0.913800 0.388061 0.104143
Si Si6 0.408920 0.600284 0.556544
Si Si7 0.595599 0.599428 0.929405
Si Si8 0.404154 0.254950 0.758472
O O1 0.714765 0.241925 0.083395
O O2 0.893175 0.307817 0.032991
O O3 0.992309 0.230927 0.774893
O O4 0.844614 0.094854 0.040107
O O5 0.580315 0.321724 0.359472
O O6 0.466595 0.154934 0.410468
O O7 0.465088 0.307099 0.289572
O O8 0.995814 0.683305 0.914057
O O9 0.898479 0.877423 0.964635
O O10 0.755467 0.709729 0.063792
O O11 0.750807 0.555220 0.765619
O O12 0.000000 0.500000 0.500000
O O13 0.753955 0.417241 0.298089
O O14 0.000000 0.500000 0.000000
O O15 0.500000 0.500000 0.500000
O O16 0.488787 0.649390 0.380811
O O17 0.593409 0.681390 0.840312
O O18 0.500000 0.500000 0.000000
#
# Coordination Sequence:
#
# PCOD9246210 Si02
#       8
#     4   4   4   4   4   4   4   4
#     4  11  24  42  66  95 129 169 216 262 323 383
#     4  10  22  41  64  92 125 165 207 261 319 375
#     4  11  25  41  64  96 130 165 216 265 320 389
#     4  11  23  42  66  95 129 170 213 266 322 379
#     4  11  24  43  66  93 130 172 211 266 322 382
#     4  10  22  42  64  88 126 166 210 258 312 382
#     4  10  21  40  65  91 124 160 212 262 314 375
#     4  10  23  39  61  94 125 163 207 260 315 375
#
# _framework density 19.770247999999999
#
# number of rings (size 3 to 8) (size 9 to 14) (size 15 to 20)
#    0.000    1.500    2.500    1.500    3.500    4.000 
#    2.250    0.000    0.000    0.000    0.000    0.000 
#    0.000    0.000    0.000    0.000    0.000    0.000 
#
# Total GULP energy -178327.467130 kJ/mol
# GULP energy per Si atom -5572.733348 kJ/mol
# Density = 1.972525 g / cm^3
# Si number density = 19.770248 Si / 1000 Ang^3
#
#
#
# Elastic Constant Matrix: (Units=GPa)
#
#
# Indices 1 2 3 4 5 6 
#
# 1 87.7953 0.0435 44.0560 0.0000 -32.2579 0.0000
# 2 0.0435 75.5771 35.1464 0.0000 -14.9866 0.0000
# 3 44.0560 35.1464 172.7824 0.0000 -30.9564 0.0000
# 4 0.0000 0.0000 0.0000 23.9621 0.0000 -7.3182
# 5 -32.2579 -14.9866 -30.9564 0.0000 38.9771 0.0000
# 6 0.0000 0.0000 0.0000 -7.3182 0.0000 17.5616
#
#
#
# Elastic Compliance Matrix: (Units=1/GPa)
#
#
# Indices 1 2 3 4 5 6 
#
# 1 0.018087 0.004169 -0.002904 0.000000 0.014265 0.000000
# 2 0.004169 0.016074 -0.003040 0.000000 0.007216 0.000000
# 3 -0.002904 -0.003040 0.007586 0.000000 0.002453 0.000000
# 4 0.000000 0.000000 0.000000 0.047818 0.000000 0.019927
# 5 0.014265 0.007216 0.002453 0.000000 0.042185 0.000000
# 6 0.000000 0.000000 0.000000 0.019927 0.000000 0.065246
#
#
# Mechanical properties :
#
#
# Convention : Reuss Voigt Hill
#
# Bulk Modulus (GPa) = 26.18045 54.96073 40.57059
# Shear Modulus (GPa) = 23.44368 33.22742 28.33555
#
# Velocity S-wave (km/s) = 3.44729 4.10405 3.78993
# Velocity P-wave (km/s) = 5.39594 7.09350 6.30214
#
# Compressibility (1/GPa) = 0.03819644
#
# Stress axis : x y z
#
# Youngs Moduli (GPa) = 55.28963 62.21369 131.82494
#
# Poissons Ratio (x) = -0.25935 0.38280
# Poissons Ratio (y) = -0.23049 0.40070
# Poissons Ratio (z) = 0.16055 0.18911
#
# Static dielectric constant tensor:
#      x y z
#    x 1.793460 0.000000 -0.019190 
#    y 0.000000 0.948280 0.000000 
#    z -0.019190 0.000000 1.752530 
# 
# From -- ./inp_files/48913.got.cif
#   From: 2010.05.17/outbox.cif.g08.bks.cpg/sg14_25_cif.got.tgz:48913.got - 2010.06.03 17:49:19.
