data_PCOD9246563
_publ_section_title
;
Structure prediction by ZEFSAII (Michael W. Deem and Ramdas Pophale) SiO2 
 PCOD9246563
Probable space group: P 21/C
;
_chemical_formula_sum "Si O2"
_cell_formula_units_Z 28
_cell_length_a 9.403958
_cell_length_b 13.635705
_cell_length_c 11.463407
_cell_angle_alpha 90.000000
_cell_angle_beta 118.852971
_cell_angle_gamma 90.000000
_cell_volume 1287.470055
_symmetry_space_group_name_H-M "P 21/C"
_symmetry_group_IT_number 14
_symmetry_cell_setting 'monoclinic'
loop_
_space_group_symop_operation_xyz
x,y,z
-x,1/2+y,1/2-z
-x,-y,-z
x,1/2-y,1/2+z
loop_
_atom_site_type_symbol
_atom_site_label
_atom_site_fract_x
_atom_site_fract_y
_atom_site_fract_z
Si Si1 0.462481 0.332460 0.802406
Si Si2 0.036647 0.891240 0.970871
Si Si3 0.409949 0.633646 0.561569
Si Si4 0.173622 0.272788 0.051158
Si Si5 0.028820 0.055667 0.632978
Si Si6 0.634989 0.462960 0.701688
Si Si7 0.187665 0.418017 0.836055
O O1 0.527298 0.243391 0.904324
O O2 0.337604 0.280196 0.661104
O O3 0.607980 0.389177 0.797131
O O4 0.356335 0.408682 0.834955
O O5 0.952449 0.814217 0.024685
O O6 0.945363 0.880474 0.810319
O O7 0.226489 0.873857 0.032745
O O8 0.000000 0.000000 0.000000
O O9 0.523240 0.558229 0.677520
O O10 0.420818 0.594772 0.434511
O O11 0.087849 0.336445 0.120787
O O12 0.196124 0.345563 0.951051
O O13 0.185146 0.001767 0.748681
O O14 0.000000 0.000000 0.500000
O O15 0.873256 0.025702 0.648032
#
# Coordination Sequence:
#
# PCOD9246563 Si02
#       7
#     4   4   4   4   4   4   4
#     4  11  23  40  67  97 133 171 219 277 323 388
#     4  11  24  40  66  99 127 165 221 275 317 388
#     4  11  23  40  68  94 130 175 212 274 342 382
#     4  10  22  42  66  92 130 176 217 262 330 393
#     4  10  21  41  66  87 125 175 212 260 324 396
#     4  11  23  43  65  93 131 172 221 265 330 403
#     4  10  22  42  63  94 129 169 217 262 321 383
#
# _framework density 21.748079000000001
#
# number of rings (size 3 to 8) (size 9 to 14) (size 15 to 20)
#    0.000    1.429    2.857    2.571    4.000    3.429 
#    0.000    4.286    0.000    0.000    0.000    0.000 
#    0.000    0.000    0.000    0.000    0.000    0.000 
#
# Total GULP energy -156428.654918 kJ/mol
# GULP energy per Si atom -5586.737676 kJ/mol
# Density = 2.169858 g / cm^3
# Si number density = 21.748079 Si / 1000 Ang^3
#
#
#
# Elastic Constant Matrix: (Units=GPa)
#
#
# Indices 1 2 3 4 5 6 
#
# 1 71.4209 19.4120 -5.2662 0.0000 3.9735 0.0000
# 2 19.4120 89.2399 0.5491 0.0000 -7.0562 0.0000
# 3 -5.2662 0.5491 31.4887 0.0000 -6.8562 0.0000
# 4 0.0000 0.0000 0.0000 30.1190 0.0000 -3.9609
# 5 3.9735 -7.0562 -6.8562 0.0000 22.2050 0.0000
# 6 0.0000 0.0000 0.0000 -3.9609 0.0000 35.0255
#
#
#
# Elastic Compliance Matrix: (Units=1/GPa)
#
#
# Indices 1 2 3 4 5 6 
#
# 1 0.015304 -0.003601 0.001905 0.000000 -0.003295 0.000000
# 2 -0.003601 0.012354 0.000190 0.000000 0.004629 0.000000
# 3 0.001905 0.000190 0.034319 0.000000 0.010316 0.000000
# 4 0.000000 0.000000 0.000000 0.033703 0.000000 0.003811
# 5 -0.003295 0.004629 0.010316 0.000000 0.050281 0.000000
# 6 0.000000 0.000000 0.000000 0.003811 0.000000 0.028982
#
#
# Mechanical properties :
#
#
# Convention : Reuss Voigt Hill
#
# Bulk Modulus (GPa) = 16.95939 24.61547 20.78743
# Shear Modulus (GPa) = 25.30244 29.30020 27.30132
#
# Velocity S-wave (km/s) = 3.41461 3.67448 3.54693
# Velocity P-wave (km/s) = 4.83334 5.41714 5.13355
#
# Compressibility (1/GPa) = 0.05896439
#
# Stress axis : x y z
#
# Youngs Moduli (GPa) = 65.34205 80.94571 29.13852
#
# Poissons Ratio (x) = 0.29151 -0.05550
# Poissons Ratio (y) = 0.23531 -0.00554
# Poissons Ratio (z) = -0.12447 -0.01540
#
# Static dielectric constant tensor:
#      x y z
#    x 1.714620 0.000000 -0.046510 
#    y 0.000000 2.020590 0.000000 
#    z -0.046510 0.000000 1.798940 
# 
# From -- ./inp_files/25298.got.cif
#   From: 2010.05.17/outbox.cif.g08.bks.cpg/sg14_13_cif.got.tgz:25298.got - 2010.06.03 17:49:19.
