data_PCOD9246504
_publ_section_title
;
Structure prediction by ZEFSAII (Michael W. Deem and Ramdas Pophale) SiO2 
 PCOD9246504
Probable space group: P 21/C
;
_chemical_formula_sum "Si O2"
_cell_formula_units_Z 32
_cell_length_a 13.292644
_cell_length_b 11.860364
_cell_length_c 9.312402
_cell_angle_alpha 90.000000
_cell_angle_beta 120.043163
_cell_angle_gamma 90.000000
_cell_volume 1270.903813
_symmetry_space_group_name_H-M "P 21/C"
_symmetry_group_IT_number 14
_symmetry_cell_setting 'monoclinic'
loop_
_space_group_symop_operation_xyz
x,y,z
-x,1/2+y,1/2-z
-x,-y,-z
x,1/2-y,1/2+z
loop_
_atom_site_type_symbol
_atom_site_label
_atom_site_fract_x
_atom_site_fract_y
_atom_site_fract_z
Si Si1 0.523212 0.375796 0.623072
Si Si2 0.338805 0.412910 0.200762
Si Si3 0.958879 0.772288 0.031694
Si Si4 0.902805 0.139059 0.118734
Si Si5 0.659169 0.259387 0.984296
Si Si6 0.298374 0.336179 0.615410
Si Si7 0.100026 0.053197 0.669455
Si Si8 0.640665 0.498275 0.094438
O O1 0.557360 0.505384 0.677335
O O2 0.582737 0.322248 0.527602
O O3 0.385391 0.359114 0.545815
O O4 0.585153 0.307012 0.798170
O O5 0.343442 0.279032 0.222449
O O6 0.226330 0.467795 0.193322
O O7 0.324692 0.428976 0.019424
O O8 0.836256 0.812565 0.007872
O O9 0.922516 0.683608 0.880014
O O10 0.036098 0.856861 0.992549
O O11 0.031910 0.711481 0.208838
O O12 0.775369 0.195259 0.019605
O O13 0.904133 0.013499 0.184776
O O14 0.684003 0.371866 0.096309
O O15 0.312054 0.441432 0.731242
O O16 0.000000 0.000000 0.500000
O O17 0.500000 0.500000 0.000000
#
# Coordination Sequence:
#
# PCOD9246504 Si02
#       8
#     4   4   4   4   4   4   4   4
#     4  11  23  41  68  98 130 177 221 278 336 398
#     4  10  21  41  64  92 128 175 226 264 335 401
#     4  10  25  39  66  95 130 178 216 277 331 390
#     4  11  22  43  66  96 131 174 227 269 330 397
#     4  11  23  40  70  97 133 173 226 279 330 403
#     4  11  24  40  66  96 131 168 229 279 325 404
#     4   9  20  38  63  88 122 177 220 258 316 405
#     4  11  22  41  66  96 130 180 218 270 343 406
#
# _framework density 25.178930999999999
#
# number of rings (size 3 to 8) (size 9 to 14) (size 15 to 20)
#    0.000    1.500    3.750    1.500   10.500    0.000 
#    0.000    5.625    0.000    0.000    0.000    0.000 
#    0.000    0.000    0.000    0.000    0.000    0.000 
#
# Total GULP energy -179284.275681 kJ/mol
# GULP energy per Si atom -5602.633615 kJ/mol
# Density = 2.512162 g / cm^3
# Si number density = 25.178931 Si / 1000 Ang^3
#
#
#
# Elastic Constant Matrix: (Units=GPa)
#
#
# Indices 1 2 3 4 5 6 
#
# 1 159.7987 39.5063 40.8759 0.0000 12.8790 0.0000
# 2 39.5063 111.5837 35.1327 0.0000 11.6321 0.0000
# 3 40.8759 35.1327 90.9592 0.0000 5.8929 0.0000
# 4 0.0000 0.0000 0.0000 46.2506 0.0000 -1.7435
# 5 12.8790 11.6321 5.8929 0.0000 26.6973 0.0000
# 6 0.0000 0.0000 0.0000 -1.7435 0.0000 31.2242
#
#
#
# Elastic Compliance Matrix: (Units=1/GPa)
#
#
# Indices 1 2 3 4 5 6 
#
# 1 0.007508 -0.001592 -0.002607 0.000000 -0.002353 0.000000
# 2 -0.001592 0.010899 -0.003283 0.000000 -0.003256 0.000000
# 3 -0.002607 -0.003283 0.013452 0.000000 -0.000281 0.000000
# 4 0.000000 0.000000 0.000000 0.021667 0.000000 0.001210
# 5 -0.002353 -0.003256 -0.000281 0.000000 0.040073 0.000000
# 6 0.000000 0.000000 0.000000 0.001210 0.000000 0.032094
#
#
# Mechanical properties :
#
#
# Convention : Reuss Voigt Hill
#
# Bulk Modulus (GPa) = 59.19110 65.93016 62.56063
# Shear Modulus (GPa) = 34.17937 37.28953 35.73445
#
# Velocity S-wave (km/s) = 3.68837 3.85253 3.77134
# Velocity P-wave (km/s) = 6.45740 6.78460 6.62302
#
# Compressibility (1/GPa) = 0.01689443
#
# Stress axis : x y z
#
# Youngs Moduli (GPa) = 133.19355 91.75378 74.34062
#
# Poissons Ratio (x) = 0.14609 0.19377
# Poissons Ratio (y) = 0.21207 0.24407
# Poissons Ratio (z) = 0.34717 0.30124
#
# Static dielectric constant tensor:
#      x y z
#    x 1.985160 0.000000 -0.041610 
#    y 0.000000 1.975640 0.000000 
#    z -0.041610 0.000000 2.058710 
# 
# From -- ./inp_files/29376.got.cif
#   From: 2010.05.17/outbox.cif.g08.bks.cpg/sg14_15_cif.got.tgz:29376.got - 2010.06.03 17:49:19.
