data_PCOD9246666
_publ_section_title
;
Structure prediction by ZEFSAII (Michael W. Deem and Ramdas Pophale) SiO2 
 PCOD9246666
Probable space group: P 21/C
;
_chemical_formula_sum "Si O2"
_cell_formula_units_Z 24
_cell_length_a 32.525264
_cell_length_b 7.776843
_cell_length_c 10.158011
_cell_angle_alpha 90.000000
_cell_angle_beta 28.865941
_cell_angle_gamma 90.000000
_cell_volume 1240.411589
_symmetry_space_group_name_H-M "P 21/C"
_symmetry_group_IT_number 14
_symmetry_cell_setting 'monoclinic'
loop_
_space_group_symop_operation_xyz
x,y,z
-x,1/2+y,1/2-z
-x,-y,-z
x,1/2-y,1/2+z
loop_
_atom_site_type_symbol
_atom_site_label
_atom_site_fract_x
_atom_site_fract_y
_atom_site_fract_z
Si Si1 0.439301 0.469053 0.545435
Si Si2 0.195865 0.692377 0.445351
Si Si3 0.554553 0.562254 0.971730
Si Si4 0.071065 0.447530 0.692910
Si Si5 0.029744 0.624550 0.531643
Si Si6 0.304480 0.725166 0.398471
O O1 0.500000 0.500000 0.500000
O O2 0.421261 0.264224 0.595568
O O3 0.358746 0.598965 0.769646
O O4 0.495330 0.521980 0.262688
O O5 0.161379 0.503580 0.500200
O O6 0.113256 0.782684 0.739387
O O7 0.267777 0.708663 0.354353
O O8 0.229719 0.775923 0.216079
O O9 0.635216 0.437700 0.749482
O O10 0.500000 0.500000 0.000000
O O11 0.054766 0.544687 0.601436
O O12 0.000000 0.500000 0.000000
O O13 0.049958 0.251181 0.723179
O O14 0.000000 0.500000 0.500000
#
# Coordination Sequence:
#
# PCOD9246666 Si02
#       6
#     4   4   4   4   4   4
#     4  12  23  43  70  99 127 182 235 274 338 414
#     4  11  24  44  62 102 139 175 215 285 348 379
#     4  12  23  43  71  97 131 181 233 279 336 412
#     4  10  21  41  69  95 129 175 223 261 329 406
#     4  11  23  44  72  96 130 177 227 267 329 415
#     4  12  24  43  67  95 149 172 223 299 339 392
#
# _framework density 19.348417999999999
#
# number of rings (size 3 to 8) (size 9 to 14) (size 15 to 20)
#    0.000    0.667    5.000    4.000    2.333    0.000 
#    6.000    0.000    0.000    0.000    0.000    0.000 
#    0.000    0.000    0.000    0.000    0.000    0.000 
#
# Total GULP energy -133986.017759 kJ/mol
# GULP energy per Si atom -5582.750740 kJ/mol
# Density = 1.930438 g / cm^3
# Si number density = 19.348418 Si / 1000 Ang^3
#
#
#
# Elastic Constant Matrix: (Units=GPa)
#
#
# Indices 1 2 3 4 5 6 
#
# 1 142.2056 50.2177 19.4196 0.0000 6.8153 0.0000
# 2 50.2177 155.9529 28.4911 0.0000 -12.7693 0.0000
# 3 19.4196 28.4911 72.3439 0.0000 16.5552 0.0000
# 4 0.0000 0.0000 0.0000 25.6447 0.0000 9.3217
# 5 6.8153 -12.7693 16.5552 0.0000 42.5951 0.0000
# 6 0.0000 0.0000 0.0000 9.3217 0.0000 17.3594
#
#
#
# Elastic Compliance Matrix: (Units=1/GPa)
#
#
# Indices 1 2 3 4 5 6 
#
# 1 0.008151 -0.002639 -0.000735 0.000000 -0.001810 0.000000
# 2 -0.002639 0.008254 -0.003518 0.000000 0.004264 0.000000
# 3 -0.000735 -0.003518 0.017145 0.000000 -0.007601 0.000000
# 4 0.000000 0.000000 0.000000 0.048452 0.000000 -0.026018
# 5 -0.001810 0.004264 -0.007601 0.000000 0.027999 0.000000
# 6 0.000000 0.000000 0.000000 -0.026018 0.000000 0.071577
#
#
# Mechanical properties :
#
#
# Convention : Reuss Voigt Hill
#
# Bulk Modulus (GPa) = 50.58959 62.97325 56.78142
# Shear Modulus (GPa) = 24.75883 35.27811 30.01847
#
# Velocity S-wave (km/s) = 3.58107 4.27465 3.94314
# Velocity P-wave (km/s) = 6.58044 7.54859 7.08108
#
# Compressibility (1/GPa) = 0.01976691
#
# Stress axis : x y z
#
# Youngs Moduli (GPa) = 122.68574 121.15853 58.32637
#
# Poissons Ratio (x) = 0.31969 0.04285
# Poissons Ratio (y) = 0.32372 0.20519
# Poissons Ratio (z) = 0.09014 0.42623
#
# Static dielectric constant tensor:
#      x y z
#    x 1.681640 0.000000 -0.022130 
#    y 0.000000 1.684590 0.000000 
#    z -0.022130 0.000000 1.658510 
# 
# From -- ./inp_files/19928.got.cif
#   From: 2010.05.17/outbox.cif.g08.bks.cpg/sg14_10_cif.got.tgz:19928.got - 2010.06.03 17:49:19.
