data_PCOD9246517
_publ_section_title
;
Structure prediction by ZEFSAII (Michael W. Deem and Ramdas Pophale) SiO2 
 PCOD9246517
Probable space group: P 21/C
;
_chemical_formula_sum "Si O2"
_cell_formula_units_Z 28
_cell_length_a 8.840670
_cell_length_b 5.012404
_cell_length_c 24.930464
_cell_angle_alpha 90.000000
_cell_angle_beta 100.413684
_cell_angle_gamma 90.000000
_cell_volume 1086.546915
_symmetry_space_group_name_H-M "P 21/C"
_symmetry_group_IT_number 14
_symmetry_cell_setting 'monoclinic'
loop_
_space_group_symop_operation_xyz
x,y,z
-x,1/2+y,1/2-z
-x,-y,-z
x,1/2-y,1/2+z
loop_
_atom_site_type_symbol
_atom_site_label
_atom_site_fract_x
_atom_site_fract_y
_atom_site_fract_z
Si Si1 0.103573 0.666694 0.465288
Si Si2 0.608749 0.425839 0.457942
Si Si3 0.871723 0.835318 0.141183
Si Si4 0.271649 0.649339 0.819584
Si Si5 0.555564 0.319269 0.853211
Si Si6 0.188901 0.152977 0.595819
Si Si7 0.790153 0.043900 0.804197
O O1 0.260260 0.752863 0.503630
O O2 0.135756 0.474117 0.417030
O O3 0.000000 0.500000 0.500000
O O4 0.981974 0.882938 0.436324
O O5 0.500000 0.500000 0.500000
O O6 0.496668 0.333902 0.401986
O O7 0.707175 0.665949 0.437170
O O8 0.782932 0.048400 0.174886
O O9 0.800437 0.542998 0.140237
O O10 0.049122 0.809791 0.171505
O O11 0.452348 0.573963 0.834041
O O12 0.211109 0.527426 0.759789
O O13 0.721587 0.383992 0.889492
O O14 0.618875 0.162652 0.806229
O O15 0.193953 0.292409 0.654868
#
# Coordination Sequence:
#
# PCOD9246517 Si02
#       7
#     4   4   4   4   4   4   4
#     4   9  20  44  69  96 137 188 235 287 355 426
#     4  10  21  41  64  95 139 176 234 295 361 411
#     4  11  26  48  70 108 140 185 241 298 349 433
#     4  12  28  44  74 104 148 183 238 299 367 408
#     4  11  26  41  69 102 138 185 237 296 350 438
#     4   9  22  41  63  98 134 176 242 284 346 435
#     4  10  25  45  71  95 143 187 238 286 358 433
#
# _framework density 25.769711999999998
#
# number of rings (size 3 to 8) (size 9 to 14) (size 15 to 20)
#    0.000    1.714    0.000    2.571   14.000    1.143 
#    5.143    0.000    0.000    0.000    0.000    0.000 
#    0.000    0.000    0.000    0.000    0.000    0.000 
#
# Total GULP energy -156418.031508 kJ/mol
# GULP energy per Si atom -5586.358268 kJ/mol
# Density = 2.571106 g / cm^3
# Si number density = 25.769712 Si / 1000 Ang^3
#
#
#
# Elastic Constant Matrix: (Units=GPa)
#
#
# Indices 1 2 3 4 5 6 
#
# 1 112.0833 10.7553 33.5891 0.0000 15.4885 0.0000
# 2 10.7553 61.1085 -0.6936 0.0000 -1.5594 0.0000
# 3 33.5891 -0.6936 106.9961 0.0000 -1.9034 0.0000
# 4 0.0000 0.0000 0.0000 11.1410 0.0000 1.2615
# 5 15.4885 -1.5594 -1.9034 0.0000 39.9786 0.0000
# 6 0.0000 0.0000 0.0000 1.2615 0.0000 43.6447
#
#
#
# Elastic Compliance Matrix: (Units=1/GPa)
#
#
# Indices 1 2 3 4 5 6 
#
# 1 0.010770 -0.002048 -0.003473 0.000000 -0.004418 0.000000
# 2 -0.002048 0.016771 0.000778 0.000000 0.001485 0.000000
# 3 -0.003473 0.000778 0.010475 0.000000 0.001874 0.000000
# 4 0.000000 0.000000 0.000000 0.090053 0.000000 -0.002603
# 5 -0.004418 0.001485 0.001874 0.000000 0.026872 0.000000
# 6 0.000000 0.000000 0.000000 -0.002603 0.000000 0.022988
#
#
# Mechanical properties :
#
#
# Convention : Reuss Voigt Hill
#
# Bulk Modulus (GPa) = 35.04972 40.83215 37.94093
# Shear Modulus (GPa) = 25.39054 34.72199 30.05626
#
# Velocity S-wave (km/s) = 3.14233 3.67467 3.41888
# Velocity P-wave (km/s) = 5.17652 5.82097 5.50818
#
# Compressibility (1/GPa) = 0.02853090
#
# Stress axis : x y z
#
# Youngs Moduli (GPa) = 92.85412 59.62514 95.46800
#
# Poissons Ratio (x) = 0.12209 0.33154
# Poissons Ratio (y) = 0.19013 -0.07427
# Poissons Ratio (z) = 0.32246 -0.04638
#
# Static dielectric constant tensor:
#      x y z
#    x 2.240180 0.000000 -0.227650 
#    y 0.000000 2.054310 0.000000 
#    z -0.227650 0.000000 2.265410 
# 
# From -- ./inp_files/76107.got.cif
#   From: 2010.05.17/outbox.cif.g08.bks.cpg/sg14_39_cif.got.tgz:76107.got - 2010.06.03 17:49:19.
