data_PCOD9246765
_publ_section_title
;
Structure prediction by ZEFSAII (Michael W. Deem and Ramdas Pophale) SiO2 
 PCOD9246765
Probable space group: P 21/C
;
_chemical_formula_sum "Si O2"
_cell_formula_units_Z 32
_cell_length_a 14.285716
_cell_length_b 17.041480
_cell_length_c 11.199884
_cell_angle_alpha 90.000000
_cell_angle_beta 152.965008
_cell_angle_gamma 90.000000
_cell_volume 1239.338013
_symmetry_space_group_name_H-M "P 21/C"
_symmetry_group_IT_number 14
_symmetry_cell_setting 'monoclinic'
loop_
_space_group_symop_operation_xyz
x,y,z
-x,1/2+y,1/2-z
-x,-y,-z
x,1/2-y,1/2+z
loop_
_atom_site_type_symbol
_atom_site_label
_atom_site_fract_x
_atom_site_fract_y
_atom_site_fract_z
Si Si1 0.970672 0.389539 0.728612
Si Si2 0.653717 0.012325 0.993769
Si Si3 0.065127 0.887455 0.307824
Si Si4 0.442644 0.615950 0.400602
Si Si5 0.016758 0.248521 0.933025
Si Si6 0.326744 0.381249 0.743838
Si Si7 0.261308 0.016719 0.387368
Si Si8 0.682033 0.213068 0.736672
O O1 0.872424 0.462012 0.689049
O O2 0.072418 0.330748 0.939011
O O3 0.779807 0.344577 0.447003
O O4 0.135376 0.417976 0.819164
O O5 0.485024 0.003095 0.698004
O O6 0.617902 0.937950 0.039440
O O7 0.580312 0.088083 0.989433
O O8 0.224626 0.909335 0.590673
O O9 0.103679 0.798559 0.309205
O O10 0.125023 0.940695 0.261494
O O11 0.816200 0.889408 0.035932
O O12 0.453428 0.709071 0.389411
O O13 0.871837 0.251892 0.881388
O O14 0.201115 0.189228 0.166766
O O15 0.298180 0.456151 0.795217
O O16 0.552677 0.345361 0.002537
#
# Coordination Sequence:
#
# PCOD9246765 Si02
#       8
#     4   4   4   4   4   4   4   4
#     4  12  22  40  65  94 124 167 209 259 311 374
#     4  10  23  41  63  90 123 171 205 254 306 376
#     4   9  21  43  60  89 130 163 197 264 311 363
#     4  10  21  42  64  85 132 164 202 255 309 368
#     4  10  23  39  61  94 124 159 204 258 318 359
#     4  10  22  39  64  96 120 163 207 258 314 366
#     4  11  22  41  64  91 128 163 209 256 314 373
#     4  12  21  40  66  93 125 164 208 259 315 369
#
# _framework density 25.820233999999999
#
# number of rings (size 3 to 8) (size 9 to 14) (size 15 to 20)
#    0.750    0.750    5.000    0.375    1.750    0.000 
#    4.500   10.625    0.000    0.000    0.000    0.000 
#    0.000    0.000    0.000    0.000    0.000    0.000 
#
# Total GULP energy -178835.674673 kJ/mol
# GULP energy per Si atom -5588.614834 kJ/mol
# Density = 2.576147 g / cm^3
# Si number density = 25.820234 Si / 1000 Ang^3
#
#
#
# Elastic Constant Matrix: (Units=GPa)
#
#
# Indices 1 2 3 4 5 6 
#
# 1 83.4691 6.4894 3.0967 0.0000 10.2718 0.0000
# 2 6.4894 107.5067 18.1898 0.0000 6.6017 0.0000
# 3 3.0967 18.1898 67.2319 0.0000 1.9775 0.0000
# 4 0.0000 0.0000 0.0000 45.0233 0.0000 -0.4829
# 5 10.2718 6.6017 1.9775 0.0000 26.4117 0.0000
# 6 0.0000 0.0000 0.0000 -0.4829 0.0000 40.0014
#
#
#
# Elastic Compliance Matrix: (Units=1/GPa)
#
#
# Indices 1 2 3 4 5 6 
#
# 1 0.012613 -0.000412 -0.000329 0.000000 -0.004778 0.000000
# 2 -0.000412 0.009896 -0.002596 0.000000 -0.002119 0.000000
# 3 -0.000329 -0.002596 0.015603 0.000000 -0.000391 0.000000
# 4 0.000000 0.000000 0.000000 0.022214 0.000000 0.000268
# 5 -0.004778 -0.002119 -0.000391 0.000000 0.040279 0.000000
# 6 0.000000 0.000000 0.000000 0.000268 0.000000 0.025002
#
#
# Mechanical properties :
#
#
# Convention : Reuss Voigt Hill
#
# Bulk Modulus (GPa) = 31.80957 34.86217 33.33587
# Shear Modulus (GPa) = 35.02381 37.64940 36.33661
#
# Velocity S-wave (km/s) = 3.68699 3.82270 3.75546
# Velocity P-wave (km/s) = 5.52011 5.74589 5.63413
#
# Compressibility (1/GPa) = 0.03143708
#
# Stress axis : x y z
#
# Youngs Moduli (GPa) = 79.28534 101.05097 64.09051
#
# Poissons Ratio (x) = 0.04167 0.02108
# Poissons Ratio (y) = 0.03269 0.16638
# Poissons Ratio (z) = 0.02607 0.26234
#
# Static dielectric constant tensor:
#      x y z
#    x 2.003540 0.000000 -0.010270 
#    y 0.000000 2.052190 0.000000 
#    z -0.010270 0.000000 2.038420 
# 
# From -- ./inp_files/33078.got.cif
#   From: 2010.05.17/outbox.cif.g08.bks.cpg/sg14_17_cif.got.tgz:33078.got - 2010.06.03 17:49:19.
