data_PCOD9246156
_publ_section_title
;
Structure prediction by ZEFSAII (Michael W. Deem and Ramdas Pophale) SiO2 
 PCOD9246156
Probable space group: P 21/C
;
_chemical_formula_sum "Si O2"
_cell_formula_units_Z 32
_cell_length_a 15.696565
_cell_length_b 15.168699
_cell_length_c 20.698655
_cell_angle_alpha 90.000000
_cell_angle_beta 160.467068
_cell_angle_gamma 90.000000
_cell_volume 1647.762449
_symmetry_space_group_name_H-M "P 21/C"
_symmetry_group_IT_number 14
_symmetry_cell_setting 'monoclinic'
loop_
_space_group_symop_operation_xyz
x,y,z
-x,1/2+y,1/2-z
-x,-y,-z
x,1/2-y,1/2+z
loop_
_atom_site_type_symbol
_atom_site_label
_atom_site_fract_x
_atom_site_fract_y
_atom_site_fract_z
Si Si1 0.934417 0.089122 0.593442
Si Si2 0.646527 0.673478 0.696132
Si Si3 0.361610 0.852199 0.499828
Si Si4 0.003235 0.110237 0.875829
Si Si5 0.108554 0.440940 0.635846
Si Si6 0.452453 0.619232 0.286065
Si Si7 0.650309 0.004512 0.040042
Si Si8 0.911817 0.228305 0.933869
O O1 0.752962 0.145169 0.510424
O O2 0.762173 0.065304 0.408006
O O3 0.166852 0.145279 0.729332
O O4 0.061119 0.013726 0.729262
O O5 0.485319 0.760120 0.568913
O O6 0.444987 0.594775 0.561216
O O7 0.847103 0.703985 0.894894
O O8 0.590897 0.922824 0.657138
O O9 0.134141 0.867448 0.288310
O O10 0.894326 0.171529 0.855775
O O11 0.302352 0.128395 0.084196
O O12 0.954348 0.005694 0.850691
O O13 0.000000 0.500000 0.500000
O O14 0.975626 0.345691 0.533967
O O15 0.552495 0.570122 0.421296
O O16 0.325974 0.711590 0.216657
O O17 0.500000 0.000000 0.000000
#
# Coordination Sequence:
#
# PCOD9246156 Si02
#       8
#     4   4   4   4   4   4   4   4
#     4  10  21  40  64  87 124 166 204 259 313 374
#     4   9  21  40  59  88 123 163 203 260 312 372
#     4  11  21  39  63  91 125 161 210 263 312 372
#     4  11  22  38  64  94 126 166 211 264 315 378
#     4   9  19  40  61  86 122 162 207 262 313 368
#     4  11  22  42  65  91 127 170 208 260 318 376
#     4  10  22  40  62  89 128 161 208 257 315 375
#     4   9  21  39  65  88 124 166 213 255 318 377
#
# _framework density 19.420276000000001
#
# number of rings (size 3 to 8) (size 9 to 14) (size 15 to 20)
#    0.000    2.000    1.250    2.625    3.500    4.500 
#    9.000    2.500    0.000    0.000    0.000    0.000 
#    0.000    0.000    0.000    0.000    0.000    0.000 
#
# Total GULP energy -178170.369565 kJ/mol
# GULP energy per Si atom -5567.824049 kJ/mol
# Density = 1.937607 g / cm^3
# Si number density = 19.420276 Si / 1000 Ang^3
#
#
#
# Elastic Constant Matrix: (Units=GPa)
#
#
# Indices 1 2 3 4 5 6 
#
# 1 50.1945 9.0001 18.9518 0.0000 -1.0400 0.0000
# 2 9.0001 76.0367 37.9767 0.0000 8.2738 0.0000
# 3 18.9518 37.9767 108.2849 0.0000 3.1103 0.0000
# 4 0.0000 0.0000 0.0000 17.8550 0.0000 -1.3060
# 5 -1.0400 8.2738 3.1103 0.0000 31.3477 0.0000
# 6 0.0000 0.0000 0.0000 -1.3060 0.0000 19.1184
#
#
#
# Elastic Compliance Matrix: (Units=1/GPa)
#
#
# Indices 1 2 3 4 5 6 
#
# 1 0.021424 -0.000953 -0.003453 0.000000 0.001305 0.000000
# 2 -0.000953 0.016418 -0.005481 0.000000 -0.003821 0.000000
# 3 -0.003453 -0.005481 0.011757 0.000000 0.000166 0.000000
# 4 0.000000 0.000000 0.000000 0.056288 0.000000 0.003845
# 5 0.001305 -0.003821 0.000166 0.000000 0.032936 0.000000
# 6 0.000000 0.000000 0.000000 0.003845 0.000000 0.052568
#
#
# Mechanical properties :
#
#
# Convention : Reuss Voigt Hill
#
# Bulk Modulus (GPa) = 33.53018 40.70813 37.11916
# Shear Modulus (GPa) = 22.61351 24.90338 23.75845
#
# Velocity S-wave (km/s) = 3.41607 3.58486 3.50148
# Velocity P-wave (km/s) = 5.73258 6.17593 5.95838
#
# Compressibility (1/GPa) = 0.02982388
#
# Stress axis : x y z
#
# Youngs Moduli (GPa) = 46.67635 60.90944 85.05735
#
# Poissons Ratio (x) = 0.05807 0.29368
# Poissons Ratio (y) = 0.04450 0.46622
# Poissons Ratio (z) = 0.16116 0.33386
#
# Static dielectric constant tensor:
#      x y z
#    x 1.413460 0.000000 0.108500 
#    y 0.000000 1.557890 0.000000 
#    z 0.108500 0.000000 1.675320 
# 
# From -- ./inp_files/68738.got.cif
#   From: 2010.05.17/outbox.cif.g08.bks.cpg/sg14_35_cif.got.tgz:68738.got - 2010.06.03 17:49:19.
