data_PCOD9246098
_publ_section_title
;
Structure prediction by ZEFSAII (Michael W. Deem and Ramdas Pophale) SiO2 
 PCOD9246098
Probable space group: P 21/C
;
_chemical_formula_sum "Si O2"
_cell_formula_units_Z 28
_cell_length_a 5.867886
_cell_length_b 13.240098
_cell_length_c 16.359150
_cell_angle_alpha 90.000000
_cell_angle_beta 124.921101
_cell_angle_gamma 90.000000
_cell_volume 1042.116478
_symmetry_space_group_name_H-M "P 21/C"
_symmetry_group_IT_number 14
_symmetry_cell_setting 'monoclinic'
loop_
_space_group_symop_operation_xyz
x,y,z
-x,1/2+y,1/2-z
-x,-y,-z
x,1/2-y,1/2+z
loop_
_atom_site_type_symbol
_atom_site_label
_atom_site_fract_x
_atom_site_fract_y
_atom_site_fract_z
Si Si1 0.074832 0.109910 0.336686
Si Si2 0.120797 0.091277 0.637782
Si Si3 0.827642 0.010186 0.050315
Si Si4 0.642364 0.779699 0.180237
Si Si5 0.295483 0.965058 0.246141
Si Si6 0.531893 0.648134 0.319186
Si Si7 0.931089 0.286250 0.519433
O O1 0.981485 0.025995 0.385600
O O2 0.794610 0.152650 0.238248
O O3 0.239246 0.036609 0.310517
O O4 0.252280 0.212920 0.375233
O O5 0.156245 0.136071 0.737554
O O6 0.442821 0.101499 0.674550
O O7 0.934399 0.170669 0.549773
O O8 0.878723 0.129399 0.078260
O O9 0.500000 0.000000 0.000000
O O10 0.998321 0.938872 0.146509
O O11 0.000000 0.000000 0.000000
O O12 0.605713 0.707786 0.251718
O O13 0.324216 0.808287 0.093372
O O14 0.421686 0.031619 0.196857
O O15 0.743249 0.686882 0.432111
#
# Coordination Sequence:
#
# PCOD9246098 Si02
#       7
#     4   4   4   4   4   4   4
#     4  10  21  41  68  91 130 177 224 284 350 419
#     4  10  22  42  62  96 135 175 235 280 357 418
#     4  11  25  43  68 103 141 180 238 302 362 424
#     4  10  21  40  62  94 132 175 228 282 351 418
#     4   9  20  38  64  86 123 178 215 283 350 409
#     4   8  19  40  59  86 128 169 221 282 345 413
#     4  10  22  42  63  99 135 177 234 286 349 427
#
# _framework density 26.868396000000001
#
# number of rings (size 3 to 8) (size 9 to 14) (size 15 to 20)
#    0.000    2.286    0.000    1.714    8.000    2.857 
#    5.143    6.429    0.000    0.000    0.000    0.000 
#    0.000    0.000    0.000    0.000    0.000    0.000 
#
# Total GULP energy -155884.306098 kJ/mol
# GULP energy per Si atom -5567.296646 kJ/mol
# Density = 2.680724 g / cm^3
# Si number density = 26.868396 Si / 1000 Ang^3
#
#
#
# Elastic Constant Matrix: (Units=GPa)
#
#
# Indices 1 2 3 4 5 6 
#
# 1 101.5961 28.0287 9.0114 0.0000 13.3797 0.0000
# 2 28.0287 105.8986 7.5794 0.0000 5.3784 0.0000
# 3 9.0114 7.5794 49.5352 0.0000 12.5583 0.0000
# 4 0.0000 0.0000 0.0000 36.9064 0.0000 16.4978
# 5 13.3797 5.3784 12.5583 0.0000 42.1988 0.0000
# 6 0.0000 0.0000 0.0000 16.4978 0.0000 54.6686
#
#
#
# Elastic Compliance Matrix: (Units=1/GPa)
#
#
# Indices 1 2 3 4 5 6 
#
# 1 0.011051 -0.002716 -0.000859 0.000000 -0.002902 0.000000
# 2 -0.002716 0.010243 -0.001039 0.000000 -0.000135 0.000000
# 3 -0.000859 -0.001039 0.022065 0.000000 -0.006162 0.000000
# 4 0.000000 0.000000 0.000000 0.031321 0.000000 -0.009452
# 5 -0.002902 -0.000135 -0.006162 0.000000 0.026468 0.000000
# 6 0.000000 0.000000 0.000000 -0.009452 0.000000 0.021144
#
#
# Mechanical properties :
#
#
# Convention : Reuss Voigt Hill
#
# Bulk Modulus (GPa) = 29.29899 38.47432 33.88666
# Shear Modulus (GPa) = 34.99022 40.91544 37.95283
#
# Velocity S-wave (km/s) = 3.61263 3.90655 3.76246
# Velocity P-wave (km/s) = 5.32257 5.89057 5.61376
#
# Compressibility (1/GPa) = 0.03413087
#
# Stress axis : x y z
#
# Youngs Moduli (GPa) = 90.49327 97.62710 45.32052
#
# Poissons Ratio (x) = 0.26515 0.03893
# Poissons Ratio (y) = 0.24577 0.04708
# Poissons Ratio (z) = 0.07774 0.10143
#
# Static dielectric constant tensor:
#      x y z
#    x 2.148250 0.000000 0.053210 
#    y 0.000000 2.257400 0.000000 
#    z 0.053210 0.000000 2.222740 
# 
# From -- ./inp_files/71369.got.cif
#   From: 2010.05.17/outbox.cif.g08.bks.cpg/sg14_36_cif.got.tgz:71369.got - 2010.06.03 17:49:19.
