data_PCOD9246804
_publ_section_title
;
Structure prediction by ZEFSAII (Michael W. Deem and Ramdas Pophale) SiO2 
 PCOD9246804
Probable space group: P 21/C
;
_chemical_formula_sum "Si O2"
_cell_formula_units_Z 24
_cell_length_a 10.562809
_cell_length_b 12.413746
_cell_length_c 8.553152
_cell_angle_alpha 90.000000
_cell_angle_beta 102.473124
_cell_angle_gamma 90.000000
_cell_volume 1095.052895
_symmetry_space_group_name_H-M "P 21/C"
_symmetry_group_IT_number 14
_symmetry_cell_setting 'monoclinic'
loop_
_space_group_symop_operation_xyz
x,y,z
-x,1/2+y,1/2-z
-x,-y,-z
x,1/2-y,1/2+z
loop_
_atom_site_type_symbol
_atom_site_label
_atom_site_fract_x
_atom_site_fract_y
_atom_site_fract_z
Si Si1 0.452590 0.622982 0.981652
Si Si2 0.080220 0.655462 0.218617
Si Si3 0.496910 0.339902 0.362863
Si Si4 0.705556 0.006280 0.075545
Si Si5 0.159990 0.865878 0.405538
Si Si6 0.888266 0.547916 0.357273
O O1 0.454299 0.655976 0.800862
O O2 0.306480 0.629191 0.006961
O O3 0.500000 0.500000 0.000000
O O4 0.528586 0.717189 0.092452
O O5 0.175489 0.559536 0.299966
O O6 0.146857 0.766160 0.284948
O O7 0.949893 0.650214 0.287697
O O8 0.066968 0.646330 0.029664
O O9 0.372985 0.417161 0.349906
O O10 0.607896 0.397595 0.498481
O O11 0.762595 0.950572 0.933423
O O12 0.134821 0.968793 0.293491
O O13 0.000000 0.500000 0.500000
#
# Coordination Sequence:
#
# PCOD9246804 Si02
#       6
#     4   4   4   4   4   4
#     4  12  26  42  68 103 137 180 231 275 342 413
#     4  11  22  39  66  94 129 173 226 270 339 404
#     4  11  24  41  67  96 138 174 225 278 343 397
#     4  10  21  42  65  95 132 179 220 281 335 397
#     4  12  22  41  64  97 130 175 221 278 335 407
#     4  10  22  41  64  93 125 169 223 273 330 397
#
# _framework density 21.916747999999998
#
# number of rings (size 3 to 8) (size 9 to 14) (size 15 to 20)
#    0.000    1.000    3.333    4.500    4.667    0.000 
#    0.000   11.667    0.000    0.000    0.000    0.000 
#    0.000    0.000    0.000    0.000    0.000    0.000 
#
# Total GULP energy -134144.594891 kJ/mol
# GULP energy per Si atom -5589.358120 kJ/mol
# Density = 2.186686 g / cm^3
# Si number density = 21.916748 Si / 1000 Ang^3
#
#
#
# Elastic Constant Matrix: (Units=GPa)
#
#
# Indices 1 2 3 4 5 6 
#
# 1 37.1738 8.6805 -13.2229 0.0000 -18.3249 0.0000
# 2 8.6805 96.6749 3.5976 0.0000 -1.1917 0.0000
# 3 -13.2229 3.5976 77.5514 0.0000 -20.6635 0.0000
# 4 0.0000 0.0000 0.0000 28.4149 0.0000 -1.5780
# 5 -18.3249 -1.1917 -20.6635 0.0000 32.5042 0.0000
# 6 0.0000 0.0000 0.0000 -1.5780 0.0000 29.0016
#
#
#
# Elastic Compliance Matrix: (Units=1/GPa)
#
#
# Indices 1 2 3 4 5 6 
#
# 1 0.061051 -0.005760 0.023827 0.000000 0.049355 0.000000
# 2 -0.005760 0.010906 -0.002705 0.000000 -0.004567 0.000000
# 3 0.023827 -0.002705 0.024844 0.000000 0.029127 0.000000
# 4 0.000000 0.000000 0.000000 0.035299 0.000000 0.001921
# 5 0.049355 -0.004567 0.029127 0.000000 0.076939 0.000000
# 6 0.000000 0.000000 0.000000 0.001921 0.000000 0.034585
#
#
# Mechanical properties :
#
#
# Convention : Reuss Voigt Hill
#
# Bulk Modulus (GPa) = 7.84165 23.27895 15.56030
# Shear Modulus (GPa) = 19.57652 32.14047 25.85850
#
# Velocity S-wave (km/s) = 2.99192 3.83362 3.43862
# Velocity P-wave (km/s) = 3.93969 5.49910 4.78337
#
# Compressibility (1/GPa) = 0.12752419
#
# Stress axis : x y z
#
# Youngs Moduli (GPa) = 16.37983 91.69670 40.25152
#
# Poissons Ratio (x) = 0.52818 -0.95908
# Poissons Ratio (y) = 0.09435 0.10888
# Poissons Ratio (z) = -0.39028 0.24803
#
# Static dielectric constant tensor:
#      x y z
#    x 1.873510 0.000000 0.011980 
#    y 0.000000 1.803540 0.000000 
#    z 0.011980 0.000000 1.766440 
# 
# From -- ./inp_files/12423.got.cif
#   From: 2010.05.17/outbox.cif.g08.bks.cpg/sg14_7_cif.got.tgz:12423.got - 2010.06.03 17:49:19.
