data_PCOD9246081
_publ_section_title
;
Structure prediction by ZEFSAII (Michael W. Deem and Ramdas Pophale) SiO2 
 PCOD9246081
Probable space group: P 21/C
;
_chemical_formula_sum "Si O2"
_cell_formula_units_Z 16
_cell_length_a 18.232194
_cell_length_b 7.179404
_cell_length_c 5.548259
_cell_angle_alpha 90.000000
_cell_angle_beta 55.026786
_cell_angle_gamma 90.000000
_cell_volume 595.100982
_symmetry_space_group_name_H-M "P 21/C"
_symmetry_group_IT_number 14
_symmetry_cell_setting 'monoclinic'
loop_
_space_group_symop_operation_xyz
x,y,z
-x,1/2+y,1/2-z
-x,-y,-z
x,1/2-y,1/2+z
loop_
_atom_site_type_symbol
_atom_site_label
_atom_site_fract_x
_atom_site_fract_y
_atom_site_fract_z
Si Si1 0.328949 0.452663 0.758539
Si Si2 0.396906 0.472781 0.129044
Si Si3 0.968489 0.713171 0.069340
Si Si4 0.167349 0.847363 0.710738
O O1 0.344500 0.540597 0.466132
O O2 0.365696 0.243199 0.666697
O O3 0.380314 0.545365 0.888841
O O4 0.225951 0.474717 0.030100
O O5 0.500000 0.500000 0.000000
O O6 0.920248 0.757127 0.912113
O O7 0.059228 0.839147 0.904334
O O8 0.000000 0.500000 0.000000
O O9 0.189713 0.710520 0.442389
#
# Coordination Sequence:
#
# PCOD9246081 Si02
#       4
#     4   4   4   4
#     4  10  21  40  62  88 123 168 216 270 334 394
#     4  10  21  40  62  88 123 161 224 276 332 393
#     4  10  21  40  73 101 139 179 226 276 341 412
#     4  10  21  40  65  92 131 171 217 266 331 398
#
# _framework density 26.886192999999999
#
# number of rings (size 3 to 8) (size 9 to 14) (size 15 to 20)
#    0.000    2.000    0.000    3.000    0.000    0.000 
#   27.000    0.000  132.000    0.000    0.000    0.000 
#    0.000    0.000    0.000    0.000    0.000    0.000 
#
# Total GULP energy -89439.434812 kJ/mol
# GULP energy per Si atom -5589.964676 kJ/mol
# Density = 2.682500 g / cm^3
# Si number density = 26.886193 Si / 1000 Ang^3
#
#
#
# Elastic Constant Matrix: (Units=GPa)
#
#
# Indices 1 2 3 4 5 6 
#
# 1 154.9025 28.6373 63.2489 0.0000 41.7710 0.0000
# 2 28.6373 112.9194 18.6969 0.0000 -7.4076 0.0000
# 3 63.2489 18.6969 182.0857 0.0000 52.3680 0.0000
# 4 0.0000 0.0000 0.0000 38.7976 0.0000 -13.0633
# 5 41.7710 -7.4076 52.3680 0.0000 95.2965 0.0000
# 6 0.0000 0.0000 0.0000 -13.0633 0.0000 38.8460
#
#
#
# Elastic Compliance Matrix: (Units=1/GPa)
#
#
# Indices 1 2 3 4 5 6 
#
# 1 0.008344 -0.001983 -0.001899 0.000000 -0.002768 0.000000
# 2 -0.001983 0.009649 -0.000912 0.000000 0.002120 0.000000
# 3 -0.001899 -0.000912 0.007157 0.000000 -0.003172 0.000000
# 4 0.000000 0.000000 0.000000 0.029066 0.000000 0.009774
# 5 -0.002768 0.002120 -0.003172 0.000000 0.013615 0.000000
# 6 0.000000 0.000000 0.000000 0.009774 0.000000 0.029030
#
#
# Mechanical properties :
#
#
# Convention : Reuss Voigt Hill
#
# Bulk Modulus (GPa) = 64.25481 74.56375 69.40928
# Shear Modulus (GPa) = 44.78872 57.20966 50.99919
#
# Velocity S-wave (km/s) = 4.08593 4.61786 4.36001
# Velocity P-wave (km/s) = 6.79782 7.49841 7.15670
#
# Compressibility (1/GPa) = 0.01556304
#
# Stress axis : x y z
#
# Youngs Moduli (GPa) = 119.84594 103.63855 139.71934
#
# Poissons Ratio (x) = 0.20555 0.26526
# Poissons Ratio (y) = 0.23770 0.12738
# Poissons Ratio (z) = 0.22753 0.09448
#
# Static dielectric constant tensor:
#      x y z
#    x 2.106160 0.000000 0.058000 
#    y 0.000000 1.996130 0.000000 
#    z 0.058000 0.000000 2.099890 
# 
# From -- ./inp_files/3443.got.cif
#   From: 2010.05.17/outbox.cif.g08.bks.cpg/sg14_2_cif.got.tgz:3443.got - 2010.06.03 17:49:19.
