data_PCOD9246258
_publ_section_title
;
Structure prediction by ZEFSAII (Michael W. Deem and Ramdas Pophale) SiO2 
 PCOD9246258
Probable space group: P 21/C
;
_chemical_formula_sum "Si O2"
_cell_formula_units_Z 24
_cell_length_a 13.124186
_cell_length_b 10.477228
_cell_length_c 12.610886
_cell_angle_alpha 90.000000
_cell_angle_beta 136.685559
_cell_angle_gamma 90.000000
_cell_volume 1189.568902
_symmetry_space_group_name_H-M "P 21/C"
_symmetry_group_IT_number 14
_symmetry_cell_setting 'monoclinic'
loop_
_space_group_symop_operation_xyz
x,y,z
-x,1/2+y,1/2-z
-x,-y,-z
x,1/2-y,1/2+z
loop_
_atom_site_type_symbol
_atom_site_label
_atom_site_fract_x
_atom_site_fract_y
_atom_site_fract_z
Si Si1 0.836974 0.452706 0.851907
Si Si2 0.919853 0.400860 0.691012
Si Si3 0.156113 0.874109 0.414947
Si Si4 0.482784 0.913456 0.589712
Si Si5 0.614350 0.981313 0.914901
Si Si6 0.403394 0.344876 0.394135
O O1 0.855604 0.372792 0.760107
O O2 0.737690 0.573935 0.748864
O O3 0.787002 0.385514 0.920519
O O4 0.000000 0.500000 0.000000
O O5 0.938714 0.257596 0.661068
O O6 0.785555 0.476594 0.531593
O O7 0.056835 0.501097 0.807275
O O8 0.309878 0.872379 0.466878
O O9 0.534256 0.972099 0.741393
O O10 0.590186 0.795124 0.646313
O O11 0.500000 0.000000 0.500000
O O12 0.538456 0.084322 0.936088
O O13 0.594445 0.856461 0.975892
#
# Coordination Sequence:
#
# PCOD9246258 Si02
#       6
#     4   4   4   4   4   4
#     4   9  20  39  65  91 123 175 214 257 332 399
#     4  10  23  42  66  95 125 174 215 274 329 395
#     4  11  23  42  65  94 135 167 221 271 329 394
#     4  12  27  39  67 103 132 168 224 281 322 385
#     4  10  22  42  66  91 126 176 213 265 330 395
#     4  10  21  40  66  92 129 173 217 261 335 392
#
# _framework density 20.175374999999999
#
# number of rings (size 3 to 8) (size 9 to 14) (size 15 to 20)
#    0.000    1.667    3.333    0.000    2.333    8.000 
#    0.000    1.667    0.000    0.000    0.000    0.000 
#    0.000    0.000    0.000    0.000    0.000    0.000 
#
# Total GULP energy -133689.864640 kJ/mol
# GULP energy per Si atom -5570.411027 kJ/mol
# Density = 2.012946 g / cm^3
# Si number density = 20.175375 Si / 1000 Ang^3
#
#
#
# Elastic Constant Matrix: (Units=GPa)
#
#
# Indices 1 2 3 4 5 6 
#
# 1 59.0318 22.4023 30.2536 0.0000 -12.2691 0.0000
# 2 22.4023 76.5915 29.5104 0.0000 -18.6515 0.0000
# 3 30.2536 29.5104 115.4450 0.0000 -7.1171 0.0000
# 4 0.0000 0.0000 0.0000 14.8976 0.0000 4.0485
# 5 -12.2691 -18.6515 -7.1171 0.0000 33.0773 0.0000
# 6 0.0000 0.0000 0.0000 4.0485 0.0000 21.7594
#
#
#
# Elastic Compliance Matrix: (Units=1/GPa)
#
#
# Indices 1 2 3 4 5 6 
#
# 1 0.021573 -0.003325 -0.004485 0.000000 0.005162 0.000000
# 2 -0.003325 0.017078 -0.003017 0.000000 0.007747 0.000000
# 3 -0.004485 -0.003017 0.010541 0.000000 -0.001097 0.000000
# 4 0.000000 0.000000 0.000000 0.070700 0.000000 -0.013154
# 5 0.005162 0.007747 -0.001097 0.000000 0.036280 0.000000
# 6 0.000000 0.000000 0.000000 -0.013154 0.000000 0.048405
#
#
# Mechanical properties :
#
#
# Convention : Reuss Voigt Hill
#
# Bulk Modulus (GPa) = 36.31242 46.15567 41.23404
# Shear Modulus (GPa) = 21.23961 25.20697 23.22329
#
# Velocity S-wave (km/s) = 3.24813 3.53851 3.39642
# Velocity P-wave (km/s) = 5.66609 6.29457 5.98858
#
# Compressibility (1/GPa) = 0.02753879
#
# Stress axis : x y z
#
# Youngs Moduli (GPa) = 46.35336 58.55611 94.86690
#
# Poissons Ratio (x) = 0.19468 0.42552
# Poissons Ratio (y) = 0.15411 0.28617
# Poissons Ratio (z) = 0.20792 0.17664
#
# Static dielectric constant tensor:
#      x y z
#    x 1.754330 0.000000 -0.026740 
#    y 0.000000 1.761430 0.000000 
#    z -0.026740 0.000000 1.754950 
# 
# From -- ./inp_files/28963.got.cif
#   From: 2010.05.17/outbox.cif.g08.bks.cpg/sg14_15_cif.got.tgz:28963.got - 2010.06.03 17:49:19.
