data_PCOD9246581
_publ_section_title
;
Structure prediction by ZEFSAII (Michael W. Deem and Ramdas Pophale) SiO2 
 PCOD9246581
Probable space group: P 21/C
;
_chemical_formula_sum "Si O2"
_cell_formula_units_Z 28
_cell_length_a 21.473806
_cell_length_b 5.278076
_cell_length_c 12.989298
_cell_angle_alpha 90.000000
_cell_angle_beta 110.922284
_cell_angle_gamma 90.000000
_cell_volume 1375.142644
_symmetry_space_group_name_H-M "P 21/C"
_symmetry_group_IT_number 14
_symmetry_cell_setting 'monoclinic'
loop_
_space_group_symop_operation_xyz
x,y,z
-x,1/2+y,1/2-z
-x,-y,-z
x,1/2-y,1/2+z
loop_
_atom_site_type_symbol
_atom_site_label
_atom_site_fract_x
_atom_site_fract_y
_atom_site_fract_z
Si Si1 0.415070 0.522123 0.653952
Si Si2 0.171293 0.994963 0.161932
Si Si3 0.220572 0.624786 0.904813
Si Si4 0.906743 0.384154 0.038525
Si Si5 0.961367 0.707261 0.409272
Si Si6 0.734096 0.863067 0.957450
Si Si7 0.521840 0.524502 0.896155
O O1 0.338041 0.454842 0.622847
O O2 0.457102 0.513044 0.784117
O O3 0.444417 0.295834 0.601903
O O4 0.430188 0.793841 0.611092
O O5 0.216026 0.880380 0.278786
O O6 0.108234 0.126418 0.180292
O O7 0.133700 0.801652 0.062952
O O8 0.216719 0.161187 0.112074
O O9 0.147754 0.559718 0.908630
O O10 0.265916 0.399431 0.979022
O O11 0.240126 0.903398 0.956661
O O12 0.977676 0.291410 0.127120
O O13 0.933981 0.599003 0.978870
O O14 0.000000 0.500000 0.500000
O O15 0.500000 0.500000 0.000000
#
# Coordination Sequence:
#
# PCOD9246581 Si02
#       7
#     4   4   4   4   4   4   4
#     4  10  22  39  63  94 126 161 198 241 301 343
#     4  10  22  39  60  82 119 161 200 254 310 361
#     4  11  24  40  62  86 121 163 207 248 308 360
#     4   9  19  38  57  83 117 150 201 265 303 366
#     4   9  17  36  60  80 114 152 199 258 316 354
#     4  11  24  41  60  90 126 159 201 249 289 368
#     4  10  21  41  66  95 126 158 198 248 287 351
#
# _framework density 20.361523999999999
#
# number of rings (size 3 to 8) (size 9 to 14) (size 15 to 20)
#    0.000    2.000    1.429    1.286    2.000    2.286 
#    7.714    0.000    0.000    0.000    0.000    0.000 
#    0.000    0.000    0.000    0.000    0.000    0.000 
#
# Total GULP energy -155987.987525 kJ/mol
# GULP energy per Si atom -5570.999554 kJ/mol
# Density = 2.031518 g / cm^3
# Si number density = 20.361524 Si / 1000 Ang^3
#
#
#
# Elastic Constant Matrix: (Units=GPa)
#
#
# Indices 1 2 3 4 5 6 
#
# 1 64.5244 -10.7799 17.6876 0.0000 18.1982 0.0000
# 2 -10.7799 45.9789 1.6438 0.0000 -0.6874 0.0000
# 3 17.6876 1.6438 51.5000 0.0000 -11.1857 0.0000
# 4 0.0000 0.0000 0.0000 13.4313 0.0000 5.1963
# 5 18.1982 -0.6874 -11.1857 0.0000 21.3311 0.0000
# 6 0.0000 0.0000 0.0000 5.1963 0.0000 28.1956
#
#
#
# Elastic Compliance Matrix: (Units=1/GPa)
#
#
# Indices 1 2 3 4 5 6 
#
# 1 0.033184 0.007920 -0.020024 0.000000 -0.038556 0.000000
# 2 0.007920 0.023667 -0.005391 0.000000 -0.008821 0.000000
# 3 -0.020024 -0.005391 0.034014 0.000000 0.034746 0.000000
# 4 0.000000 0.000000 0.000000 0.080169 0.000000 -0.014775
# 5 -0.038556 -0.008821 0.034746 0.000000 0.097709 0.000000
# 6 0.000000 0.000000 0.000000 -0.014775 0.000000 0.038189
#
#
# Mechanical properties :
#
#
# Convention : Reuss Voigt Hill
#
# Bulk Modulus (GPa) = 17.89774 19.90072 18.89923
# Shear Modulus (GPa) = 13.86778 22.82173 18.34475
#
# Velocity S-wave (km/s) = 2.61258 3.35151 3.00484
# Velocity P-wave (km/s) = 4.23200 4.97712 4.61961
#
# Compressibility (1/GPa) = 0.05587297
#
# Stress axis : x y z
#
# Youngs Moduli (GPa) = 30.13474 42.25335 29.40005
#
# Poissons Ratio (x) = -0.33463 0.58871
# Poissons Ratio (y) = -0.23866 0.15851
# Poissons Ratio (z) = 0.60342 0.22780
#
# Static dielectric constant tensor:
#      x y z
#    x 1.764940 0.000000 0.023030 
#    y 0.000000 1.826280 0.000000 
#    z 0.023030 0.000000 1.719450 
# 
# From -- ./inp_files/34578.got.cif
#   From: 2010.05.17/outbox.cif.g08.bks.cpg/sg14_18_cif.got.tgz:34578.got - 2010.06.03 17:49:19.
