data_PCOD9246441
_publ_section_title
;
Structure prediction by ZEFSAII (Michael W. Deem and Ramdas Pophale) SiO2 
 PCOD9246441
Probable space group: P 21/C
;
_chemical_formula_sum "Si O2"
_cell_formula_units_Z 32
_cell_length_a 11.502642
_cell_length_b 7.668027
_cell_length_c 17.108552
_cell_angle_alpha 90.000000
_cell_angle_beta 67.485812
_cell_angle_gamma 90.000000
_cell_volume 1394.008030
_symmetry_space_group_name_H-M "P 21/C"
_symmetry_group_IT_number 14
_symmetry_cell_setting 'monoclinic'
loop_
_space_group_symop_operation_xyz
x,y,z
-x,1/2+y,1/2-z
-x,-y,-z
x,1/2-y,1/2+z
loop_
_atom_site_type_symbol
_atom_site_label
_atom_site_fract_x
_atom_site_fract_y
_atom_site_fract_z
Si Si1 0.751146 0.544222 0.850536
Si Si2 0.993313 0.877451 0.378258
Si Si3 0.996654 0.262686 0.458819
Si Si4 0.742054 0.682030 0.683397
Si Si5 0.488322 0.258845 0.543844
Si Si6 0.511283 0.597541 0.631432
Si Si7 0.251499 0.948390 0.231285
Si Si8 0.765528 0.180195 0.923476
O O1 0.752832 0.568796 0.758182
O O2 0.611111 0.605027 0.914234
O O3 0.786582 0.348504 0.863928
O O4 0.864838 0.649585 0.863115
O O5 0.117377 0.873814 0.293047
O O6 0.008766 0.749967 0.447147
O O7 0.987053 0.068546 0.421918
O O8 0.130021 0.333498 0.397694
O O9 0.877016 0.358080 0.453270
O O10 0.625292 0.630689 0.659521
O O11 0.732928 0.879991 0.719100
O O12 0.478098 0.398351 0.616863
O O13 0.459898 0.322503 0.462007
O O14 0.640428 0.254941 0.500324
O O15 0.381075 0.662494 0.704349
O O16 0.246681 0.971727 0.137742
#
# Coordination Sequence:
#
# PCOD9246441 Si02
#       8
#     4   4   4   4   4   4   4   4
#     4  11  21  38  65  96 126 172 212 266 323 394
#     4   9  19  36  64  90 124 164 217 259 320 375
#     4   9  19  38  59  93 124 165 216 269 308 381
#     4  11  22  38  65  90 129 168 217 263 324 378
#     4  10  21  41  63  90 129 164 212 270 328 380
#     4  10  22  39  63  92 123 168 217 268 322 384
#     4  10  21  41  62  91 127 171 206 273 317 378
#     4  10  22  39  63  92 132 166 216 262 327 386
#
# _framework density 22.955393000000001
#
# number of rings (size 3 to 8) (size 9 to 14) (size 15 to 20)
#    0.000    2.000    1.250    1.875    0.000    4.000 
#    2.250    0.625    0.000    0.000    0.000    0.000 
#    0.000    0.000    0.000    0.000    0.000    0.000 
#
# Total GULP energy -178564.492296 kJ/mol
# GULP energy per Si atom -5580.140384 kJ/mol
# Density = 2.290315 g / cm^3
# Si number density = 22.955393 Si / 1000 Ang^3
#
#
#
# Elastic Constant Matrix: (Units=GPa)
#
#
# Indices 1 2 3 4 5 6 
#
# 1 205.9614 33.3270 53.7953 0.0000 7.0869 0.0000
# 2 33.3270 49.7009 25.4875 0.0000 7.4035 0.0000
# 3 53.7953 25.4875 69.1400 0.0000 -21.7008 0.0000
# 4 0.0000 0.0000 0.0000 8.0261 0.0000 1.0309
# 5 7.0869 7.4035 -21.7008 0.0000 30.8899 0.0000
# 6 0.0000 0.0000 0.0000 1.0309 0.0000 21.4656
#
#
#
# Elastic Compliance Matrix: (Units=1/GPa)
#
#
# Indices 1 2 3 4 5 6 
#
# 1 0.007136 0.000431 -0.008028 0.000000 -0.007380 0.000000
# 2 0.000431 0.032865 -0.019184 0.000000 -0.021453 0.000000
# 3 -0.008028 -0.019184 0.038233 0.000000 0.033299 0.000000
# 4 0.000000 0.000000 0.000000 0.125367 0.000000 -0.006021
# 5 -0.007380 -0.021453 0.033299 0.000000 0.062601 0.000000
# 6 0.000000 0.000000 0.000000 -0.006021 0.000000 0.046875
#
#
# Mechanical properties :
#
#
# Convention : Reuss Voigt Hill
#
# Bulk Modulus (GPa) = 40.53057 61.11356 50.82206
# Shear Modulus (GPa) = 13.33825 26.22248 19.78036
#
# Velocity S-wave (km/s) = 2.41311 3.38349 2.93864
# Velocity P-wave (km/s) = 5.04566 6.47646 5.80531
#
# Compressibility (1/GPa) = 0.02467274
#
# Stress axis : x y z
#
# Youngs Moduli (GPa) = 140.12966 30.42767 26.15571
#
# Poissons Ratio (x) = -0.01311 0.20997
# Poissons Ratio (y) = -0.06037 0.50176
# Poissons Ratio (z) = 1.12491 0.58371
#
# Static dielectric constant tensor:
#      x y z
#    x 1.862350 0.000000 -0.045880 
#    y 0.000000 2.131330 0.000000 
#    z -0.045880 0.000000 1.839730 
# 
# From -- ./inp_files/57035.got.cif
#   From: 2010.05.17/outbox.cif.g08.bks.cpg/sg14_29_cif.got.tgz:57035.got - 2010.06.03 17:49:19.
