data_PCOD9246140
_publ_section_title
;
Structure prediction by ZEFSAII (Michael W. Deem and Ramdas Pophale) SiO2 
 PCOD9246140
Probable space group: P 21/C
;
_chemical_formula_sum "Si O2"
_cell_formula_units_Z 32
_cell_length_a 6.310227
_cell_length_b 9.746158
_cell_length_c 27.951091
_cell_angle_alpha 90.000000
_cell_angle_beta 123.527743
_cell_angle_gamma 90.000000
_cell_volume 1432.994502
_symmetry_space_group_name_H-M "P 21/C"
_symmetry_group_IT_number 14
_symmetry_cell_setting 'monoclinic'
loop_
_space_group_symop_operation_xyz
x,y,z
-x,1/2+y,1/2-z
-x,-y,-z
x,1/2-y,1/2+z
loop_
_atom_site_type_symbol
_atom_site_label
_atom_site_fract_x
_atom_site_fract_y
_atom_site_fract_z
Si Si1 0.743599 0.326179 0.551581
Si Si2 0.933312 0.257880 0.342470
Si Si3 0.527101 0.903253 0.072003
Si Si4 0.644620 0.329023 0.127108
Si Si5 0.547732 0.547029 0.727426
Si Si6 0.319436 0.095535 0.122921
Si Si7 0.449692 0.949935 0.672505
Si Si8 0.924092 0.739234 0.245881
O O1 0.654839 0.317290 0.485737
O O2 0.578893 0.449082 0.554165
O O3 0.717584 0.190009 0.580760
O O4 0.023376 0.386810 0.591250
O O5 0.207586 0.321445 0.389402
O O6 0.964858 0.202715 0.292178
O O7 0.717217 0.372522 0.310820
O O8 0.798920 0.147212 0.360849
O O9 0.394629 0.954998 0.104323
O O10 0.408013 0.228995 0.105782
O O11 0.556589 0.472541 0.139344
O O12 0.870509 0.259505 0.186874
O O13 0.472195 0.407013 0.691772
O O14 0.615454 0.550018 0.791590
O O15 0.779465 0.614226 0.727288
O O16 0.690422 0.865089 0.723684
#
# Coordination Sequence:
#
# PCOD9246140 Si02
#       8
#     4   4   4   4   4   4   4   4
#     4  10  22  39  65  90 127 162 207 281 319 371
#     4  11  22  40  61  89 128 168 205 264 315 384
#     4  10  21  40  63  95 121 161 219 263 330 381
#     4  11  25  38  60  93 127 169 212 251 325 391
#     4  11  22  37  60  93 123 157 207 255 316 385
#     4  11  21  37  64  93 122 160 208 274 325 372
#     4  11  26  38  58  93 131 169 209 256 323 390
#     4  11  24  39  61  89 125 171 203 255 319 386
#
# _framework density 22.330860999999999
#
# number of rings (size 3 to 8) (size 9 to 14) (size 15 to 20)
#    0.000    1.250    3.750    1.875    8.750    0.000 
#    0.000    0.625    0.000    1.500    0.000    0.000 
#    0.000    0.000    0.000    0.000    0.000    0.000 
#
# Total GULP energy -178506.036980 kJ/mol
# GULP energy per Si atom -5578.313656 kJ/mol
# Density = 2.228003 g / cm^3
# Si number density = 22.330861 Si / 1000 Ang^3
#
#
#
# Elastic Constant Matrix: (Units=GPa)
#
#
# Indices 1 2 3 4 5 6 
#
# 1 60.5761 8.3412 -11.0446 0.0000 -12.4448 0.0000
# 2 8.3412 48.0434 2.6427 0.0000 -2.0082 0.0000
# 3 -11.0446 2.6427 38.4953 0.0000 -11.6020 0.0000
# 4 0.0000 0.0000 0.0000 18.1054 0.0000 1.8418
# 5 -12.4448 -2.0082 -11.6020 0.0000 16.5207 0.0000
# 6 0.0000 0.0000 0.0000 1.8418 0.0000 31.0154
#
#
#
# Elastic Compliance Matrix: (Units=1/GPa)
#
#
# Indices 1 2 3 4 5 6 
#
# 1 0.026966 -0.004310 0.017755 0.000000 0.032258 0.000000
# 2 -0.004310 0.021632 -0.003688 0.000000 -0.003207 0.000000
# 3 0.017755 -0.003688 0.044676 0.000000 0.044301 0.000000
# 4 0.000000 0.000000 0.000000 0.055568 0.000000 -0.003300
# 5 0.032258 -0.003207 0.044301 0.000000 0.115551 0.000000
# 6 0.000000 0.000000 0.000000 -0.003300 0.000000 0.032438
#
#
# Mechanical properties :
#
#
# Convention : Reuss Voigt Hill
#
# Bulk Modulus (GPa) = 8.86636 16.33263 12.59949
# Shear Modulus (GPa) = 15.87744 22.93999 19.40871
#
# Velocity S-wave (km/s) = 2.66937 3.20859 2.95132
# Velocity P-wave (km/s) = 3.67148 4.58874 4.15550
#
# Compressibility (1/GPa) = 0.11278581
#
# Stress axis : x y z
#
# Youngs Moduli (GPa) = 37.08408 46.22864 22.38343
#
# Poissons Ratio (x) = 0.19925 -0.39741
# Poissons Ratio (y) = 0.15983 0.08256
# Poissons Ratio (z) = -0.65841 0.17050
#
# Static dielectric constant tensor:
#      x y z
#    x 1.861190 0.000000 -0.056110 
#    y 0.000000 1.907720 0.000000 
#    z -0.056110 0.000000 1.851830 
# 
# From -- ./inp_files/75815.got.cif
#   From: 2010.05.17/outbox.cif.g08.bks.cpg/sg14_38_cif.got.tgz:75815.got - 2010.06.03 17:49:19.
