data_PCOD9246363
_publ_section_title
;
Structure prediction by ZEFSAII (Michael W. Deem and Ramdas Pophale) SiO2 
 PCOD9246363
Probable space group: P 21/C
;
_chemical_formula_sum "Si O2"
_cell_formula_units_Z 20
_cell_length_a 5.191885
_cell_length_b 27.911038
_cell_length_c 5.142961
_cell_angle_alpha 90.000000
_cell_angle_beta 88.336431
_cell_angle_gamma 90.000000
_cell_volume 744.956989
_symmetry_space_group_name_H-M "P 21/C"
_symmetry_group_IT_number 14
_symmetry_cell_setting 'monoclinic'
loop_
_space_group_symop_operation_xyz
x,y,z
-x,1/2+y,1/2-z
-x,-y,-z
x,1/2-y,1/2+z
loop_
_atom_site_type_symbol
_atom_site_label
_atom_site_fract_x
_atom_site_fract_y
_atom_site_fract_z
Si Si1 0.688219 0.554184 0.384784
Si Si2 0.258884 0.338269 0.810976
Si Si3 0.822664 0.042473 0.777087
Si Si4 0.627982 0.282151 0.513015
Si Si5 0.239188 0.647360 0.868844
O O1 0.735264 0.607795 0.293876
O O2 0.396876 0.548969 0.492559
O O3 0.760271 0.511326 0.183188
O O4 0.893753 0.545678 0.610042
O O5 0.336498 0.299995 0.588360
O O6 0.492123 0.337207 0.012338
O O7 0.997623 0.330614 0.970046
O O8 0.781706 0.089899 0.609818
O O9 0.684708 0.250115 0.761189
O O10 0.761243 0.332733 0.427239
#
# Coordination Sequence:
#
# PCOD9246363 Si02
#       5
#     4   4   4   4   4
#     4  10  21  40  70 107 151 199 248 304 371 451
#     4  12  27  47  77 111 150 201 252 312 381 453
#     4  10  21  40  70 107 151 199 248 304 371 451
#     4  12  28  54  79 114 151 198 260 322 386 450
#     4  12  27  47  77 111 150 201 252 312 381 453
#
# _framework density 26.847187999999999
#
# number of rings (size 3 to 8) (size 9 to 14) (size 15 to 20)
#    0.000    0.800    4.000    2.400    0.000    3.200 
#    0.000    0.000    0.000    0.000    0.000    0.000 
#    0.000    0.000    0.000    0.000    0.000    0.000 
#
# Total GULP energy -112030.671090 kJ/mol
# GULP energy per Si atom -5601.533555 kJ/mol
# Density = 2.678608 g / cm^3
# Si number density = 26.847188 Si / 1000 Ang^3
#
#
#
# Elastic Constant Matrix: (Units=GPa)
#
#
# Indices 1 2 3 4 5 6 
#
# 1 143.6095 18.9950 49.5131 0.0000 -11.1587 0.0000
# 2 18.9950 153.9541 40.3498 0.0000 -0.0115 0.0000
# 3 49.5131 40.3498 133.4136 0.0000 -15.6090 0.0000
# 4 0.0000 0.0000 0.0000 52.4728 0.0000 0.7412
# 5 -11.1587 -0.0115 -15.6090 0.0000 39.6759 0.0000
# 6 0.0000 0.0000 0.0000 0.7412 0.0000 40.5479
#
#
#
# Elastic Compliance Matrix: (Units=1/GPa)
#
#
# Indices 1 2 3 4 5 6 
#
# 1 0.008044 -0.000267 -0.002767 0.000000 0.001174 0.000000
# 2 -0.000267 0.007093 -0.002154 0.000000 -0.000920 0.000000
# 3 -0.002767 -0.002154 0.009521 0.000000 0.002967 0.000000
# 4 0.000000 0.000000 0.000000 0.019062 0.000000 -0.000348
# 5 0.001174 -0.000920 0.002967 0.000000 0.026701 0.000000
# 6 0.000000 0.000000 0.000000 -0.000348 0.000000 0.024669
#
#
# Mechanical properties :
#
#
# Convention : Reuss Voigt Hill
#
# Bulk Modulus (GPa) = 70.02017 72.07700 71.04858
# Shear Modulus (GPa) = 45.36118 48.01393 46.68755
#
# Velocity S-wave (km/s) = 4.11494 4.23355 4.17467
# Velocity P-wave (km/s) = 6.97959 7.12760 7.05398
#
# Compressibility (1/GPa) = 0.01428160
#
# Stress axis : x y z
#
# Youngs Moduli (GPa) = 124.31760 140.98819 105.03169
#
# Poissons Ratio (x) = 0.03766 0.29064
# Poissons Ratio (y) = 0.03321 0.22621
# Poissons Ratio (z) = 0.34401 0.30365
#
# Static dielectric constant tensor:
#      x y z
#    x 2.041450 0.000000 0.059360 
#    y 0.000000 2.168050 0.000000 
#    z 0.059360 0.000000 2.151980 
# 
# From -- ./inp_files/666.got.cif
#   From: 2010.05.17/outbox.cif.g08.bks.cpg/sg14_1_cif.got.tgz:666.got - 2010.06.03 17:49:19.
