data_PCOD9246007
_publ_section_title
;
Structure prediction by ZEFSAII (Michael W. Deem and Ramdas Pophale) SiO2 
 PCOD9246007
Probable space group: P 21/C
;
_chemical_formula_sum "Si O2"
_cell_formula_units_Z 24
_cell_length_a 9.018754
_cell_length_b 15.360861
_cell_length_c 8.641959
_cell_angle_alpha 90.000000
_cell_angle_beta 63.535308
_cell_angle_gamma 90.000000
_cell_volume 1071.763143
_symmetry_space_group_name_H-M "P 21/C"
_symmetry_group_IT_number 14
_symmetry_cell_setting 'monoclinic'
loop_
_space_group_symop_operation_xyz
x,y,z
-x,1/2+y,1/2-z
-x,-y,-z
x,1/2-y,1/2+z
loop_
_atom_site_type_symbol
_atom_site_label
_atom_site_fract_x
_atom_site_fract_y
_atom_site_fract_z
Si Si1 0.307724 0.366395 0.714666
Si Si2 0.612455 0.086259 0.256753
Si Si3 0.532995 0.106891 0.645657
Si Si4 0.744423 0.780420 0.074747
Si Si5 0.857711 0.457310 0.174120
Si Si6 0.039595 0.903170 0.043580
O O1 0.495903 0.381787 0.672531
O O2 0.273075 0.299590 0.596271
O O3 0.229752 0.320734 0.901157
O O4 0.231257 0.458474 0.709318
O O5 0.560697 0.119965 0.450080
O O6 0.576936 0.981844 0.282394
O O7 0.794053 0.116737 0.128466
O O8 0.426720 0.183580 0.771118
O O9 0.712015 0.089628 0.643198
O O10 0.894048 0.837397 0.070665
O O11 0.927180 0.404741 0.287742
O O12 0.000000 0.500000 0.000000
O O13 0.000000 0.000000 0.000000
#
# Coordination Sequence:
#
# PCOD9246007 Si02
#       6
#     4   4   4   4   4   4
#     4  11  25  43  64  94 135 176 216 270 336 389
#     4  10  21  41  66  96 126 170 216 265 323 400
#     4  10  21  39  69  93 128 169 215 262 328 397
#     4  12  25  43  67  96 136 173 218 278 334 390
#     4  11  24  41  69  98 131 174 229 270 325 396
#     4  12  22  41  69 100 130 169 228 276 327 390
#
# _framework density 22.393006
#
# number of rings (size 3 to 8) (size 9 to 14) (size 15 to 20)
#    0.000    1.000    3.333    3.000    7.000    2.667 
#    3.000    1.667    0.000    0.000    0.000    0.000 
#    0.000    0.000    0.000    0.000    0.000    0.000 
#
# Total GULP energy -134230.082171 kJ/mol
# GULP energy per Si atom -5592.920090 kJ/mol
# Density = 2.234204 g / cm^3
# Si number density = 22.393006 Si / 1000 Ang^3
#
#
#
# Elastic Constant Matrix: (Units=GPa)
#
#
# Indices 1 2 3 4 5 6 
#
# 1 116.7172 9.0150 34.6529 0.0000 -5.0840 0.0000
# 2 9.0150 26.5701 -17.9314 0.0000 -1.4714 0.0000
# 3 34.6529 -17.9314 84.4487 0.0000 1.3888 0.0000
# 4 0.0000 0.0000 0.0000 32.0166 0.0000 3.5156
# 5 -5.0840 -1.4714 1.3888 0.0000 44.4743 0.0000
# 6 0.0000 0.0000 0.0000 3.5156 0.0000 17.6325
#
#
#
# Elastic Compliance Matrix: (Units=1/GPa)
#
#
# Indices 1 2 3 4 5 6 
#
# 1 0.011086 -0.007912 -0.006249 0.000000 0.001201 0.000000
# 2 -0.007912 0.049639 0.013782 0.000000 0.000307 0.000000
# 3 -0.006249 0.013782 0.017345 0.000000 -0.000800 0.000000
# 4 0.000000 0.000000 0.000000 0.031933 0.000000 -0.006367
# 5 0.001201 0.000307 -0.000800 0.000000 0.022657 0.000000
# 6 0.000000 0.000000 0.000000 -0.006367 0.000000 0.057983
#
#
# Mechanical properties :
#
#
# Convention : Reuss Voigt Hill
#
# Bulk Modulus (GPa) = 12.93475 31.02324 21.97899
# Shear Modulus (GPa) = 23.02307 32.29132 27.65719
#
# Velocity S-wave (km/s) = 3.20994 3.80152 3.51819
# Velocity P-wave (km/s) = 4.41894 5.75785 5.13224
#
# Compressibility (1/GPa) = 0.07731112
#
# Stress axis : x y z
#
# Youngs Moduli (GPa) = 90.20002 20.14555 57.65265
#
# Poissons Ratio (x) = 0.15940 0.36027
# Poissons Ratio (y) = 0.71370 -0.79455
# Poissons Ratio (z) = 0.56367 -0.27764
#
# Static dielectric constant tensor:
#      x y z
#    x 1.848920 0.000000 -0.038670 
#    y 0.000000 1.827200 0.000000 
#    z -0.038670 0.000000 1.840580 
# 
# From -- ./inp_files/9072.got.cif
#   From: 2010.05.17/outbox.cif.g08.bks.cpg/sg14_5_cif.got.tgz:9072.got - 2010.06.03 17:49:19.
