data_PCOD9246537
_publ_section_title
;
Structure prediction by ZEFSAII (Michael W. Deem and Ramdas Pophale) SiO2 
 PCOD9246537
Probable space group: P 21/C
;
_chemical_formula_sum "Si O2"
_cell_formula_units_Z 30
_cell_length_a 6.508644
_cell_length_b 13.860445
_cell_length_c 18.439227
_cell_angle_alpha 90.000000
_cell_angle_beta 123.625866
_cell_angle_gamma 90.000000
_cell_volume 1385.109199
_symmetry_space_group_name_H-M "P 21/C"
_symmetry_group_IT_number 14
_symmetry_cell_setting 'monoclinic'
loop_
_space_group_symop_operation_xyz
x,y,z
-x,1/2+y,1/2-z
-x,-y,-z
x,1/2-y,1/2+z
loop_
_atom_site_type_symbol
_atom_site_label
_atom_site_fract_x
_atom_site_fract_y
_atom_site_fract_z
Si Si1 0.000000 0.000000 0.500000
Si Si2 0.563344 0.180953 0.034343
Si Si3 0.005107 0.815570 0.122995
Si Si4 0.818697 0.102692 0.315885
Si Si5 0.359207 0.131141 0.142319
Si Si6 0.116587 0.431084 0.267300
Si Si7 0.008412 0.312080 0.102526
Si Si8 0.311239 0.567355 0.572261
O O1 0.892872 0.054877 0.406092
O O2 0.039566 0.105854 0.548527
O O3 0.674791 0.091801 0.010084
O O4 0.281091 0.193175 0.954748
O O5 0.552954 0.161953 0.117509
O O6 0.728598 0.273113 0.048910
O O7 0.095218 0.712636 0.168393
O O8 0.162067 0.850805 0.085301
O O9 0.028875 0.895523 0.190721
O O10 0.524544 0.101910 0.243304
O O11 0.938985 0.036191 0.276397
O O12 0.182128 0.219992 0.123186
O O13 0.225645 0.038396 0.080813
O O14 0.404975 0.428652 0.344864
O O15 0.069806 0.357371 0.192577
#
# Coordination Sequence:
#
# PCOD9246537 Si02
#       8
#     2   4   4   4   4   4   4   4
#     4  10  22  44  66  92 132 172 216 270 330 396
#     4  11  23  38  60  92 127 165 210 264 327 396
#     4  11  22  41  64  91 129 173 216 268 335 400
#     4  10  21  41  65  91 126 166 214 270 325 394
#     4  11  23  39  64  94 124 166 215 271 330 393
#     4   9  22  40  61  90 124 161 212 271 325 390
#     4  11  23  41  64  92 127 170 218 269 327 395
#     4  10  22  39  61  90 124 163 209 267 332 391
#
# _framework density 21.658943000000001
#
# number of rings (size 3 to 8) (size 9 to 14) (size 15 to 20)
#    0.000    1.600    0.000    4.400    0.000    7.467 
#    0.000   12.667    0.000    0.000    0.000    0.000 
#    0.000    0.000    0.000    0.000    0.000    0.000 
#
# Total GULP energy -167262.562267 kJ/mol
# GULP energy per Si atom -5575.418742 kJ/mol
# Density = 2.160965 g / cm^3
# Si number density = 21.658943 Si / 1000 Ang^3
#
#
#
# Elastic Constant Matrix: (Units=GPa)
#
#
# Indices 1 2 3 4 5 6 
#
# 1 54.8218 13.8618 -0.4249 0.0000 -7.2795 0.0000
# 2 13.8618 99.9745 -6.5371 0.0000 4.4875 0.0000
# 3 -0.4249 -6.5371 76.7367 0.0000 -10.4767 0.0000
# 4 0.0000 0.0000 0.0000 35.7530 0.0000 1.5749
# 5 -7.2795 4.4875 -10.4767 0.0000 16.7204 0.0000
# 6 0.0000 0.0000 0.0000 1.5749 0.0000 14.6989
#
#
#
# Elastic Compliance Matrix: (Units=1/GPa)
#
#
# Indices 1 2 3 4 5 6 
#
# 1 0.020473 -0.003230 0.001283 0.000000 0.010584 0.000000
# 2 -0.003230 0.010654 0.000336 0.000000 -0.004055 0.000000
# 3 0.001283 0.000336 0.014360 0.000000 0.009466 0.000000
# 4 0.000000 0.000000 0.000000 0.028102 0.000000 -0.003011
# 5 0.010584 -0.004055 0.009466 0.000000 0.071435 0.000000
# 6 0.000000 0.000000 0.000000 -0.003011 0.000000 0.068355
#
#
# Mechanical properties :
#
#
# Convention : Reuss Voigt Hill
#
# Bulk Modulus (GPa) = 23.65961 27.25919 25.45940
# Shear Modulus (GPa) = 21.67426 28.41001 25.04213
#
# Velocity S-wave (km/s) = 3.16683 3.62567 3.40399
# Velocity P-wave (km/s) = 4.93145 5.49001 5.21821
#
# Compressibility (1/GPa) = 0.04226612
#
# Stress axis : x y z
#
# Youngs Moduli (GPa) = 48.84493 93.85828 69.63942
#
# Poissons Ratio (x) = 0.30314 -0.08936
# Poissons Ratio (y) = 0.15776 -0.02341
# Poissons Ratio (z) = -0.06268 -0.03155
#
# Static dielectric constant tensor:
#      x y z
#    x 1.786130 0.000000 0.023230 
#    y 0.000000 1.787990 0.000000 
#    z 0.023230 0.000000 1.804820 
# 
# From -- ./inp_files/53350.got.cif
#   From: 2010.05.17/outbox.cif.g08.bks.cpg/sg14_27_cif.got.tgz:53350.got - 2010.06.03 17:49:19.
