data_PCOD9246265
_publ_section_title
;
Structure prediction by ZEFSAII (Michael W. Deem and Ramdas Pophale) SiO2 
 PCOD9246265
Probable space group: P 21/C
;
_chemical_formula_sum "Si O2"
_cell_formula_units_Z 26
_cell_length_a 9.203871
_cell_length_b 12.864117
_cell_length_c 10.102497
_cell_angle_alpha 90.000000
_cell_angle_beta 98.788477
_cell_angle_gamma 90.000000
_cell_volume 1182.088710
_symmetry_space_group_name_H-M "P 21/C"
_symmetry_group_IT_number 14
_symmetry_cell_setting 'monoclinic'
loop_
_space_group_symop_operation_xyz
x,y,z
-x,1/2+y,1/2-z
-x,-y,-z
x,1/2-y,1/2+z
loop_
_atom_site_type_symbol
_atom_site_label
_atom_site_fract_x
_atom_site_fract_y
_atom_site_fract_z
Si Si1 0.882400 0.864125 0.730237
Si Si2 0.352807 0.525591 0.400493
Si Si3 0.000000 0.000000 0.500000
Si Si4 0.136796 0.951541 0.093014
Si Si5 0.567649 0.230769 0.162273
Si Si6 0.630829 0.796987 0.125397
Si Si7 0.108443 0.691437 0.831301
O O1 0.757488 0.787433 0.659850
O O2 0.004796 0.793161 0.820138
O O3 0.805719 0.950397 0.813238
O O4 0.958576 0.929596 0.625390
O O5 0.500000 0.500000 0.500000
O O6 0.250777 0.577409 0.496206
O O7 0.384502 0.612016 0.295461
O O8 0.298778 0.412393 0.349899
O O9 0.943873 0.106560 0.570922
O O10 0.093041 0.858864 0.182731
O O11 0.000000 0.000000 0.000000
O O12 0.488614 0.284378 0.274464
O O13 0.716796 0.286573 0.136640
O O14 0.451653 0.220660 0.025612
#
# Coordination Sequence:
#
# PCOD9246265 Si02
#       7
#     4   4   2   4   4   4   4
#     4  11  25  44  73  99 144 187 237 303 364 430
#     4  10  21  40  66  94 132 179 230 269 342 442
#     4  10  28  44  66 114 142 182 258 296 366 444
#     4  11  23  43  67 100 127 182 236 282 351 440
#     4  11  25  45  70 103 143 187 236 297 366 434
#     4  11  25  45  70 103 143 187 236 297 366 434
#     4  11  25  44  73  99 144 187 237 303 364 430
#
# _framework density 21.994962999999998
#
# number of rings (size 3 to 8) (size 9 to 14) (size 15 to 20)
#    0.000    1.231    0.000    5.538   10.769    2.462 
#    0.000    3.846    0.000    0.000    0.000    0.000 
#    0.000    0.000    0.000    0.000    0.000    0.000 
#
# Total GULP energy -144849.972029 kJ/mol
# GULP energy per Si atom -5571.152770 kJ/mol
# Density = 2.194490 g / cm^3
# Si number density = 21.994963 Si / 1000 Ang^3
#
#
#
# Elastic Constant Matrix: (Units=GPa)
#
#
# Indices 1 2 3 4 5 6 
#
# 1 53.8610 -1.0103 8.6038 0.0000 2.5830 0.0000
# 2 -1.0103 113.5948 25.7751 0.0000 -7.5455 0.0000
# 3 8.6038 25.7751 65.0621 0.0000 -15.9960 0.0000
# 4 0.0000 0.0000 0.0000 35.3587 0.0000 -3.6578
# 5 2.5830 -7.5455 -15.9960 0.0000 33.3297 0.0000
# 6 0.0000 0.0000 0.0000 -3.6578 0.0000 27.4687
#
#
#
# Elastic Compliance Matrix: (Units=1/GPa)
#
#
# Indices 1 2 3 4 5 6 
#
# 1 0.019305 0.000789 -0.003616 0.000000 -0.003053 0.000000
# 2 0.000789 0.009710 -0.003884 0.000000 0.000273 0.000000
# 3 -0.003616 -0.003884 0.019546 0.000000 0.008782 0.000000
# 4 0.000000 0.000000 0.000000 0.028677 0.000000 0.003819
# 5 -0.003053 0.000273 0.008782 0.000000 0.034516 0.000000
# 6 0.000000 0.000000 0.000000 0.003819 0.000000 0.036914
#
#
# Mechanical properties :
#
#
# Convention : Reuss Voigt Hill
#
# Bulk Modulus (GPa) = 28.45814 33.25055 30.85435
# Shear Modulus (GPa) = 28.76846 32.50806 30.63826
#
# Velocity S-wave (km/s) = 3.62049 3.84862 3.73630
# Velocity P-wave (km/s) = 5.51759 5.90756 5.71591
#
# Compressibility (1/GPa) = 0.03513933
#
# Stress axis : x y z
#
# Youngs Moduli (GPa) = 51.79958 102.99051 51.16183
#
# Poissons Ratio (x) = -0.08131 0.18501
# Poissons Ratio (y) = -0.04089 0.19871
# Poissons Ratio (z) = 0.18732 0.40000
#
# Static dielectric constant tensor:
#      x y z
#    x 1.748390 0.000000 0.052850 
#    y 0.000000 1.839420 0.000000 
#    z 0.052850 0.000000 1.807130 
# 
# From -- ./inp_files/24193.got.cif
#   From: 2010.05.17/outbox.cif.g08.bks.cpg/sg14_13_cif.got.tgz:24193.got - 2010.06.03 17:49:19.
