data_PCOD9246019
_publ_section_title
;
Structure prediction by ZEFSAII (Michael W. Deem and Ramdas Pophale) SiO2 
 PCOD9246019
Probable space group: P 21/C
;
_chemical_formula_sum "Si O2"
_cell_formula_units_Z 20
_cell_length_a 6.998979
_cell_length_b 7.195638
_cell_length_c 16.164194
_cell_angle_alpha 90.000000
_cell_angle_beta 64.917572
_cell_angle_gamma 90.000000
_cell_volume 737.295986
_symmetry_space_group_name_H-M "P 21/C"
_symmetry_group_IT_number 14
_symmetry_cell_setting 'monoclinic'
loop_
_space_group_symop_operation_xyz
x,y,z
-x,1/2+y,1/2-z
-x,-y,-z
x,1/2-y,1/2+z
loop_
_atom_site_type_symbol
_atom_site_label
_atom_site_fract_x
_atom_site_fract_y
_atom_site_fract_z
Si Si1 0.746889 0.608901 0.548646
Si Si2 0.842793 0.280336 0.980690
Si Si3 0.533643 0.946425 0.633928
Si Si4 0.135009 0.487009 0.795987
Si Si5 0.133151 0.572900 0.297829
O O1 0.750064 0.428315 0.491059
O O2 0.549976 0.746286 0.586479
O O3 0.802585 0.526409 0.629304
O O4 0.050626 0.255306 0.501215
O O5 0.332433 0.592052 0.944041
O O6 0.951722 0.381968 0.882850
O O7 0.651971 0.915059 0.700165
O O8 0.301823 0.005594 0.700415
O O9 0.155704 0.707400 0.802145
O O10 0.088088 0.454421 0.708443
#
# Coordination Sequence:
#
# PCOD9246019 Si02
#       5
#     4   4   4   4   4
#     4  10  21  39  70  99 127 179 215 265 333 393
#     4  10  22  42  70  95 133 175 219 263 335 386
#     4  11  23  44  70  97 130 173 219 276 320 392
#     4  11  23  43  67  97 134 176 214 274 324 394
#     4  12  25  42  68  99 136 170 224 270 329 381
#
# _framework density 27.126148000000001
#
# number of rings (size 3 to 8) (size 9 to 14) (size 15 to 20)
#    0.000    1.200    2.000    6.000    2.800    0.800 
#    3.600    1.000    0.000    0.000    0.000    0.000 
#    0.000    0.000    0.000    0.000    0.000    0.000 
#
# Total GULP energy -111904.722027 kJ/mol
# GULP energy per Si atom -5595.236101 kJ/mol
# Density = 2.706441 g / cm^3
# Si number density = 27.126148 Si / 1000 Ang^3
#
#
#
# Elastic Constant Matrix: (Units=GPa)
#
#
# Indices 1 2 3 4 5 6 
#
# 1 65.3578 3.8390 27.7406 0.0000 21.7202 0.0000
# 2 3.8390 157.9275 31.8413 0.0000 8.8541 0.0000
# 3 27.7406 31.8413 85.2628 0.0000 -5.9660 0.0000
# 4 0.0000 0.0000 0.0000 49.1489 0.0000 1.7196
# 5 21.7202 8.8541 -5.9660 0.0000 31.8056 0.0000
# 6 0.0000 0.0000 0.0000 1.7196 0.0000 20.1520
#
#
#
# Elastic Compliance Matrix: (Units=1/GPa)
#
#
# Indices 1 2 3 4 5 6 
#
# 1 0.027072 0.002833 -0.011364 0.000000 -0.021408 0.000000
# 2 0.002833 0.007333 -0.003991 0.000000 -0.004725 0.000000
# 3 -0.011364 -0.003991 0.017770 0.000000 0.012205 0.000000
# 4 0.000000 0.000000 0.000000 0.020407 0.000000 -0.001741
# 5 -0.021408 -0.004725 0.012205 0.000000 0.049665 0.000000
# 6 0.000000 0.000000 0.000000 -0.001741 0.000000 0.049771
#
#
# Mechanical properties :
#
#
# Convention : Reuss Voigt Hill
#
# Bulk Modulus (GPa) = 36.85735 48.37667 42.61701
# Shear Modulus (GPa) = 24.25947 36.56311 30.41129
#
# Velocity S-wave (km/s) = 2.99376 3.67535 3.35192
# Velocity P-wave (km/s) = 5.05639 5.99029 5.54304
#
# Compressibility (1/GPa) = 0.02713163
#
# Stress axis : x y z
#
# Youngs Moduli (GPa) = 36.93891 136.37610 56.27426
#
# Poissons Ratio (x) = -0.38640 0.63950
# Poissons Ratio (y) = -0.10466 0.22458
# Poissons Ratio (z) = 0.41977 0.54425
#
# Static dielectric constant tensor:
#      x y z
#    x 2.127560 0.000000 -0.026410 
#    y 0.000000 2.109890 0.000000 
#    z -0.026410 0.000000 2.225820 
# 
# From -- ./inp_files/54207.got.cif
#   From: 2010.05.17/outbox.cif.g08.bks.cpg/sg14_28_cif.got.tgz:54207.got - 2010.06.03 17:49:19.
