data_PCOD9246446
_publ_section_title
;
Structure prediction by ZEFSAII (Michael W. Deem and Ramdas Pophale) SiO2 
 PCOD9246446
Probable space group: P 21/C
;
_chemical_formula_sum "Si O2"
_cell_formula_units_Z 20
_cell_length_a 7.371139
_cell_length_b 5.106944
_cell_length_c 23.973107
_cell_angle_alpha 90.000000
_cell_angle_beta 72.387435
_cell_angle_gamma 90.000000
_cell_volume 860.140859
_symmetry_space_group_name_H-M "P 21/C"
_symmetry_group_IT_number 14
_symmetry_cell_setting 'monoclinic'
loop_
_space_group_symop_operation_xyz
x,y,z
-x,1/2+y,1/2-z
-x,-y,-z
x,1/2-y,1/2+z
loop_
_atom_site_type_symbol
_atom_site_label
_atom_site_fract_x
_atom_site_fract_y
_atom_site_fract_z
Si Si1 0.060675 0.793999 0.947051
Si Si2 0.986261 0.250483 0.673334
Si Si3 0.769406 0.271451 0.357866
Si Si4 0.708179 0.387877 0.984202
Si Si5 0.593696 0.345412 0.767855
O O1 0.087568 0.854068 0.880110
O O2 0.885781 0.588016 0.961998
O O3 0.258845 0.708220 0.956028
O O4 0.000000 0.000000 0.000000
O O5 0.811383 0.284504 0.730717
O O6 0.156048 0.450120 0.670580
O O7 0.069574 0.957041 0.662296
O O8 0.725970 0.296852 0.428064
O O9 0.595319 0.181462 0.334826
O O10 0.500000 0.500000 0.000000
O O11 0.533852 0.627223 0.750532
#
# Coordination Sequence:
#
# PCOD9246446 Si02
#       5
#     4   4   4   4   4
#     4  10  21  41  62  95 129 171 213 255 332 380
#     4  11  23  43  68  88 131 172 210 265 317 395
#     4  11  23  44  65  92 126 175 215 252 333 384
#     4  10  23  39  64  95 131 170 213 270 314 389
#     4  12  26  42  65  98 126 163 218 273 320 376
#
# _framework density 23.252006000000002
#
# number of rings (size 3 to 8) (size 9 to 14) (size 15 to 20)
#    0.000    1.200    2.000    3.600    2.800    2.400 
#    0.000    0.000    0.000    0.000    0.000    0.000 
#    0.000    0.000    0.000    0.000    0.000    0.000 
#
# Total GULP energy -111672.619968 kJ/mol
# GULP energy per Si atom -5583.630998 kJ/mol
# Density = 2.319908 g / cm^3
# Si number density = 23.252006 Si / 1000 Ang^3
#
#
#
# Elastic Constant Matrix: (Units=GPa)
#
#
# Indices 1 2 3 4 5 6 
#
# 1 93.6290 -9.4086 14.1681 0.0000 28.8553 0.0000
# 2 -9.4086 43.0277 -10.2166 0.0000 2.8752 0.0000
# 3 14.1681 -10.2166 93.4208 0.0000 39.8740 0.0000
# 4 0.0000 0.0000 0.0000 26.0805 0.0000 10.1766
# 5 28.8553 2.8752 39.8740 0.0000 46.6735 0.0000
# 6 0.0000 0.0000 0.0000 10.1766 0.0000 36.7309
#
#
#
# Elastic Compliance Matrix: (Units=1/GPa)
#
#
# Indices 1 2 3 4 5 6 
#
# 1 0.014399 0.004815 0.003571 0.000000 -0.012250 0.000000
# 2 0.004815 0.026520 0.006513 0.000000 -0.010174 0.000000
# 3 0.003571 0.006513 0.018869 0.000000 -0.018729 0.000000
# 4 0.000000 0.000000 0.000000 0.042991 0.000000 -0.011911
# 5 -0.012250 -0.010174 -0.018729 0.000000 0.045626 0.000000
# 6 0.000000 0.000000 0.000000 -0.011911 0.000000 0.030525
#
#
# Mechanical properties :
#
#
# Convention : Reuss Voigt Hill
#
# Bulk Modulus (GPa) = 11.16247 24.35146 17.75697
# Shear Modulus (GPa) = 27.93399 37.59928 32.76664
#
# Velocity S-wave (km/s) = 3.46982 4.02560 3.75800
# Velocity P-wave (km/s) = 4.56771 5.66594 5.14620
#
# Compressibility (1/GPa) = 0.08958593
#
# Stress axis : x y z
#
# Youngs Moduli (GPa) = 69.44882 37.70739 52.99745
#
# Poissons Ratio (x) = -0.18156 -0.18927
# Poissons Ratio (y) = -0.33440 -0.34516
# Poissons Ratio (z) = -0.24802 -0.24558
#
# Static dielectric constant tensor:
#      x y z
#    x 1.886360 0.000000 0.069810 
#    y 0.000000 1.963920 0.000000 
#    z 0.069810 0.000000 1.939950 
# 
# From -- ./inp_files/75451.got.cif
#   From: 2010.05.17/outbox.cif.g08.bks.cpg/sg14_38_cif.got.tgz:75451.got - 2010.06.03 17:49:19.
