data_PCOD9246493
_publ_section_title
;
Structure prediction by ZEFSAII (Michael W. Deem and Ramdas Pophale) SiO2 
 PCOD9246493
Probable space group: P 21/C
;
_chemical_formula_sum "Si O2"
_cell_formula_units_Z 28
_cell_length_a 13.752086
_cell_length_b 10.742368
_cell_length_c 8.693653
_cell_angle_alpha 90.000000
_cell_angle_beta 61.952328
_cell_angle_gamma 90.000000
_cell_volume 1133.479081
_symmetry_space_group_name_H-M "P 21/C"
_symmetry_group_IT_number 14
_symmetry_cell_setting 'monoclinic'
loop_
_space_group_symop_operation_xyz
x,y,z
-x,1/2+y,1/2-z
-x,-y,-z
x,1/2-y,1/2+z
loop_
_atom_site_type_symbol
_atom_site_label
_atom_site_fract_x
_atom_site_fract_y
_atom_site_fract_z
Si Si1 0.374216 0.180111 0.967813
Si Si2 0.466194 0.795571 0.403623
Si Si3 0.321549 0.856024 0.772496
Si Si4 0.174849 0.012557 0.088684
Si Si5 0.162217 0.637605 0.887960
Si Si6 0.807636 0.879517 0.490877
Si Si7 0.060941 0.223425 0.310670
O O1 0.450950 0.222080 0.047706
O O2 0.455542 0.133069 0.773932
O O3 0.301510 0.298588 0.963418
O O4 0.286128 0.075642 0.075318
O O5 0.393907 0.883417 0.568349
O O6 0.397028 0.693377 0.357706
O O7 0.258594 0.730045 0.775802
O O8 0.227197 0.950852 0.898928
O O9 0.126281 0.919044 0.250998
O O10 0.087875 0.124916 0.152079
O O11 0.202482 0.524924 0.966140
O O12 0.063692 0.709252 0.044993
O O13 0.889968 0.851576 0.287644
O O14 0.867018 0.824235 0.598729
#
# Coordination Sequence:
#
# PCOD9246493 Si02
#       7
#     4   4   4   4   4   4   4
#     4  10  21  42  68  88 125 162 213 259 304 371
#     4  10  22  42  60  93 121 168 208 249 315 363
#     4  11  23  41  59  93 131 159 210 254 310 369
#     4  10  21  41  64  91 122 164 208 255 309 374
#     4  11  23  40  66  89 133 168 198 253 321 372
#     4  10  21  43  63  96 119 163 210 257 305 377
#     4  10  23  39  70  91 123 163 211 247 319 368
#
# _framework density 24.702705999999999
#
# number of rings (size 3 to 8) (size 9 to 14) (size 15 to 20)
#    0.000    1.714    1.429    4.286    4.000    1.143 
#   18.000    0.714    0.000    0.000    0.000    0.000 
#    0.000    0.000    0.000    0.000    0.000    0.000 
#
# Total GULP energy -156576.209782 kJ/mol
# GULP energy per Si atom -5592.007492 kJ/mol
# Density = 2.464648 g / cm^3
# Si number density = 24.702706 Si / 1000 Ang^3
#
#
#
# Elastic Constant Matrix: (Units=GPa)
#
#
# Indices 1 2 3 4 5 6 
#
# 1 52.9353 1.4611 13.0059 0.0000 -1.2799 0.0000
# 2 1.4611 24.8491 4.8165 0.0000 -6.7460 0.0000
# 3 13.0059 4.8165 161.8540 0.0000 -33.0667 0.0000
# 4 0.0000 0.0000 0.0000 30.0482 0.0000 -7.0448
# 5 -1.2799 -6.7460 -33.0667 0.0000 35.4639 0.0000
# 6 0.0000 0.0000 0.0000 -7.0448 0.0000 15.8188
#
#
#
# Elastic Compliance Matrix: (Units=1/GPa)
#
#
# Indices 1 2 3 4 5 6 
#
# 1 0.019325 -0.001108 -0.001755 0.000000 -0.001149 0.000000
# 2 -0.001108 0.042528 0.000578 0.000000 0.008589 0.000000
# 3 -0.001755 0.000578 0.007797 0.000000 0.007317 0.000000
# 4 0.000000 0.000000 0.000000 0.037160 0.000000 0.016549
# 5 -0.001149 0.008589 0.007317 0.000000 0.036612 0.000000
# 6 0.000000 0.000000 0.000000 0.016549 0.000000 0.070586
#
#
# Mechanical properties :
#
#
# Convention : Reuss Voigt Hill
#
# Bulk Modulus (GPa) = 15.36569 30.91172 23.13871
# Shear Modulus (GPa) = 20.80994 30.95650 25.88322
#
# Velocity S-wave (km/s) = 2.90559 3.54384 3.24047
# Velocity P-wave (km/s) = 4.18215 5.41163 4.83612
#
# Compressibility (1/GPa) = 0.06508005
#
# Stress axis : x y z
#
# Youngs Moduli (GPa) = 51.74674 23.51413 128.25472
#
# Poissons Ratio (x) = 0.02606 0.22505
# Poissons Ratio (y) = 0.05735 -0.07416
# Poissons Ratio (z) = 0.09080 -0.01360
#
# Static dielectric constant tensor:
#      x y z
#    x 1.925420 0.000000 0.010010 
#    y 0.000000 1.975290 0.000000 
#    z 0.010010 0.000000 1.978650 
# 
# From -- ./inp_files/15439.got.cif
#   From: 2010.05.17/outbox.cif.g08.bks.cpg/sg14_8_cif.got.tgz:15439.got - 2010.06.03 17:49:19.
