data_PCOD9246685
_publ_section_title
;
Structure prediction by ZEFSAII (Michael W. Deem and Ramdas Pophale) SiO2 
 PCOD9246685
Probable space group: P 21/C
;
_chemical_formula_sum "Si O2"
_cell_formula_units_Z 30
_cell_length_a 8.513840
_cell_length_b 14.331927
_cell_length_c 13.084543
_cell_angle_alpha 90.000000
_cell_angle_beta 125.834479
_cell_angle_gamma 90.000000
_cell_volume 1294.359901
_symmetry_space_group_name_H-M "P 21/C"
_symmetry_group_IT_number 14
_symmetry_cell_setting 'monoclinic'
loop_
_space_group_symop_operation_xyz
x,y,z
-x,1/2+y,1/2-z
-x,-y,-z
x,1/2-y,1/2+z
loop_
_atom_site_type_symbol
_atom_site_label
_atom_site_fract_x
_atom_site_fract_y
_atom_site_fract_z
Si Si1 0.583727 0.124060 0.147377
Si Si2 0.000000 0.000000 0.000000
Si Si3 0.198079 0.048745 0.707677
Si Si4 0.153400 0.149372 0.900376
Si Si5 0.124644 0.656500 0.422417
Si Si6 0.649818 0.318902 0.899163
Si Si7 0.751152 0.829616 0.654793
Si Si8 0.784597 0.972088 0.505054
O O1 0.741878 0.156887 0.126315
O O2 0.610914 0.177486 0.264161
O O3 0.628735 0.015947 0.187998
O O4 0.370492 0.136003 0.023807
O O5 0.980038 0.910247 0.075196
O O6 0.843704 0.060257 0.006384
O O7 0.139273 0.115337 0.777224
O O8 0.245288 0.084761 0.612077
O O9 0.012847 0.982122 0.616332
O O10 0.136466 0.260671 0.879764
O O11 0.181688 0.747936 0.506310
O O12 0.898677 0.649687 0.303526
O O13 0.449090 0.289975 0.877706
O O14 0.705570 0.423816 0.955333
O O15 0.699614 0.921087 0.570574
#
# Coordination Sequence:
#
# PCOD9246685 Si02
#       8
#     4   2   4   4   4   4   4   4
#     4  11  23  46  71 101 150 188 249 300 363 437
#     4  12  28  44  74 106 144 186 248 310 372 430
#     4  10  21  41  70  99 137 193 238 300 364 425
#     4  12  25  44  70 107 144 199 244 310 365 441
#     4  12  26  49  72 109 147 191 246 304 367 444
#     4  11  26  47  72 108 145 195 243 304 363 446
#     4  12  25  46  73 107 151 190 247 302 366 441
#     4  10  22  43  73 105 145 191 241 297 363 437
#
# _framework density 23.177479000000002
#
# number of rings (size 3 to 8) (size 9 to 14) (size 15 to 20)
#    0.000    0.800    4.000    2.400    1.867    2.133 
#    0.000    2.667    0.000    0.000    0.000    0.000 
#    0.000    0.000    0.000    0.000    0.000    0.000 
#
# Total GULP energy -167275.295177 kJ/mol
# GULP energy per Si atom -5575.843173 kJ/mol
# Density = 2.312473 g / cm^3
# Si number density = 23.177479 Si / 1000 Ang^3
#
#
#
# Elastic Constant Matrix: (Units=GPa)
#
#
# Indices 1 2 3 4 5 6 
#
# 1 70.5613 16.3085 33.6320 0.0000 -13.4067 0.0000
# 2 16.3085 72.1500 22.8713 0.0000 -22.9647 0.0000
# 3 33.6320 22.8713 97.3111 0.0000 -6.6414 0.0000
# 4 0.0000 0.0000 0.0000 20.5938 0.0000 -2.2263
# 5 -13.4067 -22.9647 -6.6414 0.0000 28.7346 0.0000
# 6 0.0000 0.0000 0.0000 -2.2263 0.0000 25.7120
#
#
#
# Elastic Compliance Matrix: (Units=1/GPa)
#
#
# Indices 1 2 3 4 5 6 
#
# 1 0.018324 0.000002 -0.005842 0.000000 0.007201 0.000000
# 2 0.000002 0.019772 -0.003626 0.000000 0.014965 0.000000
# 3 -0.005842 -0.003626 0.012969 0.000000 -0.002627 0.000000
# 4 0.000000 0.000000 0.000000 0.049017 0.000000 0.004244
# 5 0.007201 0.014965 -0.002627 0.000000 0.049514 0.000000
# 6 0.000000 0.000000 0.000000 0.004244 0.000000 0.039260
#
#
# Mechanical properties :
#
#
# Convention : Reuss Voigt Hill
#
# Bulk Modulus (GPa) = 31.12175 42.84953 36.98564
# Shear Modulus (GPa) = 22.88330 26.15545 24.51937
#
# Velocity S-wave (km/s) = 3.14555 3.36294 3.25606
# Velocity P-wave (km/s) = 5.16231 5.79714 5.48891
#
# Compressibility (1/GPa) = 0.03213187
#
# Stress axis : x y z
#
# Youngs Moduli (GPa) = 54.57221 50.57570 77.10988
#
# Poissons Ratio (x) = -0.00010 0.45049
# Poissons Ratio (y) = -0.00011 0.27964
# Poissons Ratio (z) = 0.31882 0.18341
#
# Static dielectric constant tensor:
#      x y z
#    x 1.774840 0.000000 -0.030120 
#    y 0.000000 1.892410 0.000000 
#    z -0.030120 0.000000 1.890280 
# 
# From -- ./inp_files/25627.got.cif
#   From: 2010.05.17/outbox.cif.g08.bks.cpg/sg14_13_cif.got.tgz:25627.got - 2010.06.03 17:49:19.
