data_PCOD9246281
_publ_section_title
;
Structure prediction by ZEFSAII (Michael W. Deem and Ramdas Pophale) SiO2 
 PCOD9246281
Probable space group: P 21/C
;
_chemical_formula_sum "Si O2"
_cell_formula_units_Z 20
_cell_length_a 6.640506
_cell_length_b 17.158543
_cell_length_c 9.404293
_cell_angle_alpha 90.000000
_cell_angle_beta 48.241076
_cell_angle_gamma 90.000000
_cell_volume 799.317971
_symmetry_space_group_name_H-M "P 21/C"
_symmetry_group_IT_number 14
_symmetry_cell_setting 'monoclinic'
loop_
_space_group_symop_operation_xyz
x,y,z
-x,1/2+y,1/2-z
-x,-y,-z
x,1/2-y,1/2+z
loop_
_atom_site_type_symbol
_atom_site_label
_atom_site_fract_x
_atom_site_fract_y
_atom_site_fract_z
Si Si1 0.377542 0.348497 0.643707
Si Si2 0.759454 0.452925 0.919212
Si Si3 0.986280 0.297836 0.329051
Si Si4 0.095072 0.416485 0.520477
Si Si5 0.974130 0.900360 0.452945
O O1 0.666672 0.306908 0.509817
O O2 0.146657 0.282275 0.760540
O O3 0.338355 0.401160 0.519336
O O4 0.294580 0.398741 0.821451
O O5 0.848684 0.400819 0.745872
O O6 0.969793 0.522987 0.856213
O O7 0.500000 0.500000 0.000000
O O8 0.774528 0.405115 0.057334
O O9 0.116782 0.357131 0.381361
O O10 0.024318 0.328106 0.151172
O O11 0.000000 0.500000 0.500000
#
# Coordination Sequence:
#
# PCOD9246281 Si02
#       5
#     4   4   4   4   4
#     4  11  28  46  71 105 144 194 241 293 360 429
#     4  10  21  40  66  99 139 176 222 287 361 414
#     4  12  26  47  74 102 147 190 245 293 358 432
#     4  11  24  44  71 108 138 184 237 299 359 422
#     4  10  23  42  65 101 137 179 230 289 345 425
#
# _framework density 25.021332000000001
#
# number of rings (size 3 to 8) (size 9 to 14) (size 15 to 20)
#    0.000    1.200    2.000    2.400    2.800   10.400 
#    0.000    0.000    0.000    0.000    0.000    0.000 
#    0.000    0.000    0.000    0.000    0.000    0.000 
#
# Total GULP energy -111704.509028 kJ/mol
# GULP energy per Si atom -5585.225451 kJ/mol
# Density = 2.496438 g / cm^3
# Si number density = 25.021332 Si / 1000 Ang^3
#
#
#
# Elastic Constant Matrix: (Units=GPa)
#
#
# Indices 1 2 3 4 5 6 
#
# 1 109.0120 13.4968 36.5939 0.0000 7.0413 0.0000
# 2 13.4968 74.9542 0.9531 0.0000 11.2461 0.0000
# 3 36.5939 0.9531 104.1855 0.0000 17.9986 0.0000
# 4 0.0000 0.0000 0.0000 40.1567 0.0000 3.3007
# 5 7.0413 11.2461 17.9986 0.0000 48.3693 0.0000
# 6 0.0000 0.0000 0.0000 3.3007 0.0000 34.5995
#
#
#
# Elastic Compliance Matrix: (Units=1/GPa)
#
#
# Indices 1 2 3 4 5 6 
#
# 1 0.010660 -0.001916 -0.003778 0.000000 0.000300 0.000000
# 2 -0.001916 0.014189 0.001138 0.000000 -0.003444 0.000000
# 3 -0.003778 0.001138 0.011612 0.000000 -0.004036 0.000000
# 4 0.000000 0.000000 0.000000 0.025099 0.000000 -0.002394
# 5 0.000300 -0.003444 -0.004036 0.000000 0.022933 0.000000
# 6 0.000000 0.000000 0.000000 -0.002394 0.000000 0.029131
#
#
# Mechanical properties :
#
#
# Convention : Reuss Voigt Hill
#
# Bulk Modulus (GPa) = 36.56650 43.35994 39.96322
# Shear Modulus (GPa) = 37.92135 40.43229 39.17682
#
# Velocity S-wave (km/s) = 3.89724 4.02420 3.96123
# Velocity P-wave (km/s) = 5.90739 6.24172 6.07685
#
# Compressibility (1/GPa) = 0.02734744
#
# Stress axis : x y z
#
# Youngs Moduli (GPa) = 93.81284 70.47837 86.11718
#
# Poissons Ratio (x) = 0.13506 0.32537
# Poissons Ratio (y) = 0.17978 -0.09802
# Poissons Ratio (z) = 0.35445 -0.08022
#
# Static dielectric constant tensor:
#      x y z
#    x 2.040700 0.000000 -0.006470 
#    y 0.000000 2.103220 0.000000 
#    z -0.006470 0.000000 2.003000 
# 
# From -- ./inp_files/5826.got.cif
#   From: 2010.05.17/outbox.cif.g08.bks.cpg/sg14_3_cif.got.tgz:5826.got - 2010.06.03 17:49:19.
