data_PCOD9246911
_publ_section_title
;
Structure prediction by ZEFSAII (Michael W. Deem and Ramdas Pophale) SiO2 
 PCOD9246911
Probable space group: P 21/C
;
_chemical_formula_sum "Si O2"
_cell_formula_units_Z 20
_cell_length_a 7.956437
_cell_length_b 18.545274
_cell_length_c 7.223355
_cell_angle_alpha 90.000000
_cell_angle_beta 128.540318
_cell_angle_gamma 90.000000
_cell_volume 833.665726
_symmetry_space_group_name_H-M "P 21/C"
_symmetry_group_IT_number 14
_symmetry_cell_setting 'monoclinic'
loop_
_space_group_symop_operation_xyz
x,y,z
-x,1/2+y,1/2-z
-x,-y,-z
x,1/2-y,1/2+z
loop_
_atom_site_type_symbol
_atom_site_label
_atom_site_fract_x
_atom_site_fract_y
_atom_site_fract_z
Si Si1 0.902879 0.079913 0.411608
Si Si2 0.699741 0.386943 0.371853
Si Si3 0.855726 0.845358 0.948635
Si Si4 0.463427 0.033155 0.180579
Si Si5 0.742276 0.816310 0.448961
O O1 0.681385 0.076472 0.374796
O O2 0.087146 0.140108 0.561644
O O3 0.821774 0.095522 0.147368
O O4 0.000000 0.000000 0.500000
O O5 0.594360 0.462836 0.239618
O O6 0.502364 0.333385 0.272681
O O7 0.888023 0.356037 0.373917
O O8 0.734360 0.912661 0.954023
O O9 0.773875 0.844052 0.679623
O O10 0.791924 0.767948 0.983088
O O11 0.500000 0.000000 0.000000
#
# Coordination Sequence:
#
# PCOD9246911 Si02
#       5
#     4   4   4   4   4
#     4  10  21  42  70 104 133 181 233 284 345 420
#     4  10  23  44  68 100 137 182 233 291 345 415
#     4  11  27  43  68 100 139 183 235 291 357 422
#     4  10  22  44  73  97 138 178 236 287 350 412
#     4  11  26  44  66 101 142 182 237 290 360 420
#
# _framework density 23.99043
#
# number of rings (size 3 to 8) (size 9 to 14) (size 15 to 20)
#    0.000    1.600    2.000    0.600    8.400    2.400 
#    7.200    0.000    0.000    0.000    0.000    0.000 
#    0.000    0.000    0.000    0.000    0.000    0.000 
#
# Total GULP energy -111892.563635 kJ/mol
# GULP energy per Si atom -5594.628182 kJ/mol
# Density = 2.393583 g / cm^3
# Si number density = 23.990430 Si / 1000 Ang^3
#
#
#
# Elastic Constant Matrix: (Units=GPa)
#
#
# Indices 1 2 3 4 5 6 
#
# 1 149.9881 89.0753 36.1237 0.0000 49.4321 0.0000
# 2 89.0753 171.1418 15.7755 0.0000 25.7135 0.0000
# 3 36.1237 15.7755 85.2343 0.0000 5.3668 0.0000
# 4 0.0000 0.0000 0.0000 34.9762 0.0000 4.3579
# 5 49.4321 25.7135 5.3668 0.0000 51.3019 0.0000
# 6 0.0000 0.0000 0.0000 4.3579 0.0000 52.4575
#
#
#
# Elastic Compliance Matrix: (Units=1/GPa)
#
#
# Indices 1 2 3 4 5 6 
#
# 1 0.014626 -0.005572 -0.004486 0.000000 -0.010831 0.000000
# 2 -0.005572 0.008523 0.000720 0.000000 0.001021 0.000000
# 3 -0.004486 0.000720 0.013339 0.000000 0.002566 0.000000
# 4 0.000000 0.000000 0.000000 0.028890 0.000000 -0.002400
# 5 -0.010831 0.001021 0.002566 0.000000 0.029148 0.000000
# 6 0.000000 0.000000 0.000000 -0.002400 0.000000 0.019262
#
#
# Mechanical properties :
#
#
# Convention : Reuss Voigt Hill
#
# Bulk Modulus (GPa) = 56.14009 76.47924 66.30966
# Shear Modulus (GPa) = 36.12666 45.43979 40.78322
#
# Velocity S-wave (km/s) = 3.88477 4.35682 4.12755
# Velocity P-wave (km/s) = 6.60105 7.56687 7.10040
#
# Compressibility (1/GPa) = 0.01781258
#
# Stress axis : x y z
#
# Youngs Moduli (GPa) = 68.37072 117.32567 74.96998
#
# Poissons Ratio (x) = 0.65371 0.33628
# Poissons Ratio (y) = 0.38094 -0.05395
# Poissons Ratio (z) = 0.30668 -0.08442
#
# Static dielectric constant tensor:
#      x y z
#    x 1.977450 0.000000 -0.064280 
#    y 0.000000 1.824420 0.000000 
#    z -0.064280 0.000000 2.058920 
# 
# From -- ./inp_files/9265.got.cif
#   From: 2010.05.17/outbox.cif.g08.bks.cpg/sg14_5_cif.got.tgz:9265.got - 2010.06.03 17:49:19.
