data_PCOD9246115
_publ_section_title
;
Structure prediction by ZEFSAII (Michael W. Deem and Ramdas Pophale) SiO2 
 PCOD9246115
Probable space group: P 21/C
;
_chemical_formula_sum "Si O2"
_cell_formula_units_Z 24
_cell_length_a 9.990675
_cell_length_b 9.360095
_cell_length_c 16.768504
_cell_angle_alpha 90.000000
_cell_angle_beta 146.708854
_cell_angle_gamma 90.000000
_cell_volume 860.711520
_symmetry_space_group_name_H-M "P 21/C"
_symmetry_group_IT_number 14
_symmetry_cell_setting 'monoclinic'
loop_
_space_group_symop_operation_xyz
x,y,z
-x,1/2+y,1/2-z
-x,-y,-z
x,1/2-y,1/2+z
loop_
_atom_site_type_symbol
_atom_site_label
_atom_site_fract_x
_atom_site_fract_y
_atom_site_fract_z
Si Si1 0.948766 0.012673 0.181180
Si Si2 0.300537 0.983704 0.575617
Si Si3 0.411508 0.677902 0.882216
Si Si4 0.273567 0.290064 0.324701
Si Si5 0.646099 0.577702 0.389976
Si Si6 0.069425 0.284008 0.058239
O O1 0.145438 0.890356 0.253439
O O2 0.828366 0.944873 0.199937
O O3 0.085239 0.162359 0.254855
O O4 0.742294 0.015229 0.010509
O O5 0.496122 0.989589 0.743771
O O6 0.171842 0.831212 0.515810
O O7 0.419256 0.039851 0.554381
O O8 0.102300 0.100207 0.504357
O O9 0.485190 0.792828 0.849780
O O10 0.495109 0.752315 0.005591
O O11 0.274428 0.284654 0.229852
O O12 0.886097 0.640236 0.466024
#
# Coordination Sequence:
#
# PCOD9246115 Si02
#       6
#     4   4   4   4   4   4
#     4  11  24  41  61  90 126 162 208 257 304 368
#     4  10  21  40  63  89 123 163 205 251 310 367
#     4  10  22  40  60  86 124 164 204 253 310 369
#     4  11  24  40  62  90 123 166 204 250 311 364
#     4  10  22  38  62  91 118 158 208 260 307 360
#     4  10  22  39  62  90 123 160 203 254 308 368
#
# _framework density 27.883908000000002
#
# number of rings (size 3 to 8) (size 9 to 14) (size 15 to 20)
#    0.000    1.667    0.000    3.500    0.000   12.000 
#    0.000    3.333    0.000    0.000    0.000    0.000 
#    0.000    0.000    0.000    0.000    0.000    0.000 
#
# Total GULP energy -134500.467661 kJ/mol
# GULP energy per Si atom -5604.186153 kJ/mol
# Density = 2.782044 g / cm^3
# Si number density = 27.883908 Si / 1000 Ang^3
#
#
#
# Elastic Constant Matrix: (Units=GPa)
#
#
# Indices 1 2 3 4 5 6 
#
# 1 109.9869 43.8477 19.1376 0.0000 -13.4305 0.0000
# 2 43.8477 113.1145 11.9861 0.0000 1.5712 0.0000
# 3 19.1376 11.9861 108.5231 0.0000 -14.6350 0.0000
# 4 0.0000 0.0000 0.0000 35.8615 0.0000 -7.5274
# 5 -13.4305 1.5712 -14.6350 0.0000 45.3814 0.0000
# 6 0.0000 0.0000 0.0000 -7.5274 0.0000 63.1903
#
#
#
# Elastic Compliance Matrix: (Units=1/GPa)
#
#
# Indices 1 2 3 4 5 6 
#
# 1 0.011404 -0.004348 -0.001103 0.000000 0.003170 0.000000
# 2 -0.004348 0.010622 -0.000658 0.000000 -0.001867 0.000000
# 3 -0.001103 -0.000658 0.009870 0.000000 0.002879 0.000000
# 4 0.000000 0.000000 0.000000 0.028600 0.000000 0.003407
# 5 0.003170 -0.001867 0.002879 0.000000 0.023967 0.000000
# 6 0.000000 0.000000 0.000000 0.003407 0.000000 0.016231
#
#
# Mechanical properties :
#
#
# Convention : Reuss Voigt Hill
#
# Bulk Modulus (GPa) = 50.81999 53.50749 52.16374
# Shear Modulus (GPa) = 41.85072 45.99686 43.92379
#
# Velocity S-wave (km/s) = 3.87834 4.06591 3.97323
# Velocity P-wave (km/s) = 6.19035 6.42443 6.30847
#
# Compressibility (1/GPa) = 0.01967730
#
# Stress axis : x y z
#
# Youngs Moduli (GPa) = 87.68546 94.14698 101.31522
#
# Poissons Ratio (x) = 0.40934 0.11180
# Poissons Ratio (y) = 0.38125 0.06668
# Poissons Ratio (z) = 0.09676 0.06196
#
# Static dielectric constant tensor:
#      x y z
#    x 2.119270 0.000000 0.090330 
#    y 0.000000 2.163430 0.000000 
#    z 0.090330 0.000000 2.116090 
# 
# From -- ./inp_files/28985.got.cif
#   From: 2010.05.17/outbox.cif.g08.bks.cpg/sg14_15_cif.got.tgz:28985.got - 2010.06.03 17:49:19.
