data_PCOD9246644
_publ_section_title
;
Structure prediction by ZEFSAII (Michael W. Deem and Ramdas Pophale) SiO2 
 PCOD9246644
Probable space group: P 21/C
;
_chemical_formula_sum "Si O2"
_cell_formula_units_Z 24
_cell_length_a 11.023361
_cell_length_b 5.285491
_cell_length_c 17.175492
_cell_angle_alpha 90.000000
_cell_angle_beta 96.676861
_cell_angle_gamma 90.000000
_cell_volume 993.923591
_symmetry_space_group_name_H-M "P 21/C"
_symmetry_group_IT_number 14
_symmetry_cell_setting 'monoclinic'
loop_
_space_group_symop_operation_xyz
x,y,z
-x,1/2+y,1/2-z
-x,-y,-z
x,1/2-y,1/2+z
loop_
_atom_site_type_symbol
_atom_site_label
_atom_site_fract_x
_atom_site_fract_y
_atom_site_fract_z
Si Si1 0.962142 0.005420 0.388258
Si Si2 0.389284 0.064592 0.341670
Si Si3 0.381101 0.808384 0.183184
Si Si4 0.795656 0.948997 0.242054
Si Si5 0.784544 0.268915 0.085233
Si Si6 0.828383 0.988381 0.931294
O O1 0.923147 0.937755 0.296637
O O2 0.892166 0.782257 0.429904
O O3 0.103870 0.963055 0.413769
O O4 0.918243 0.287361 0.406621
O O5 0.430101 0.895507 0.271026
O O6 0.343620 0.911570 0.412505
O O7 0.503254 0.247382 0.361662
O O8 0.269989 0.203988 0.297594
O O9 0.294872 0.572663 0.200347
O O10 0.290303 0.999209 0.132919
O O11 0.804849 0.129145 0.168566
O O12 0.790292 0.076449 0.014291
#
# Coordination Sequence:
#
# PCOD9246644 Si02
#       6
#     4   4   4   4   4   4
#     4  11  25  45  70  95 139 181 225 268 346 413
#     4  11  21  40  64  97 128 176 229 282 326 404
#     4  10  21  41  68  91 130 178 230 269 341 401
#     4  10  23  39  66  94 126 172 224 275 321 400
#     4  11  27  39  67 102 136 171 226 286 343 395
#     4  11  25  46  68 100 135 184 217 279 346 414
#
# _framework density 24.146723000000001
#
# number of rings (size 3 to 8) (size 9 to 14) (size 15 to 20)
#    0.000    1.333    3.333    1.000    7.000    0.667 
#    0.000    0.833    0.000    0.000    0.000    0.000 
#    0.000    0.000    0.000    0.000    0.000    0.000 
#
# Total GULP energy -134292.130922 kJ/mol
# GULP energy per Si atom -5595.505455 kJ/mol
# Density = 2.409176 g / cm^3
# Si number density = 24.146723 Si / 1000 Ang^3
#
#
#
# Elastic Constant Matrix: (Units=GPa)
#
#
# Indices 1 2 3 4 5 6 
#
# 1 75.4126 10.0848 28.4625 0.0000 -11.9158 0.0000
# 2 10.0848 70.1146 13.2233 0.0000 -14.6513 0.0000
# 3 28.4625 13.2233 71.9972 0.0000 -13.3538 0.0000
# 4 0.0000 0.0000 0.0000 34.8380 0.0000 3.5694
# 5 -11.9158 -14.6513 -13.3538 0.0000 21.1723 0.0000
# 6 0.0000 0.0000 0.0000 3.5694 0.0000 18.2405
#
#
#
# Elastic Compliance Matrix: (Units=1/GPa)
#
#
# Indices 1 2 3 4 5 6 
#
# 1 0.016181 -0.000143 -0.005323 0.000000 0.005651 0.000000
# 2 -0.000143 0.016744 -0.001002 0.000000 0.010875 0.000000
# 3 -0.005323 -0.001002 0.017546 0.000000 0.007378 0.000000
# 4 0.000000 0.000000 0.000000 0.029292 0.000000 -0.005732
# 5 0.005651 0.010875 0.007378 0.000000 0.062591 0.000000
# 6 0.000000 0.000000 0.000000 -0.005732 0.000000 0.055945
#
#
# Mechanical properties :
#
#
# Convention : Reuss Voigt Hill
#
# Bulk Modulus (GPa) = 26.64022 35.67393 31.15707
# Shear Modulus (GPa) = 22.34683 25.90040 24.12361
#
# Velocity S-wave (km/s) = 3.04544 3.27865 3.16419
# Velocity P-wave (km/s) = 4.83972 5.39802 5.12647
#
# Compressibility (1/GPa) = 0.03753723
#
# Stress axis : x y z
#
# Youngs Moduli (GPa) = 61.79997 59.72190 56.99307
#
# Poissons Ratio (x) = 0.00852 0.30335
# Poissons Ratio (y) = 0.00882 0.05710
# Poissons Ratio (z) = 0.32893 0.05983
#
# Static dielectric constant tensor:
#      x y z
#    x 1.951030 0.000000 -0.012050 
#    y 0.000000 1.962790 0.000000 
#    z -0.012050 0.000000 1.917870 
# 
# From -- ./inp_files/56584.got.cif
#   From: 2010.05.17/outbox.cif.g08.bks.cpg/sg14_29_cif.got.tgz:56584.got - 2010.06.03 17:49:19.
