data_PCOD9246972
_publ_section_title
;
Structure prediction by ZEFSAII (Michael W. Deem and Ramdas Pophale) SiO2 
 PCOD9246972
Probable space group: P 21/C
;
_chemical_formula_sum "Si O2"
_cell_formula_units_Z 24
_cell_length_a 6.340874
_cell_length_b 13.328143
_cell_length_c 13.861104
_cell_angle_alpha 90.000000
_cell_angle_beta 64.948384
_cell_angle_gamma 90.000000
_cell_volume 1061.230313
_symmetry_space_group_name_H-M "P 21/C"
_symmetry_group_IT_number 14
_symmetry_cell_setting 'monoclinic'
loop_
_space_group_symop_operation_xyz
x,y,z
-x,1/2+y,1/2-z
-x,-y,-z
x,1/2-y,1/2+z
loop_
_atom_site_type_symbol
_atom_site_label
_atom_site_fract_x
_atom_site_fract_y
_atom_site_fract_z
Si Si1 0.215215 0.242315 0.549730
Si Si2 0.236498 0.314511 0.742529
Si Si3 0.400939 0.060270 0.386977
Si Si4 0.905784 0.011590 0.250478
Si Si5 0.783840 0.124281 0.673630
Si Si6 0.266423 0.135967 0.859986
O O1 0.337139 0.258811 0.629384
O O2 0.315141 0.143135 0.478127
O O3 0.259328 0.337667 0.472995
O O4 0.939802 0.218241 0.612927
O O5 0.387953 0.384381 0.783952
O O6 0.137037 0.228559 0.831555
O O7 0.045351 0.386001 0.731514
O O8 0.663944 0.027550 0.352734
O O9 0.251899 0.958888 0.403318
O O10 0.840820 0.966656 0.158733
O O11 0.060731 0.930183 0.275479
O O12 0.530784 0.144499 0.768191
#
# Coordination Sequence:
#
# PCOD9246972 Si02
#       6
#     4   4   4   4   4   4
#     4  11  22  39  67  96 123 174 212 254 328 373
#     4  10  22  40  62  97 130 167 212 260 311 375
#     4   9  22  41  63  94 131 162 215 271 310 373
#     4  10  21  44  68  88 135 169 204 271 319 369
#     4  10  21  43  64  93 131 163 217 268 313 373
#     4  10  23  43  62  96 133 166 213 269 308 375
#
# _framework density 22.615262999999999
#
# number of rings (size 3 to 8) (size 9 to 14) (size 15 to 20)
#    0.000    2.000    1.667    0.500    4.667    1.333 
#   12.000    7.500    0.000    0.000    0.000    0.000 
#    0.000    0.000    0.000    0.000    0.000    0.000 
#
# Total GULP energy -134041.089186 kJ/mol
# GULP energy per Si atom -5585.045383 kJ/mol
# Density = 2.256379 g / cm^3
# Si number density = 22.615263 Si / 1000 Ang^3
#
#
#
# Elastic Constant Matrix: (Units=GPa)
#
#
# Indices 1 2 3 4 5 6 
#
# 1 81.1355 31.8287 34.2532 0.0000 -0.6330 0.0000
# 2 31.8287 56.9223 6.0324 0.0000 -5.3291 0.0000
# 3 34.2532 6.0324 71.7437 0.0000 15.0423 0.0000
# 4 0.0000 0.0000 0.0000 46.1427 0.0000 3.4579
# 5 -0.6330 -5.3291 15.0423 0.0000 30.6293 0.0000
# 6 0.0000 0.0000 0.0000 3.4579 0.0000 18.7988
#
#
#
# Elastic Compliance Matrix: (Units=1/GPa)
#
#
# Indices 1 2 3 4 5 6 
#
# 1 0.020329 -0.010037 -0.009569 0.000000 0.003373 0.000000
# 2 -0.010037 0.023193 0.002273 0.000000 0.002711 0.000000
# 3 -0.009569 0.002273 0.020372 0.000000 -0.009807 0.000000
# 4 0.000000 0.000000 0.000000 0.021975 0.000000 -0.004042
# 5 0.003373 0.002711 -0.009807 0.000000 0.038006 0.000000
# 6 0.000000 0.000000 0.000000 -0.004042 0.000000 0.053939
#
#
# Mechanical properties :
#
#
# Convention : Reuss Voigt Hill
#
# Bulk Modulus (GPa) = 34.21297 39.33670 36.77484
# Shear Modulus (GPa) = 22.50009 28.29331 25.39670
#
# Velocity S-wave (km/s) = 3.15764 3.54089 3.35474
# Velocity P-wave (km/s) = 5.33435 5.84370 5.59483
#
# Compressibility (1/GPa) = 0.02922868
#
# Stress axis : x y z
#
# Youngs Moduli (GPa) = 49.19188 43.11643 49.08659
#
# Poissons Ratio (x) = 0.43276 0.46971
# Poissons Ratio (y) = 0.49374 -0.11160
# Poissons Ratio (z) = 0.47071 -0.09802
#
# Static dielectric constant tensor:
#      x y z
#    x 1.816680 0.000000 0.007070 
#    y 0.000000 1.905190 0.000000 
#    z 0.007070 0.000000 1.877990 
# 
# From -- ./inp_files/37260.got.cif
#   From: 2010.05.17/outbox.cif.g08.bks.cpg/sg14_19_cif.got.tgz:37260.got - 2010.06.03 17:49:19.
