data_PCOD9246660
_publ_section_title
;
Structure prediction by ZEFSAII (Michael W. Deem and Ramdas Pophale) SiO2 
 PCOD9246660
Probable space group: P 21/C
;
_chemical_formula_sum "Si O2"
_cell_formula_units_Z 32
_cell_length_a 19.080290
_cell_length_b 15.590938
_cell_length_c 13.526287
_cell_angle_alpha 90.000000
_cell_angle_beta 157.773046
_cell_angle_gamma 90.000000
_cell_volume 1522.106201
_symmetry_space_group_name_H-M "P 21/C"
_symmetry_group_IT_number 14
_symmetry_cell_setting 'monoclinic'
loop_
_space_group_symop_operation_xyz
x,y,z
-x,1/2+y,1/2-z
-x,-y,-z
x,1/2-y,1/2+z
loop_
_atom_site_type_symbol
_atom_site_label
_atom_site_fract_x
_atom_site_fract_y
_atom_site_fract_z
Si Si1 0.840705 0.452311 0.232822
Si Si2 0.685084 0.990596 0.339968
Si Si3 0.382935 0.374295 0.413176
Si Si4 0.760732 0.789180 0.082457
Si Si5 0.440842 0.055617 0.515298
Si Si6 0.554301 0.357237 0.343710
Si Si7 0.908846 0.245472 0.848520
Si Si8 0.239495 0.207954 0.145839
O O1 0.654576 0.490415 0.034520
O O2 0.838859 0.351718 0.248838
O O3 0.000000 0.500000 0.500000
O O4 0.843784 0.482721 0.123359
O O5 0.740783 0.938220 0.315344
O O6 0.535335 0.927838 0.199642
O O7 0.577783 0.077520 0.173365
O O8 0.309427 0.357280 0.427635
O O9 0.387376 0.283115 0.362775
O O10 0.958114 0.757784 0.382874
O O11 0.609887 0.712580 0.885553
O O12 0.771920 0.816446 0.983312
O O13 0.587054 0.103608 0.776743
O O14 0.296595 0.126656 0.286126
O O15 0.500000 0.000000 0.500000
O O16 0.739406 0.311254 0.623211
O O17 0.050634 0.249773 0.940668
#
# Coordination Sequence:
#
# PCOD9246660 Si02
#       8
#     4   4   4   4   4   4   4   4
#     4  11  22  42  67  97 133 174 219 275 327 394
#     4  10  22  40  66 100 126 171 228 266 326 402
#     4  10  21  41  69  86 130 176 212 266 339 381
#     4  11  23  45  67  93 136 171 217 283 321 397
#     4  11  25  42  66 100 134 171 222 276 335 393
#     4  11  22  43  69  97 133 172 225 271 333 403
#     4  11  24  44  69 100 130 179 222 268 342 400
#     4  11  23  44  64  96 136 172 217 283 333 387
#
# _framework density 21.023499999999999
#
# number of rings (size 3 to 8) (size 9 to 14) (size 15 to 20)
#    0.000    1.250    5.000    1.500    5.250    1.000 
#    9.000    2.500    0.000    0.000    0.000    0.000 
#    0.000    0.000    0.000    0.000    0.000    0.000 
#
# Total GULP energy -178604.483369 kJ/mol
# GULP energy per Si atom -5581.390105 kJ/mol
# Density = 2.097565 g / cm^3
# Si number density = 21.023500 Si / 1000 Ang^3
#
#
#
# Elastic Constant Matrix: (Units=GPa)
#
#
# Indices 1 2 3 4 5 6 
#
# 1 94.1668 21.4723 18.2214 0.0000 -29.8870 0.0000
# 2 21.4723 91.5629 33.2763 0.0000 -0.8569 0.0000
# 3 18.2214 33.2763 93.7729 0.0000 -16.8618 0.0000
# 4 0.0000 0.0000 0.0000 21.1643 0.0000 -0.8880
# 5 -29.8870 -0.8569 -16.8618 0.0000 29.3621 0.0000
# 6 0.0000 0.0000 0.0000 -0.8880 0.0000 41.9379
#
#
#
# Elastic Compliance Matrix: (Units=1/GPa)
#
#
# Indices 1 2 3 4 5 6 
#
# 1 0.017077 -0.004377 0.001492 0.000000 0.018111 0.000000
# 2 -0.004377 0.013819 -0.005333 0.000000 -0.007115 0.000000
# 3 0.001492 -0.005333 0.013952 0.000000 0.009375 0.000000
# 4 0.000000 0.000000 0.000000 0.047291 0.000000 0.001001
# 5 0.018111 -0.007115 0.009375 0.000000 0.057669 0.000000
# 6 0.000000 0.000000 0.000000 0.001001 0.000000 0.023866
#
#
# Mechanical properties :
#
#
# Convention : Reuss Voigt Hill
#
# Bulk Modulus (GPa) = 35.19607 47.27139 41.23373
# Shear Modulus (GPa) = 25.05222 32.26170 28.65696
#
# Velocity S-wave (km/s) = 3.45574 3.92159 3.69601
# Velocity P-wave (km/s) = 5.71844 6.56041 6.15384
#
# Compressibility (1/GPa) = 0.02841226
#
# Stress axis : x y z
#
# Youngs Moduli (GPa) = 58.55755 72.36167 71.67231
#
# Poissons Ratio (x) = 0.31676 -0.10692
# Poissons Ratio (y) = 0.25633 0.38221
# Poissons Ratio (z) = -0.08735 0.38589
#
# Static dielectric constant tensor:
#      x y z
#    x 1.930690 0.000000 -0.075200 
#    y 0.000000 1.793130 0.000000 
#    z -0.075200 0.000000 1.819580 
# 
# From -- ./inp_files/50696.got.cif
#   From: 2010.05.17/outbox.cif.g08.bks.cpg/sg14_26_cif.got.tgz:50696.got - 2010.06.03 17:49:19.
