data_PCOD9246275
_publ_section_title
;
Structure prediction by ZEFSAII (Michael W. Deem and Ramdas Pophale) SiO2 
 PCOD9246275
Probable space group: P 21/C
;
_chemical_formula_sum "Si O2"
_cell_formula_units_Z 32
_cell_length_a 7.712398
_cell_length_b 12.176118
_cell_length_c 14.654993
_cell_angle_alpha 90.000000
_cell_angle_beta 76.639533
_cell_angle_gamma 90.000000
_cell_volume 1338.961126
_symmetry_space_group_name_H-M "P 21/C"
_symmetry_group_IT_number 14
_symmetry_cell_setting 'monoclinic'
loop_
_space_group_symop_operation_xyz
x,y,z
-x,1/2+y,1/2-z
-x,-y,-z
x,1/2-y,1/2+z
loop_
_atom_site_type_symbol
_atom_site_label
_atom_site_fract_x
_atom_site_fract_y
_atom_site_fract_z
Si Si1 0.678631 0.596712 0.760481
Si Si2 0.515458 0.374524 0.028637
Si Si3 0.480167 0.800877 0.115492
Si Si4 0.207377 0.640616 0.245168
Si Si5 0.092133 0.889023 0.458402
Si Si6 0.984320 0.660551 0.462064
Si Si7 0.049275 0.970068 0.271594
Si Si8 0.242305 0.972127 0.064124
O O1 0.582748 0.639116 0.863152
O O2 0.606543 0.654866 0.679742
O O3 0.657863 0.463319 0.756301
O O4 0.890780 0.607106 0.751328
O O5 0.725494 0.355281 0.016312
O O6 0.500000 0.500000 0.000000
O O7 0.449479 0.295580 0.957372
O O8 0.310142 0.742480 0.188669
O O9 0.417703 0.899599 0.055857
O O10 0.104058 0.655742 0.353950
O O11 0.058893 0.583787 0.197183
O O12 0.959517 0.787807 0.482773
O O13 0.134824 0.915478 0.347989
O O14 0.000000 0.000000 0.500000
O O15 0.102694 0.604731 0.526361
O O16 0.805060 0.589830 0.473763
O O17 0.186830 0.989946 0.175568
#
# Coordination Sequence:
#
# PCOD9246275 Si02
#       8
#     4   4   4   4   4   4   4   4
#     4  10  23  43  65  98 138 179 236 282 351 430
#     4  12  23  44  67 102 138 186 239 284 362 427
#     4  12  22  41  71  95 139 189 223 296 359 423
#     4   9  20  42  64  89 141 175 218 286 349 410
#     4  12  23  42  70 102 133 180 233 293 347 411
#     4  10  21  40  66  96 136 173 224 286 335 424
#     4   9  21  43  62  98 132 169 234 286 337 414
#     4  10  21  40  68  96 128 182 228 268 358 408
#
# _framework density 23.899125000000002
#
# number of rings (size 3 to 8) (size 9 to 14) (size 15 to 20)
#    0.750    0.750    2.500    3.750    0.000    0.000 
#    6.750    0.625    0.000    0.000    0.000    0.000 
#    0.000    0.000    0.000    0.000    0.000    0.000 
#
# Total GULP energy -178865.500237 kJ/mol
# GULP energy per Si atom -5589.546882 kJ/mol
# Density = 2.384473 g / cm^3
# Si number density = 23.899125 Si / 1000 Ang^3
#
#
#
# Elastic Constant Matrix: (Units=GPa)
#
#
# Indices 1 2 3 4 5 6 
#
# 1 50.8899 -4.5597 18.3020 0.0000 -11.3407 0.0000
# 2 -4.5597 131.7792 38.2456 0.0000 -7.8092 0.0000
# 3 18.3020 38.2456 97.4454 0.0000 13.7481 0.0000
# 4 0.0000 0.0000 0.0000 38.0167 0.0000 2.6377
# 5 -11.3407 -7.8092 13.7481 0.0000 25.5262 0.0000
# 6 0.0000 0.0000 0.0000 2.6377 0.0000 29.0744
#
#
#
# Elastic Compliance Matrix: (Units=1/GPa)
#
#
# Indices 1 2 3 4 5 6 
#
# 1 0.027977 0.004998 -0.009941 0.000000 0.019312 0.000000
# 2 0.004998 0.010036 -0.006086 0.000000 0.008568 0.000000
# 3 -0.009941 -0.006086 0.016670 0.000000 -0.015257 0.000000
# 4 0.000000 0.000000 0.000000 0.026471 0.000000 -0.002401
# 5 0.019312 0.008568 -0.015257 0.000000 0.058594 0.000000
# 6 0.000000 0.000000 0.000000 -0.002401 0.000000 0.034612
#
#
# Mechanical properties :
#
#
# Convention : Reuss Voigt Hill
#
# Bulk Modulus (GPa) = 30.65233 42.67669 36.66451
# Shear Modulus (GPa) = 24.12037 33.73188 28.92613
#
# Velocity S-wave (km/s) = 3.18033 3.76097 3.48277
# Velocity P-wave (km/s) = 5.13221 6.06264 5.61672
#
# Compressibility (1/GPa) = 0.03262395
#
# Stress axis : x y z
#
# Youngs Moduli (GPa) = 35.74387 99.64604 59.98624
#
# Poissons Ratio (x) = -0.49798 0.59630
# Poissons Ratio (y) = -0.17863 0.36509
# Poissons Ratio (z) = 0.35532 0.60647
#
# Static dielectric constant tensor:
#      x y z
#    x 1.999470 0.000000 -0.071040 
#    y 0.000000 1.976310 0.000000 
#    z -0.071040 0.000000 1.923770 
# 
# From -- ./inp_files/40074.got.cif
#   From: 2010.05.17/outbox.cif.g08.bks.cpg/sg14_21_cif.got.tgz:40074.got - 2010.06.03 17:49:19.
