data_PCOD9246411
_publ_section_title
;
Structure prediction by ZEFSAII (Michael W. Deem and Ramdas Pophale) SiO2 
 PCOD9246411
Probable space group: P 21/C
;
_chemical_formula_sum "Si O2"
_cell_formula_units_Z 28
_cell_length_a 20.392273
_cell_length_b 7.006589
_cell_length_c 26.482178
_cell_angle_alpha 90.000000
_cell_angle_beta 20.601144
_cell_angle_gamma 90.000000
_cell_volume 1331.362425
_symmetry_space_group_name_H-M "P 21/C"
_symmetry_group_IT_number 14
_symmetry_cell_setting 'monoclinic'
loop_
_space_group_symop_operation_xyz
x,y,z
-x,1/2+y,1/2-z
-x,-y,-z
x,1/2-y,1/2+z
loop_
_atom_site_type_symbol
_atom_site_label
_atom_site_fract_x
_atom_site_fract_y
_atom_site_fract_z
Si Si1 0.835138 0.153110 0.614176
Si Si2 0.238670 0.593406 0.725715
Si Si3 0.792567 0.317471 0.944292
Si Si4 0.981390 0.223338 0.907584
Si Si5 0.713466 0.463617 0.860006
Si Si6 0.178512 0.304778 0.118209
Si Si7 0.524382 0.470685 0.596823
O O1 0.811925 0.223783 0.688426
O O2 0.887748 0.287568 0.530049
O O3 0.640765 0.040499 0.746852
O O4 0.000000 0.000000 0.500000
O O5 0.425532 0.491614 0.613095
O O6 0.393214 0.731780 0.446645
O O7 0.089489 0.427081 0.825471
O O8 0.832192 0.222769 0.969945
O O9 0.745809 0.237165 0.831668
O O10 0.799301 0.546594 0.943323
O O11 0.969993 0.259184 0.781675
O O12 0.139335 0.068833 0.782546
O O13 0.751441 0.566390 0.885511
O O14 0.500000 0.500000 0.000000
O O15 0.307469 0.120658 0.021139
#
# Coordination Sequence:
#
# PCOD9246411 Si02
#       7
#     4   4   4   4   4   4   4
#     4   8  18  42  63  85 122 156 200 255 308 349
#     4   9  21  38  64  89 120 157 198 261 305 348
#     4  11  24  39  61  85 125 168 197 246 307 368
#     4  10  23  40  60  90 120 163 206 247 304 364
#     4  11  22  35  59  95 118 151 208 248 306 369
#     4  11  23  38  59  88 123 161 204 248 306 371
#     4  10  21  41  61  88 122 160 200 255 306 359
#
# _framework density 21.031089000000001
#
# number of rings (size 3 to 8) (size 9 to 14) (size 15 to 20)
#    0.857    1.143    2.857    0.000    4.000    1.143 
#    2.571    1.429    0.000    0.000    0.000    0.000 
#    0.000    0.000    0.000    0.000    0.000    0.000 
#
# Total GULP energy -156123.122604 kJ/mol
# GULP energy per Si atom -5575.825807 kJ/mol
# Density = 2.098322 g / cm^3
# Si number density = 21.031089 Si / 1000 Ang^3
#
#
#
# Elastic Constant Matrix: (Units=GPa)
#
#
# Indices 1 2 3 4 5 6 
#
# 1 51.8262 -1.6063 9.7924 0.0000 -2.1567 0.0000
# 2 -1.6063 45.4212 -3.2352 0.0000 3.1329 0.0000
# 3 9.7924 -3.2352 71.1263 0.0000 0.1203 0.0000
# 4 0.0000 0.0000 0.0000 30.5286 0.0000 0.0472
# 5 -2.1567 3.1329 0.1203 0.0000 26.0849 0.0000
# 6 0.0000 0.0000 0.0000 0.0472 0.0000 30.3427
#
#
#
# Elastic Compliance Matrix: (Units=1/GPa)
#
#
# Indices 1 2 3 4 5 6 
#
# 1 0.019889 0.000398 -0.002723 0.000000 0.001609 0.000000
# 2 0.000398 0.022281 0.000963 0.000000 -0.002648 0.000000
# 3 -0.002723 0.000963 0.014479 0.000000 -0.000408 0.000000
# 4 0.000000 0.000000 0.000000 0.032756 0.000000 -0.000051
# 5 0.001609 -0.002648 -0.000408 0.000000 0.038789 0.000000
# 6 0.000000 0.000000 0.000000 -0.000051 0.000000 0.032957
#
#
# Mechanical properties :
#
#
# Convention : Reuss Voigt Hill
#
# Bulk Modulus (GPa) = 18.54367 19.80839 19.17603
# Shear Modulus (GPa) = 27.49520 28.28610 27.89065
#
# Velocity S-wave (km/s) = 3.61967 3.67136 3.64560
# Velocity P-wave (km/s) = 5.12891 5.23554 5.18250
#
# Compressibility (1/GPa) = 0.05392677
#
# Stress axis : x y z
#
# Youngs Moduli (GPa) = 50.27893 44.88039 69.06620
#
# Poissons Ratio (x) = -0.01788 0.18806
# Poissons Ratio (y) = -0.02003 -0.06652
# Poissons Ratio (z) = 0.13690 -0.04322
#
# Static dielectric constant tensor:
#      x y z
#    x 1.820560 0.000000 0.030070 
#    y 0.000000 1.800360 0.000000 
#    z 0.030070 0.000000 1.752900 
# 
# From -- ./inp_files/77912.got.cif
#   From: 2010.05.17/outbox.cif.g08.bks.cpg/sg14_39_cif.got.tgz:77912.got - 2010.06.03 17:49:19.
