data_PCOD9246147
_publ_section_title
;
Structure prediction by ZEFSAII (Michael W. Deem and Ramdas Pophale) SiO2 
 PCOD9246147
Probable space group: P 21/C
;
_chemical_formula_sum "Si O2"
_cell_formula_units_Z 28
_cell_length_a 23.731322
_cell_length_b 5.525163
_cell_length_c 10.853849
_cell_angle_alpha 90.000000
_cell_angle_beta 123.385227
_cell_angle_gamma 90.000000
_cell_volume 1188.316034
_symmetry_space_group_name_H-M "P 21/C"
_symmetry_group_IT_number 14
_symmetry_cell_setting 'monoclinic'
loop_
_space_group_symop_operation_xyz
x,y,z
-x,1/2+y,1/2-z
-x,-y,-z
x,1/2-y,1/2+z
loop_
_atom_site_type_symbol
_atom_site_label
_atom_site_fract_x
_atom_site_fract_y
_atom_site_fract_z
Si Si1 0.521808 0.210733 0.120652
Si Si2 0.338121 0.726541 0.081444
Si Si3 0.858790 0.670242 0.456648
Si Si4 0.944318 0.203848 0.961486
Si Si5 0.605693 0.946095 0.545279
Si Si6 0.706550 0.736316 0.350398
Si Si7 0.925474 0.605299 0.789225
O O1 0.582976 0.175341 0.288896
O O2 0.559036 0.412249 0.083828
O O3 0.451127 0.293061 0.097460
O O4 0.500000 0.000000 0.000000
O O5 0.298024 0.497130 0.089625
O O6 0.312683 0.993691 0.090467
O O7 0.343593 0.650389 0.945768
O O8 0.880829 0.394314 0.457397
O O9 0.780559 0.703114 0.384650
O O10 0.896574 0.720453 0.631549
O O11 0.886912 0.799691 0.366762
O O12 0.918868 0.318839 0.803857
O O13 0.993408 0.368302 0.103327
O O14 0.000000 0.000000 0.000000
O O15 0.652058 0.761511 0.675655
#
# Coordination Sequence:
#
# PCOD9246147 Si02
#       7
#     4   4   4   4   4   4   4
#     4  10  21  40  63  99 124 172 229 289 350 414
#     4  11  26  43  69  95 137 180 233 281 359 419
#     4  11  26  43  73 102 143 192 242 293 369 436
#     4   9  22  42  68 105 140 180 232 297 360 418
#     4  10  24  41  68  93 140 171 229 295 350 428
#     4  11  27  46  64 104 136 189 230 287 351 438
#     4  10  24  44  73 104 142 185 242 303 359 433
#
# _framework density 23.562753000000001
#
# number of rings (size 3 to 8) (size 9 to 14) (size 15 to 20)
#    0.000    1.714    1.429    0.000   14.000    2.286 
#    0.000    0.000    0.000    0.000    0.000    0.000 
#    0.000    0.000    0.000    0.000    0.000    0.000 
#
# Total GULP energy -155872.840919 kJ/mol
# GULP energy per Si atom -5566.887176 kJ/mol
# Density = 2.350912 g / cm^3
# Si number density = 23.562753 Si / 1000 Ang^3
#
#
#
# Elastic Constant Matrix: (Units=GPa)
#
#
# Indices 1 2 3 4 5 6 
#
# 1 95.2486 26.3628 5.3548 0.0000 9.5698 0.0000
# 2 26.3628 62.5403 9.3792 0.0000 -1.3974 0.0000
# 3 5.3548 9.3792 16.6223 0.0000 -9.5968 0.0000
# 4 0.0000 0.0000 0.0000 26.9147 0.0000 -11.3169
# 5 9.5698 -1.3974 -9.5968 0.0000 29.9486 0.0000
# 6 0.0000 0.0000 0.0000 -11.3169 0.0000 38.8006
#
#
#
# Elastic Compliance Matrix: (Units=1/GPa)
#
#
# Indices 1 2 3 4 5 6 
#
# 1 0.012663 -0.004757 -0.004736 0.000000 -0.005786 0.000000
# 2 -0.004757 0.019459 -0.009872 0.000000 -0.000735 0.000000
# 3 -0.004736 -0.009872 0.083269 0.000000 0.027735 0.000000
# 4 0.000000 0.000000 0.000000 0.042348 0.000000 0.012351
# 5 -0.005786 -0.000735 0.027735 0.000000 0.044093 0.000000
# 6 0.000000 0.000000 0.000000 0.012351 0.000000 0.029375
#
#
# Mechanical properties :
#
#
# Convention : Reuss Voigt Hill
#
# Bulk Modulus (GPa) = 13.04429 28.51163 20.77796
# Shear Modulus (GPa) = 16.92105 28.02040 22.47072
#
# Velocity S-wave (km/s) = 2.68270 3.45219 3.09148
# Velocity P-wave (km/s) = 3.89150 5.29308 4.64546
#
# Compressibility (1/GPa) = 0.07666192
#
# Stress axis : x y z
#
# Youngs Moduli (GPa) = 78.97022 51.39013 12.00927
#
# Poissons Ratio (x) = 0.24446 0.05687
# Poissons Ratio (y) = 0.37566 0.11856
# Poissons Ratio (z) = 0.37397 0.50732
#
# Static dielectric constant tensor:
#      x y z
#    x 1.839590 0.000000 0.010400 
#    y 0.000000 2.187090 0.000000 
#    z 0.010400 0.000000 2.158160 
# 
# From -- ./inp_files/34743.got.cif
#   From: 2010.05.17/outbox.cif.g08.bks.cpg/sg14_18_cif.got.tgz:34743.got - 2010.06.03 17:49:19.
