data_PCOD9246168
_publ_section_title
;
Structure prediction by ZEFSAII (Michael W. Deem and Ramdas Pophale) SiO2 
 PCOD9246168
Probable space group: P 21/C
;
_chemical_formula_sum "Si O2"
_cell_formula_units_Z 16
_cell_length_a 6.991862
_cell_length_b 9.875181
_cell_length_c 14.506020
_cell_angle_alpha 90.000000
_cell_angle_beta 142.034283
_cell_angle_gamma 90.000000
_cell_volume 616.162625
_symmetry_space_group_name_H-M "P 21/C"
_symmetry_group_IT_number 14
_symmetry_cell_setting 'monoclinic'
loop_
_space_group_symop_operation_xyz
x,y,z
-x,1/2+y,1/2-z
-x,-y,-z
x,1/2-y,1/2+z
loop_
_atom_site_type_symbol
_atom_site_label
_atom_site_fract_x
_atom_site_fract_y
_atom_site_fract_z
Si Si1 0.842646 0.736070 0.208125
Si Si2 0.636309 0.167687 0.845973
Si Si3 0.745390 0.732499 0.966378
Si Si4 0.095793 0.506461 0.196637
O O1 0.546749 0.722226 0.161828
O O2 0.717862 0.783876 0.060217
O O3 0.038761 0.602838 0.262642
O O4 0.032461 0.859234 0.325290
O O5 0.553404 0.205313 0.708727
O O6 0.002097 0.178872 0.992985
O O7 0.449395 0.031861 0.803804
O O8 0.913139 0.587117 0.048728
#
# Coordination Sequence:
#
# PCOD9246168 Si02
#       4
#     4   4   4   4
#     4   8  20  38  62  92 120 158 208 258 292 368
#     4  10  21  40  64  91 123 165 205 251 306 367
#     4  10  21  40  64  91 123 165 205 251 306 367
#     4   8  19  42  62  89 122 163 210 246 303 370
#
# _framework density 25.967168999999998
#
# number of rings (size 3 to 8) (size 9 to 14) (size 15 to 20)
#    3.000    0.000    0.000    0.750    0.000    4.000 
#    0.000   10.000    0.000    0.000    0.000    0.000 
#    0.000    0.000    0.000    0.000    0.000    0.000 
#
# Total GULP energy -89253.861418 kJ/mol
# GULP energy per Si atom -5578.366339 kJ/mol
# Density = 2.590807 g / cm^3
# Si number density = 25.967169 Si / 1000 Ang^3
#
#
#
# Elastic Constant Matrix: (Units=GPa)
#
#
# Indices 1 2 3 4 5 6 
#
# 1 82.9284 1.7277 29.0674 0.0000 -13.5003 0.0000
# 2 1.7277 75.2558 24.6364 0.0000 3.5195 0.0000
# 3 29.0674 24.6364 95.7274 0.0000 14.0490 0.0000
# 4 0.0000 0.0000 0.0000 10.3440 0.0000 0.4023
# 5 -13.5003 3.5195 14.0490 0.0000 22.2910 0.0000
# 6 0.0000 0.0000 0.0000 0.4023 0.0000 59.5027
#
#
#
# Elastic Compliance Matrix: (Units=1/GPa)
#
#
# Indices 1 2 3 4 5 6 
#
# 1 0.017240 0.001460 -0.007834 0.000000 0.015148 0.000000
# 2 0.001460 0.014634 -0.004408 0.000000 0.001352 0.000000
# 3 -0.007834 -0.004408 0.016037 0.000000 -0.014156 0.000000
# 4 0.000000 0.000000 0.000000 0.096700 0.000000 -0.000654
# 5 0.015148 0.001352 -0.014156 0.000000 0.062744 0.000000
# 6 0.000000 0.000000 0.000000 -0.000654 0.000000 0.016810
#
#
# Mechanical properties :
#
#
# Convention : Reuss Voigt Hill
#
# Bulk Modulus (GPa) = 37.95337 40.53050 39.24193
# Shear Modulus (GPa) = 19.64546 31.65955 25.65250
#
# Velocity S-wave (km/s) = 2.75353 3.49551 3.14647
# Velocity P-wave (km/s) = 4.97563 5.65099 5.32403
#
# Compressibility (1/GPa) = 0.02634812
#
# Stress axis : x y z
#
# Youngs Moduli (GPa) = 58.00446 68.33241 62.35551
#
# Poissons Ratio (x) = -0.09979 0.48848
# Poissons Ratio (y) = -0.08471 0.27487
# Poissons Ratio (z) = 0.45440 0.30122
#
# Static dielectric constant tensor:
#      x y z
#    x 2.039160 0.000000 0.000740 
#    y 0.000000 2.071450 0.000000 
#    z 0.000740 0.000000 1.976930 
# 
# From -- ./inp_files/7594.got.cif
#   From: 2010.05.17/outbox.cif.g08.bks.cpg/sg14_4_cif.got.tgz:7594.got - 2010.06.03 17:49:19.
