data_PCOD9246510
_publ_section_title
;
Structure prediction by ZEFSAII (Michael W. Deem and Ramdas Pophale) SiO2 
 PCOD9246510
Probable space group: P 21/C
;
_chemical_formula_sum "Si O2"
_cell_formula_units_Z 32
_cell_length_a 12.639442
_cell_length_b 13.575042
_cell_length_c 18.824206
_cell_angle_alpha 90.000000
_cell_angle_beta 30.329470
_cell_angle_gamma 90.000000
_cell_volume 1630.995418
_symmetry_space_group_name_H-M "P 21/C"
_symmetry_group_IT_number 14
_symmetry_cell_setting 'monoclinic'
loop_
_space_group_symop_operation_xyz
x,y,z
-x,1/2+y,1/2-z
-x,-y,-z
x,1/2-y,1/2+z
loop_
_atom_site_type_symbol
_atom_site_label
_atom_site_fract_x
_atom_site_fract_y
_atom_site_fract_z
Si Si1 0.726091 0.238646 0.869790
Si Si2 0.362220 0.226422 0.174466
Si Si3 0.693425 0.557480 0.853663
Si Si4 0.084714 0.638394 0.108842
Si Si5 0.910749 0.591882 0.868877
Si Si6 0.493675 0.672515 0.778300
Si Si7 0.478872 0.803439 0.659175
Si Si8 0.232959 0.516257 0.339057
O O1 0.842301 0.315695 0.856744
O O2 0.607977 0.285042 0.870023
O O3 0.893484 0.163838 0.739062
O O4 0.558290 0.181593 0.017735
O O5 0.375710 0.338746 0.138316
O O6 0.392552 0.241619 0.240876
O O7 0.139726 0.182567 0.282319
O O8 0.866139 0.579860 0.811188
O O9 0.774382 0.495819 0.741368
O O10 0.500000 0.500000 0.000000
O O11 0.067367 0.520122 0.118447
O O12 0.265399 0.664755 0.947127
O O13 0.702758 0.642633 0.021370
O O14 0.493520 0.704610 0.696804
O O15 0.615666 0.569469 0.718840
O O16 0.329622 0.875843 0.791451
O O17 0.000000 0.500000 0.500000
#
# Coordination Sequence:
#
# PCOD9246510 Si02
#       8
#     4   4   4   4   4   4   4   4
#     4  11  23  40  68 100 130 165 220 284 320 392
#     4  10  21  41  64  93 127 170 218 266 330 393
#     4  11  18  41  69  94 123 169 225 269 319 396
#     4  11  22  44  68  94 131 176 217 268 346 407
#     4  12  23  40  70  98 128 176 220 275 341 395
#     4  10  25  42  65  90 134 177 215 268 333 403
#     4  12  24  43  62  98 133 167 226 271 329 395
#     4  11  24  40  66  98 126 171 223 272 324 389
#
# _framework density 19.619918999999999
#
# number of rings (size 3 to 8) (size 9 to 14) (size 15 to 20)
#    0.000    1.000    5.000    2.250    5.250    0.500 
#    4.500    1.250    0.000    0.000    0.000    0.000 
#    0.000    0.000    0.000    0.000    0.000    0.000 
#
# Total GULP energy -178608.406084 kJ/mol
# GULP energy per Si atom -5581.512690 kJ/mol
# Density = 1.957526 g / cm^3
# Si number density = 19.619919 Si / 1000 Ang^3
#
#
#
# Elastic Constant Matrix: (Units=GPa)
#
#
# Indices 1 2 3 4 5 6 
#
# 1 44.9771 12.6972 21.0128 0.0000 0.6521 0.0000
# 2 12.6972 58.9200 32.7081 0.0000 -2.7591 0.0000
# 3 21.0128 32.7081 105.1056 0.0000 -19.5266 0.0000
# 4 0.0000 0.0000 0.0000 27.2640 0.0000 -2.1663
# 5 0.6521 -2.7591 -19.5266 0.0000 33.2480 0.0000
# 6 0.0000 0.0000 0.0000 -2.1663 0.0000 19.6554
#
#
#
# Elastic Compliance Matrix: (Units=1/GPa)
#
#
# Indices 1 2 3 4 5 6 
#
# 1 0.025370 -0.002962 -0.004814 0.000000 -0.003570 0.000000
# 2 -0.002962 0.021020 -0.006302 0.000000 -0.001899 0.000000
# 3 -0.004814 -0.006302 0.013872 0.000000 0.007718 0.000000
# 4 0.000000 0.000000 0.000000 0.037002 0.000000 0.004078
# 5 -0.003570 -0.001899 0.007718 0.000000 0.034522 0.000000
# 6 0.000000 0.000000 0.000000 0.004078 0.000000 0.051326
#
#
# Mechanical properties :
#
#
# Convention : Reuss Voigt Hill
#
# Bulk Modulus (GPa) = 31.14625 37.98210 34.56417
# Shear Modulus (GPa) = 22.52555 25.53912 24.03234
#
# Velocity S-wave (km/s) = 3.39203 3.61181 3.50365
# Velocity P-wave (km/s) = 5.59021 6.06585 5.83288
#
# Compressibility (1/GPa) = 0.03210660
#
# Stress axis : x y z
#
# Youngs Moduli (GPa) = 39.41599 47.57395 72.09009
#
# Poissons Ratio (x) = 0.14093 0.34701
# Poissons Ratio (y) = 0.11676 0.45429
# Poissons Ratio (z) = 0.18973 0.29980
#
# Static dielectric constant tensor:
#      x y z
#    x 1.715750 0.000000 -0.002190 
#    y 0.000000 1.791000 0.000000 
#    z -0.002190 0.000000 1.676090 
# 
# From -- ./inp_files/57923.got.cif
#   From: 2010.05.17/outbox.cif.g08.bks.cpg/sg14_29_cif.got.tgz:57923.got - 2010.06.03 17:49:19.
