data_PCOD9246511
_publ_section_title
;
Structure prediction by ZEFSAII (Michael W. Deem and Ramdas Pophale) SiO2 
 PCOD9246511
Probable space group: P 21/C
;
_chemical_formula_sum "Si O2"
_cell_formula_units_Z 24
_cell_length_a 26.951684
_cell_length_b 5.048476
_cell_length_c 24.726103
_cell_angle_alpha 90.000000
_cell_angle_beta 18.338313
_cell_angle_gamma 90.000000
_cell_volume 1058.517927
_symmetry_space_group_name_H-M "P 21/C"
_symmetry_group_IT_number 14
_symmetry_cell_setting 'monoclinic'
loop_
_space_group_symop_operation_xyz
x,y,z
-x,1/2+y,1/2-z
-x,-y,-z
x,1/2-y,1/2+z
loop_
_atom_site_type_symbol
_atom_site_label
_atom_site_fract_x
_atom_site_fract_y
_atom_site_fract_z
Si Si1 0.838177 0.232830 0.217016
Si Si2 0.410436 0.442944 0.324787
Si Si3 0.495848 0.248166 0.043530
Si Si4 0.906577 0.685353 0.858886
Si Si5 0.253015 0.073805 0.879199
Si Si6 0.037033 0.720799 0.032971
O O1 0.652739 0.257476 0.417701
O O2 0.658058 0.774038 0.260390
O O3 0.868163 0.287011 0.121951
O O4 0.902467 0.943224 0.163603
O O5 0.463167 0.706826 0.300678
O O6 0.246169 0.305465 0.513991
O O7 0.377213 0.518311 0.296537
O O8 0.500000 0.500000 0.000000
O O9 0.500000 0.000000 0.000000
O O10 0.949756 0.384074 0.802722
O O11 0.858122 0.735453 0.970774
O O12 0.947152 0.446576 0.133951
O O13 0.153413 0.834617 0.957575
#
# Coordination Sequence:
#
# PCOD9246511 Si02
#       6
#     4   4   4   4   4   4
#     4  10  22  39  63  93 137 178 228 272 327 387
#     4  10  23  45  71  99 138 175 229 302 358 418
#     4  12  25  43  68 100 143 186 228 276 345 425
#     4  10  23  45  71  96 133 177 234 292 358 413
#     4  10  26  44  72  99 140 186 232 285 364 414
#     4  10  21  41  64  93 130 182 226 279 322 407
#
# _framework density 22.673209
#
# number of rings (size 3 to 8) (size 9 to 14) (size 15 to 20)
#    1.000    0.667    1.667    2.000    4.667    5.333 
#    9.000    0.000    0.000    0.000    0.000    0.000 
#    0.000    0.000    0.000    0.000    0.000    0.000 
#
# Total GULP energy -134191.447717 kJ/mol
# GULP energy per Si atom -5591.310322 kJ/mol
# Density = 2.262160 g / cm^3
# Si number density = 22.673209 Si / 1000 Ang^3
#
#
#
# Elastic Constant Matrix: (Units=GPa)
#
#
# Indices 1 2 3 4 5 6 
#
# 1 78.1637 11.9516 29.4882 0.0000 -10.3867 0.0000
# 2 11.9516 70.6523 11.8324 0.0000 1.6651 0.0000
# 3 29.4882 11.8324 78.8779 0.0000 -6.0646 0.0000
# 4 0.0000 0.0000 0.0000 15.0259 0.0000 16.9832
# 5 -10.3867 1.6651 -6.0646 0.0000 42.7848 0.0000
# 6 0.0000 0.0000 0.0000 16.9832 0.0000 -17.2840
#
#
#
# Elastic Compliance Matrix: (Units=1/GPa)
#
#
# Indices 1 2 3 4 5 6 
#
# 1 0.015469 -0.001806 -0.005276 0.000000 0.003078 0.000000
# 2 -0.001806 0.014762 -0.001635 0.000000 -0.001245 0.000000
# 3 -0.005276 -0.001635 0.014965 0.000000 0.000904 0.000000
# 4 0.000000 0.000000 0.000000 0.031532 0.000000 0.030984
# 5 0.003078 -0.001245 0.000904 0.000000 0.024297 0.000000
# 6 0.000000 0.000000 0.000000 0.030984 0.000000 -0.027413
#
#
# Mechanical properties :
#
#
# Convention : Reuss Voigt Hill
#
# Bulk Modulus (GPa) = 36.01849 37.13760 36.57805
# Shear Modulus (GPa) = 49.85052 19.73345 34.79199
#
# Velocity S-wave (km/s) = 4.69407 2.95336 3.92152
# Velocity P-wave (km/s) = 6.73049 5.29574 6.05575
#
# Compressibility (1/GPa) = 0.02776351
#
# Stress axis : x y z
#
# Youngs Moduli (GPa) = 64.64527 67.73939 66.82324
#
# Poissons Ratio (x) = 0.12232 0.35253
# Poissons Ratio (y) = 0.11674 0.10926
# Poissons Ratio (z) = 0.34104 0.11076
#
# Static dielectric constant tensor:
#      x y z
#    x 1.843040 0.000000 -0.022760 
#    y 0.000000 1.796850 0.000000 
#    z -0.022760 0.000000 1.887270 
# 
# From -- ./inp_files/80718.got.cif
#   From: 2010.05.17/outbox.cif.g08.bks.cpg/sg14_41_cif.got.tgz:80718.got - 2010.06.03 17:49:19.
