data_PCOD9246775
_publ_section_title
;
Structure prediction by ZEFSAII (Michael W. Deem and Ramdas Pophale) SiO2 
 PCOD9246775
Probable space group: P 21/C
;
_chemical_formula_sum "Si O2"
_cell_formula_units_Z 20
_cell_length_a 11.663921
_cell_length_b 11.022581
_cell_length_c 9.233740
_cell_angle_alpha 90.000000
_cell_angle_beta 43.386501
_cell_angle_gamma 90.000000
_cell_volume 815.472534
_symmetry_space_group_name_H-M "P 21/C"
_symmetry_group_IT_number 14
_symmetry_cell_setting 'monoclinic'
loop_
_space_group_symop_operation_xyz
x,y,z
-x,1/2+y,1/2-z
-x,-y,-z
x,1/2-y,1/2+z
loop_
_atom_site_type_symbol
_atom_site_label
_atom_site_fract_x
_atom_site_fract_y
_atom_site_fract_z
Si Si1 0.213085 0.852670 0.375632
Si Si2 0.147487 0.403563 0.326829
Si Si3 0.555104 0.697271 0.069617
Si Si4 0.628653 0.594781 0.313116
Si Si5 0.997014 0.761130 0.311616
O O1 0.370766 0.757483 0.213102
O O2 0.097186 0.828021 0.345198
O O3 0.127175 0.820512 0.604957
O O4 0.236330 0.997309 0.357815
O O5 0.000000 0.500000 0.500000
O O6 0.078665 0.345707 0.241685
O O7 0.136438 0.318112 0.478531
O O8 0.347306 0.412844 0.106046
O O9 0.560115 0.661722 0.233434
O O10 0.664384 0.810582 0.907627
O O11 0.500000 0.500000 0.500000
#
# Coordination Sequence:
#
# PCOD9246775 Si02
#       5
#     4   4   4   4   4
#     4  10  21  42  64  91 130 176 221 280 337 394
#     4  11  24  43  67 100 136 178 223 279 346 405
#     4  11  22  41  66  95 127 170 230 274 325 408
#     4  10  22  39  63  95 128 165 218 278 328 384
#     4  10  23  41  63  93 135 173 220 281 339 401
#
# _framework density 24.525658
#
# number of rings (size 3 to 8) (size 9 to 14) (size 15 to 20)
#    0.000    1.600    0.000    4.800    0.000    3.200 
#    0.000   28.000    0.000    0.000    0.000    0.000 
#    0.000    0.000    0.000    0.000    0.000    0.000 
#
# Total GULP energy -111454.350598 kJ/mol
# GULP energy per Si atom -5572.717530 kJ/mol
# Density = 2.446984 g / cm^3
# Si number density = 24.525658 Si / 1000 Ang^3
#
#
#
# Elastic Constant Matrix: (Units=GPa)
#
#
# Indices 1 2 3 4 5 6 
#
# 1 100.1780 42.4384 60.9057 0.0000 6.7625 0.0000
# 2 42.4384 65.5052 56.4294 0.0000 8.3826 0.0000
# 3 60.9057 56.4294 182.1159 0.0000 20.7181 0.0000
# 4 0.0000 0.0000 0.0000 51.5727 0.0000 11.0577
# 5 6.7625 8.3826 20.7181 0.0000 39.9745 0.0000
# 6 0.0000 0.0000 0.0000 11.0577 0.0000 24.8260
#
#
#
# Elastic Compliance Matrix: (Units=1/GPa)
#
#
# Indices 1 2 3 4 5 6 
#
# 1 0.014661 -0.007213 -0.002718 0.000000 0.000441 0.000000
# 2 -0.007213 0.024418 -0.005005 0.000000 -0.001306 0.000000
# 3 -0.002718 -0.005005 0.008267 0.000000 -0.002775 0.000000
# 4 0.000000 0.000000 0.000000 0.021437 0.000000 -0.009548
# 5 0.000441 -0.001306 -0.002775 0.000000 0.026653 0.000000
# 6 0.000000 0.000000 0.000000 -0.009548 0.000000 0.044533
#
#
# Mechanical properties :
#
#
# Convention : Reuss Voigt Hill
#
# Bulk Modulus (GPa) = 57.23295 74.14959 65.69127
# Shear Modulus (GPa) = 28.46311 35.80967 32.13639
#
# Velocity S-wave (km/s) = 3.41037 3.82526 3.62376
# Velocity P-wave (km/s) = 6.23652 7.05757 6.65971
#
# Compressibility (1/GPa) = 0.01747245
#
# Stress axis : x y z
#
# Youngs Moduli (GPa) = 68.20955 40.95386 120.96816
#
# Poissons Ratio (x) = 0.29540 0.32882
# Poissons Ratio (y) = 0.49199 0.60546
# Poissons Ratio (z) = 0.18541 0.20498
#
# Static dielectric constant tensor:
#      x y z
#    x 1.960330 0.000000 -0.178750 
#    y 0.000000 2.094500 0.000000 
#    z -0.178750 0.000000 2.154590 
# 
# From -- ./inp_files/7928.got.cif
#   From: 2010.05.17/outbox.cif.g08.bks.cpg/sg14_4_cif.got.tgz:7928.got - 2010.06.03 17:49:19.
