data_PCOD9246188
_publ_section_title
;
Structure prediction by ZEFSAII (Michael W. Deem and Ramdas Pophale) SiO2 
 PCOD9246188
Probable space group: P 21/C
;
_chemical_formula_sum "Si O2"
_cell_formula_units_Z 32
_cell_length_a 19.152546
_cell_length_b 5.168706
_cell_length_c 31.057970
_cell_angle_alpha 90.000000
_cell_angle_beta 152.855586
_cell_angle_gamma 90.000000
_cell_volume 1402.716333
_symmetry_space_group_name_H-M "P 21/C"
_symmetry_group_IT_number 14
_symmetry_cell_setting 'monoclinic'
loop_
_space_group_symop_operation_xyz
x,y,z
-x,1/2+y,1/2-z
-x,-y,-z
x,1/2-y,1/2+z
loop_
_atom_site_type_symbol
_atom_site_label
_atom_site_fract_x
_atom_site_fract_y
_atom_site_fract_z
Si Si1 0.301868 0.898449 0.294788
Si Si2 0.621586 0.594438 0.709193
Si Si3 0.031625 0.099447 0.578211
Si Si4 0.140287 0.405164 0.532132
Si Si5 0.043715 0.943209 0.894355
Si Si6 0.918276 0.364791 0.685774
Si Si7 0.392280 0.750526 0.938263
Si Si8 0.447477 0.295664 0.741838
O O1 0.398191 0.693142 0.319459
O O2 0.312773 0.789839 0.348560
O O3 0.120055 0.917523 0.185155
O O4 0.364694 0.187419 0.320390
O O5 0.788149 0.572386 0.823122
O O6 0.520695 0.710240 0.691988
O O7 0.978150 0.363268 0.526992
O O8 0.983810 0.154211 0.601916
O O9 0.938018 0.869086 0.507410
O O10 0.169631 0.439107 0.496058
O O11 0.285584 0.429416 0.641979
O O12 0.072311 0.934585 0.859616
O O13 0.745871 0.282821 0.603830
O O14 0.026273 0.119643 0.757395
O O15 0.500000 0.500000 0.000000
O O16 0.500000 0.000000 0.000000
O O17 0.557586 0.526626 0.787350
#
# Coordination Sequence:
#
# PCOD9246188 Si02
#       8
#     4   4   4   4   4   4   4   4
#     4  11  22  44  71  97 140 172 233 280 353 420
#     4  11  22  42  70  98 124 181 216 282 349 404
#     4   9  19  36  66  98 123 152 216 276 347 372
#     4  10  21  40  64  94 130 162 207 293 323 390
#     4   9  22  40  69 101 130 167 227 292 343 397
#     4  12  26  42  75 105 137 190 240 296 356 415
#     4  12  27  48  66 105 151 193 235 295 357 433
#     4  12  27  46  63  92 138 180 230 265 336 422
#
# _framework density 22.812881999999998
#
# number of rings (size 3 to 8) (size 9 to 14) (size 15 to 20)
#    0.750    0.500    2.500    3.000    5.250    1.000 
#    6.750    0.000    0.000    0.000    0.000    0.000 
#    0.000    0.000    0.000    0.000    0.000    0.000 
#
# Total GULP energy -178657.823169 kJ/mol
# GULP energy per Si atom -5583.056974 kJ/mol
# Density = 2.276096 g / cm^3
# Si number density = 22.812882 Si / 1000 Ang^3
#
#
#
# Elastic Constant Matrix: (Units=GPa)
#
#
# Indices 1 2 3 4 5 6 
#
# 1 94.6651 -1.0540 1.8630 0.0000 -6.4484 0.0000
# 2 -1.0540 123.8246 9.7330 0.0000 10.7179 0.0000
# 3 1.8630 9.7330 41.1597 0.0000 -3.7805 0.0000
# 4 0.0000 0.0000 0.0000 38.4339 0.0000 -2.1282
# 5 -6.4484 10.7179 -3.7805 0.0000 28.5235 0.0000
# 6 0.0000 0.0000 0.0000 -2.1282 0.0000 31.9091
#
#
#
# Elastic Compliance Matrix: (Units=1/GPa)
#
#
# Indices 1 2 3 4 5 6 
#
# 1 0.010733 -0.000100 -0.000239 0.000000 0.002433 0.000000
# 2 -0.000100 0.008567 -0.002348 0.000000 -0.003553 0.000000
# 3 -0.000239 -0.002348 0.025245 0.000000 0.004174 0.000000
# 4 0.000000 0.000000 0.000000 0.026115 0.000000 0.001742
# 5 0.002433 -0.003553 0.004174 0.000000 0.037497 0.000000
# 6 0.000000 0.000000 0.000000 0.001742 0.000000 0.031455
#
#
# Mechanical properties :
#
#
# Convention : Reuss Voigt Hill
#
# Bulk Modulus (GPa) = 25.52876 31.19260 28.36068
# Shear Modulus (GPa) = 31.63697 36.38046 34.00872
#
# Velocity S-wave (km/s) = 3.72802 3.99774 3.86524
# Velocity P-wave (km/s) = 5.45396 5.91711 5.69025
#
# Compressibility (1/GPa) = 0.03917151
#
# Stress axis : x y z
#
# Youngs Moduli (GPa) = 93.17207 116.72476 39.61182
#
# Poissons Ratio (x) = 0.01172 0.00945
# Poissons Ratio (y) = 0.00936 0.09300
# Poissons Ratio (z) = 0.02223 0.27403
#
# Static dielectric constant tensor:
#      x y z
#    x 1.992540 0.000000 -0.010020 
#    y 0.000000 1.833670 0.000000 
#    z -0.010020 0.000000 1.864140 
# 
# From -- ./inp_files/80338.got.cif
#   From: 2010.05.17/outbox.cif.g08.bks.cpg/sg14_41_cif.got.tgz:80338.got - 2010.06.03 17:49:19.
