data_PCOD9246474
_publ_section_title
;
Structure prediction by ZEFSAII (Michael W. Deem and Ramdas Pophale) SiO2 
 PCOD9246474
Probable space group: P 21/C
;
_chemical_formula_sum "Si O2"
_cell_formula_units_Z 30
_cell_length_a 12.790171
_cell_length_b 9.783011
_cell_length_c 8.907097
_cell_angle_alpha 90.000000
_cell_angle_beta 84.756516
_cell_angle_gamma 90.000000
_cell_volume 1109.848964
_symmetry_space_group_name_H-M "P 21/C"
_symmetry_group_IT_number 14
_symmetry_cell_setting 'monoclinic'
loop_
_space_group_symop_operation_xyz
x,y,z
-x,1/2+y,1/2-z
-x,-y,-z
x,1/2-y,1/2+z
loop_
_atom_site_type_symbol
_atom_site_label
_atom_site_fract_x
_atom_site_fract_y
_atom_site_fract_z
Si Si1 0.991336 0.344823 0.139889
Si Si2 0.200872 0.441089 0.230698
Si Si3 0.845598 0.198853 0.397702
Si Si4 0.345501 0.768010 0.413318
Si Si5 0.682252 0.959609 0.753217
Si Si6 0.195150 0.222907 0.450527
Si Si7 0.493495 0.795643 0.654222
Si Si8 0.500000 0.500000 0.500000
O O1 0.923937 0.271053 0.275332
O O2 0.073380 0.437776 0.221882
O O3 0.908511 0.383257 0.020372
O O4 0.076149 0.262180 0.027646
O O5 0.224430 0.595757 0.191790
O O6 0.226547 0.368167 0.380526
O O7 0.246309 0.349104 0.088612
O O8 0.758476 0.289332 0.494321
O O9 0.422384 0.838494 0.524331
O O10 0.428038 0.670468 0.317028
O O11 0.307639 0.886724 0.307984
O O12 0.790064 0.879607 0.695374
O O13 0.601586 0.871586 0.661081
O O14 0.381394 0.036992 0.083809
O O15 0.506039 0.633643 0.621731
#
# Coordination Sequence:
#
# PCOD9246474 Si02
#       8
#     4   4   4   4   4   4   4   2
#     4  10  21  41  63  94 131 165 214 262 318 391
#     4  10  22  41  63  92 128 169 218 263 326 380
#     4  12  22  42  64  93 132 170 212 269 327 385
#     4  11  23  42  65  96 128 175 216 268 329 397
#     4  11  23  43  70  92 134 171 220 278 331 380
#     4  10  22  43  64  96 127 166 225 264 315 399
#     4  11  23  44  64  94 136 164 225 267 330 394
#     4  10  24  40  64 100 124 170 218 270 326 388
#
# _framework density 27.030702999999999
#
# number of rings (size 3 to 8) (size 9 to 14) (size 15 to 20)
#    0.800    0.533    4.000    1.600    1.867    0.533 
#    4.800    0.000    0.000    0.000    0.000    0.000 
#    0.000    0.000    0.000    0.000    0.000    0.000 
#
# Total GULP energy -167015.229756 kJ/mol
# GULP energy per Si atom -5567.174325 kJ/mol
# Density = 2.696918 g / cm^3
# Si number density = 27.030703 Si / 1000 Ang^3
#
#
#
# Elastic Constant Matrix: (Units=GPa)
#
#
# Indices 1 2 3 4 5 6 
#
# 1 103.1114 22.9406 58.0323 0.0000 -26.5334 0.0000
# 2 22.9406 77.2713 24.5279 0.0000 -19.3584 0.0000
# 3 58.0323 24.5279 155.9279 0.0000 -55.9482 0.0000
# 4 0.0000 0.0000 0.0000 42.4181 0.0000 -5.1319
# 5 -26.5334 -19.3584 -55.9482 0.0000 49.0026 0.0000
# 6 0.0000 0.0000 0.0000 -5.1319 0.0000 33.6864
#
#
#
# Elastic Compliance Matrix: (Units=1/GPa)
#
#
# Indices 1 2 3 4 5 6 
#
# 1 0.012754 -0.002150 -0.003787 0.000000 0.001733 0.000000
# 2 -0.002150 0.014739 0.000260 0.000000 0.004955 0.000000
# 3 -0.003787 0.000260 0.011998 0.000000 0.011751 0.000000
# 4 0.000000 0.000000 0.000000 0.024018 0.000000 0.003659
# 5 0.001733 0.004955 0.011751 0.000000 0.036719 0.000000
# 6 0.000000 0.000000 0.000000 0.003659 0.000000 0.030243
#
#
# Mechanical properties :
#
#
# Convention : Reuss Voigt Hill
#
# Bulk Modulus (GPa) = 35.54191 60.81248 48.17719
# Shear Modulus (GPa) = 33.06818 40.40875 36.73846
#
# Velocity S-wave (km/s) = 3.50145 3.87061 3.69065
# Velocity P-wave (km/s) = 5.43361 6.52088 6.00192
#
# Compressibility (1/GPa) = 0.02813580
#
# Stress axis : x y z
#
# Youngs Moduli (GPa) = 78.40859 67.84894 83.34800
#
# Poissons Ratio (x) = 0.14589 0.31560
# Poissons Ratio (y) = 0.16860 -0.02163
# Poissons Ratio (z) = 0.29690 -0.01761
#
# Static dielectric constant tensor:
#      x y z
#    x -0.879310 0.000000 -3.711140 
#    y 0.000000 1.929780 0.000000 
#    z -3.711140 0.000000 -2.449160 
# 
# From -- ./inp_files/15529.got.cif
#   From: 2010.05.17/outbox.cif.g08.bks.cpg/sg14_8_cif.got.tgz:15529.got - 2010.06.03 17:49:19.
