data_PCOD9246546
_publ_section_title
;
Structure prediction by ZEFSAII (Michael W. Deem and Ramdas Pophale) SiO2 
 PCOD9246546
Probable space group: P 21/C
;
_chemical_formula_sum "Si O2"
_cell_formula_units_Z 28
_cell_length_a 12.739453
_cell_length_b 11.436406
_cell_length_c 20.089048
_cell_angle_alpha 90.000000
_cell_angle_beta 151.535343
_cell_angle_gamma 90.000000
_cell_volume 1394.982754
_symmetry_space_group_name_H-M "P 21/C"
_symmetry_group_IT_number 14
_symmetry_cell_setting 'monoclinic'
loop_
_space_group_symop_operation_xyz
x,y,z
-x,1/2+y,1/2-z
-x,-y,-z
x,1/2-y,1/2+z
loop_
_atom_site_type_symbol
_atom_site_label
_atom_site_fract_x
_atom_site_fract_y
_atom_site_fract_z
Si Si1 0.552247 0.923106 0.828812
Si Si2 0.819770 0.057484 0.183148
Si Si3 0.353803 0.758312 0.317299
Si Si4 0.667051 0.950353 0.538200
Si Si5 0.440340 0.104628 0.866588
Si Si6 0.431614 0.372921 0.819451
Si Si7 0.956108 0.469739 0.398353
O O1 0.435821 0.819643 0.802673
O O2 0.555291 0.891216 0.752841
O O3 0.435093 0.039736 0.791879
O O4 0.802889 0.940512 0.992746
O O5 0.765655 0.173664 0.196634
O O6 0.074144 0.051871 0.304233
O O7 0.752177 0.947802 0.193166
O O8 0.655362 0.066332 0.028999
O O9 0.566985 0.823335 0.466285
O O10 0.193860 0.857841 0.200051
O O11 0.500000 0.000000 0.500000
O O12 0.619477 0.041250 0.452098
O O13 0.448538 0.241969 0.856087
O O14 0.193330 0.423087 0.709880
O O15 0.000000 0.500000 0.500000
#
# Coordination Sequence:
#
# PCOD9246546 Si02
#       7
#     4   4   4   4   4   4   4
#     4  10  22  40  66  91 132 170 210 264 321 390
#     4  10  23  45  65  95 133 167 222 264 326 393
#     4  10  21  41  65  94 126 173 216 262 328 379
#     4  11  24  42  65  98 127 169 217 269 321 382
#     4  10  23  43  66  96 130 175 211 268 327 380
#     4  10  23  40  63 100 128 164 218 264 319 392
#     4   9  20  37  60  93 128 165 211 257 318 378
#
# _framework density 20.071932
#
# number of rings (size 3 to 8) (size 9 to 14) (size 15 to 20)
#    0.000    2.000    0.000    1.714   10.000    1.143 
#   15.429    1.429    0.000    0.000    0.000    0.000 
#    0.000    0.000    0.000    0.000    0.000    0.000 
#
# Total GULP energy -156154.783847 kJ/mol
# GULP energy per Si atom -5576.956566 kJ/mol
# Density = 2.002625 g / cm^3
# Si number density = 20.071932 Si / 1000 Ang^3
#
#
#
# Elastic Constant Matrix: (Units=GPa)
#
#
# Indices 1 2 3 4 5 6 
#
# 1 113.8666 49.4752 53.6427 0.0000 7.5625 0.0000
# 2 49.4752 87.7523 3.5385 0.0000 -1.5311 0.0000
# 3 53.6427 3.5385 77.1648 0.0000 14.7230 0.0000
# 4 0.0000 0.0000 0.0000 20.2282 0.0000 -6.4132
# 5 7.5625 -1.5311 14.7230 0.0000 28.5367 0.0000
# 6 0.0000 0.0000 0.0000 -6.4132 0.0000 8.3685
#
#
#
# Elastic Compliance Matrix: (Units=1/GPa)
#
#
# Indices 1 2 3 4 5 6 
#
# 1 0.019511 -0.010444 -0.013300 0.000000 0.001131 0.000000
# 2 -0.010444 0.017032 0.006408 0.000000 0.000376 0.000000
# 3 -0.013300 0.006408 0.023485 0.000000 -0.008248 0.000000
# 4 0.000000 0.000000 0.000000 0.065302 0.000000 0.050043
# 5 0.001131 0.000376 -0.008248 0.000000 0.039019 0.000000
# 6 0.000000 0.000000 0.000000 0.050043 0.000000 0.157846
#
#
# Mechanical properties :
#
#
# Convention : Reuss Voigt Hill
#
# Bulk Modulus (GPa) = 39.43994 54.67740 47.05867
# Shear Modulus (GPa) = 13.68665 22.90184 18.29425
#
# Velocity S-wave (km/s) = 2.61412 3.38152 3.02227
# Velocity P-wave (km/s) = 5.36688 6.52273 5.97283
#
# Compressibility (1/GPa) = 0.02535501
#
# Stress axis : x y z
#
# Youngs Moduli (GPa) = 51.25331 58.71148 42.58010
#
# Poissons Ratio (x) = 0.61320 0.56633
# Poissons Ratio (y) = 0.53531 -0.27285
# Poissons Ratio (z) = 0.68168 -0.37621
#
# Static dielectric constant tensor:
#      x y z
#    x 1.777570 0.000000 -0.035900 
#    y 0.000000 1.702610 0.000000 
#    z -0.035900 0.000000 1.722560 
# 
# From -- ./inp_files/67358.got.cif
#   From: 2010.05.17/outbox.cif.g08.bks.cpg/sg14_34_cif.got.tgz:67358.got - 2010.06.03 17:49:19.
