data_PCOD9246669
_publ_section_title
;
Structure prediction by ZEFSAII (Michael W. Deem and Ramdas Pophale) SiO2 
 PCOD9246669
Probable space group: P 21/C
;
_chemical_formula_sum "Si O2"
_cell_formula_units_Z 30
_cell_length_a 5.190461
_cell_length_b 17.137940
_cell_length_c 14.612670
_cell_angle_alpha 90.000000
_cell_angle_beta 81.542083
_cell_angle_gamma 90.000000
_cell_volume 1285.715670
_symmetry_space_group_name_H-M "P 21/C"
_symmetry_group_IT_number 14
_symmetry_cell_setting 'monoclinic'
loop_
_space_group_symop_operation_xyz
x,y,z
-x,1/2+y,1/2-z
-x,-y,-z
x,1/2-y,1/2+z
loop_
_atom_site_type_symbol
_atom_site_label
_atom_site_fract_x
_atom_site_fract_y
_atom_site_fract_z
Si Si1 0.500000 0.500000 0.500000
Si Si2 0.779453 0.419534 0.922035
Si Si3 0.738000 0.202578 0.262080
Si Si4 0.485592 0.083007 0.615338
Si Si5 0.936123 0.539916 0.634097
Si Si6 0.811482 0.525965 0.210616
Si Si7 0.237696 0.307279 0.264003
Si Si8 0.440042 0.903266 0.872842
O O1 0.215141 0.528649 0.573561
O O2 0.435634 0.404697 0.534956
O O3 0.706276 0.360774 0.844579
O O4 0.663843 0.506210 0.912438
O O5 0.085753 0.434535 0.887402
O O6 0.678997 0.390955 0.024572
O O7 0.499690 0.262335 0.276341
O O8 0.742440 0.160709 0.161446
O O9 0.005539 0.247022 0.263733
O O10 0.654652 0.050867 0.691751
O O11 0.298771 0.148529 0.665031
O O12 0.959494 0.498582 0.732429
O O13 0.848768 0.626977 0.659024
O O14 0.699830 0.489870 0.598918
O O15 0.640997 0.582957 0.280914
#
# Coordination Sequence:
#
# PCOD9246669 Si02
#       8
#     2   4   4   4   4   4   4   4
#     4   8  20  42  68  96 126 172 260 312 328 408
#     4  11  23  42  71 104 135 184 252 310 347 431
#     4  12  25  44  69 101 148 200 226 291 386 451
#     4  11  23  42  71 105 139 181 254 304 352 429
#     4  10  21  41  69  96 134 184 248 299 354 427
#     4  12  17  39  74 102 133 183 240 312 365 421
#     4  12  25  44  69 100 152 197 226 288 385 453
#     4  10  21  41  69  98 138 183 255 295 356 430
#
# _framework density 23.333310000000001
#
# number of rings (size 3 to 8) (size 9 to 14) (size 15 to 20)
#    0.800    0.267    5.333    2.000    0.000    0.533 
#    2.400    0.000    2.933    0.000    0.000    0.000 
#    0.000    0.000    0.000    0.000    0.000    0.000 
#
# Total GULP energy -167276.800070 kJ/mol
# GULP energy per Si atom -5575.893336 kJ/mol
# Density = 2.328020 g / cm^3
# Si number density = 23.333310 Si / 1000 Ang^3
#
#
#
# Elastic Constant Matrix: (Units=GPa)
#
#
# Indices 1 2 3 4 5 6 
#
# 1 88.7914 12.0158 17.7470 0.0000 -19.7685 0.0000
# 2 12.0158 58.9154 0.1324 0.0000 -10.1364 0.0000
# 3 17.7470 0.1324 89.7250 0.0000 -31.1851 0.0000
# 4 0.0000 0.0000 0.0000 5.5164 0.0000 -0.5049
# 5 -19.7685 -10.1364 -31.1851 0.0000 43.2333 0.0000
# 6 0.0000 0.0000 0.0000 -0.5049 0.0000 43.1612
#
#
#
# Elastic Compliance Matrix: (Units=1/GPa)
#
#
# Indices 1 2 3 4 5 6 
#
# 1 0.012740 -0.001771 -0.000850 0.000000 0.004797 0.000000
# 2 -0.001771 0.018176 0.002033 0.000000 0.004918 0.000000
# 3 -0.000850 0.002033 0.015135 0.000000 0.011005 0.000000
# 4 0.000000 0.000000 0.000000 0.181473 0.000000 0.002123
# 5 0.004797 0.004918 0.011005 0.000000 0.034415 0.000000
# 6 0.000000 0.000000 0.000000 0.002123 0.000000 0.023194
#
#
# Mechanical properties :
#
#
# Convention : Reuss Voigt Hill
#
# Bulk Modulus (GPa) = 22.28408 33.02468 27.65438
# Shear Modulus (GPa) = 16.59650 32.21796 24.40723
#
# Velocity S-wave (km/s) = 2.66987 3.71990 3.23774
# Velocity P-wave (km/s) = 4.36754 5.71265 5.08477
#
# Compressibility (1/GPa) = 0.04487508
#
# Stress axis : x y z
#
# Youngs Moduli (GPa) = 78.49342 55.01676 66.07044
#
# Poissons Ratio (x) = 0.09744 0.05616
# Poissons Ratio (y) = 0.13902 -0.13431
# Poissons Ratio (z) = 0.06672 -0.11184
#
# Static dielectric constant tensor:
#      x y z
#    x 2.058470 0.000000 0.066140 
#    y 0.000000 1.924620 0.000000 
#    z 0.066140 0.000000 1.955470 
# 
# From -- ./inp_files/37677.got.cif
#   From: 2010.05.17/outbox.cif.g08.bks.cpg/sg14_19_cif.got.tgz:37677.got - 2010.06.03 17:49:19.
