data_PCOD9246101
_publ_section_title
;
Structure prediction by ZEFSAII (Michael W. Deem and Ramdas Pophale) SiO2 
 PCOD9246101
Probable space group: P 21/C
;
_chemical_formula_sum "Si O2"
_cell_formula_units_Z 28
_cell_length_a 12.436788
_cell_length_b 9.003634
_cell_length_c 10.501036
_cell_angle_alpha 90.000000
_cell_angle_beta 71.723664
_cell_angle_gamma 90.000000
_cell_volume 1116.550506
_symmetry_space_group_name_H-M "P 21/C"
_symmetry_group_IT_number 14
_symmetry_cell_setting 'monoclinic'
loop_
_space_group_symop_operation_xyz
x,y,z
-x,1/2+y,1/2-z
-x,-y,-z
x,1/2-y,1/2+z
loop_
_atom_site_type_symbol
_atom_site_label
_atom_site_fract_x
_atom_site_fract_y
_atom_site_fract_z
Si Si1 0.689862 0.089280 0.438203
Si Si2 0.012029 0.207911 0.785520
Si Si3 0.402286 0.161685 0.380359
Si Si4 0.225525 0.093091 0.846315
Si Si5 0.239663 0.584840 0.600497
Si Si6 0.079340 0.996229 0.586810
Si Si7 0.571488 0.621093 0.399316
O O1 0.687033 0.263464 0.410804
O O2 0.801393 0.073139 0.485179
O O3 0.603686 0.005600 0.562346
O O4 0.722206 0.991432 0.299280
O O5 0.096725 0.147938 0.863877
O O6 0.889460 0.129159 0.819580
O O7 0.980017 0.379122 0.796964
O O8 0.086220 0.160491 0.637768
O O9 0.298305 0.262999 0.363007
O O10 0.475410 0.153596 0.224080
O O11 0.428622 0.245442 0.501549
O O12 0.233959 0.976364 0.958371
O O13 0.303046 0.455343 0.655891
O O14 0.000000 0.000000 0.500000
O O15 0.500000 0.500000 0.500000
#
# Coordination Sequence:
#
# PCOD9246101 Si02
#       7
#     4   4   4   4   4   4   4
#     4  10  22  38  62  98 129 179 215 283 330 408
#     4  10  22  36  58  94 131 183 221 276 326 402
#     4  11  23  47  74  98 137 175 224 279 343 407
#     4  10  21  40  62  98 138 176 232 263 342 405
#     4  10  24  39  66  93 139 174 228 283 338 396
#     4  10  22  35  55  86 132 172 231 262 334 393
#     4  11  27  49  74 104 130 178 231 280 348 399
#
# _framework density 25.077235000000002
#
# number of rings (size 3 to 8) (size 9 to 14) (size 15 to 20)
#    0.000    1.714    1.429    1.286    6.000    9.143 
#    2.571    1.429    0.000    0.000    0.000    0.000 
#    0.000    0.000    0.000    0.000    0.000    0.000 
#
# Total GULP energy -156194.255798 kJ/mol
# GULP energy per Si atom -5578.366279 kJ/mol
# Density = 2.502016 g / cm^3
# Si number density = 25.077235 Si / 1000 Ang^3
#
#
#
# Elastic Constant Matrix: (Units=GPa)
#
#
# Indices 1 2 3 4 5 6 
#
# 1 71.2344 27.1340 -9.3502 0.0000 4.1556 0.0000
# 2 27.1340 93.3664 58.1676 0.0000 -2.5798 0.0000
# 3 -9.3502 58.1676 85.3093 0.0000 6.4026 0.0000
# 4 0.0000 0.0000 0.0000 39.9969 0.0000 -1.7618
# 5 4.1556 -2.5798 6.4026 0.0000 21.9539 0.0000
# 6 0.0000 0.0000 0.0000 -1.7618 0.0000 22.2560
#
#
#
# Elastic Compliance Matrix: (Units=1/GPa)
#
#
# Indices 1 2 3 4 5 6 
#
# 1 0.022126 -0.015084 0.013451 0.000000 -0.009884 0.000000
# 2 -0.015084 0.029716 -0.022892 0.000000 0.013023 0.000000
# 3 0.013451 -0.022892 0.029852 0.000000 -0.013942 0.000000
# 4 0.000000 0.000000 0.000000 0.025089 0.000000 0.001986
# 5 -0.009884 0.013023 -0.013942 0.000000 0.053017 0.000000
# 6 0.000000 0.000000 0.000000 0.001986 0.000000 0.045089
#
#
# Mechanical properties :
#
#
# Convention : Reuss Voigt Hill
#
# Bulk Modulus (GPa) = 30.63278 44.64587 37.63932
# Shear Modulus (GPa) = 18.88085 28.43861 23.65973
#
# Velocity S-wave (km/s) = 2.74689 3.37121 3.07494
# Velocity P-wave (km/s) = 4.72255 5.74416 5.25822
#
# Compressibility (1/GPa) = 0.03264477
#
# Stress axis : x y z
#
# Youngs Moduli (GPa) = 45.19596 33.65219 33.49910
#
# Poissons Ratio (x) = 0.50760 -0.45061
# Poissons Ratio (y) = 0.68172 0.76686
# Poissons Ratio (z) = -0.60795 0.77037
#
# Static dielectric constant tensor:
#      x y z
#    x 2.091780 0.000000 -0.056680 
#    y 0.000000 2.018770 0.000000 
#    z -0.056680 0.000000 1.959320 
# 
# From -- ./inp_files/31529.got.cif
#   From: 2010.05.17/outbox.cif.g08.bks.cpg/sg14_16_cif.got.tgz:31529.got - 2010.06.03 17:49:19.
