data_PCOD9246390
_publ_section_title
;
Structure prediction by ZEFSAII (Michael W. Deem and Ramdas Pophale) SiO2 
 PCOD9246390
Probable space group: P 21/C
;
_chemical_formula_sum "Si O2"
_cell_formula_units_Z 28
_cell_length_a 8.307467
_cell_length_b 10.805696
_cell_length_c 13.964746
_cell_angle_alpha 90.000000
_cell_angle_beta 98.131079
_cell_angle_gamma 90.000000
_cell_volume 1240.984597
_symmetry_space_group_name_H-M "P 21/C"
_symmetry_group_IT_number 14
_symmetry_cell_setting 'monoclinic'
loop_
_space_group_symop_operation_xyz
x,y,z
-x,1/2+y,1/2-z
-x,-y,-z
x,1/2-y,1/2+z
loop_
_atom_site_type_symbol
_atom_site_label
_atom_site_fract_x
_atom_site_fract_y
_atom_site_fract_z
Si Si1 0.503901 0.179226 0.596659
Si Si2 0.266803 0.905158 0.843084
Si Si3 0.383056 0.171413 0.793288
Si Si4 0.729157 0.297357 0.862963
Si Si5 0.194820 0.562333 0.946841
Si Si6 0.216185 0.297421 0.935997
Si Si7 0.959316 0.189585 0.029714
O O1 0.601718 0.309039 0.602129
O O2 0.392011 0.170050 0.680117
O O3 0.650294 0.080059 0.609737
O O4 0.389765 0.169753 0.495917
O O5 0.219296 0.847332 0.736139
O O6 0.114203 0.908649 0.903077
O O7 0.353589 0.034787 0.831459
O O8 0.555119 0.232840 0.836120
O O9 0.242208 0.251063 0.831370
O O10 0.847800 0.199485 0.924762
O O11 0.733370 0.408468 0.941123
O O12 0.074170 0.677497 0.920382
O O13 0.120304 0.427176 0.931071
O O14 0.137435 0.196895 0.000581
#
# Coordination Sequence:
#
# PCOD9246390 Si02
#       7
#     4   4   4   4   4   4   4
#     4  10  22  36  60  90 111 151 197 251 288 337
#     4  10  21  41  57  82 123 152 197 242 299 351
#     4  11  23  35  63  88 113 157 194 250 292 345
#     4   9  20  40  60  84 113 158 197 237 297 347
#     4   9  19  39  60  84 112 152 191 246 280 341
#     4  12  21  36  62  90 118 145 206 237 293 354
#     4   9  22  38  60  83 118 163 185 237 302 352
#
# _framework density 22.562729999999998
#
# number of rings (size 3 to 8) (size 9 to 14) (size 15 to 20)
#    0.857    1.143    1.429    1.714    4.000    4.000 
#    0.000    0.000    0.000    0.000    0.000    0.000 
#    0.000    0.000    0.000    0.000    0.000    0.000 
#
# Total GULP energy -156189.843755 kJ/mol
# GULP energy per Si atom -5578.208706 kJ/mol
# Density = 2.251138 g / cm^3
# Si number density = 22.562730 Si / 1000 Ang^3
#
#
#
# Elastic Constant Matrix: (Units=GPa)
#
#
# Indices 1 2 3 4 5 6 
#
# 1 44.7407 -0.1316 15.9848 0.0000 -24.1278 0.0000
# 2 -0.1316 67.3818 13.6942 0.0000 -3.7809 0.0000
# 3 15.9848 13.6942 74.8844 0.0000 -21.9547 0.0000
# 4 0.0000 0.0000 0.0000 26.7566 0.0000 -4.7523
# 5 -24.1278 -3.7809 -21.9547 0.0000 33.6205 0.0000
# 6 0.0000 0.0000 0.0000 -4.7523 0.0000 11.3976
#
#
#
# Elastic Compliance Matrix: (Units=1/GPa)
#
#
# Indices 1 2 3 4 5 6 
#
# 1 0.036636 0.001631 -0.000441 0.000000 0.026187 0.000000
# 2 0.001631 0.015487 -0.002877 0.000000 0.001033 0.000000
# 3 -0.000441 -0.002877 0.017051 0.000000 0.010495 0.000000
# 4 0.000000 0.000000 0.000000 0.040363 0.000000 0.016830
# 5 0.026187 0.001033 0.010495 0.000000 0.055506 0.000000
# 6 0.000000 0.000000 0.000000 0.016830 0.000000 0.094755
#
#
# Mechanical properties :
#
#
# Convention : Reuss Voigt Hill
#
# Bulk Modulus (GPa) = 15.19801 27.34464 21.27132
# Shear Modulus (GPa) = 17.53734 24.85223 21.19478
#
# Velocity S-wave (km/s) = 2.79098 3.32244 3.06824
# Velocity P-wave (km/s) = 4.13964 5.18304 4.69044
#
# Compressibility (1/GPa) = 0.06579808
#
# Stress axis : x y z
#
# Youngs Moduli (GPa) = 27.29589 64.57146 58.64750
#
# Poissons Ratio (x) = -0.10529 0.02585
# Poissons Ratio (y) = -0.04451 0.16875
# Poissons Ratio (z) = 0.01203 0.18579
#
# Static dielectric constant tensor:
#      x y z
#    x 1.859950 0.000000 -0.038000 
#    y 0.000000 1.865090 0.000000 
#    z -0.038000 0.000000 1.824820 
# 
# From -- ./inp_files/39656.got.cif
#   From: 2010.05.17/outbox.cif.g08.bks.cpg/sg14_20_cif.got.tgz:39656.got - 2010.06.03 17:49:19.
