data_PCOD9246186
_publ_section_title
;
Structure prediction by ZEFSAII (Michael W. Deem and Ramdas Pophale) SiO2 
 PCOD9246186
Probable space group: P 21/C
;
_chemical_formula_sum "Si O2"
_cell_formula_units_Z 24
_cell_length_a 14.501758
_cell_length_b 5.108434
_cell_length_c 20.308829
_cell_angle_alpha 90.000000
_cell_angle_beta 39.954606
_cell_angle_gamma 90.000000
_cell_volume 966.163064
_symmetry_space_group_name_H-M "P 21/C"
_symmetry_group_IT_number 14
_symmetry_cell_setting 'monoclinic'
loop_
_space_group_symop_operation_xyz
x,y,z
-x,1/2+y,1/2-z
-x,-y,-z
x,1/2-y,1/2+z
loop_
_atom_site_type_symbol
_atom_site_label
_atom_site_fract_x
_atom_site_fract_y
_atom_site_fract_z
Si Si1 0.160052 0.471153 0.709244
Si Si2 0.113856 0.226442 0.600090
Si Si3 0.650647 0.186034 0.475998
Si Si4 0.688743 0.479855 0.587027
Si Si5 0.339148 0.111517 0.695197
Si Si6 0.627496 0.380195 0.232355
O O1 0.092185 0.422746 0.674027
O O2 0.291285 0.668743 0.620775
O O3 0.220011 0.210083 0.709660
O O4 0.036689 0.582074 0.823012
O O5 0.167742 0.355127 0.502803
O O6 0.238397 0.032146 0.558731
O O7 0.655773 0.405635 0.529971
O O8 0.486758 0.099321 0.572739
O O9 0.544987 0.633615 0.686572
O O10 0.699656 0.220544 0.625330
O O11 0.343436 0.343438 0.748402
O O12 0.327110 0.844331 0.741218
#
# Coordination Sequence:
#
# PCOD9246186 Si02
#       6
#     4   4   4   4   4   4
#     4  11  24  40  63  93 135 173 218 274 327 403
#     4  11  22  40  66  94 128 180 225 264 332 394
#     4  10  21  40  64  94 125 174 218 274 324 385
#     4  10  22  40  67  97 126 168 231 270 320 400
#     4  11  25  41  65 101 133 168 217 276 339 379
#     4  11  23  41  68  97 129 169 216 280 326 380
#
# _framework density 24.840527000000002
#
# number of rings (size 3 to 8) (size 9 to 14) (size 15 to 20)
#    0.000    1.333    3.333    2.500    4.667    0.667 
#    0.000    1.667    0.000    0.000    0.000    0.000 
#    0.000    0.000    0.000    0.000    0.000    0.000 
#
# Total GULP energy -134271.637764 kJ/mol
# GULP energy per Si atom -5594.651573 kJ/mol
# Density = 2.478399 g / cm^3
# Si number density = 24.840527 Si / 1000 Ang^3
#
#
#
# Elastic Constant Matrix: (Units=GPa)
#
#
# Indices 1 2 3 4 5 6 
#
# 1 65.0694 13.4036 23.2244 0.0000 8.1575 0.0000
# 2 13.4036 88.7802 27.8718 0.0000 10.5943 0.0000
# 3 23.2244 27.8718 108.3995 0.0000 -0.7351 0.0000
# 4 0.0000 0.0000 0.0000 31.8537 0.0000 -17.5146
# 5 8.1575 10.5943 -0.7351 0.0000 36.2883 0.0000
# 6 0.0000 0.0000 0.0000 -17.5146 0.0000 -8.2199
#
#
#
# Elastic Compliance Matrix: (Units=1/GPa)
#
#
# Indices 1 2 3 4 5 6 
#
# 1 0.017279 -0.001093 -0.003446 0.000000 -0.003635 0.000000
# 2 -0.001093 0.012823 -0.003087 0.000000 -0.003560 0.000000
# 3 -0.003446 -0.003087 0.010770 0.000000 0.001894 0.000000
# 4 0.000000 0.000000 0.000000 0.014456 0.000000 -0.030803
# 5 -0.003635 -0.003560 0.001894 0.000000 0.029452 0.000000
# 6 0.000000 0.000000 0.000000 -0.030803 0.000000 -0.056022
#
#
# Mechanical properties :
#
#
# Convention : Reuss Voigt Hill
#
# Bulk Modulus (GPa) = 39.03172 43.47207 41.25189
# Shear Modulus (GPa) = 95.14784 25.16771 60.15778
#
# Velocity S-wave (km/s) = 6.19569 3.18649 4.92648
# Velocity P-wave (km/s) = 8.18103 5.57465 7.00021
#
# Compressibility (1/GPa) = 0.02562019
#
# Stress axis : x y z
#
# Youngs Moduli (GPa) = 57.87423 77.98604 92.85143
#
# Poissons Ratio (x) = 0.08526 0.31992
# Poissons Ratio (y) = 0.06327 0.28663
# Poissons Ratio (z) = 0.19941 0.24074
#
# Static dielectric constant tensor:
#      x y z
#    x 1.983890 0.000000 0.003820 
#    y 0.000000 2.085990 0.000000 
#    z 0.003820 0.000000 2.016560 
# 
# From -- ./inp_files/66346.got.cif
#   From: 2010.05.17/outbox.cif.g08.bks.cpg/sg14_34_cif.got.tgz:66346.got - 2010.06.03 17:49:19.
