data_PCOD9246688
_publ_section_title
;
Structure prediction by ZEFSAII (Michael W. Deem and Ramdas Pophale) SiO2 
 PCOD9246688
Probable space group: P 21/C
;
_chemical_formula_sum "Si O2"
_cell_formula_units_Z 20
_cell_length_a 7.901185
_cell_length_b 5.597635
_cell_length_c 16.339410
_cell_angle_alpha 90.000000
_cell_angle_beta 95.751851
_cell_angle_gamma 90.000000
_cell_volume 719.020221
_symmetry_space_group_name_H-M "P 21/C"
_symmetry_group_IT_number 14
_symmetry_cell_setting 'monoclinic'
loop_
_space_group_symop_operation_xyz
x,y,z
-x,1/2+y,1/2-z
-x,-y,-z
x,1/2-y,1/2+z
loop_
_atom_site_type_symbol
_atom_site_label
_atom_site_fract_x
_atom_site_fract_y
_atom_site_fract_z
Si Si1 0.060372 0.069119 0.620117
Si Si2 0.256195 0.818495 0.490032
Si Si3 0.178854 0.240244 0.300946
Si Si4 0.466355 0.922644 0.129469
Si Si5 0.542264 0.070050 0.658207
O O1 0.914474 0.230682 0.570126
O O2 0.193214 0.009610 0.554742
O O3 0.431346 0.833830 0.670812
O O4 0.967823 0.820385 0.641767
O O5 0.354130 0.608292 0.542796
O O6 0.391438 0.923390 0.432058
O O7 0.115998 0.333564 0.211185
O O8 0.673801 0.897298 0.147159
O O9 0.278266 0.987185 0.289936
O O10 0.444806 0.185024 0.163526
#
# Coordination Sequence:
#
# PCOD9246688 Si02
#       5
#     4   4   4   4   4
#     4  10  22  42  67 108 146 191 235 310 355 437
#     4  10  21  41  71 107 147 179 249 297 362 414
#     4   9  23  40  70  94 145 193 240 275 375 419
#     4  10  21  43  74  99 139 189 240 288 352 437
#     4   9  21  40  75  97 134 187 235 289 349 425
#
# _framework density 27.815629000000001
#
# number of rings (size 3 to 8) (size 9 to 14) (size 15 to 20)
#    1.200    1.200    0.000    1.200    5.600    0.000 
#    0.000    9.000    0.000    0.000    0.000    0.000 
#    0.000    0.000    0.000    0.000    0.000    0.000 
#
# Total GULP energy -111544.516268 kJ/mol
# GULP energy per Si atom -5577.225813 kJ/mol
# Density = 2.775232 g / cm^3
# Si number density = 27.815629 Si / 1000 Ang^3
#
#
#
# Elastic Constant Matrix: (Units=GPa)
#
#
# Indices 1 2 3 4 5 6 
#
# 1 110.2828 26.6267 83.4461 0.0000 23.3111 0.0000
# 2 26.6267 134.1402 21.5733 0.0000 -13.1624 0.0000
# 3 83.4461 21.5733 175.5224 0.0000 0.4185 0.0000
# 4 0.0000 0.0000 0.0000 35.1101 0.0000 10.3250
# 5 23.3111 -13.1624 0.4185 0.0000 67.3536 0.0000
# 6 0.0000 0.0000 0.0000 10.3250 0.0000 47.6406
#
#
#
# Elastic Compliance Matrix: (Units=1/GPa)
#
#
# Indices 1 2 3 4 5 6 
#
# 1 0.016866 -0.002735 -0.007667 0.000000 -0.006324 0.000000
# 2 -0.002735 0.008202 0.000286 0.000000 0.002548 0.000000
# 3 -0.007667 0.000286 0.009301 0.000000 0.002652 0.000000
# 4 0.000000 0.000000 0.000000 0.030421 0.000000 -0.006593
# 5 -0.006324 0.002548 0.002652 0.000000 0.017517 0.000000
# 6 0.000000 0.000000 0.000000 -0.006593 0.000000 0.022419
#
#
# Mechanical properties :
#
#
# Convention : Reuss Voigt Hill
#
# Bulk Modulus (GPa) = 70.73968 75.91529 73.32748
# Shear Modulus (GPa) = 38.55909 49.24081 43.89995
#
# Velocity S-wave (km/s) = 3.72726 4.21201 3.97703
# Velocity P-wave (km/s) = 6.63401 7.14186 6.89262
#
# Compressibility (1/GPa) = 0.01413634
#
# Stress axis : x y z
#
# Youngs Moduli (GPa) = 59.28988 121.92420 107.51677
#
# Poissons Ratio (x) = 0.33351 0.82435
# Poissons Ratio (y) = 0.16218 -0.03078
# Poissons Ratio (z) = 0.45459 -0.03491
#
# Static dielectric constant tensor:
#      x y z
#    x 2.233930 0.000000 0.062740 
#    y 0.000000 2.240820 0.000000 
#    z 0.062740 0.000000 2.198220 
# 
# From -- ./inp_files/64157.got.cif
#   From: 2010.05.17/outbox.cif.g08.bks.cpg/sg14_33_cif.got.tgz:64157.got - 2010.06.03 17:49:19.
