data_PCOD9246238
_publ_section_title
;
Structure prediction by ZEFSAII (Michael W. Deem and Ramdas Pophale) SiO2 
 PCOD9246238
Probable space group: P 21/C
;
_chemical_formula_sum "Si O2"
_cell_formula_units_Z 24
_cell_length_a 24.366543
_cell_length_b 5.407439
_cell_length_c 14.106433
_cell_angle_alpha 90.000000
_cell_angle_beta 32.025856
_cell_angle_gamma 90.000000
_cell_volume 985.657316
_symmetry_space_group_name_H-M "P 21/C"
_symmetry_group_IT_number 14
_symmetry_cell_setting 'monoclinic'
loop_
_space_group_symop_operation_xyz
x,y,z
-x,1/2+y,1/2-z
-x,-y,-z
x,1/2-y,1/2+z
loop_
_atom_site_type_symbol
_atom_site_label
_atom_site_fract_x
_atom_site_fract_y
_atom_site_fract_z
Si Si1 0.661724 0.357212 0.550421
Si Si2 0.935281 0.218096 0.338568
Si Si3 0.369329 0.895182 0.227190
Si Si4 0.487847 0.707253 0.893738
Si Si5 0.990769 0.748223 0.455340
Si Si6 0.787459 0.538490 0.190041
O O1 0.699179 0.196400 0.584560
O O2 0.583912 0.546452 0.717490
O O3 0.589317 0.210368 0.582006
O O4 0.742411 0.478970 0.359581
O O5 0.849126 0.181514 0.544623
O O6 0.008823 0.449910 0.254202
O O7 0.917276 0.271193 0.255093
O O8 0.306953 0.073786 0.245982
O O9 0.461886 0.031843 0.147558
O O10 0.414358 0.675313 0.094156
O O11 0.000000 0.500000 0.500000
O O12 0.876564 0.759560 0.574310
O O13 0.000000 0.000000 0.500000
#
# Coordination Sequence:
#
# PCOD9246238 Si02
#       6
#     4   4   4   4   4   4
#     4  11  21  42  67  99 143 185 247 292 363 440
#     4  10  22  47  70  98 143 182 230 300 377 447
#     4  10  22  42  65  96 144 179 243 302 350 440
#     4  10  21  40  65  96 137 196 232 289 372 426
#     4  11  24  46  75 100 141 189 236 301 379 447
#     4  10  25  43  65 110 132 182 250 300 367 446
#
# _framework density 24.349232000000001
#
# number of rings (size 3 to 8) (size 9 to 14) (size 15 to 20)
#    0.000    1.667    1.667    2.500    2.333    1.333 
#   15.000    0.000    0.000    0.000    0.000    0.000 
#    0.000    0.000    0.000    0.000    0.000    0.000 
#
# Total GULP energy -133713.621223 kJ/mol
# GULP energy per Si atom -5571.400884 kJ/mol
# Density = 2.429381 g / cm^3
# Si number density = 24.349232 Si / 1000 Ang^3
#
#
#
# Elastic Constant Matrix: (Units=GPa)
#
#
# Indices 1 2 3 4 5 6 
#
# 1 136.4805 30.3809 63.2428 0.0000 28.8497 0.0000
# 2 30.3809 57.1225 14.4277 0.0000 11.0264 0.0000
# 3 63.2428 14.4277 162.9623 0.0000 32.5965 0.0000
# 4 0.0000 0.0000 0.0000 28.3020 0.0000 5.4559
# 5 28.8497 11.0264 32.5965 0.0000 62.3993 0.0000
# 6 0.0000 0.0000 0.0000 5.4559 0.0000 30.3785
#
#
#
# Elastic Compliance Matrix: (Units=1/GPa)
#
#
# Indices 1 2 3 4 5 6 
#
# 1 0.010200 -0.004184 -0.003118 0.000000 -0.002347 0.000000
# 2 -0.004184 0.020011 0.000193 0.000000 -0.001702 0.000000
# 3 -0.003118 0.000193 0.007870 0.000000 -0.002704 0.000000
# 4 0.000000 0.000000 0.000000 0.036600 0.000000 -0.006573
# 5 -0.002347 -0.001702 -0.002704 0.000000 0.018824 0.000000
# 6 0.000000 0.000000 0.000000 -0.006573 0.000000 0.034099
#
#
# Mechanical properties :
#
#
# Convention : Reuss Voigt Hill
#
# Bulk Modulus (GPa) = 41.90789 63.62978 52.76883
# Shear Modulus (GPa) = 33.38273 40.78355 37.08314
#
# Velocity S-wave (km/s) = 3.70671 4.09705 3.90676
# Velocity P-wave (km/s) = 5.96391 6.96921 6.48607
#
# Compressibility (1/GPa) = 0.02386186
#
# Stress axis : x y z
#
# Youngs Moduli (GPa) = 98.04311 49.97129 127.05996
#
# Poissons Ratio (x) = 0.20908 0.39621
# Poissons Ratio (y) = 0.41021 -0.02446
# Poissons Ratio (z) = 0.30573 -0.00962
#
# Static dielectric constant tensor:
#      x y z
#    x 2.008560 0.000000 -0.027210 
#    y 0.000000 1.923310 0.000000 
#    z -0.027210 0.000000 2.037290 
# 
# From -- ./inp_files/51692.got.cif
#   From: 2010.05.17/outbox.cif.g08.bks.cpg/sg14_26_cif.got.tgz:51692.got - 2010.06.03 17:49:19.
