data_PCOD9246465
_publ_section_title
;
Structure prediction by ZEFSAII (Michael W. Deem and Ramdas Pophale) SiO2 
 PCOD9246465
Probable space group: P 21/C
;
_chemical_formula_sum "Si O2"
_cell_formula_units_Z 28
_cell_length_a 13.210556
_cell_length_b 16.293223
_cell_length_c 11.043132
_cell_angle_alpha 90.000000
_cell_angle_beta 32.053336
_cell_angle_gamma 90.000000
_cell_volume 1261.468420
_symmetry_space_group_name_H-M "P 21/C"
_symmetry_group_IT_number 14
_symmetry_cell_setting 'monoclinic'
loop_
_space_group_symop_operation_xyz
x,y,z
-x,1/2+y,1/2-z
-x,-y,-z
x,1/2-y,1/2+z
loop_
_atom_site_type_symbol
_atom_site_label
_atom_site_fract_x
_atom_site_fract_y
_atom_site_fract_z
Si Si1 0.895018 0.371460 0.631154
Si Si2 0.858493 0.205358 0.544624
Si Si3 0.837989 0.712535 0.436801
Si Si4 0.979035 0.900057 0.238776
Si Si5 0.339009 0.020001 0.289777
Si Si6 0.570836 0.369931 0.147054
Si Si7 0.706669 0.412868 0.393546
O O1 0.840090 0.300066 0.591873
O O2 0.039429 0.329532 0.580320
O O3 0.011305 0.423517 0.413203
O O4 0.700113 0.393539 0.899021
O O5 0.712454 0.182972 0.587337
O O6 0.802266 0.160313 0.723309
O O7 0.067448 0.180377 0.284969
O O8 0.888966 0.810076 0.368314
O O9 0.622254 0.681961 0.674163
O O10 0.842860 0.963200 0.446149
O O11 0.183578 0.916324 0.092727
O O12 0.460049 0.950890 0.239715
O O13 0.280278 0.987195 0.217348
O O14 0.480414 0.096704 0.137423
#
# Coordination Sequence:
#
# PCOD9246465 Si02
#       7
#     4   4   4   4   4   4   4
#     4  10  22  40  61  92 124 165 210 262 312 366
#     4   9  20  38  62  90 121 158 208 263 313 360
#     4  10  22  39  62  92 122 164 213 260 317 366
#     4  11  23  39  65  92 124 168 215 256 312 382
#     4  10  24  40  63  98 124 169 206 254 321 373
#     4  10  23  41  62  89 131 163 206 262 316 372
#     4  10  21  41  63  91 128 158 208 259 308 372
#
# _framework density 22.196353999999999
#
# number of rings (size 3 to 8) (size 9 to 14) (size 15 to 20)
#    0.000    2.000    1.429    0.429    2.000   10.857 
#    0.000    1.429    0.000    0.000    0.000    0.000 
#    0.000    0.000    0.000    0.000    0.000    0.000 
#
# Total GULP energy -156010.280103 kJ/mol
# GULP energy per Si atom -5571.795718 kJ/mol
# Density = 2.214583 g / cm^3
# Si number density = 22.196354 Si / 1000 Ang^3
#
#
#
# Elastic Constant Matrix: (Units=GPa)
#
#
# Indices 1 2 3 4 5 6 
#
# 1 40.9391 -63.5047 -34.3165 0.0000 21.2190 0.0000
# 2 -63.5047 -331.4414 -256.0487 0.0000 28.8116 0.0000
# 3 -34.3165 -256.0487 -88.4890 0.0000 39.5948 0.0000
# 4 0.0000 0.0000 0.0000 3.0457 0.0000 12.1111
# 5 21.2190 28.8116 39.5948 0.0000 36.2432 0.0000
# 6 0.0000 0.0000 0.0000 12.1111 0.0000 15.8160
#
#
#
# Elastic Compliance Matrix: (Units=1/GPa)
#
#
# Indices 1 2 3 4 5 6 
#
# 1 0.021664 -0.003578 -0.001647 0.000000 -0.008040 0.000000
# 2 -0.003578 0.004252 -0.007718 0.000000 0.007146 0.000000
# 3 -0.001647 -0.007718 0.009972 0.000000 -0.003795 0.000000
# 4 0.000000 0.000000 0.000000 -0.160556 0.000000 0.122945
# 5 -0.008040 0.007146 -0.003795 0.000000 0.030763 0.000000
# 6 0.000000 0.000000 0.000000 0.122945 0.000000 -0.030918
#
#
# Mechanical properties :
#
#
# Convention : Reuss Voigt Hill
#
# Bulk Modulus (GPa) = 99.96811 -120.74791 -10.38990
# Shear Modulus (GPa) = -52.29861 9.34622 -21.47620
#
# Velocity S-wave (km/s) = -4.85932 2.05422 -3.11393
# Velocity P-wave (km/s) = 3.69485 6.99225 4.19760
#
# Compressibility (1/GPa) = 0.01000319
#
# Stress axis : x y z
#
# Youngs Moduli (GPa) = 46.15970 235.19582 100.28492
#
# Poissons Ratio (x) = 0.84148 0.16512
# Poissons Ratio (y) = 0.16515 0.77397
# Poissons Ratio (z) = 0.07600 1.81518
#
# Static dielectric constant tensor:
#      x y z
#    x 1.799040 0.000000 0.087930 
#    y 0.000000 1.971120 0.000000 
#    z 0.087930 0.000000 1.948550 
# 
# From -- ./inp_files/32895.got.cif
#   From: 2010.05.17/outbox.cif.g08.bks.cpg/sg14_17_cif.got.tgz:32895.got - 2010.06.03 17:49:19.
