data_PCOD9246226
_publ_section_title
;
Structure prediction by ZEFSAII (Michael W. Deem and Ramdas Pophale) SiO2 
 PCOD9246226
Probable space group: P 21/C
;
_chemical_formula_sum "Si O2"
_cell_formula_units_Z 20
_cell_length_a 6.608641
_cell_length_b 26.946168
_cell_length_c 5.097640
_cell_angle_alpha 90.000000
_cell_angle_beta 105.329955
_cell_angle_gamma 90.000000
_cell_volume 875.475994
_symmetry_space_group_name_H-M "P 21/C"
_symmetry_group_IT_number 14
_symmetry_cell_setting 'monoclinic'
loop_
_space_group_symop_operation_xyz
x,y,z
-x,1/2+y,1/2-z
-x,-y,-z
x,1/2-y,1/2+z
loop_
_atom_site_type_symbol
_atom_site_label
_atom_site_fract_x
_atom_site_fract_y
_atom_site_fract_z
Si Si1 0.935177 0.851991 0.215275
Si Si2 0.102421 0.896691 0.771479
Si Si3 0.532756 0.642672 0.266587
Si Si4 0.665330 0.216093 0.659979
Si Si5 0.558461 0.032146 0.270452
O O1 0.937166 0.875481 0.505346
O O2 0.101176 0.807172 0.272301
O O3 0.027494 0.893239 0.043011
O O4 0.716675 0.836949 0.010112
O O5 0.303499 0.859368 0.825635
O O6 0.204353 0.947563 0.699198
O O7 0.491581 0.672242 0.985264
O O8 0.568411 0.583752 0.244848
O O9 0.635100 0.243027 0.923235
O O10 0.500000 0.000000 0.500000
O O11 0.500000 0.000000 0.000000
#
# Coordination Sequence:
#
# PCOD9246226 Si02
#       5
#     4   4   4   4   4
#     4  11  21  42  63  92 121 171 206 257 324 366
#     4   9  22  38  63  88 131 163 204 261 302 364
#     4   9  24  41  68  88 135 165 211 262 319 376
#     4  11  24  41  64  92 125 163 211 267 321 380
#     4  10  21  40  65  93 130 171 208 256 316 374
#
# _framework density 22.844716999999999
#
# number of rings (size 3 to 8) (size 9 to 14) (size 15 to 20)
#    1.200    0.800    0.000    3.600    0.000    8.000 
#    0.000    6.000    0.000    0.000    0.000    0.000 
#    0.000    0.000    0.000    0.000    0.000    0.000 
#
# Total GULP energy -111619.540483 kJ/mol
# GULP energy per Si atom -5580.977024 kJ/mol
# Density = 2.279272 g / cm^3
# Si number density = 22.844717 Si / 1000 Ang^3
#
#
#
# Elastic Constant Matrix: (Units=GPa)
#
#
# Indices 1 2 3 4 5 6 
#
# 1 56.7908 27.1615 42.2896 0.0000 21.6193 0.0000
# 2 27.1615 118.7469 60.5723 0.0000 -4.2150 0.0000
# 3 42.2896 60.5723 152.4466 0.0000 12.2269 0.0000
# 4 0.0000 0.0000 0.0000 44.6834 0.0000 -0.6180
# 5 21.6193 -4.2150 12.2269 0.0000 51.1287 0.0000
# 6 0.0000 0.0000 0.0000 -0.6180 0.0000 16.0027
#
#
#
# Elastic Compliance Matrix: (Units=1/GPa)
#
#
# Indices 1 2 3 4 5 6 
#
# 1 0.027450 -0.004029 -0.005155 0.000000 -0.010706 0.000000
# 2 -0.004029 0.011340 -0.003670 0.000000 0.003516 0.000000
# 3 -0.005155 -0.003670 0.009479 0.000000 -0.000390 0.000000
# 4 0.000000 0.000000 0.000000 0.022392 0.000000 0.000865
# 5 -0.010706 0.003516 -0.000390 0.000000 0.024469 0.000000
# 6 0.000000 0.000000 0.000000 0.000865 0.000000 0.062523
#
#
# Mechanical properties :
#
#
# Convention : Reuss Voigt Hill
#
# Bulk Modulus (GPa) = 44.32547 65.33678 54.83113
# Shear Modulus (GPa) = 26.19435 35.56037 30.87736
#
# Velocity S-wave (km/s) = 3.38986 3.94967 3.68043
# Velocity P-wave (km/s) = 5.89632 7.03295 6.48957
#
# Compressibility (1/GPa) = 0.02256039
#
# Stress axis : x y z
#
# Youngs Moduli (GPa) = 36.42968 88.18561 105.49418
#
# Poissons Ratio (x) = 0.35532 0.54384
# Poissons Ratio (y) = 0.14678 0.38716
# Poissons Ratio (z) = 0.18780 0.32364
#
# Static dielectric constant tensor:
#      x y z
#    x 1.927470 0.000000 0.002640 
#    y 0.000000 1.869970 0.000000 
#    z 0.002640 0.000000 1.812310 
# 
# From -- ./inp_files/1754.got.cif
#   From: 2010.05.17/outbox.cif.g08.bks.cpg/sg14_1_cif.got.tgz:1754.got - 2010.06.03 17:49:19.
