data_PCOD9246921
_publ_section_title
;
Structure prediction by ZEFSAII (Michael W. Deem and Ramdas Pophale) SiO2 
 PCOD9246921
Probable space group: P 21/C
;
_chemical_formula_sum "Si O2"
_cell_formula_units_Z 32
_cell_length_a 15.570155
_cell_length_b 9.345782
_cell_length_c 17.850191
_cell_angle_alpha 90.000000
_cell_angle_beta 37.055190
_cell_angle_gamma 90.000000
_cell_volume 1565.197212
_symmetry_space_group_name_H-M "P 21/C"
_symmetry_group_IT_number 14
_symmetry_cell_setting 'monoclinic'
loop_
_space_group_symop_operation_xyz
x,y,z
-x,1/2+y,1/2-z
-x,-y,-z
x,1/2-y,1/2+z
loop_
_atom_site_type_symbol
_atom_site_label
_atom_site_fract_x
_atom_site_fract_y
_atom_site_fract_z
Si Si1 0.132699 0.346350 0.698988
Si Si2 0.878186 0.346222 0.369961
Si Si3 0.126291 0.571373 0.458112
Si Si4 0.381309 0.185185 0.453714
Si Si5 0.681814 0.175703 0.719163
Si Si6 0.692907 0.704025 0.659611
Si Si7 0.618813 0.356998 0.086911
Si Si8 0.133632 0.075142 0.367414
O O1 0.143155 0.503954 0.656506
O O2 0.276677 0.256272 0.586785
O O3 0.097535 0.372220 0.810116
O O4 0.006022 0.252503 0.750543
O O5 0.918310 0.387142 0.427258
O O6 0.736126 0.250112 0.472298
O O7 0.191448 0.709242 0.372542
O O8 0.255304 0.459015 0.377890
O O9 0.000000 0.500000 0.500000
O O10 0.540258 0.248918 0.348634
O O11 0.324226 0.237610 0.412329
O O12 0.378552 0.013030 0.452849
O O13 0.651908 0.128898 0.653392
O O14 0.737928 0.039724 0.724796
O O15 0.539049 0.709067 0.806101
O O16 0.809076 0.795451 0.622513
O O17 0.000000 0.000000 0.500000
#
# Coordination Sequence:
#
# PCOD9246921 Si02
#       8
#     4   4   4   4   4   4   4   4
#     4  12  27  43  68  96 136 176 218 274 339 392
#     4  11  25  43  64  99 130 172 224 271 328 397
#     4  11  21  40  66  98 131 170 223 271 321 395
#     4  11  22  42  68  97 132 175 215 279 325 388
#     4  10  22  38  66  98 130 171 223 267 329 388
#     4  11  22  40  71  98 128 172 224 266 331 390
#     4  10  21  42  70  96 130 171 222 271 320 398
#     4  12  26  44  66  98 133 177 221 277 330 399
#
# _framework density 20.444707999999999
#
# number of rings (size 3 to 8) (size 9 to 14) (size 15 to 20)
#    0.000    1.000    3.750    3.750    3.500    1.500 
#    0.000    1.875    0.000    0.000    0.000    0.000 
#    0.000    0.000    0.000    0.000    0.000    0.000 
#
# Total GULP energy -178975.435469 kJ/mol
# GULP energy per Si atom -5592.982358 kJ/mol
# Density = 2.039817 g / cm^3
# Si number density = 20.444708 Si / 1000 Ang^3
#
#
#
# Elastic Constant Matrix: (Units=GPa)
#
#
# Indices 1 2 3 4 5 6 
#
# 1 37.4801 20.1999 22.9657 0.0000 -7.3925 0.0000
# 2 20.1999 102.8834 26.3800 0.0000 -5.2371 0.0000
# 3 22.9657 26.3800 96.6360 0.0000 -7.7811 0.0000
# 4 0.0000 0.0000 0.0000 36.3945 0.0000 -10.9168
# 5 -7.3925 -5.2371 -7.7811 0.0000 22.6786 0.0000
# 6 0.0000 0.0000 0.0000 -10.9168 0.0000 39.3740
#
#
#
# Elastic Compliance Matrix: (Units=1/GPa)
#
#
# Indices 1 2 3 4 5 6 
#
# 1 0.034706 -0.004791 -0.006292 0.000000 0.008048 0.000000
# 2 -0.004791 0.011161 -0.001878 0.000000 0.000371 0.000000
# 3 -0.006292 -0.001878 0.012501 0.000000 0.001805 0.000000
# 4 0.000000 0.000000 0.000000 0.029969 0.000000 0.008309
# 5 0.008048 0.000371 0.001805 0.000000 0.047423 0.000000
# 6 0.000000 0.000000 0.000000 0.008309 0.000000 0.027701
#
#
# Mechanical properties :
#
#
# Convention : Reuss Voigt Hill
#
# Bulk Modulus (GPa) = 30.82096 41.78786 36.30441
# Shear Modulus (GPa) = 24.97518 30.85300 27.91409
#
# Velocity S-wave (km/s) = 3.49893 3.88892 3.69907
# Velocity P-wave (km/s) = 5.60636 6.37564 6.00334
#
# Compressibility (1/GPa) = 0.03244545
#
# Stress axis : x y z
#
# Youngs Moduli (GPa) = 28.81372 89.59856 79.99076
#
# Poissons Ratio (x) = 0.42927 0.50330
# Poissons Ratio (y) = 0.13805 0.15024
# Poissons Ratio (z) = 0.18130 0.16829
#
# Static dielectric constant tensor:
#      x y z
#    x 1.698600 0.000000 -0.007980 
#    y 0.000000 1.723080 0.000000 
#    z -0.007980 0.000000 1.728050 
# 
# From -- ./inp_files/69143.got.cif
#   From: 2010.05.17/outbox.cif.g08.bks.cpg/sg14_35_cif.got.tgz:69143.got - 2010.06.03 17:49:19.
