data_PCOD9246414
_publ_section_title
;
Structure prediction by ZEFSAII (Michael W. Deem and Ramdas Pophale) SiO2 
 PCOD9246414
Probable space group: P 21/C
;
_chemical_formula_sum "Si O2"
_cell_formula_units_Z 28
_cell_length_a 7.238798
_cell_length_b 11.176879
_cell_length_c 21.371030
_cell_angle_alpha 90.000000
_cell_angle_beta 44.555826
_cell_angle_gamma 90.000000
_cell_volume 1213.121910
_symmetry_space_group_name_H-M "P 21/C"
_symmetry_group_IT_number 14
_symmetry_cell_setting 'monoclinic'
loop_
_space_group_symop_operation_xyz
x,y,z
-x,1/2+y,1/2-z
-x,-y,-z
x,1/2-y,1/2+z
loop_
_atom_site_type_symbol
_atom_site_label
_atom_site_fract_x
_atom_site_fract_y
_atom_site_fract_z
Si Si1 0.026424 0.019771 0.326667
Si Si2 0.361237 0.567732 0.628805
Si Si3 0.778594 0.316528 0.804141
Si Si4 0.273463 0.623810 0.514643
Si Si5 0.812553 0.730911 0.897565
Si Si6 0.036830 0.794285 0.475514
Si Si7 0.651487 0.511886 0.125148
O O1 0.226422 0.023507 0.335543
O O2 0.882135 0.143222 0.347015
O O3 0.189350 0.991348 0.224648
O O4 0.820792 0.913307 0.390091
O O5 0.409468 0.702319 0.641433
O O6 0.203445 0.578476 0.601031
O O7 0.615210 0.488843 0.551665
O O8 0.011291 0.276048 0.702625
O O9 0.634976 0.432244 0.810889
O O10 0.070340 0.698947 0.522407
O O11 0.531443 0.707255 0.463081
O O12 0.962582 0.759599 0.926309
O O13 0.824142 0.897684 0.541215
O O14 0.304560 0.874540 0.405147
#
# Coordination Sequence:
#
# PCOD9246414 Si02
#       7
#     4   4   4   4   4   4   4
#     4  10  21  41  61  90 117 157 203 253 296 358
#     4  10  23  38  60  89 122 154 205 240 293 373
#     4  11  21  39  61  87 121 160 197 251 299 351
#     4  11  21  42  61  85 126 164 188 251 305 355
#     4  10  22  37  63  89 120 157 204 247 298 355
#     4  10  22  40  62  92 118 157 203 251 297 360
#     4  10  22  39  64  91 118 153 207 251 299 349
#
# _framework density 23.080946000000001
#
# number of rings (size 3 to 8) (size 9 to 14) (size 15 to 20)
#    0.000    1.714    1.429    2.571    2.000    0.000 
#    0.000   19.286    0.000    0.000    0.000    0.000 
#    0.000    0.000    0.000    0.000    0.000    0.000 
#
# Total GULP energy -156591.256668 kJ/mol
# GULP energy per Si atom -5592.544881 kJ/mol
# Density = 2.302841 g / cm^3
# Si number density = 23.080946 Si / 1000 Ang^3
#
#
#
# Elastic Constant Matrix: (Units=GPa)
#
#
# Indices 1 2 3 4 5 6 
#
# 1 58.3672 15.5154 6.5196 0.0000 21.0100 0.0000
# 2 15.5154 55.6192 13.8621 0.0000 12.4242 0.0000
# 3 6.5196 13.8621 75.4078 0.0000 19.0402 0.0000
# 4 0.0000 0.0000 0.0000 30.7816 0.0000 10.1560
# 5 21.0100 12.4242 19.0402 0.0000 29.1261 0.0000
# 6 0.0000 0.0000 0.0000 10.1560 0.0000 32.5680
#
#
#
# Elastic Compliance Matrix: (Units=1/GPa)
#
#
# Indices 1 2 3 4 5 6 
#
# 1 0.024189 -0.003503 0.003091 0.000000 -0.017976 0.000000
# 2 -0.003503 0.020589 -0.002279 0.000000 -0.004766 0.000000
# 3 0.003091 -0.002279 0.016445 0.000000 -0.012008 0.000000
# 4 0.000000 0.000000 0.000000 0.036213 0.000000 -0.011293
# 5 -0.017976 -0.004766 -0.012008 0.000000 0.057183 0.000000
# 6 0.000000 0.000000 0.000000 -0.011293 0.000000 0.034227
#
#
# Mechanical properties :
#
#
# Convention : Reuss Voigt Hill
#
# Bulk Modulus (GPa) = 17.90730 29.02093 23.46412
# Shear Modulus (GPa) = 23.49176 28.72825 26.11001
#
# Velocity S-wave (km/s) = 3.19376 3.53182 3.36703
# Velocity P-wave (km/s) = 4.62336 5.40671 5.03031
#
# Compressibility (1/GPa) = 0.05584314
#
# Stress axis : x y z
#
# Youngs Moduli (GPa) = 41.34059 48.56921 60.80923
#
# Poissons Ratio (x) = 0.17013 -0.18798
# Poissons Ratio (y) = 0.14481 0.13856
# Poissons Ratio (z) = -0.12780 0.11067
#
# Static dielectric constant tensor:
#      x y z
#    x 1.869280 0.000000 -0.023940 
#    y 0.000000 1.920490 0.000000 
#    z -0.023940 0.000000 1.854220 
# 
# From -- ./inp_files/63443.got.cif
#   From: 2010.05.17/outbox.cif.g08.bks.cpg/sg14_32_cif.got.tgz:63443.got - 2010.06.03 17:49:19.
