data_PCOD9246071
_publ_section_title
;
Structure prediction by ZEFSAII (Michael W. Deem and Ramdas Pophale) SiO2 
 PCOD9246071
Probable space group: P 21/C
;
_chemical_formula_sum "Si O2"
_cell_formula_units_Z 24
_cell_length_a 31.081754
_cell_length_b 8.356254
_cell_length_c 9.388631
_cell_angle_alpha 90.000000
_cell_angle_beta 150.137542
_cell_angle_gamma 90.000000
_cell_volume 1214.167648
_symmetry_space_group_name_H-M "P 21/C"
_symmetry_group_IT_number 14
_symmetry_cell_setting 'monoclinic'
loop_
_space_group_symop_operation_xyz
x,y,z
-x,1/2+y,1/2-z
-x,-y,-z
x,1/2-y,1/2+z
loop_
_atom_site_type_symbol
_atom_site_label
_atom_site_fract_x
_atom_site_fract_y
_atom_site_fract_z
Si Si1 0.467885 0.929692 0.760059
Si Si2 0.819882 0.225647 0.750807
Si Si3 0.628617 0.776765 0.660252
Si Si4 0.900192 0.042341 0.715773
Si Si5 0.732890 0.613828 0.728617
Si Si6 0.704848 0.269092 0.171475
O O1 0.394469 0.802424 0.588151
O O2 0.417620 0.063087 0.527051
O O3 0.552216 0.853610 0.932443
O O4 0.500000 0.000000 0.000000
O O5 0.873303 0.112809 0.795611
O O6 0.761498 0.324906 0.470073
O O7 0.747470 0.154238 0.651879
O O8 0.878199 0.328698 0.027053
O O9 0.707535 0.711352 0.794515
O O10 0.669839 0.812123 0.930675
O O11 0.835859 0.893261 0.500023
O O12 0.000000 0.000000 0.000000
O O13 0.713902 0.423200 0.686163
#
# Coordination Sequence:
#
# PCOD9246071 Si02
#       6
#     4   4   4   4   4   4
#     4  12  26  36  62  89 123 163 217 245 300 360
#     4   8  19  38  62  84 117 158 200 242 314 358
#     4  12  25  42  57  92 125 168 203 261 302 360
#     4  10  21  40  64  91 119 156 201 260 309 374
#     4  10  24  41  62  84 127 159 206 253 317 359
#     4  10  21  40  62  85 118 167 207 250 292 368
#
# _framework density 19.766628999999998
#
# number of rings (size 3 to 8) (size 9 to 14) (size 15 to 20)
#    0.000    2.000    1.667    3.000    9.333    2.667 
#    0.000    3.333    0.000    0.000    0.000    0.000 
#    0.000    0.000    0.000    0.000    0.000    0.000 
#
# Total GULP energy -133753.710798 kJ/mol
# GULP energy per Si atom -5573.071283 kJ/mol
# Density = 1.972164 g / cm^3
# Si number density = 19.766629 Si / 1000 Ang^3
#
#
#
# Elastic Constant Matrix: (Units=GPa)
#
#
# Indices 1 2 3 4 5 6 
#
# 1 64.3841 -0.1480 19.8198 0.0000 -8.4973 0.0000
# 2 -0.1480 31.4948 0.9776 0.0000 3.6224 0.0000
# 3 19.8198 0.9776 76.7642 0.0000 18.9368 0.0000
# 4 0.0000 0.0000 0.0000 25.8989 0.0000 11.4060
# 5 -8.4973 3.6224 18.9368 0.0000 42.0636 0.0000
# 6 0.0000 0.0000 0.0000 11.4060 0.0000 23.2493
#
#
#
# Elastic Compliance Matrix: (Units=1/GPa)
#
#
# Indices 1 2 3 4 5 6 
#
# 1 0.018364 -0.000477 -0.006368 0.000000 0.006618 0.000000
# 2 -0.000477 0.032088 0.000472 0.000000 -0.003072 0.000000
# 3 -0.006368 0.000472 0.016865 0.000000 -0.008920 0.000000
# 4 0.000000 0.000000 0.000000 0.049253 0.000000 -0.024164
# 5 0.006618 -0.003072 -0.008920 0.000000 0.029391 0.000000
# 6 0.000000 0.000000 0.000000 -0.024164 0.000000 0.054867
#
#
# Mechanical properties :
#
#
# Convention : Reuss Voigt Hill
#
# Bulk Modulus (GPa) = 18.32433 23.77133 21.04783
# Shear Modulus (GPa) = 21.57365 28.37526 24.97445
#
# Velocity S-wave (km/s) = 3.30725 3.79293 3.55838
# Velocity P-wave (km/s) = 4.88613 5.58872 5.24920
#
# Compressibility (1/GPa) = 0.05457225
#
# Stress axis : x y z
#
# Youngs Moduli (GPa) = 54.45328 31.16455 59.29290
#
# Poissons Ratio (x) = 0.01487 0.37757
# Poissons Ratio (y) = 0.02599 -0.02801
# Poissons Ratio (z) = 0.34675 -0.01472
#
# Static dielectric constant tensor:
#      x y z
#    x 1.743470 0.000000 0.041910 
#    y 0.000000 1.728740 0.000000 
#    z 0.041910 0.000000 1.760000 
# 
# From -- ./inp_files/15139.got.cif
#   From: 2010.05.17/outbox.cif.g08.bks.cpg/sg14_8_cif.got.tgz:15139.got - 2010.06.03 17:49:19.
