data_PCOD9246074
_publ_section_title
;
Structure prediction by ZEFSAII (Michael W. Deem and Ramdas Pophale) SiO2 
 PCOD9246074
Probable space group: P 21/C
;
_chemical_formula_sum "Si O2"
_cell_formula_units_Z 24
_cell_length_a 8.434203
_cell_length_b 16.104844
_cell_length_c 8.960903
_cell_angle_alpha 90.000000
_cell_angle_beta 88.688561
_cell_angle_gamma 90.000000
_cell_volume 1216.854281
_symmetry_space_group_name_H-M "P 21/C"
_symmetry_group_IT_number 14
_symmetry_cell_setting 'monoclinic'
loop_
_space_group_symop_operation_xyz
x,y,z
-x,1/2+y,1/2-z
-x,-y,-z
x,1/2-y,1/2+z
loop_
_atom_site_type_symbol
_atom_site_label
_atom_site_fract_x
_atom_site_fract_y
_atom_site_fract_z
Si Si1 0.686441 0.668650 0.915161
Si Si2 0.185799 0.178067 0.910326
Si Si3 0.824563 0.494001 0.936622
Si Si4 0.809517 0.172880 0.931414
Si Si5 0.825125 0.495653 0.576944
Si Si6 0.315951 0.666205 0.899268
O O1 0.794648 0.681934 0.767586
O O2 0.735121 0.579380 0.979401
O O3 0.504109 0.664961 0.871617
O O4 0.720914 0.745587 0.021604
O O5 0.999053 0.182281 0.951742
O O6 0.247871 0.086348 0.955414
O O7 0.832780 0.487706 0.756175
O O8 0.738725 0.414467 0.007780
O O9 0.000000 0.500000 0.000000
O O10 0.772495 0.168333 0.757205
O O11 0.751862 0.087104 0.008590
O O12 0.727899 0.251993 0.006861
O O13 0.000000 0.500000 0.500000
#
# Coordination Sequence:
#
# PCOD9246074 Si02
#       6
#     4   4   4   4   4   4
#     4  11  24  40  59  89 126 159 201 258 316 365
#     4  10  21  40  62  87 118 160 206 251 302 370
#     4  11  22  40  64  90 121 163 210 256 306 374
#     4  11  22  40  64  89 120 162 211 256 305 375
#     4   9  20  38  61  90 117 151 204 257 300 353
#     4  12  24  40  60  91 125 161 202 260 318 365
#
# _framework density 19.722985999999999
#
# number of rings (size 3 to 8) (size 9 to 14) (size 15 to 20)
#    0.000    1.333    0.000    7.500    0.000    5.333 
#    0.000    9.167    0.000    0.000    0.000    0.000 
#    0.000    0.000    0.000    0.000    0.000    0.000 
#
# Total GULP energy -134100.932544 kJ/mol
# GULP energy per Si atom -5587.538856 kJ/mol
# Density = 1.967810 g / cm^3
# Si number density = 19.722986 Si / 1000 Ang^3
#
#
#
# Elastic Constant Matrix: (Units=GPa)
#
#
# Indices 1 2 3 4 5 6 
#
# 1 53.8245 9.9991 -11.4940 0.0000 1.8496 0.0000
# 2 9.9991 185.2865 58.3539 0.0000 1.8882 0.0000
# 3 -11.4940 58.3539 78.2531 0.0000 -4.9307 0.0000
# 4 0.0000 0.0000 0.0000 41.2047 0.0000 -1.8846
# 5 1.8496 1.8882 -4.9307 0.0000 14.3831 0.0000
# 6 0.0000 0.0000 0.0000 -1.8846 0.0000 19.6302
#
#
#
# Elastic Compliance Matrix: (Units=1/GPa)
#
#
# Indices 1 2 3 4 5 6 
#
# 1 0.020124 -0.002613 0.004868 0.000000 -0.000576 0.000000
# 2 -0.002613 0.007504 -0.006154 0.000000 -0.002759 0.000000
# 3 0.004868 -0.006154 0.018494 0.000000 0.006522 0.000000
# 4 0.000000 0.000000 0.000000 0.024376 0.000000 0.002340
# 5 -0.000576 -0.002759 0.006522 0.000000 0.072198 0.000000
# 6 0.000000 0.000000 0.000000 0.002340 0.000000 0.051167
#
#
# Mechanical properties :
#
#
# Convention : Reuss Voigt Hill
#
# Bulk Modulus (GPa) = 26.09291 47.89800 36.99546
# Shear Modulus (GPa) = 23.31712 32.41060 27.86386
#
# Velocity S-wave (km/s) = 3.44209 4.05815 3.76275
# Velocity P-wave (km/s) = 5.39034 6.80413 6.13807
#
# Compressibility (1/GPa) = 0.03832458
#
# Stress axis : x y z
#
# Youngs Moduli (GPa) = 49.69246 133.25877 54.07206
#
# Poissons Ratio (x) = 0.34825 -0.26324
# Poissons Ratio (y) = 0.12986 0.33274
# Poissons Ratio (z) = -0.24192 0.82002
#
# Static dielectric constant tensor:
#      x y z
#    x 1.648200 0.000000 -0.009960 
#    y 0.000000 1.710290 0.000000 
#    z -0.009960 0.000000 1.658160 
# 
# From -- ./inp_files/8436.got.cif
#   From: 2010.05.17/outbox.cif.g08.bks.cpg/sg14_5_cif.got.tgz:8436.got - 2010.06.03 17:49:19.
