data_PCOD9246844
_publ_section_title
;
Structure prediction by ZEFSAII (Michael W. Deem and Ramdas Pophale) SiO2 
 PCOD9246844
Probable space group: P 21/C
;
_chemical_formula_sum "Si O2"
_cell_formula_units_Z 32
_cell_length_a 9.459615
_cell_length_b 16.420564
_cell_length_c 17.625127
_cell_angle_alpha 90.000000
_cell_angle_beta 152.871755
_cell_angle_gamma 90.000000
_cell_volume 1248.369366
_symmetry_space_group_name_H-M "P 21/C"
_symmetry_group_IT_number 14
_symmetry_cell_setting 'monoclinic'
loop_
_space_group_symop_operation_xyz
x,y,z
-x,1/2+y,1/2-z
-x,-y,-z
x,1/2-y,1/2+z
loop_
_atom_site_type_symbol
_atom_site_label
_atom_site_fract_x
_atom_site_fract_y
_atom_site_fract_z
Si Si1 0.175545 0.930092 0.992213
Si Si2 0.293101 0.966032 0.743886
Si Si3 0.271164 0.092710 0.451105
Si Si4 0.436531 0.363536 0.869050
Si Si5 0.551962 0.691786 0.564232
Si Si6 0.048617 0.737180 0.707147
Si Si7 0.594301 0.359239 0.245154
Si Si8 0.008744 0.625881 0.975751
O O1 0.392406 0.873702 0.041390
O O2 0.212330 0.900994 0.096251
O O3 0.349287 0.016974 0.068140
O O4 0.826589 0.912917 0.800970
O O5 0.057583 0.953415 0.701556
O O6 0.220164 0.894058 0.649970
O O7 0.165954 0.045018 0.638270
O O8 0.177378 0.187522 0.416857
O O9 0.450820 0.091733 0.457829
O O10 0.463461 0.076463 0.619526
O O11 0.332197 0.270468 0.833349
O O12 0.759495 0.352770 0.980434
O O13 0.295295 0.725229 0.383339
O O14 0.847979 0.668524 0.654864
O O15 0.205915 0.703260 0.707551
O O16 0.285859 0.321626 0.138094
#
# Coordination Sequence:
#
# PCOD9246844 Si02
#       8
#     4   4   4   4   4   4   4   4
#     4  11  24  41  64  98 129 168 211 261 322 375
#     4   9  21  41  62  89 130 172 215 257 309 381
#     4  10  21  42  67  92 129 169 212 262 314 374
#     4  11  23  41  65  96 130 165 212 269 319 368
#     4  11  23  42  64  96 131 161 206 273 319 377
#     4  11  21  43  66  92 133 163 207 267 322 375
#     4  10  22  40  64  93 125 167 210 252 319 375
#     4   9  21  42  66  90 130 169 212 264 308 381
#
# _framework density 25.633437000000001
#
# number of rings (size 3 to 8) (size 9 to 14) (size 15 to 20)
#    0.000    1.750    5.000    0.750    3.500    4.500 
#    4.500    3.750    0.000    0.000    0.000    0.000 
#    0.000    0.000    0.000    0.000    0.000    0.000 
#
# Total GULP energy -178979.853026 kJ/mol
# GULP energy per Si atom -5593.120407 kJ/mol
# Density = 2.557509 g / cm^3
# Si number density = 25.633437 Si / 1000 Ang^3
#
#
#
# Elastic Constant Matrix: (Units=GPa)
#
#
# Indices 1 2 3 4 5 6 
#
# 1 200.6493 20.5937 55.1327 0.0000 18.6000 0.0000
# 2 20.5937 39.4887 20.5315 0.0000 8.7394 0.0000
# 3 55.1327 20.5315 89.1650 0.0000 -7.4681 0.0000
# 4 0.0000 0.0000 0.0000 32.1896 0.0000 9.5619
# 5 18.6000 8.7394 -7.4681 0.0000 41.2927 0.0000
# 6 0.0000 0.0000 0.0000 9.5619 0.0000 31.4247
#
#
#
# Elastic Compliance Matrix: (Units=1/GPa)
#
#
# Indices 1 2 3 4 5 6 
#
# 1 0.006528 -0.000392 -0.004250 0.000000 -0.003626 0.000000
# 2 -0.000392 0.031204 -0.007596 0.000000 -0.007801 0.000000
# 3 -0.004250 -0.007596 0.016131 0.000000 0.006439 0.000000
# 4 0.000000 0.000000 0.000000 0.034153 0.000000 -0.010392
# 5 -0.003626 -0.007801 0.006439 0.000000 0.028666 0.000000
# 6 0.000000 0.000000 0.000000 -0.010392 0.000000 0.034984
#
#
# Mechanical properties :
#
#
# Convention : Reuss Voigt Hill
#
# Bulk Modulus (GPa) = 34.02825 57.97985 46.00405
# Shear Modulus (GPa) = 26.89055 36.51775 31.70415
#
# Velocity S-wave (km/s) = 3.24241 3.77850 3.52067
# Velocity P-wave (km/s) = 5.22698 6.45787 5.87475
#
# Compressibility (1/GPa) = 0.02938735
#
# Stress axis : x y z
#
# Youngs Moduli (GPa) = 153.18817 32.04686 61.99128
#
# Poissons Ratio (x) = 0.01257 0.26345
# Poissons Ratio (y) = 0.06009 0.47089
# Poissons Ratio (z) = 0.65101 0.24343
#
# Static dielectric constant tensor:
#      x y z
#    x 2.071800 0.000000 0.018330 
#    y 0.000000 2.083320 0.000000 
#    z 0.018330 0.000000 2.070040 
# 
# From -- ./inp_files/56270.got.cif
#   From: 2010.05.17/outbox.cif.g08.bks.cpg/sg14_29_cif.got.tgz:56270.got - 2010.06.03 17:49:19.
