data_PCOD9246590
_publ_section_title
;
Structure prediction by ZEFSAII (Michael W. Deem and Ramdas Pophale) SiO2 
 PCOD9246590
Probable space group: P 21/C
;
_chemical_formula_sum "Si O2"
_cell_formula_units_Z 32
_cell_length_a 9.808214
_cell_length_b 14.358006
_cell_length_c 10.235752
_cell_angle_alpha 90.000000
_cell_angle_beta 72.117426
_cell_angle_gamma 90.000000
_cell_volume 1371.823816
_symmetry_space_group_name_H-M "P 21/C"
_symmetry_group_IT_number 14
_symmetry_cell_setting 'monoclinic'
loop_
_space_group_symop_operation_xyz
x,y,z
-x,1/2+y,1/2-z
-x,-y,-z
x,1/2-y,1/2+z
loop_
_atom_site_type_symbol
_atom_site_label
_atom_site_fract_x
_atom_site_fract_y
_atom_site_fract_z
Si Si1 0.637578 0.827078 0.112255
Si Si2 0.175570 0.699646 0.441419
Si Si3 0.037976 0.356010 0.077731
Si Si4 0.076938 0.379350 0.349527
Si Si5 0.498498 0.986528 0.783055
Si Si6 0.198810 0.509287 0.917430
Si Si7 0.234447 0.939337 0.702859
Si Si8 0.502046 0.279287 0.604726
O O1 0.807633 0.834849 0.084915
O O2 0.580692 0.932990 0.113013
O O3 0.564437 0.786106 0.264427
O O4 0.581908 0.768544 0.006030
O O5 0.061594 0.781219 0.460120
O O6 0.207688 0.655466 0.289739
O O7 0.326014 0.732526 0.456755
O O8 0.085629 0.625336 0.552563
O O9 0.929875 0.444501 0.124523
O O10 0.085756 0.326820 0.207486
O O11 0.164707 0.400430 0.955128
O O12 0.134003 0.482317 0.299512
O O13 0.653596 0.021651 0.698668
O O14 0.396824 0.969805 0.687353
O O15 0.511949 0.886911 0.847053
O O16 0.207813 0.556377 0.057547
#
# Coordination Sequence:
#
# PCOD9246590 Si02
#       8
#     4   4   4   4   4   4   4   4
#     4  11  26  48  67 105 135 183 230 290 339 411
#     4  11  24  39  68  95 134 168 224 275 339 401
#     4  10  24  40  62 100 127 179 215 281 332 406
#     4  10  24  43  66  90 141 170 227 268 341 405
#     4  10  22  43  72  94 138 181 225 283 338 408
#     4  10  21  41  66  97 138 169 231 269 345 398
#     4   9  21  42  63 102 125 181 216 279 338 400
#     4  11  27  44  72 102 137 179 235 278 350 404
#
# _framework density 23.326612000000001
#
# number of rings (size 3 to 8) (size 9 to 14) (size 15 to 20)
#    0.000    1.750    0.000    1.875    8.750    5.000 
#    6.750    0.000    0.000    0.000    0.000    0.000 
#    0.000    0.000    0.000    0.000    0.000    0.000 
#
# Total GULP energy -178989.880053 kJ/mol
# GULP energy per Si atom -5593.433752 kJ/mol
# Density = 2.327352 g / cm^3
# Si number density = 23.326612 Si / 1000 Ang^3
#
#
#
# Elastic Constant Matrix: (Units=GPa)
#
#
# Indices 1 2 3 4 5 6 
#
# 1 93.8916 1.8667 24.6365 0.0000 11.9465 0.0000
# 2 1.8667 43.6170 -6.8557 0.0000 1.3882 0.0000
# 3 24.6365 -6.8557 34.0608 0.0000 5.7057 0.0000
# 4 0.0000 0.0000 0.0000 15.3372 0.0000 -1.4257
# 5 11.9465 1.3882 5.7057 0.0000 40.6180 0.0000
# 6 0.0000 0.0000 0.0000 -1.4257 0.0000 29.2766
#
#
#
# Elastic Compliance Matrix: (Units=1/GPa)
#
#
# Indices 1 2 3 4 5 6 
#
# 1 0.013591 -0.002043 -0.009815 0.000000 -0.002549 0.000000
# 2 -0.002043 0.024074 0.006514 0.000000 -0.001137 0.000000
# 3 -0.009815 0.006514 0.038223 0.000000 -0.002705 0.000000
# 4 0.000000 0.000000 0.000000 0.065497 0.000000 0.003189
# 5 -0.002549 -0.001137 -0.002705 0.000000 0.025788 0.000000
# 6 0.000000 0.000000 0.000000 0.003189 0.000000 0.034312
#
#
# Mechanical properties :
#
#
# Convention : Reuss Voigt Hill
#
# Bulk Modulus (GPa) = 15.33746 23.42939 19.38342
# Shear Modulus (GPa) = 21.37603 27.17446 24.27524
#
# Velocity S-wave (km/s) = 3.03046 3.41685 3.22944
# Velocity P-wave (km/s) = 4.33985 5.06284 4.71522
#
# Compressibility (1/GPa) = 0.06519985
#
# Stress axis : x y z
#
# Youngs Moduli (GPa) = 73.57909 41.53804 26.16251
#
# Poissons Ratio (x) = 0.08487 0.25678
# Poissons Ratio (y) = 0.15034 -0.17042
# Poissons Ratio (z) = 0.72216 -0.27058
#
# Static dielectric constant tensor:
#      x y z
#    x 1.853030 0.000000 0.007100 
#    y 0.000000 1.921440 0.000000 
#    z 0.007100 0.000000 1.865660 
# 
# From -- ./inp_files/25477.got.cif
#   From: 2010.05.17/outbox.cif.g08.bks.cpg/sg14_13_cif.got.tgz:25477.got - 2010.06.03 17:49:19.
