data_PCOD9246676
_publ_section_title
;
Structure prediction by ZEFSAII (Michael W. Deem and Ramdas Pophale) SiO2 
 PCOD9246676
Probable space group: P 21/C
;
_chemical_formula_sum "Si O2"
_cell_formula_units_Z 24
_cell_length_a 14.084752
_cell_length_b 9.518353
_cell_length_c 9.852293
_cell_angle_alpha 90.000000
_cell_angle_beta 44.100801
_cell_angle_gamma 90.000000
_cell_volume 919.198735
_symmetry_space_group_name_H-M "P 21/C"
_symmetry_group_IT_number 14
_symmetry_cell_setting 'monoclinic'
loop_
_space_group_symop_operation_xyz
x,y,z
-x,1/2+y,1/2-z
-x,-y,-z
x,1/2-y,1/2+z
loop_
_atom_site_type_symbol
_atom_site_label
_atom_site_fract_x
_atom_site_fract_y
_atom_site_fract_z
Si Si1 0.878711 0.739367 0.563206
Si Si2 0.039648 0.408680 0.277604
Si Si3 0.698488 0.508519 0.859821
Si Si4 0.636835 0.198677 0.861702
Si Si5 0.502804 0.507048 0.295533
Si Si6 0.198301 0.012670 0.158706
O O1 0.747849 0.638173 0.717415
O O2 0.849541 0.879345 0.678908
O O3 0.987930 0.657646 0.546178
O O4 0.916760 0.788294 0.374606
O O5 0.912318 0.485760 0.343144
O O6 0.173855 0.501831 0.165643
O O7 0.665229 0.362220 0.822372
O O8 0.570070 0.544944 0.085252
O O9 0.597216 0.111299 0.768920
O O10 0.770626 0.131772 0.793896
O O11 0.516766 0.145106 0.088702
O O12 0.349010 0.448272 0.451261
#
# Coordination Sequence:
#
# PCOD9246676 Si02
#       6
#     4   4   4   4   4   4
#     4  10  24  43  73 105 146 196 251 313 376 447
#     4  10  24  43  73 103 150 195 250 310 382 444
#     4  10  23  41  75  99 149 191 253 305 382 450
#     4   9  21  42  67 102 136 192 246 305 369 450
#     4   9  21  40  70  99 143 185 248 305 380 441
#     4  10  21  41  69  98 142 192 241 311 376 438
#
# _framework density 26.109694999999999
#
# number of rings (size 3 to 8) (size 9 to 14) (size 15 to 20)
#    2.000    0.333    0.000    1.500    4.667    0.000 
#    3.000    2.500    3.667    0.000    0.000    0.000 
#    0.000    0.000    0.000    0.000    0.000    0.000 
#
# Total GULP energy -134259.827972 kJ/mol
# GULP energy per Si atom -5594.159499 kJ/mol
# Density = 2.605027 g / cm^3
# Si number density = 26.109695 Si / 1000 Ang^3
#
#
#
# Elastic Constant Matrix: (Units=GPa)
#
#
# Indices 1 2 3 4 5 6 
#
# 1 157.5757 42.3219 14.4662 0.0000 -23.0716 0.0000
# 2 42.3219 133.3626 45.2710 0.0000 -4.1614 0.0000
# 3 14.4662 45.2710 77.7734 0.0000 3.6171 0.0000
# 4 0.0000 0.0000 0.0000 42.8259 0.0000 -8.8129
# 5 -23.0716 -4.1614 3.6171 0.0000 38.7932 0.0000
# 6 0.0000 0.0000 0.0000 -8.8129 0.0000 22.4049
#
#
#
# Elastic Compliance Matrix: (Units=1/GPa)
#
#
# Indices 1 2 3 4 5 6 
#
# 1 0.007589 -0.002151 -0.000360 0.000000 0.004316 0.000000
# 2 -0.002151 0.010044 -0.005461 0.000000 0.000307 0.000000
# 3 -0.000360 -0.005461 0.016211 0.000000 -0.002311 0.000000
# 4 0.000000 0.000000 0.000000 0.025407 0.000000 0.009994
# 5 0.004316 0.000307 -0.002311 0.000000 0.028593 0.000000
# 6 0.000000 0.000000 0.000000 0.009994 0.000000 0.048564
#
#
# Mechanical properties :
#
#
# Convention : Reuss Voigt Hill
#
# Bulk Modulus (GPa) = 55.86631 63.64776 59.75704
# Shear Modulus (GPa) = 31.58161 38.58163 35.08162
#
# Velocity S-wave (km/s) = 3.48167 3.84822 3.66952
# Velocity P-wave (km/s) = 6.13236 6.64643 6.39457
#
# Compressibility (1/GPa) = 0.01789987
#
# Stress axis : x y z
#
# Youngs Moduli (GPa) = 131.76956 99.55780 61.68641
#
# Poissons Ratio (x) = 0.21419 0.02221
# Poissons Ratio (y) = 0.28349 0.33686
# Poissons Ratio (z) = 0.04744 0.54367
#
# Static dielectric constant tensor:
#      x y z
#    x 2.077190 0.000000 -0.005220 
#    y 0.000000 2.049270 0.000000 
#    z -0.005220 0.000000 2.023260 
# 
# From -- ./inp_files/32154.got.cif
#   From: 2010.05.17/outbox.cif.g08.bks.cpg/sg14_17_cif.got.tgz:32154.got - 2010.06.03 17:49:19.
