data_PCOD9246608
_publ_section_title
;
Structure prediction by ZEFSAII (Michael W. Deem and Ramdas Pophale) SiO2 
 PCOD9246608
Probable space group: P 21/C
;
_chemical_formula_sum "Si O2"
_cell_formula_units_Z 24
_cell_length_a 13.989528
_cell_length_b 11.197206
_cell_length_c 15.222629
_cell_angle_alpha 90.000000
_cell_angle_beta 151.282678
_cell_angle_gamma 90.000000
_cell_volume 1145.738574
_symmetry_space_group_name_H-M "P 21/C"
_symmetry_group_IT_number 14
_symmetry_cell_setting 'monoclinic'
loop_
_space_group_symop_operation_xyz
x,y,z
-x,1/2+y,1/2-z
-x,-y,-z
x,1/2-y,1/2+z
loop_
_atom_site_type_symbol
_atom_site_label
_atom_site_fract_x
_atom_site_fract_y
_atom_site_fract_z
Si Si1 0.571992 0.367908 0.532053
Si Si2 0.991252 0.857180 0.892434
Si Si3 0.015157 0.638781 0.038953
Si Si4 0.594876 0.770818 0.273743
Si Si5 0.321230 0.481163 0.726456
Si Si6 0.373048 0.178578 0.498990
O O1 0.500000 0.500000 0.500000
O O2 0.794268 0.347584 0.745326
O O3 0.546412 0.340505 0.408406
O O4 0.433221 0.276044 0.474704
O O5 0.831192 0.925184 0.826015
O O6 0.863169 0.842666 0.701210
O O7 0.039318 0.729600 0.976019
O O8 0.185441 0.939190 0.051916
O O9 0.000000 0.500000 0.000000
O O10 0.814181 0.681147 0.924434
O O11 0.580191 0.630961 0.241007
O O12 0.571481 0.784606 0.358043
O O13 0.488868 0.563587 0.903929
#
# Coordination Sequence:
#
# PCOD9246608 Si02
#       6
#     4   4   4   4   4   4
#     4  12  24  45  71  92 133 178 220 278 332 397
#     4  10  21  41  67  92 124 174 215 272 327 384
#     4  11  21  43  68  94 131 173 220 264 333 392
#     4  11  27  41  64 105 129 176 226 268 335 397
#     4  10  22  41  66  93 129 167 224 264 333 391
#     4  12  24  43  68  97 133 172 221 279 331 392
#
# _framework density 20.947185999999999
#
# number of rings (size 3 to 8) (size 9 to 14) (size 15 to 20)
#    0.000    1.000    6.667    0.500    2.333    1.333 
#    3.000    0.000    0.000    0.000    0.000    0.000 
#    0.000    0.000    0.000    0.000    0.000    0.000 
#
# Total GULP energy -134121.901836 kJ/mol
# GULP energy per Si atom -5588.412577 kJ/mol
# Density = 2.089951 g / cm^3
# Si number density = 20.947186 Si / 1000 Ang^3
#
#
#
# Elastic Constant Matrix: (Units=GPa)
#
#
# Indices 1 2 3 4 5 6 
#
# 1 32.4630 12.2004 1.5253 0.0000 -25.5390 0.0000
# 2 12.2004 144.4791 36.5254 0.0000 -8.9780 0.0000
# 3 1.5253 36.5254 169.5364 0.0000 -11.4719 0.0000
# 4 0.0000 0.0000 0.0000 39.3450 0.0000 1.4983
# 5 -25.5390 -8.9780 -11.4719 0.0000 37.7816 0.0000
# 6 0.0000 0.0000 0.0000 1.4983 0.0000 12.2281
#
#
#
# Elastic Compliance Matrix: (Units=1/GPa)
#
#
# Indices 1 2 3 4 5 6 
#
# 1 0.068673 -0.003751 0.003340 0.000000 0.046543 0.000000
# 2 -0.003751 0.007587 -0.001685 0.000000 -0.001244 0.000000
# 3 0.003340 -0.001685 0.006490 0.000000 0.003828 0.000000
# 4 0.000000 0.000000 0.000000 0.025535 0.000000 -0.003129
# 5 0.046543 -0.001244 0.003828 0.000000 0.058796 0.000000
# 6 0.000000 0.000000 0.000000 -0.003129 0.000000 0.082162
#
#
# Mechanical properties :
#
#
# Convention : Reuss Voigt Hill
#
# Bulk Modulus (GPa) = 12.72946 49.66451 31.19698
# Shear Modulus (GPa) = 17.88122 37.61944 27.75033
#
# Velocity S-wave (km/s) = 2.92487 4.24243 3.64370
# Velocity P-wave (km/s) = 4.18290 6.91075 5.71205
#
# Compressibility (1/GPa) = 0.07855793
#
# Stress axis : x y z
#
# Youngs Moduli (GPa) = 14.56167 131.80743 154.07303
#
# Poissons Ratio (x) = 0.49443 -0.51456
# Poissons Ratio (y) = 0.05462 0.25961
# Poissons Ratio (z) = -0.04863 0.22209
#
# Static dielectric constant tensor:
#      x y z
#    x 1.756030 0.000000 -0.002490 
#    y 0.000000 1.743420 0.000000 
#    z -0.002490 0.000000 1.785040 
# 
# From -- ./inp_files/47196.got.cif
#   From: 2010.05.17/outbox.cif.g08.bks.cpg/sg14_24_cif.got.tgz:47196.got - 2010.06.03 17:49:19.
