data_PCOD9246697
_publ_section_title
;
Structure prediction by ZEFSAII (Michael W. Deem and Ramdas Pophale) SiO2 
 PCOD9246697
Probable space group: P 21/C
;
_chemical_formula_sum "Si O2"
_cell_formula_units_Z 26
_cell_length_a 7.161247
_cell_length_b 9.060442
_cell_length_c 17.907267
_cell_angle_alpha 90.000000
_cell_angle_beta 125.232631
_cell_angle_gamma 90.000000
_cell_volume 949.055995
_symmetry_space_group_name_H-M "P 21/C"
_symmetry_group_IT_number 14
_symmetry_cell_setting 'monoclinic'
loop_
_space_group_symop_operation_xyz
x,y,z
-x,1/2+y,1/2-z
-x,-y,-z
x,1/2-y,1/2+z
loop_
_atom_site_type_symbol
_atom_site_label
_atom_site_fract_x
_atom_site_fract_y
_atom_site_fract_z
Si Si1 0.568714 0.032478 0.138907
Si Si2 0.235186 0.246068 0.134333
Si Si3 0.432353 0.186608 0.384360
Si Si4 0.000000 0.000000 0.500000
Si Si5 0.670471 0.078893 0.728482
Si Si6 0.254253 0.726920 0.915120
Si Si7 0.058297 0.833561 0.662302
O O1 0.607482 0.124578 0.071418
O O2 0.789756 0.086572 0.238064
O O3 0.554033 0.859470 0.127099
O O4 0.546922 0.838099 0.288055
O O5 0.147089 0.345605 0.045376
O O6 0.011532 0.238097 0.134214
O O7 0.341932 0.095133 0.127098
O O8 0.386568 0.091047 0.299362
O O9 0.654563 0.147692 0.487599
O O10 0.207718 0.159648 0.381309
O O11 0.893676 0.070471 0.398745
O O12 0.704302 0.131616 0.649477
O O13 0.874918 0.159792 0.819052
#
# Coordination Sequence:
#
# PCOD9246697 Si02
#       7
#     4   4   4   2   4   4   4
#     4  10  25  46  71 107 152 194 245 317 378 451
#     4  10  22  44  69 106 144 188 252 307 376 461
#     4  12  21  41  76 107 144 198 246 305 392 457
#     4  12  22  42  76 104 144 200 258 318 382 456
#     4  10  23  44  71 103 143 191 245 308 374 454
#     4  10  21  41  73 104 142 191 243 305 367 454
#     4  10  23  44  70 102 145 195 252 314 375 457
#
# _framework density 27.395641999999999
#
# number of rings (size 3 to 8) (size 9 to 14) (size 15 to 20)
#    0.000    1.846    0.000    5.538    0.000    1.846 
#    0.000   27.692    0.000    2.769    0.000    0.000 
#    0.000    0.000    0.000    1.231    0.000    0.000 
#
# Total GULP energy -145323.892606 kJ/mol
# GULP energy per Si atom -5589.380485 kJ/mol
# Density = 2.733329 g / cm^3
# Si number density = 27.395642 Si / 1000 Ang^3
#
#
#
# Elastic Constant Matrix: (Units=GPa)
#
#
# Indices 1 2 3 4 5 6 
#
# 1 178.7017 37.6551 36.6158 0.0000 3.1691 0.0000
# 2 37.6551 212.3852 38.5042 0.0000 -17.7355 0.0000
# 3 36.6158 38.5042 111.9175 0.0000 -4.9636 0.0000
# 4 0.0000 0.0000 0.0000 42.5647 0.0000 1.1169
# 5 3.1691 -17.7355 -4.9636 0.0000 50.3437 0.0000
# 6 0.0000 0.0000 0.0000 1.1169 0.0000 21.3768
#
#
#
# Elastic Compliance Matrix: (Units=1/GPa)
#
#
# Indices 1 2 3 4 5 6 
#
# 1 0.006149 -0.000843 -0.001760 0.000000 -0.000858 0.000000
# 2 -0.000843 0.005270 -0.001459 0.000000 0.001766 0.000000
# 3 -0.001760 -0.001459 0.010039 0.000000 0.000587 0.000000
# 4 0.000000 0.000000 0.000000 0.023526 0.000000 -0.001229
# 5 -0.000858 0.001766 0.000587 0.000000 0.020597 0.000000
# 6 0.000000 0.000000 0.000000 -0.001229 0.000000 0.046844
#
#
# Mechanical properties :
#
#
# Convention : Reuss Voigt Hill
#
# Bulk Modulus (GPa) = 74.99281 80.95050 77.97165
# Shear Modulus (GPa) = 40.00212 48.87235 44.43723
#
# Velocity S-wave (km/s) = 3.82535 4.22826 4.03184
# Velocity P-wave (km/s) = 6.85161 7.31098 7.08502
#
# Compressibility (1/GPa) = 0.01333461
#
# Stress axis : x y z
#
# Youngs Moduli (GPa) = 162.61957 189.76048 99.61245
#
# Poissons Ratio (x) = 0.15993 0.17531
# Poissons Ratio (y) = 0.13705 0.14533
# Poissons Ratio (z) = 0.28620 0.27686
#
# Static dielectric constant tensor:
#      x y z
#    x 1.655710 0.000000 0.015060 
#    y 0.000000 2.349780 0.000000 
#    z 0.015060 0.000000 2.105200 
# 
# From -- ./inp_files/67093.got.cif
#   From: 2010.05.17/outbox.cif.g08.bks.cpg/sg14_34_cif.got.tgz:67093.got - 2010.06.03 17:49:19.
