data_PCOD9246929
_publ_section_title
;
Structure prediction by ZEFSAII (Michael W. Deem and Ramdas Pophale) SiO2 
 PCOD9246929
Probable space group: P 21/C
;
_chemical_formula_sum "Si O2"
_cell_formula_units_Z 28
_cell_length_a 9.294070
_cell_length_b 5.216595
_cell_length_c 28.152868
_cell_angle_alpha 90.000000
_cell_angle_beta 111.847170
_cell_angle_gamma 90.000000
_cell_volume 1266.915954
_symmetry_space_group_name_H-M "P 21/C"
_symmetry_group_IT_number 14
_symmetry_cell_setting 'monoclinic'
loop_
_space_group_symop_operation_xyz
x,y,z
-x,1/2+y,1/2-z
-x,-y,-z
x,1/2-y,1/2+z
loop_
_atom_site_type_symbol
_atom_site_label
_atom_site_fract_x
_atom_site_fract_y
_atom_site_fract_z
Si Si1 0.893516 0.664787 0.739842
Si Si2 0.692686 0.748354 0.540319
Si Si3 0.340188 0.649690 0.117216
Si Si4 0.016389 0.747514 0.535335
Si Si5 0.493283 0.836124 0.436423
Si Si6 0.396169 0.395108 0.224403
Si Si7 0.365601 0.472289 0.363790
O O1 0.765475 0.651083 0.766670
O O2 0.784994 0.607915 0.681568
O O3 0.979895 0.936097 0.744029
O O4 0.602668 0.656819 0.482184
O O5 0.650139 0.601805 0.582888
O O6 0.871936 0.746919 0.552951
O O7 0.628938 0.032573 0.543681
O O8 0.171001 0.761134 0.086328
O O9 0.378988 0.518482 0.071564
O O10 0.350490 0.467986 0.164594
O O11 0.479678 0.853559 0.139374
O O12 0.000000 0.500000 0.500000
O O13 0.000000 0.000000 0.500000
O O14 0.398982 0.769088 0.376558
O O15 0.507115 0.144157 0.243848
#
# Coordination Sequence:
#
# PCOD9246929 Si02
#       7
#     4   4   4   4   4   4   4
#     4  12  29  50  73 108 149 188 244 316 374 436
#     4  10  23  40  67 104 140 190 228 294 350 433
#     4  11  25  43  73 103 137 195 239 299 362 436
#     4  12  27  45  66 103 150 185 237 296 354 425
#     4  10  21  42  71 101 142 182 243 280 364 432
#     4  12  26  49  79 107 143 191 254 311 371 444
#     4  11  24  44  73  99 141 187 244 290 369 438
#
# _framework density 22.100912999999998
#
# number of rings (size 3 to 8) (size 9 to 14) (size 15 to 20)
#    0.000    0.857    2.857    3.000    8.000    0.000 
#    0.000    0.000    0.000    0.000    0.000    0.000 
#    0.000    0.000    0.000    0.000    0.000    0.000 
#
# Total GULP energy -156230.965927 kJ/mol
# GULP energy per Si atom -5579.677355 kJ/mol
# Density = 2.205061 g / cm^3
# Si number density = 22.100913 Si / 1000 Ang^3
#
#
#
# Elastic Constant Matrix: (Units=GPa)
#
#
# Indices 1 2 3 4 5 6 
#
# 1 127.3041 -6.6755 12.9181 0.0000 -1.5669 0.0000
# 2 -6.6755 42.5345 -15.8995 0.0000 -3.2802 0.0000
# 3 12.9181 -15.8995 86.0270 0.0000 6.6805 0.0000
# 4 0.0000 0.0000 0.0000 34.1172 0.0000 1.6569
# 5 -1.5669 -3.2802 6.6805 0.0000 49.5021 0.0000
# 6 0.0000 0.0000 0.0000 1.6569 0.0000 26.7403
#
#
#
# Elastic Compliance Matrix: (Units=1/GPa)
#
#
# Indices 1 2 3 4 5 6 
#
# 1 0.008017 0.000892 -0.001075 0.000000 0.000458 0.000000
# 2 0.000892 0.025409 0.004476 0.000000 0.001108 0.000000
# 3 -0.001075 0.004476 0.012726 0.000000 -0.001455 0.000000
# 4 0.000000 0.000000 0.000000 0.029399 0.000000 -0.001822
# 5 0.000458 0.001108 -0.001455 0.000000 0.020485 0.000000
# 6 0.000000 0.000000 0.000000 -0.001822 0.000000 0.037510
#
#
# Mechanical properties :
#
#
# Convention : Reuss Voigt Hill
#
# Bulk Modulus (GPa) = 18.26878 26.28354 22.27616
# Shear Modulus (GPa) = 34.91500 39.77342 37.34421
#
# Velocity S-wave (km/s) = 3.97898 4.24680 4.11507
# Velocity P-wave (km/s) = 5.42160 5.99712 5.71661
#
# Compressibility (1/GPa) = 0.05473818
#
# Stress axis : x y z
#
# Youngs Moduli (GPa) = 124.74048 39.35631 78.58013
#
# Poissons Ratio (x) = -0.03510 0.08444
# Poissons Ratio (y) = -0.11124 -0.35174
# Poissons Ratio (z) = 0.13404 -0.17616
#
# Static dielectric constant tensor:
#      x y z
#    x 1.754750 0.000000 -0.029600 
#    y 0.000000 2.482390 0.000000 
#    z -0.029600 0.000000 1.837700 
# 
# From -- ./inp_files/79147.got.cif
#   From: 2010.05.17/outbox.cif.g08.bks.cpg/sg14_40_cif.got.tgz:79147.got - 2010.06.03 17:49:19.
