data_PCOD9246506
_publ_section_title
;
Structure prediction by ZEFSAII (Michael W. Deem and Ramdas Pophale) SiO2 
 PCOD9246506
Probable space group: P 21/C
;
_chemical_formula_sum "Si O2"
_cell_formula_units_Z 24
_cell_length_a 5.346723
_cell_length_b 9.937010
_cell_length_c 16.520863
_cell_angle_alpha 90.000000
_cell_angle_beta 92.054149
_cell_angle_gamma 90.000000
_cell_volume 877.196668
_symmetry_space_group_name_H-M "P 21/C"
_symmetry_group_IT_number 14
_symmetry_cell_setting 'monoclinic'
loop_
_space_group_symop_operation_xyz
x,y,z
-x,1/2+y,1/2-z
-x,-y,-z
x,1/2-y,1/2+z
loop_
_atom_site_type_symbol
_atom_site_label
_atom_site_fract_x
_atom_site_fract_y
_atom_site_fract_z
Si Si1 0.181731 0.709445 0.032210
Si Si2 0.936803 0.764865 0.195426
Si Si3 0.447757 0.422207 0.391407
Si Si4 0.228659 0.149824 0.050511
Si Si5 0.158586 0.525028 0.799216
Si Si6 0.663539 0.942157 0.404515
O O1 0.393912 0.796112 0.076494
O O2 0.266210 0.555393 0.027841
O O3 0.978349 0.715283 0.103436
O O4 0.052799 0.789648 0.957233
O O5 0.716636 0.874769 0.185418
O O6 0.885225 0.624217 0.238406
O O7 0.160276 0.849829 0.236989
O O8 0.632025 0.548328 0.387192
O O9 0.263034 0.435394 0.467333
O O10 0.371182 0.292315 0.061802
O O11 0.417610 0.519183 0.851313
O O12 0.911763 0.557254 0.850621
#
# Coordination Sequence:
#
# PCOD9246506 Si02
#       6
#     4   4   4   4   4   4
#     4  10  21  42  65  92 132 169 213 276 326 387
#     4  10  24  43  63  95 128 174 219 274 326 387
#     4  10  21  41  64  92 135 165 221 270 329 386
#     4  10  23  38  65  99 126 174 216 266 335 394
#     4  11  26  43  67  95 132 173 223 270 328 392
#     4  11  25  43  65 100 130 171 223 270 327 394
#
# _framework density 27.359884999999998
#
# number of rings (size 3 to 8) (size 9 to 14) (size 15 to 20)
#    0.000    1.667    1.667    1.000    7.000    2.000 
#    0.000    0.000    0.000    0.000    0.000    0.000 
#    0.000    0.000    0.000    0.000    0.000    0.000 
#
# Total GULP energy -134171.058024 kJ/mol
# GULP energy per Si atom -5590.460751 kJ/mol
# Density = 2.729761 g / cm^3
# Si number density = 27.359885 Si / 1000 Ang^3
#
#
#
# Elastic Constant Matrix: (Units=GPa)
#
#
# Indices 1 2 3 4 5 6 
#
# 1 120.5812 29.1206 41.1322 0.0000 20.4240 0.0000
# 2 29.1206 224.7395 72.1364 0.0000 15.9995 0.0000
# 3 41.1322 72.1364 51.0743 0.0000 16.4857 0.0000
# 4 0.0000 0.0000 0.0000 47.7411 0.0000 14.1017
# 5 20.4240 15.9995 16.4857 0.0000 53.2882 0.0000
# 6 0.0000 0.0000 0.0000 14.1017 0.0000 51.4887
#
#
#
# Elastic Compliance Matrix: (Units=1/GPa)
#
#
# Indices 1 2 3 4 5 6 
#
# 1 0.012500 0.002863 -0.013650 0.000000 -0.001428 0.000000
# 2 0.002863 0.008869 -0.015130 0.000000 0.000920 0.000000
# 3 -0.013650 -0.015130 0.054198 0.000000 -0.006993 0.000000
# 4 0.000000 0.000000 0.000000 0.022790 0.000000 -0.006242
# 5 -0.001428 0.000920 -0.006993 0.000000 0.021200 0.000000
# 6 0.000000 0.000000 0.000000 -0.006242 0.000000 0.021131
#
#
# Mechanical properties :
#
#
# Convention : Reuss Voigt Hill
#
# Bulk Modulus (GPa) = 42.13227 75.68593 58.90910
# Shear Modulus (GPa) = 24.94599 47.43733 36.19166
#
# Velocity S-wave (km/s) = 3.02283 4.16844 3.64098
# Velocity P-wave (km/s) = 5.25510 7.13380 6.26527
#
# Compressibility (1/GPa) = 0.02373478
#
# Stress axis : x y z
#
# Youngs Moduli (GPa) = 80.00257 112.74627 18.45075
#
# Poissons Ratio (x) = -0.32282 0.25184
# Poissons Ratio (y) = -0.22906 0.27916
# Poissons Ratio (z) = 1.09200 1.70585
#
# Static dielectric constant tensor:
#      x y z
#    x 2.312170 0.000000 -0.183230 
#    y 0.000000 2.101280 0.000000 
#    z -0.183230 0.000000 2.183060 
# 
# From -- ./inp_files/71087.got.cif
#   From: 2010.05.17/outbox.cif.g08.bks.cpg/sg14_36_cif.got.tgz:71087.got - 2010.06.03 17:49:19.
