data_PCOD9246996
_publ_section_title
;
Structure prediction by ZEFSAII (Michael W. Deem and Ramdas Pophale) SiO2 
 PCOD9246996
Probable space group: P 21/C
;
_chemical_formula_sum "Si O2"
_cell_formula_units_Z 24
_cell_length_a 14.520823
_cell_length_b 5.136870
_cell_length_c 14.155218
_cell_angle_alpha 90.000000
_cell_angle_beta 78.901944
_cell_angle_gamma 90.000000
_cell_volume 1036.114644
_symmetry_space_group_name_H-M "P 21/C"
_symmetry_group_IT_number 14
_symmetry_cell_setting 'monoclinic'
loop_
_space_group_symop_operation_xyz
x,y,z
-x,1/2+y,1/2-z
-x,-y,-z
x,1/2-y,1/2+z
loop_
_atom_site_type_symbol
_atom_site_label
_atom_site_fract_x
_atom_site_fract_y
_atom_site_fract_z
Si Si1 0.896556 0.884762 0.768997
Si Si2 0.209467 0.607333 0.250269
Si Si3 0.395853 0.086981 0.991163
Si Si4 0.593797 0.106841 0.633695
Si Si5 0.375155 0.260447 0.699546
Si Si6 0.048510 0.454649 0.391446
O O1 0.823259 0.118766 0.782937
O O2 0.847304 0.423949 0.639373
O O3 0.980273 0.926672 0.824799
O O4 0.935510 0.836039 0.654236
O O5 0.313851 0.495477 0.232331
O O6 0.362678 0.857576 0.927789
O O7 0.156331 0.384131 0.199491
O O8 0.349367 0.131034 0.101562
O O9 0.403348 0.363738 0.938557
O O10 0.500000 0.000000 0.000000
O O11 0.639215 0.980104 0.718020
O O12 0.485447 0.181446 0.678551
O O13 0.000000 0.500000 0.500000
#
# Coordination Sequence:
#
# PCOD9246996 Si02
#       6
#     4   4   4   4   4   4
#     4  10  21  43  66 104 136 174 230 274 344 428
#     4  10  23  41  66 102 140 174 231 288 342 408
#     4  10  22  40  64  94 124 181 237 280 346 418
#     4  11  24  40  67  96 130 191 241 276 355 417
#     4  11  23  44  71  98 145 185 232 306 343 403
#     4  10  21  44  75  97 141 183 217 279 351 424
#
# _framework density 23.163460000000001
#
# number of rings (size 3 to 8) (size 9 to 14) (size 15 to 20)
#    1.000    0.667    1.667    4.000    0.000    8.667 
#    3.000    0.000    7.333    0.000    0.000    0.000 
#    0.000    0.000    0.000    0.000    0.000    0.000 
#
# Total GULP energy -133927.150346 kJ/mol
# GULP energy per Si atom -5580.297931 kJ/mol
# Density = 2.311074 g / cm^3
# Si number density = 23.163460 Si / 1000 Ang^3
#
#
#
# Elastic Constant Matrix: (Units=GPa)
#
#
# Indices 1 2 3 4 5 6 
#
# 1 65.4995 18.4944 26.1614 0.0000 -1.1064 0.0000
# 2 18.4944 155.3927 47.9766 0.0000 12.7513 0.0000
# 3 26.1614 47.9766 150.6290 0.0000 4.3318 0.0000
# 4 0.0000 0.0000 0.0000 31.3473 0.0000 0.6642
# 5 -1.1064 12.7513 4.3318 0.0000 24.5734 0.0000
# 6 0.0000 0.0000 0.0000 0.6642 0.0000 37.6801
#
#
#
# Elastic Compliance Matrix: (Units=1/GPa)
#
#
# Indices 1 2 3 4 5 6 
#
# 1 0.016691 -0.001365 -0.002519 0.000000 0.001904 0.000000
# 2 -0.001365 0.007529 -0.002057 0.000000 -0.003606 0.000000
# 3 -0.002519 -0.002057 0.007743 0.000000 -0.000411 0.000000
# 4 0.000000 0.000000 0.000000 0.031913 0.000000 -0.000563
# 5 0.001904 -0.003606 -0.000411 0.000000 0.042723 0.000000
# 6 0.000000 0.000000 0.000000 -0.000563 0.000000 0.026549
#
#
# Mechanical properties :
#
#
# Convention : Reuss Voigt Hill
#
# Bulk Modulus (GPa) = 49.79874 61.86513 55.83194
# Shear Modulus (GPa) = 32.95455 37.31275 35.13365
#
# Velocity S-wave (km/s) = 3.77596 4.01789 3.89880
# Velocity P-wave (km/s) = 6.36836 6.94914 6.66508
#
# Compressibility (1/GPa) = 0.02008083
#
# Stress axis : x y z
#
# Youngs Moduli (GPa) = 59.91270 132.82341 129.14275
#
# Poissons Ratio (x) = 0.18131 0.32529
# Poissons Ratio (y) = 0.08178 0.26567
# Poissons Ratio (z) = 0.15091 0.27325
#
# Static dielectric constant tensor:
#      x y z
#    x 1.941270 0.000000 -0.013840 
#    y 0.000000 2.004580 0.000000 
#    z -0.013840 0.000000 1.894880 
# 
# From -- ./inp_files/33345.got.cif
#   From: 2010.05.17/outbox.cif.g08.bks.cpg/sg14_17_cif.got.tgz:33345.got - 2010.06.03 17:49:19.
