data_PCOD9246016
_publ_section_title
;
Structure prediction by ZEFSAII (Michael W. Deem and Ramdas Pophale) SiO2 
 PCOD9246016
Probable space group: P 21/C
;
_chemical_formula_sum "Si O2"
_cell_formula_units_Z 26
_cell_length_a 14.660603
_cell_length_b 4.831280
_cell_length_c 30.496841
_cell_angle_alpha 90.000000
_cell_angle_beta 26.700302
_cell_angle_gamma 90.000000
_cell_volume 970.573056
_symmetry_space_group_name_H-M "P 21/C"
_symmetry_group_IT_number 14
_symmetry_cell_setting 'monoclinic'
loop_
_space_group_symop_operation_xyz
x,y,z
-x,1/2+y,1/2-z
-x,-y,-z
x,1/2-y,1/2+z
loop_
_atom_site_type_symbol
_atom_site_label
_atom_site_fract_x
_atom_site_fract_y
_atom_site_fract_z
Si Si1 0.791774 0.666938 0.706365
Si Si2 0.500000 0.000000 0.000000
Si Si3 0.562739 0.226247 0.697463
Si Si4 0.078705 0.306771 0.645649
Si Si5 0.850154 0.062798 0.007223
Si Si6 0.681415 0.953119 0.532374
Si Si7 0.690444 0.074505 0.827858
O O1 0.575220 0.575040 0.780033
O O2 0.933405 0.477479 0.675667
O O3 0.932727 0.671805 0.602067
O O4 0.738701 0.920234 0.761415
O O5 0.264266 0.023778 0.085101
O O6 0.422076 0.079504 0.084149
O O7 0.436229 0.500155 0.765007
O O8 0.774898 0.336708 0.587154
O O9 0.191642 0.081375 0.566856
O O10 0.912929 0.172933 0.748669
O O11 0.700201 0.234253 0.039514
O O12 0.797453 0.745551 0.018302
O O13 0.460670 0.830337 0.617279
#
# Coordination Sequence:
#
# PCOD9246016 Si02
#       7
#     4   2   4   4   4   4   4
#     4  11  25  44  76  99 140 199 245 295 382 444
#     4  10  26  44  68 118 144 190 260 314 374 444
#     4  12  28  45  71 108 149 188 243 317 368 440
#     4  10  23  44  69 103 146 188 252 303 372 444
#     4  11  22  43  71 103 139 184 245 295 365 441
#     4  10  21  39  70 104 136 186 246 294 351 443
#     4  11  22  44  70 102 145 196 246 305 372 451
#
# _framework density 26.788298000000001
#
# number of rings (size 3 to 8) (size 9 to 14) (size 15 to 20)
#    0.000    1.231    3.077    1.846    4.308    1.231 
#    0.000    1.538    0.000    0.000    0.000    0.000 
#    0.000    0.000    0.000    0.000    0.000    0.000 
#
# Total GULP energy -144875.592241 kJ/mol
# GULP energy per Si atom -5572.138163 kJ/mol
# Density = 2.672733 g / cm^3
# Si number density = 26.788298 Si / 1000 Ang^3
#
#
#
# Elastic Constant Matrix: (Units=GPa)
#
#
# Indices 1 2 3 4 5 6 
#
# 1 69.1288 17.3632 24.6615 0.0000 1.1197 0.0000
# 2 17.3632 83.6919 14.3895 0.0000 9.0543 0.0000
# 3 24.6615 14.3895 228.1026 0.0000 2.8246 0.0000
# 4 0.0000 0.0000 0.0000 33.0772 0.0000 -9.0077
# 5 1.1197 9.0543 2.8246 0.0000 49.6047 0.0000
# 6 0.0000 0.0000 0.0000 -9.0077 0.0000 -59.3955
#
#
#
# Elastic Compliance Matrix: (Units=1/GPa)
#
#
# Indices 1 2 3 4 5 6 
#
# 1 0.015766 -0.003041 -0.001516 0.000000 0.000286 0.000000
# 2 -0.003041 0.012903 -0.000457 0.000000 -0.002260 0.000000
# 3 -0.001516 -0.000457 0.004579 0.000000 -0.000143 0.000000
# 4 0.000000 0.000000 0.000000 0.029033 0.000000 -0.004403
# 5 0.000286 -0.002260 -0.000143 0.000000 0.020574 0.000000
# 6 0.000000 0.000000 0.000000 -0.004403 0.000000 -0.016169
#
#
# Mechanical properties :
#
#
# Convention : Reuss Voigt Hill
#
# Bulk Modulus (GPa) = 43.06981 54.86129 48.96555
# Shear Modulus (GPa) = 59.20399 26.29121 42.74760
#
# Velocity S-wave (km/s) = 4.70624 3.13620 3.99903
# Velocity P-wave (km/s) = 6.75606 5.79986 6.29614
#
# Compressibility (1/GPa) = 0.02321812
#
# Stress axis : x y z
#
# Youngs Moduli (GPa) = 63.42816 77.50341 218.41058
#
# Poissons Ratio (x) = 0.23569 0.33116
# Poissons Ratio (y) = 0.19289 0.09985
# Poissons Ratio (z) = 0.09617 0.03543
#
# Static dielectric constant tensor:
#      x y z
#    x 2.120390 0.000000 0.071900 
#    y 0.000000 2.094180 0.000000 
#    z 0.071900 0.000000 2.249650 
# 
# From -- ./inp_files/80123.got.cif
#   From: 2010.05.17/outbox.cif.g08.bks.cpg/sg14_41_cif.got.tgz:80123.got - 2010.06.03 17:49:19.
