data_PCOD9246426
_publ_section_title
;
Structure prediction by ZEFSAII (Michael W. Deem and Ramdas Pophale) SiO2 
 PCOD9246426
Probable space group: P 21/C
;
_chemical_formula_sum "Si O2"
_cell_formula_units_Z 24
_cell_length_a 14.460003
_cell_length_b 10.323518
_cell_length_c 14.397183
_cell_angle_alpha 90.000000
_cell_angle_beta 25.733718
_cell_angle_gamma 90.000000
_cell_volume 933.152724
_symmetry_space_group_name_H-M "P 21/C"
_symmetry_group_IT_number 14
_symmetry_cell_setting 'monoclinic'
loop_
_space_group_symop_operation_xyz
x,y,z
-x,1/2+y,1/2-z
-x,-y,-z
x,1/2-y,1/2+z
loop_
_atom_site_type_symbol
_atom_site_label
_atom_site_fract_x
_atom_site_fract_y
_atom_site_fract_z
Si Si1 0.228197 0.798779 0.757519
Si Si2 0.361434 0.576558 0.854437
Si Si3 0.072902 0.823187 0.104737
Si Si4 0.392753 0.125210 0.047341
Si Si5 0.667788 0.532590 0.929423
Si Si6 0.033506 0.553283 0.838159
O O1 0.473943 0.745191 0.529977
O O2 0.167460 0.917691 0.746748
O O3 0.097668 0.674456 0.842349
O O4 0.179124 0.839957 0.907259
O O5 0.193663 0.691816 0.027533
O O6 0.439383 0.510412 0.877463
O O7 0.217519 0.469089 0.933643
O O8 0.534504 0.624971 0.626247
O O9 0.098124 0.915021 0.172607
O O10 0.818971 0.843277 0.310757
O O11 0.500000 0.000000 0.000000
O O12 0.149548 0.077291 0.267588
O O13 0.500000 0.500000 0.000000
#
# Coordination Sequence:
#
# PCOD9246426 Si02
#       6
#     4   4   4   4   4   4
#     4  10  21  41  61  94 124 163 215 259 320 383
#     4  10  22  43  65  94 125 167 216 261 322 384
#     4  10  22  41  65  89 129 168 209 268 319 387
#     4   9  21  38  65  94 123 161 210 266 312 381
#     4  11  24  40  63  95 132 165 214 262 324 387
#     4  10  21  41  65  90 130 166 211 266 318 381
#
# _framework density 25.719262000000001
#
# number of rings (size 3 to 8) (size 9 to 14) (size 15 to 20)
#    0.000    2.000    1.667    0.500    4.667    6.000 
#    3.000    0.000    0.000    0.000    0.000    0.000 
#    0.000    0.000    0.000    0.000    0.000    0.000 
#
# Total GULP energy -133890.450009 kJ/mol
# GULP energy per Si atom -5578.768750 kJ/mol
# Density = 2.566072 g / cm^3
# Si number density = 25.719262 Si / 1000 Ang^3
#
#
#
# Elastic Constant Matrix: (Units=GPa)
#
#
# Indices 1 2 3 4 5 6 
#
# 1 135.9436 26.7020 37.6379 0.0000 2.3007 0.0000
# 2 26.7020 92.2610 31.3433 0.0000 -0.4252 0.0000
# 3 37.6379 31.3433 56.6743 0.0000 8.0896 0.0000
# 4 0.0000 0.0000 0.0000 29.6886 0.0000 8.6506
# 5 2.3007 -0.4252 8.0896 0.0000 45.6159 0.0000
# 6 0.0000 0.0000 0.0000 8.6506 0.0000 34.1725
#
#
#
# Elastic Compliance Matrix: (Units=1/GPa)
#
#
# Indices 1 2 3 4 5 6 
#
# 1 0.009064 -0.000676 -0.005725 0.000000 0.000552 0.000000
# 2 -0.000676 0.013494 -0.007219 0.000000 0.001440 0.000000
# 3 -0.005725 -0.007219 0.026067 0.000000 -0.004401 0.000000
# 4 0.000000 0.000000 0.000000 0.036365 0.000000 -0.009206
# 5 0.000552 0.001440 -0.004401 0.000000 0.022688 0.000000
# 6 0.000000 0.000000 0.000000 -0.009206 0.000000 0.031594
#
#
# Mechanical properties :
#
#
# Convention : Reuss Voigt Hill
#
# Bulk Modulus (GPa) = 46.76047 52.91617 49.83832
# Shear Modulus (GPa) = 28.79510 34.50844 31.65177
#
# Velocity S-wave (km/s) = 3.34966 3.66694 3.51189
# Velocity P-wave (km/s) = 5.76029 6.20869 5.98869
#
# Compressibility (1/GPa) = 0.02138559
#
# Stress axis : x y z
#
# Youngs Moduli (GPa) = 110.32192 74.10897 38.36239
#
# Poissons Ratio (x) = 0.05010 0.21961
# Poissons Ratio (y) = 0.07459 0.27694
# Poissons Ratio (z) = 0.63155 0.53500
#
# Static dielectric constant tensor:
#      x y z
#    x 2.064490 0.000000 -0.071920 
#    y 0.000000 2.212440 0.000000 
#    z -0.071920 0.000000 2.100670 
# 
# From -- ./inp_files/47042.got.cif
#   From: 2010.05.17/outbox.cif.g08.bks.cpg/sg14_24_cif.got.tgz:47042.got - 2010.06.03 17:49:19.
