data_PCOD9246303
_publ_section_title
;
Structure prediction by ZEFSAII (Michael W. Deem and Ramdas Pophale) SiO2 
 PCOD9246303
Probable space group: P 21/C
;
_chemical_formula_sum "Si O2"
_cell_formula_units_Z 16
_cell_length_a 21.422411
_cell_length_b 5.123496
_cell_length_c 12.931741
_cell_angle_alpha 90.000000
_cell_angle_beta 155.734335
_cell_angle_gamma 90.000000
_cell_volume 583.310613
_symmetry_space_group_name_H-M "P 21/C"
_symmetry_group_IT_number 14
_symmetry_cell_setting 'monoclinic'
loop_
_space_group_symop_operation_xyz
x,y,z
-x,1/2+y,1/2-z
-x,-y,-z
x,1/2-y,1/2+z
loop_
_atom_site_type_symbol
_atom_site_label
_atom_site_fract_x
_atom_site_fract_y
_atom_site_fract_z
Si Si1 0.650985 0.489270 0.345422
Si Si2 0.361078 0.746733 0.387192
Si Si3 0.823296 0.734685 0.433074
Si Si4 0.929284 0.249638 0.838990
O O1 0.592692 0.297063 0.165287
O O2 0.772886 0.685847 0.474990
O O3 0.750011 0.302465 0.566588
O O4 0.513919 0.668503 0.177293
O O5 0.275159 0.474357 0.259394
O O6 0.240109 0.976836 0.218196
O O7 0.000028 0.752789 0.671316
O O8 0.000000 0.500000 0.000000
O O9 0.000000 0.000000 0.000000
#
# Coordination Sequence:
#
# PCOD9246303 Si02
#       4
#     4   4   4   4
#     4   9  23  39  71  92 127 165 231 273 329 393
#     4   9  20  38  72  96 115 162 241 286 309 379
#     4  10  21  40  67  95 123 173 232 269 328 397
#     4  12  28  41  60  99 146 180 211 277 356 416
#
# _framework density 27.429638000000001
#
# number of rings (size 3 to 8) (size 9 to 14) (size 15 to 20)
#    1.500    0.500    0.000    2.250    7.000    0.000 
#    0.000    5.000    0.000    0.000    0.000    0.000 
#    0.000    0.000    0.000    0.000    0.000    0.000 
#
# Total GULP energy -89473.217769 kJ/mol
# GULP energy per Si atom -5592.076111 kJ/mol
# Density = 2.736721 g / cm^3
# Si number density = 27.429638 Si / 1000 Ang^3
#
#
#
# Elastic Constant Matrix: (Units=GPa)
#
#
# Indices 1 2 3 4 5 6 
#
# 1 60.4420 16.9840 17.6929 0.0000 19.7672 0.0000
# 2 16.9840 194.7913 50.9596 0.0000 -8.7973 0.0000
# 3 17.6929 50.9596 149.3757 0.0000 9.0881 0.0000
# 4 0.0000 0.0000 0.0000 45.5622 0.0000 -12.9496
# 5 19.7672 -8.7973 9.0881 0.0000 45.9197 0.0000
# 6 0.0000 0.0000 0.0000 -12.9496 0.0000 27.5891
#
#
#
# Elastic Compliance Matrix: (Units=1/GPa)
#
#
# Indices 1 2 3 4 5 6 
#
# 1 0.020323 -0.001848 -0.001238 0.000000 -0.008858 0.000000
# 2 -0.001848 0.005906 -0.001936 0.000000 0.002310 0.000000
# 3 -0.001238 -0.001936 0.007583 0.000000 -0.001339 0.000000
# 4 0.000000 0.000000 0.000000 0.025327 0.000000 0.011888
# 5 -0.008858 0.002310 -0.001339 0.000000 0.026298 0.000000
# 6 0.000000 0.000000 0.000000 0.011888 0.000000 0.041826
#
#
# Mechanical properties :
#
#
# Convention : Reuss Voigt Hill
#
# Bulk Modulus (GPa) = 42.07426 63.98687 53.03057
# Shear Modulus (GPa) = 34.42815 45.07905 39.75360
#
# Velocity S-wave (km/s) = 3.54664 4.05834 3.81109
# Velocity P-wave (km/s) = 5.66956 6.73338 6.22424
#
# Compressibility (1/GPa) = 0.02376750
#
# Stress axis : x y z
#
# Youngs Moduli (GPa) = 49.20452 169.32589 131.87033
#
# Poissons Ratio (x) = 0.31295 0.16323
# Poissons Ratio (y) = 0.09094 0.25535
# Poissons Ratio (z) = 0.06090 0.32788
#
# Static dielectric constant tensor:
#      x y z
#    x 2.336870 0.000000 -0.050110 
#    y 0.000000 2.063160 0.000000 
#    z -0.050110 0.000000 2.097340 
# 
# From -- ./inp_files/51037.got.cif
#   From: 2010.05.17/outbox.cif.g08.bks.cpg/sg14_26_cif.got.tgz:51037.got - 2010.06.03 17:49:19.
