data_PCOD9246082
_publ_section_title
;
Structure prediction by ZEFSAII (Michael W. Deem and Ramdas Pophale) SiO2 
 PCOD9246082
Probable space group: P 21/C
;
_chemical_formula_sum "Si O2"
_cell_formula_units_Z 32
_cell_length_a 11.597673
_cell_length_b 8.746590
_cell_length_c 13.834883
_cell_angle_alpha 90.000000
_cell_angle_beta 98.580750
_cell_angle_gamma 90.000000
_cell_volume 1387.702788
_symmetry_space_group_name_H-M "P 21/C"
_symmetry_group_IT_number 14
_symmetry_cell_setting 'monoclinic'
loop_
_space_group_symop_operation_xyz
x,y,z
-x,1/2+y,1/2-z
-x,-y,-z
x,1/2-y,1/2+z
loop_
_atom_site_type_symbol
_atom_site_label
_atom_site_fract_x
_atom_site_fract_y
_atom_site_fract_z
Si Si1 0.793067 0.921437 0.075336
Si Si2 0.402542 0.315089 0.926333
Si Si3 0.154066 0.908405 0.314374
Si Si4 0.968978 0.377952 0.720158
Si Si5 0.379565 0.854829 0.059380
Si Si6 0.638121 0.928976 0.773202
Si Si7 0.257965 0.944560 0.530695
Si Si8 0.835837 0.763422 0.393869
O O1 0.887071 0.000152 0.155436
O O2 0.709032 0.792607 0.110025
O O3 0.706898 0.048242 0.018916
O O4 0.853062 0.831162 0.994891
O O5 0.506767 0.211932 0.979928
O O6 0.440834 0.375541 0.825653
O O7 0.357772 0.445658 0.993818
O O8 0.111561 0.758081 0.253972
O O9 0.262536 0.974611 0.269814
O O10 0.189179 0.880742 0.428860
O O11 0.052231 0.033528 0.302600
O O12 0.059287 0.289481 0.660620
O O13 0.416782 0.964432 0.151914
O O14 0.310852 0.704321 0.086469
O O15 0.711897 0.795981 0.835439
O O16 0.180379 0.058331 0.584873
#
# Coordination Sequence:
#
# PCOD9246082 Si02
#       8
#     4   4   4   4   4   4   4   4
#     4  10  21  40  62  89 120 158 201 254 302 367
#     4  10  22  40  65  86 121 164 204 250 313 361
#     4  10  23  39  58  88 121 157 203 244 303 369
#     4  11  22  38  61  87 121 163 200 244 311 365
#     4  11  21  41  63  92 119 159 209 257 303 357
#     4   9  22  42  55  87 126 153 202 254 299 363
#     4  10  21  41  61  91 124 156 205 259 300 367
#     4   9  21  37  61  85 122 158 197 247 310 365
#
# _framework density 23.059694
#
# number of rings (size 3 to 8) (size 9 to 14) (size 15 to 20)
#    0.000    2.000    1.250    1.125    7.000    2.500 
#    2.250    2.500    0.000    0.000    0.000    0.000 
#    0.000    0.000    0.000    0.000    0.000    0.000 
#
# Total GULP energy -178880.271127 kJ/mol
# GULP energy per Si atom -5590.008473 kJ/mol
# Density = 2.300721 g / cm^3
# Si number density = 23.059694 Si / 1000 Ang^3
#
#
#
# Elastic Constant Matrix: (Units=GPa)
#
#
# Indices 1 2 3 4 5 6 
#
# 1 52.5458 9.5605 4.2030 0.0000 3.3593 0.0000
# 2 9.5605 88.0685 11.9661 0.0000 -1.5852 0.0000
# 3 4.2030 11.9661 37.7491 0.0000 -0.1805 0.0000
# 4 0.0000 0.0000 0.0000 13.6654 0.0000 4.5098
# 5 3.3593 -1.5852 -0.1805 0.0000 14.0464 0.0000
# 6 0.0000 0.0000 0.0000 4.5098 0.0000 36.1872
#
#
#
# Elastic Compliance Matrix: (Units=1/GPa)
#
#
# Indices 1 2 3 4 5 6 
#
# 1 0.019847 -0.002028 -0.001591 0.000000 -0.004996 0.000000
# 2 -0.002028 0.012097 -0.003600 0.000000 0.001804 0.000000
# 3 -0.001591 -0.003600 0.027811 0.000000 0.000332 0.000000
# 4 0.000000 0.000000 0.000000 0.076316 0.000000 -0.009511
# 5 -0.004996 0.001804 0.000332 0.000000 0.072595 0.000000
# 6 0.000000 0.000000 0.000000 -0.009511 0.000000 0.028819
#
#
# Mechanical properties :
#
#
# Convention : Reuss Voigt Hill
#
# Bulk Modulus (GPa) = 22.06735 25.53585 23.80160
# Shear Modulus (GPa) = 18.72464 22.95539 20.84001
#
# Velocity S-wave (km/s) = 2.85267 3.15854 3.00949
# Velocity P-wave (km/s) = 4.52114 4.93960 4.73500
#
# Compressibility (1/GPa) = 0.04531582
#
# Stress axis : x y z
#
# Youngs Moduli (GPa) = 50.38631 82.66784 35.95749
#
# Poissons Ratio (x) = 0.16767 0.05720
# Poissons Ratio (y) = 0.10220 0.12945
# Poissons Ratio (z) = 0.08015 0.29761
#
# Static dielectric constant tensor:
#      x y z
#    x 1.865900 0.000000 -0.004320 
#    y 0.000000 1.868870 0.000000 
#    z -0.004320 0.000000 1.849290 
# 
# From -- ./inp_files/43452.got.cif
#   From: 2010.05.17/outbox.cif.g08.bks.cpg/sg14_22_cif.got.tgz:43452.got - 2010.06.03 17:49:19.
