data_PCOD9246103
_publ_section_title
;
Structure prediction by ZEFSAII (Michael W. Deem and Ramdas Pophale) SiO2 
 PCOD9246103
Probable space group: P 21/C
;
_chemical_formula_sum "Si O2"
_cell_formula_units_Z 28
_cell_length_a 20.293907
_cell_length_b 5.363586
_cell_length_c 10.866394
_cell_angle_alpha 90.000000
_cell_angle_beta 110.614375
_cell_angle_gamma 90.000000
_cell_volume 1107.054146
_symmetry_space_group_name_H-M "P 21/C"
_symmetry_group_IT_number 14
_symmetry_cell_setting 'monoclinic'
loop_
_space_group_symop_operation_xyz
x,y,z
-x,1/2+y,1/2-z
-x,-y,-z
x,1/2-y,1/2+z
loop_
_atom_site_type_symbol
_atom_site_label
_atom_site_fract_x
_atom_site_fract_y
_atom_site_fract_z
Si Si1 0.849173 0.559857 0.219909
Si Si2 0.040820 0.787002 0.097874
Si Si3 0.716941 0.276152 0.237101
Si Si4 0.674039 0.709907 0.835628
Si Si5 0.473157 0.207932 0.887897
Si Si6 0.391552 0.926939 0.512718
Si Si7 0.110603 0.105633 0.512466
O O1 0.917744 0.382784 0.257779
O O2 0.783544 0.388356 0.210726
O O3 0.844735 0.672574 0.079336
O O4 0.867241 0.740045 0.349015
O O5 0.972309 0.626886 0.080876
O O6 0.104445 0.676544 0.057114
O O7 0.000000 0.000000 0.000000
O O8 0.722308 0.008183 0.306954
O O9 0.694588 0.507830 0.313638
O O10 0.656164 0.237555 0.095323
O O11 0.593107 0.652988 0.741442
O O12 0.663793 0.625706 0.968874
O O13 0.546471 0.287591 0.870624
O O14 0.436832 0.422184 0.944582
O O15 0.500000 0.000000 0.000000
#
# Coordination Sequence:
#
# PCOD9246103 Si02
#       7
#     4   4   4   4   4   4   4
#     4  11  26  43  74 103 143 198 239 305 368 445
#     4   9  22  42  68 106 141 185 235 304 361 432
#     4  11  27  46  64 104 138 187 238 282 360 439
#     4  11  26  44  69  96 139 183 232 289 356 429
#     4  10  21  40  63 100 128 171 231 290 350 424
#     4  10  24  41  67  96 139 175 230 296 358 426
#     4  10  24  45  71 107 146 184 251 301 371 433
#
# _framework density 25.292349999999999
#
# number of rings (size 3 to 8) (size 9 to 14) (size 15 to 20)
#    0.000    1.714    1.429    0.000   14.000    1.143 
#    0.000    0.000    0.000    0.000    0.000    0.000 
#    0.000    0.000    0.000    0.000    0.000    0.000 
#
# Total GULP energy -155953.734196 kJ/mol
# GULP energy per Si atom -5569.776221 kJ/mol
# Density = 2.523478 g / cm^3
# Si number density = 25.292350 Si / 1000 Ang^3
#
#
#
# Elastic Constant Matrix: (Units=GPa)
#
#
# Indices 1 2 3 4 5 6 
#
# 1 111.8061 18.1697 35.3420 0.0000 -7.0181 0.0000
# 2 18.1697 61.6934 14.8023 0.0000 2.3525 0.0000
# 3 35.3420 14.8023 63.9481 0.0000 -8.9404 0.0000
# 4 0.0000 0.0000 0.0000 35.9738 0.0000 4.7119
# 5 -7.0181 2.3525 -8.9404 0.0000 36.9508 0.0000
# 6 0.0000 0.0000 0.0000 4.7119 0.0000 36.8574
#
#
#
# Elastic Compliance Matrix: (Units=1/GPa)
#
#
# Indices 1 2 3 4 5 6 
#
# 1 0.011070 -0.001965 -0.005539 0.000000 0.000887 0.000000
# 2 -0.001965 0.017674 -0.003327 0.000000 -0.002303 0.000000
# 3 -0.005539 -0.003327 0.020029 0.000000 0.004006 0.000000
# 4 0.000000 0.000000 0.000000 0.028271 0.000000 -0.003614
# 5 0.000887 -0.002303 0.004006 0.000000 0.028347 0.000000
# 6 0.000000 0.000000 0.000000 -0.003614 0.000000 0.027594
#
#
# Mechanical properties :
#
#
# Convention : Reuss Voigt Hill
#
# Bulk Modulus (GPa) = 36.88584 41.56394 39.22489
# Shear Modulus (GPa) = 30.54646 33.23198 31.88922
#
# Velocity S-wave (km/s) = 3.47902 3.62873 3.55466
# Velocity P-wave (km/s) = 5.54559 5.83318 5.69120
#
# Compressibility (1/GPa) = 0.02711067
#
# Stress axis : x y z
#
# Youngs Moduli (GPa) = 90.33405 56.58016 49.92733
#
# Poissons Ratio (x) = 0.11119 0.27655
# Poissons Ratio (y) = 0.17752 0.16611
# Poissons Ratio (z) = 0.50037 0.18824
#
# Static dielectric constant tensor:
#      x y z
#    x 2.033910 0.000000 0.013200 
#    y 0.000000 2.454840 0.000000 
#    z 0.013200 0.000000 2.410640 
# 
# From -- ./inp_files/34744.got.cif
#   From: 2010.05.17/outbox.cif.g08.bks.cpg/sg14_18_cif.got.tgz:34744.got - 2010.06.03 17:49:19.
