data_PCOD9246359
_publ_section_title
;
Structure prediction by ZEFSAII (Michael W. Deem and Ramdas Pophale) SiO2 
 PCOD9246359
Probable space group: P 21/C
;
_chemical_formula_sum "Si O2"
_cell_formula_units_Z 28
_cell_length_a 10.928641
_cell_length_b 10.158336
_cell_length_c 13.832246
_cell_angle_alpha 90.000000
_cell_angle_beta 64.913061
_cell_angle_gamma 90.000000
_cell_volume 1390.750580
_symmetry_space_group_name_H-M "P 21/C"
_symmetry_group_IT_number 14
_symmetry_cell_setting 'monoclinic'
loop_
_space_group_symop_operation_xyz
x,y,z
-x,1/2+y,1/2-z
-x,-y,-z
x,1/2-y,1/2+z
loop_
_atom_site_type_symbol
_atom_site_label
_atom_site_fract_x
_atom_site_fract_y
_atom_site_fract_z
Si Si1 0.386506 0.679039 0.858847
Si Si2 0.608469 0.175449 0.939492
Si Si3 0.972950 0.864959 0.951015
Si Si4 0.397047 0.957922 0.754064
Si Si5 0.914077 0.381871 0.985610
Si Si6 0.327600 0.410894 0.474611
Si Si7 0.823939 0.365001 0.797647
O O1 0.418206 0.805569 0.779831
O O2 0.474530 0.549972 0.807831
O O3 0.410118 0.736339 0.958508
O O4 0.230053 0.636953 0.912896
O O5 0.463006 0.175548 0.936791
O O6 0.738616 0.231080 0.841068
O O7 0.646850 0.027634 0.957402
O O8 0.070313 0.857644 0.825018
O O9 0.819436 0.849866 0.965173
O O10 0.007213 0.751391 0.015745
O O11 0.000000 0.000000 0.000000
O O12 0.295543 0.962059 0.697661
O O13 0.325217 0.021398 0.870802
O O14 0.887588 0.398349 0.879971
O O15 0.000000 0.500000 0.000000
#
# Coordination Sequence:
#
# PCOD9246359 Si02
#       7
#     4   4   4   4   4   4   4
#     4  10  22  43  65  99 136 172 227 284 334 402
#     4   9  21  42  66 100 135 173 226 291 335 394
#     4  12  23  46  69  98 138 184 227 272 335 423
#     4  11  21  41  70  95 131 182 224 276 341 399
#     4  11  27  45  64 103 142 171 222 292 341 400
#     4  10  21  40  69  99 133 179 232 272 333 418
#     4  11  23  43  70  94 135 185 219 283 347 391
#
# _framework density 20.133013999999999
#
# number of rings (size 3 to 8) (size 9 to 14) (size 15 to 20)
#    0.000    1.429    2.857    2.571    0.000    8.000 
#    7.714    0.000    0.000    0.000    0.000    0.000 
#    0.000    0.000    0.000    0.000    0.000    0.000 
#
# Total GULP energy -156265.182149 kJ/mol
# GULP energy per Si atom -5580.899362 kJ/mol
# Density = 2.008719 g / cm^3
# Si number density = 20.133014 Si / 1000 Ang^3
#
#
#
# Elastic Constant Matrix: (Units=GPa)
#
#
# Indices 1 2 3 4 5 6 
#
# 1 172.1899 70.1655 60.3095 0.0000 -1.3716 0.0000
# 2 70.1655 108.2196 52.9531 0.0000 2.5753 0.0000
# 3 60.3095 52.9531 114.4086 0.0000 -0.5239 0.0000
# 4 0.0000 0.0000 0.0000 21.3137 0.0000 -9.4548
# 5 -1.3716 2.5753 -0.5239 0.0000 36.2498 0.0000
# 6 0.0000 0.0000 0.0000 -9.4548 0.0000 23.0382
#
#
#
# Elastic Compliance Matrix: (Units=1/GPa)
#
#
# Indices 1 2 3 4 5 6 
#
# 1 0.008411 -0.004265 -0.002457 0.000000 0.000586 0.000000
# 2 -0.004265 0.014140 -0.004302 0.000000 -0.001228 0.000000
# 3 -0.002457 -0.004302 0.012029 0.000000 0.000387 0.000000
# 4 0.000000 0.000000 0.000000 0.057361 0.000000 0.023541
# 5 0.000586 -0.001228 0.000387 0.000000 0.027701 0.000000
# 6 0.000000 0.000000 0.000000 0.023541 0.000000 0.053067
#
#
# Mechanical properties :
#
#
# Convention : Reuss Voigt Hill
#
# Bulk Modulus (GPa) = 79.79822 84.63048 82.21435
# Shear Modulus (GPa) = 25.13405 30.21299 27.67352
#
# Velocity S-wave (km/s) = 3.53710 3.87805 3.71149
# Velocity P-wave (km/s) = 7.51019 7.88538 7.70007
#
# Compressibility (1/GPa) = 0.01253161
#
# Stress axis : x y z
#
# Youngs Moduli (GPa) = 118.89696 70.72190 83.13475
#
# Poissons Ratio (x) = 0.30162 0.20426
# Poissons Ratio (y) = 0.50708 0.35764
# Poissons Ratio (z) = 0.29212 0.30424
#
# Static dielectric constant tensor:
#      x y z
#    x 1.706580 0.000000 0.014750 
#    y 0.000000 1.705920 0.000000 
#    z 0.014750 0.000000 1.733700 
# 
# From -- ./inp_files/43282.got.cif
#   From: 2010.05.17/outbox.cif.g08.bks.cpg/sg14_22_cif.got.tgz:43282.got - 2010.06.03 17:49:19.
