data_PCOD9246442
_publ_section_title
;
Structure prediction by ZEFSAII (Michael W. Deem and Ramdas Pophale) SiO2 
 PCOD9246442
Probable space group: P 21/C
;
_chemical_formula_sum "Si O2"
_cell_formula_units_Z 24
_cell_length_a 19.932752
_cell_length_b 7.443779
_cell_length_c 13.839801
_cell_angle_alpha 90.000000
_cell_angle_beta 154.131361
_cell_angle_gamma 90.000000
_cell_volume 895.952730
_symmetry_space_group_name_H-M "P 21/C"
_symmetry_group_IT_number 14
_symmetry_cell_setting 'monoclinic'
loop_
_space_group_symop_operation_xyz
x,y,z
-x,1/2+y,1/2-z
-x,-y,-z
x,1/2-y,1/2+z
loop_
_atom_site_type_symbol
_atom_site_label
_atom_site_fract_x
_atom_site_fract_y
_atom_site_fract_z
Si Si1 0.580286 0.105283 0.245790
Si Si2 0.748660 0.573969 0.648569
Si Si3 0.289190 0.253314 0.606348
Si Si4 0.065818 0.759350 0.602633
Si Si5 0.545805 0.991716 0.424803
Si Si6 0.869735 0.991959 0.952914
O O1 0.701496 0.959841 0.362698
O O2 0.573937 0.050082 0.350928
O O3 0.570818 0.320500 0.220439
O O4 0.404068 0.059651 0.987139
O O5 0.724002 0.701931 0.524781
O O6 0.797599 0.376129 0.679448
O O7 0.902640 0.640526 0.900000
O O8 0.453057 0.341387 0.849514
O O9 0.162964 0.379934 0.493302
O O10 0.103856 0.700873 0.541557
O O11 0.030576 0.587273 0.621560
O O12 0.711213 0.956979 0.686867
#
# Coordination Sequence:
#
# PCOD9246442 Si02
#       6
#     4   4   4   4   4   4
#     4  11  20  39  67  89 127 158 210 257 314 382
#     4  10  21  41  62  92 120 169 216 242 318 377
#     4  11  24  39  63  99 125 158 207 271 313 366
#     4  10  22  41  65  81 128 176 206 254 299 389
#     4  11  21  39  63  96 119 167 203 257 324 372
#     4  11  23  41  61  94 125 164 212 257 318 369
#
# _framework density 26.787129
#
# number of rings (size 3 to 8) (size 9 to 14) (size 15 to 20)
#    0.000    1.333    5.000    1.500    2.333    2.000 
#    6.000    0.000    0.000    0.000    0.000    0.000 
#    0.000    0.000    0.000    0.000    0.000    0.000 
#
# Total GULP energy -133895.535744 kJ/mol
# GULP energy per Si atom -5578.980656 kJ/mol
# Density = 2.672616 g / cm^3
# Si number density = 26.787129 Si / 1000 Ang^3
#
#
#
# Elastic Constant Matrix: (Units=GPa)
#
#
# Indices 1 2 3 4 5 6 
#
# 1 68.7911 -1.6814 -12.2868 0.0000 1.0612 0.0000
# 2 -1.6814 126.8315 20.3262 0.0000 5.3911 0.0000
# 3 -12.2868 20.3262 62.9126 0.0000 1.4049 0.0000
# 4 0.0000 0.0000 0.0000 55.7501 0.0000 10.9200
# 5 1.0612 5.3911 1.4049 0.0000 33.2797 0.0000
# 6 0.0000 0.0000 0.0000 10.9200 0.0000 26.5942
#
#
#
# Elastic Compliance Matrix: (Units=1/GPa)
#
#
# Indices 1 2 3 4 5 6 
#
# 1 0.015083 -0.000264 0.003043 0.000000 -0.000567 0.000000
# 2 -0.000264 0.008371 -0.002728 0.000000 -0.001232 0.000000
# 3 0.003043 -0.002728 0.017380 0.000000 -0.000389 0.000000
# 4 0.000000 0.000000 0.000000 0.019506 0.000000 -0.008009
# 5 -0.000567 -0.001232 -0.000389 0.000000 0.030282 0.000000
# 6 0.000000 0.000000 0.000000 -0.008009 0.000000 0.040891
#
#
# Mechanical properties :
#
#
# Convention : Reuss Voigt Hill
#
# Bulk Modulus (GPa) = 24.42859 30.13904 27.28382
# Shear Modulus (GPa) = 34.46969 39.93661 37.20315
#
# Velocity S-wave (km/s) = 3.59109 3.86539 3.73076
# Velocity P-wave (km/s) = 5.13166 5.58546 5.36336
#
# Compressibility (1/GPa) = 0.04093564
#
# Stress axis : x y z
#
# Youngs Moduli (GPa) = 66.30130 119.46541 57.53855
#
# Poissons Ratio (x) = 0.03151 -0.17512
# Poissons Ratio (y) = 0.01748 0.15699
# Poissons Ratio (z) = -0.20179 0.32595
#
# Static dielectric constant tensor:
#      x y z
#    x 2.177000 0.000000 -0.032550 
#    y 0.000000 2.309380 0.000000 
#    z -0.032550 0.000000 2.089810 
# 
# From -- ./inp_files/61725.got.cif
#   From: 2010.05.17/outbox.cif.g08.bks.cpg/sg14_31_cif.got.tgz:61725.got - 2010.06.03 17:49:19.
