data_PCOD9246039
_publ_section_title
;
Structure prediction by ZEFSAII (Michael W. Deem and Ramdas Pophale) SiO2 
 PCOD9246039
Probable space group: P 21/C
;
_chemical_formula_sum "Si O2"
_cell_formula_units_Z 32
_cell_length_a 14.894238
_cell_length_b 8.609557
_cell_length_c 23.524061
_cell_angle_alpha 90.000000
_cell_angle_beta 31.989880
_cell_angle_gamma 90.000000
_cell_volume 1598.079265
_symmetry_space_group_name_H-M "P 21/C"
_symmetry_group_IT_number 14
_symmetry_cell_setting 'monoclinic'
loop_
_space_group_symop_operation_xyz
x,y,z
-x,1/2+y,1/2-z
-x,-y,-z
x,1/2-y,1/2+z
loop_
_atom_site_type_symbol
_atom_site_label
_atom_site_fract_x
_atom_site_fract_y
_atom_site_fract_z
Si Si1 0.756096 0.175838 0.117533
Si Si2 0.207171 0.905097 0.506659
Si Si3 0.505693 0.169275 0.467545
Si Si4 0.011299 0.120909 0.544093
Si Si5 0.229345 0.129483 0.958610
Si Si6 0.185768 0.697759 0.630836
Si Si7 0.496452 0.161756 0.348567
Si Si8 0.854306 0.665258 0.368910
O O1 0.741422 0.306996 0.076950
O O2 0.594410 0.118015 0.239188
O O3 0.816121 0.026161 0.049591
O O4 0.866862 0.253152 0.108682
O O5 0.186358 0.788074 0.569987
O O6 0.039644 0.009657 0.583308
O O7 0.352271 0.032840 0.438269
O O8 0.633705 0.267941 0.437060
O O9 0.587422 0.165052 0.360426
O O10 0.316183 0.241590 0.559739
O O11 0.500000 0.000000 0.500000
O O12 0.180155 0.223911 0.446610
O O13 0.000000 0.000000 0.500000
O O14 0.420713 0.166014 0.875562
O O15 0.130934 0.157456 0.070390
O O16 0.165577 0.513990 0.636885
O O17 0.023979 0.763155 0.751772
#
# Coordination Sequence:
#
# PCOD9246039 Si02
#       8
#     4   4   4   4   4   4   4   4
#     4  11  20  38  63  94 124 172 213 261 329 393
#     4  10  21  41  63  91 133 168 215 270 331 393
#     4  11  23  44  66 100 134 171 227 280 333 404
#     4   9  21  37  59  86 123 165 203 261 312 381
#     4  10  21  40  60  89 130 157 215 266 316 395
#     4  12  24  44  71  94 134 179 225 282 345 404
#     4  10  22  37  63  90 127 170 209 269 330 397
#     4  11  26  42  69 100 128 178 222 283 341 402
#
# _framework density 20.024038999999998
#
# number of rings (size 3 to 8) (size 9 to 14) (size 15 to 20)
#    0.000    1.500    2.500    2.250    5.250    0.000 
#    0.000    0.000    5.500    0.000    0.000    0.000 
#    0.000    0.000    0.000    0.000    0.000    0.000 
#
# Total GULP energy -178157.356320 kJ/mol
# GULP energy per Si atom -5567.417385 kJ/mol
# Density = 1.997846 g / cm^3
# Si number density = 20.024039 Si / 1000 Ang^3
#
#
#
# Elastic Constant Matrix: (Units=GPa)
#
#
# Indices 1 2 3 4 5 6 
#
# 1 101.4696 41.2610 29.7716 0.0000 8.3651 0.0000
# 2 41.2610 136.8728 20.9663 0.0000 0.1456 0.0000
# 3 29.7716 20.9663 85.2765 0.0000 15.6796 0.0000
# 4 0.0000 0.0000 0.0000 20.7889 0.0000 -0.7326
# 5 8.3651 0.1456 15.6796 0.0000 26.1410 0.0000
# 6 0.0000 0.0000 0.0000 -0.7326 0.0000 37.1642
#
#
#
# Elastic Compliance Matrix: (Units=1/GPa)
#
#
# Indices 1 2 3 4 5 6 
#
# 1 0.012241 -0.003212 -0.003110 0.000000 -0.002034 0.000000
# 2 -0.003212 0.008469 -0.001283 0.000000 0.001750 0.000000
# 3 -0.003110 -0.001283 0.014548 0.000000 -0.007724 0.000000
# 4 0.000000 0.000000 0.000000 0.048136 0.000000 0.000949
# 5 -0.002034 0.001750 -0.007724 0.000000 0.043528 0.000000
# 6 0.000000 0.000000 0.000000 0.000949 0.000000 0.026926
#
#
# Mechanical properties :
#
#
# Convention : Reuss Voigt Hill
#
# Bulk Modulus (GPa) = 49.87739 56.40185 53.13962
# Shear Modulus (GPa) = 28.45112 32.26016 30.35564
#
# Velocity S-wave (km/s) = 3.77350 4.01817 3.89776
# Velocity P-wave (km/s) = 6.62937 7.05378 6.84487
#
# Compressibility (1/GPa) = 0.02004916
#
# Stress axis : x y z
#
# Youngs Moduli (GPa) = 81.69060 118.08003 68.73880
#
# Poissons Ratio (x) = 0.37923 0.21378
# Poissons Ratio (y) = 0.26236 0.08817
# Poissons Ratio (z) = 0.25407 0.15146
#
# Static dielectric constant tensor:
#      x y z
#    x 1.806420 0.000000 -0.053320 
#    y 0.000000 1.725740 0.000000 
#    z -0.053320 0.000000 1.735120 
# 
# From -- ./inp_files/73855.got.cif
#   From: 2010.05.17/outbox.cif.g08.bks.cpg/sg14_37_cif.got.tgz:73855.got - 2010.06.03 17:49:19.
