data_PCOD9246201
_publ_section_title
;
Structure prediction by ZEFSAII (Michael W. Deem and Ramdas Pophale) SiO2 
 PCOD9246201
Probable space group: P 21/C
;
_chemical_formula_sum "Si O2"
_cell_formula_units_Z 32
_cell_length_a 28.255843
_cell_length_b 12.525916
_cell_length_c 16.146869
_cell_angle_alpha 90.000000
_cell_angle_beta 162.683532
_cell_angle_gamma 90.000000
_cell_volume 1701.025883
_symmetry_space_group_name_H-M "P 21/C"
_symmetry_group_IT_number 14
_symmetry_cell_setting 'monoclinic'
loop_
_space_group_symop_operation_xyz
x,y,z
-x,1/2+y,1/2-z
-x,-y,-z
x,1/2-y,1/2+z
loop_
_atom_site_type_symbol
_atom_site_label
_atom_site_fract_x
_atom_site_fract_y
_atom_site_fract_z
Si Si1 0.732129 0.171152 0.234151
Si Si2 0.116060 0.108557 0.027255
Si Si3 0.852844 0.215090 0.102788
Si Si4 0.657616 0.224187 0.434504
Si Si5 0.674123 0.720142 0.696526
Si Si6 0.810247 0.508963 0.188152
Si Si7 0.066740 0.034724 0.399322
Si Si8 0.565317 0.900034 0.162606
O O1 0.786020 0.248766 0.400439
O O2 0.855805 0.072824 0.434963
O O3 0.712128 0.225308 0.112081
O O4 0.564583 0.123653 0.984965
O O5 0.986151 0.193869 0.842370
O O6 0.221767 0.173552 0.138111
O O7 0.024000 0.009276 0.833292
O O8 0.221810 0.069079 0.279568
O O9 0.939481 0.101444 0.239563
O O10 0.730507 0.219207 0.974381
O O11 0.725881 0.104825 0.546312
O O12 0.467203 0.221273 0.106437
O O13 0.589412 0.699442 0.642264
O O14 0.792663 0.619406 0.883338
O O15 0.000000 0.500000 0.500000
O O16 0.732763 0.571835 0.983057
O O17 0.500000 0.000000 0.000000
#
# Coordination Sequence:
#
# PCOD9246201 Si02
#       8
#     4   4   4   4   4   4   4   4
#     4  11  22  38  64  93 121 173 214 256 322 383
#     4  10  22  40  60  96 126 163 217 264 317 380
#     4  10  21  41  61  91 132 163 211 274 317 375
#     4  12  23  39  64  95 129 165 217 263 315 383
#     4  11  22  39  66  90 127 166 208 268 320 375
#     4  12  22  36  64  95 123 161 213 267 309 375
#     4  10  21  40  65  88 127 172 207 264 330 380
#     4  12  21  40  66  91 125 168 213 262 324 372
#
# _framework density 18.812176000000001
#
# number of rings (size 3 to 8) (size 9 to 14) (size 15 to 20)
#    0.000    1.000    5.000    2.250    0.000    2.500 
#    0.000    0.625    5.500    0.000    0.000    0.000 
#    0.000    0.000    0.000    0.000    0.000    0.000 
#
# Total GULP energy -178647.267210 kJ/mol
# GULP energy per Si atom -5582.727100 kJ/mol
# Density = 1.876936 g / cm^3
# Si number density = 18.812176 Si / 1000 Ang^3
#
#
#
# Elastic Constant Matrix: (Units=GPa)
#
#
# Indices 1 2 3 4 5 6 
#
# 1 94.1324 39.6711 29.8094 0.0000 -11.5375 0.0000
# 2 39.6711 52.8178 20.9013 0.0000 -4.9205 0.0000
# 3 29.8094 20.9013 103.8872 0.0000 -11.6442 0.0000
# 4 0.0000 0.0000 0.0000 34.1936 0.0000 1.9375
# 5 -11.5375 -4.9205 -11.6442 0.0000 35.2623 0.0000
# 6 0.0000 0.0000 0.0000 1.9375 0.0000 28.1273
#
#
#
# Elastic Compliance Matrix: (Units=1/GPa)
#
#
# Indices 1 2 3 4 5 6 
#
# 1 0.016383 -0.011184 -0.002103 0.000000 0.003105 0.000000
# 2 -0.011184 0.028288 -0.002544 0.000000 -0.000552 0.000000
# 3 -0.002103 -0.002544 0.011033 0.000000 0.002600 0.000000
# 4 0.000000 0.000000 0.000000 0.029360 0.000000 -0.002022
# 5 0.003105 -0.000552 0.002600 0.000000 0.030156 0.000000
# 6 0.000000 0.000000 0.000000 -0.002022 0.000000 0.035692
#
#
# Mechanical properties :
#
#
# Convention : Reuss Voigt Hill
#
# Bulk Modulus (GPa) = 41.59310 47.95566 44.77438
# Shear Modulus (GPa) = 26.23456 30.21368 28.22412
#
# Velocity S-wave (km/s) = 3.73842 4.01193 3.87759
# Velocity P-wave (km/s) = 6.38687 6.85623 6.62571
#
# Compressibility (1/GPa) = 0.02404245
#
# Stress axis : x y z
#
# Youngs Moduli (GPa) = 61.03828 35.35011 90.64120
#
# Poissons Ratio (x) = 0.39535 0.19060
# Poissons Ratio (y) = 0.68264 0.23061
# Poissons Ratio (z) = 0.12835 0.08994
#
# Static dielectric constant tensor:
#      x y z
#    x 1.669940 0.000000 0.006400 
#    y 0.000000 1.644330 0.000000 
#    z 0.006400 0.000000 1.681790 
# 
# From -- ./inp_files/52027.got.cif
#   From: 2010.05.17/outbox.cif.g08.bks.cpg/sg14_27_cif.got.tgz:52027.got - 2010.06.03 17:49:19.
