data_PCOD9246841
_publ_section_title
;
Structure prediction by ZEFSAII (Michael W. Deem and Ramdas Pophale) SiO2 
 PCOD9246841
Probable space group: P 21/C
;
_chemical_formula_sum "Si O2"
_cell_formula_units_Z 28
_cell_length_a 7.887082
_cell_length_b 26.718389
_cell_length_c 8.486353
_cell_angle_alpha 90.000000
_cell_angle_beta 38.762109
_cell_angle_gamma 90.000000
_cell_volume 1119.652597
_symmetry_space_group_name_H-M "P 21/C"
_symmetry_group_IT_number 14
_symmetry_cell_setting 'monoclinic'
loop_
_space_group_symop_operation_xyz
x,y,z
-x,1/2+y,1/2-z
-x,-y,-z
x,1/2-y,1/2+z
loop_
_atom_site_type_symbol
_atom_site_label
_atom_site_fract_x
_atom_site_fract_y
_atom_site_fract_z
Si Si1 0.356729 0.469282 0.967414
Si Si2 0.419632 0.866509 0.268614
Si Si3 0.048241 0.407091 0.436583
Si Si4 0.480004 0.557896 0.459490
Si Si5 0.803645 0.299048 0.621158
Si Si6 0.553544 0.729827 0.813194
Si Si7 0.952512 0.436965 0.827979
O O1 0.155442 0.430529 0.196170
O O2 0.195424 0.514123 0.999630
O O3 0.500000 0.500000 0.000000
O O4 0.567523 0.444744 0.692316
O O5 0.687398 0.886297 0.160165
O O6 0.470405 0.807919 0.228520
O O7 0.198110 0.884417 0.553528
O O8 0.348205 0.900456 0.167747
O O9 0.870223 0.357420 0.547186
O O10 0.983477 0.447530 0.620220
O O11 0.500000 0.500000 0.500000
O O12 0.789651 0.573185 0.254933
O O13 0.113773 0.273112 0.406139
O O14 0.604623 0.279810 0.625511
O O15 0.614906 0.289995 0.912753
#
# Coordination Sequence:
#
# PCOD9246841 Si02
#       7
#     4   4   4   4   4   4   4
#     4  12  22  39  64  97 136 178 231 289 350 416
#     4  10  21  42  67  90 131 185 226 277 359 430
#     4  10  22  40  65  98 129 181 228 298 356 420
#     4  11  23  39  61  94 131 179 230 277 342 431
#     4  11  24  47  76 105 146 187 242 307 372 435
#     4  11  24  48  76 107 143 190 241 306 372 438
#     4  11  20  41  63  86 135 180 219 276 351 427
#
# _framework density 25.007757999999999
#
# number of rings (size 3 to 8) (size 9 to 14) (size 15 to 20)
#    0.000    1.143    4.286    2.571    0.000    0.000 
#    2.571    2.857    0.000    0.000    0.000    0.000 
#    0.000    0.000    0.000    0.000    0.000    0.000 
#
# Total GULP energy -156015.990430 kJ/mol
# GULP energy per Si atom -5571.999658 kJ/mol
# Density = 2.495084 g / cm^3
# Si number density = 25.007758 Si / 1000 Ang^3
#
#
#
# Elastic Constant Matrix: (Units=GPa)
#
#
# Indices 1 2 3 4 5 6 
#
# 1 60.9845 -4.1015 2.4325 0.0000 -7.8448 0.0000
# 2 -4.1015 -98.4231 -112.8760 0.0000 -116.5900 0.0000
# 3 2.4325 -112.8760 18.5617 0.0000 -81.5882 0.0000
# 4 0.0000 0.0000 0.0000 29.2002 0.0000 3.0232
# 5 -7.8448 -116.5900 -81.5882 0.0000 -31.9034 0.0000
# 6 0.0000 0.0000 0.0000 3.0232 0.0000 11.7279
#
#
#
# Elastic Compliance Matrix: (Units=1/GPa)
#
#
# Indices 1 2 3 4 5 6 
#
# 1 0.016538 -0.000583 -0.001162 0.000000 0.001035 0.000000
# 2 -0.000583 0.005684 -0.004578 0.000000 -0.008923 0.000000
# 3 -0.001162 -0.004578 0.008249 0.000000 -0.004081 0.000000
# 4 0.000000 0.000000 0.000000 0.035185 0.000000 -0.009070
# 5 0.001035 -0.008923 -0.004081 0.000000 0.011448 0.000000
# 6 0.000000 0.000000 0.000000 -0.009070 0.000000 0.087604
#
#
# Mechanical properties :
#
#
# Convention : Reuss Voigt Hill
#
# Bulk Modulus (GPa) = 56.09677 -27.55188 14.27244
# Shear Modulus (GPa) = 27.27817 8.18282 17.73049
#
# Velocity S-wave (km/s) = 3.30629 1.81086 2.66559
# Velocity P-wave (km/s) = 6.08735 2.58243 3.89788
#
# Compressibility (1/GPa) = 0.01782634
#
# Stress axis : x y z
#
# Youngs Moduli (GPa) = 60.46713 175.91723 121.22160
#
# Poissons Ratio (x) = 0.10255 0.14085
# Poissons Ratio (y) = 0.03525 0.55494
# Poissons Ratio (z) = 0.07026 0.80532
#
# Static dielectric constant tensor:
#      x y z
#    x 2.049150 0.000000 -0.007180 
#    y 0.000000 1.954300 0.000000 
#    z -0.007180 0.000000 2.270610 
# 
# From -- ./inp_files/11143.got.cif
#   From: 2010.05.17/outbox.cif.g08.bks.cpg/sg14_6_cif.got.tgz:11143.got - 2010.06.03 17:49:19.
