data_PCOD9246659
_publ_section_title
;
Structure prediction by ZEFSAII (Michael W. Deem and Ramdas Pophale) SiO2 
 PCOD9246659
Probable space group: P 21/C
;
_chemical_formula_sum "Si O2"
_cell_formula_units_Z 28
_cell_length_a 19.821553
_cell_length_b 6.511330
_cell_length_c 13.465917
_cell_angle_alpha 90.000000
_cell_angle_beta 48.846225
_cell_angle_gamma 90.000000
_cell_volume 1308.600839
_symmetry_space_group_name_H-M "P 21/C"
_symmetry_group_IT_number 14
_symmetry_cell_setting 'monoclinic'
loop_
_space_group_symop_operation_xyz
x,y,z
-x,1/2+y,1/2-z
-x,-y,-z
x,1/2-y,1/2+z
loop_
_atom_site_type_symbol
_atom_site_label
_atom_site_fract_x
_atom_site_fract_y
_atom_site_fract_z
Si Si1 0.637589 0.207397 0.098319
Si Si2 0.345357 0.097231 0.313891
Si Si3 0.952795 0.813505 0.988646
Si Si4 0.302153 0.788946 0.177286
Si Si5 0.116180 0.960532 0.296362
Si Si6 0.426051 0.482933 0.156010
Si Si7 0.199125 0.069974 0.013250
O O1 0.629082 0.449480 0.121018
O O2 0.569620 0.109724 0.244479
O O3 0.642326 0.157438 0.977191
O O4 0.735124 0.127342 0.043664
O O5 0.418737 0.252059 0.201102
O O6 0.264650 0.240036 0.428619
O O7 0.321426 0.952265 0.244824
O O8 0.908550 0.638029 0.101155
O O9 0.877564 0.917487 0.993884
O O10 0.030603 0.683319 0.857844
O O11 0.000000 0.000000 0.000000
O O12 0.197521 0.814363 0.254164
O O13 0.337070 0.571190 0.185745
O O14 0.151273 0.075543 0.165315
O O15 0.500000 0.500000 0.000000
#
# Coordination Sequence:
#
# PCOD9246659 Si02
#       7
#     4   4   4   4   4   4   4
#     4   9  22  40  64  94 123 167 213 249 319 386
#     4  10  21  41  69  86 127 163 205 260 316 373
#     4  11  25  38  62  90 127 166 215 268 322 365
#     4  10  21  42  65  92 129 169 210 259 316 397
#     4  10  24  41  60  95 124 167 218 255 327 375
#     4  10  23  42  64  99 125 160 210 261 326 379
#     4  10  22  41  62  91 124 165 215 260 313 383
#
# _framework density 21.396899999999999
#
# number of rings (size 3 to 8) (size 9 to 14) (size 15 to 20)
#    0.000    2.000    1.429    0.000    8.000    8.000 
#    5.143    0.000    0.000    0.000    0.000    0.000 
#    0.000    0.000    0.000    0.000    0.000    0.000 
#
# Total GULP energy -156248.039048 kJ/mol
# GULP energy per Si atom -5580.287109 kJ/mol
# Density = 2.134820 g / cm^3
# Si number density = 21.396900 Si / 1000 Ang^3
#
#
#
# Elastic Constant Matrix: (Units=GPa)
#
#
# Indices 1 2 3 4 5 6 
#
# 1 52.5121 15.3342 13.5508 0.0000 -7.7969 0.0000
# 2 15.3342 80.8429 24.7764 0.0000 -5.5343 0.0000
# 3 13.5508 24.7764 154.2141 0.0000 3.7992 0.0000
# 4 0.0000 0.0000 0.0000 20.8166 0.0000 9.8941
# 5 -7.7969 -5.5343 3.7992 0.0000 27.5300 0.0000
# 6 0.0000 0.0000 0.0000 9.8941 0.0000 17.7993
#
#
#
# Elastic Compliance Matrix: (Units=1/GPa)
#
#
# Indices 1 2 3 4 5 6 
#
# 1 0.021182 -0.003181 -0.001487 0.000000 0.005565 0.000000
# 2 -0.003181 0.013725 -0.001978 0.000000 0.002131 0.000000
# 3 -0.001487 -0.001978 0.006977 0.000000 -0.001782 0.000000
# 4 0.000000 0.000000 0.000000 0.065288 0.000000 -0.036292
# 5 0.005565 0.002131 -0.001782 0.000000 0.038574 0.000000
# 6 0.000000 0.000000 0.000000 -0.036292 0.000000 0.076356
#
#
# Mechanical properties :
#
#
# Convention : Reuss Voigt Hill
#
# Bulk Modulus (GPa) = 34.97557 43.87687 39.42622
# Shear Modulus (GPa) = 20.41437 28.82301 24.61869
#
# Velocity S-wave (km/s) = 3.09217 3.67422 3.39569
# Velocity P-wave (km/s) = 5.39725 6.20891 5.81725
#
# Compressibility (1/GPa) = 0.02859138
#
# Stress axis : x y z
#
# Youngs Moduli (GPa) = 47.20941 72.85880 143.33051
#
# Poissons Ratio (x) = 0.23177 0.21318
# Poissons Ratio (y) = 0.15017 0.28352
# Poissons Ratio (z) = 0.07021 0.14412
#
# Static dielectric constant tensor:
#      x y z
#    x 1.824790 0.000000 -0.031040 
#    y 0.000000 1.775620 0.000000 
#    z -0.031040 0.000000 1.790070 
# 
# From -- ./inp_files/51707.got.cif
#   From: 2010.05.17/outbox.cif.g08.bks.cpg/sg14_26_cif.got.tgz:51707.got - 2010.06.03 17:49:19.
