data_PCOD9246871
_publ_section_title
;
Structure prediction by ZEFSAII (Michael W. Deem and Ramdas Pophale) SiO2 
 PCOD9246871
Probable space group: P 21/C
;
_chemical_formula_sum "Si O2"
_cell_formula_units_Z 32
_cell_length_a 15.822532
_cell_length_b 11.865688
_cell_length_c 14.729126
_cell_angle_alpha 90.000000
_cell_angle_beta 31.032579
_cell_angle_gamma 90.000000
_cell_volume 1425.594270
_symmetry_space_group_name_H-M "P 21/C"
_symmetry_group_IT_number 14
_symmetry_cell_setting 'monoclinic'
loop_
_space_group_symop_operation_xyz
x,y,z
-x,1/2+y,1/2-z
-x,-y,-z
x,1/2-y,1/2+z
loop_
_atom_site_type_symbol
_atom_site_label
_atom_site_fract_x
_atom_site_fract_y
_atom_site_fract_z
Si Si1 0.114617 0.352318 0.460773
Si Si2 0.484627 0.387887 0.072226
Si Si3 0.018611 0.424976 0.344534
Si Si4 0.530501 0.958262 0.850740
Si Si5 0.296398 0.981160 0.478413
Si Si6 0.113013 0.387593 0.901586
Si Si7 0.103807 0.696978 0.034211
Si Si8 0.613070 0.326830 0.368267
O O1 0.309502 0.366694 0.277730
O O2 0.053398 0.391756 0.417254
O O3 0.074714 0.218860 0.504354
O O4 0.046559 0.446181 0.592415
O O5 0.617604 0.400463 0.028444
O O6 0.500000 0.500000 0.000000
O O7 0.522771 0.288405 0.968546
O O8 0.902746 0.322551 0.418993
O O9 0.183193 0.430277 0.134760
O O10 0.703195 0.921534 0.740041
O O11 0.569326 0.957394 0.708822
O O12 0.514378 0.087954 0.894664
O O13 0.389865 0.886892 0.029692
O O14 0.181902 0.901208 0.522214
O O15 0.077533 0.336050 0.834491
O O16 0.000000 0.500000 0.000000
O O17 0.217614 0.697123 0.838713
#
# Coordination Sequence:
#
# PCOD9246871 Si02
#       8
#     4   4   4   4   4   4   4   4
#     4  10  22  40  65  96 119 179 233 256 342 411
#     4  12  23  42  65  96 132 184 222 268 344 416
#     4  10  22  43  65  93 134 171 222 285 330 410
#     4  10  22  43  64  99 129 170 225 276 334 399
#     4  11  24  41  62 101 139 170 224 288 339 397
#     4  11  19  39  70  91 128 171 220 276 331 410
#     4  10  23  43  66 100 130 175 226 281 338 403
#     4  10  21  42  68  89 129 176 220 265 334 406
#
# _framework density 22.446781000000001
#
# number of rings (size 3 to 8) (size 9 to 14) (size 15 to 20)
#    0.000    1.500    5.000    0.750    3.500    1.000 
#    9.000    2.500    0.000    0.000    0.000    0.000 
#    0.000    0.000    0.000    0.000    0.000    0.000 
#
# Total GULP energy -178461.174252 kJ/mol
# GULP energy per Si atom -5576.911695 kJ/mol
# Density = 2.239569 g / cm^3
# Si number density = 22.446781 Si / 1000 Ang^3
#
#
#
# Elastic Constant Matrix: (Units=GPa)
#
#
# Indices 1 2 3 4 5 6 
#
# 1 34.0927 -5.6846 -15.8451 0.0000 -12.2047 0.0000
# 2 -5.6846 135.4691 33.2807 0.0000 5.1728 0.0000
# 3 -15.8451 33.2807 90.6028 0.0000 14.1085 0.0000
# 4 0.0000 0.0000 0.0000 27.9968 0.0000 -9.7433
# 5 -12.2047 5.1728 14.1085 0.0000 23.8522 0.0000
# 6 0.0000 0.0000 0.0000 -9.7433 0.0000 -0.2152
#
#
#
# Elastic Compliance Matrix: (Units=1/GPa)
#
#
# Indices 1 2 3 4 5 6 
#
# 1 0.037115 -0.000040 0.003907 0.000000 0.016689 0.000000
# 2 -0.000040 0.008114 -0.002985 0.000000 -0.000014 0.000000
# 3 0.003907 -0.002985 0.013663 0.000000 -0.005435 0.000000
# 4 0.000000 0.000000 0.000000 0.002132 0.000000 -0.096510
# 5 0.016689 -0.000014 -0.005435 0.000000 0.053682 0.000000
# 6 0.000000 0.000000 0.000000 -0.096510 0.000000 -0.277314
#
#
# Mechanical properties :
#
#
# Convention : Reuss Voigt Hill
#
# Bulk Modulus (GPa) = 16.48626 31.51849 24.00238
# Shear Modulus (GPa) = -34.68536 26.88769 -3.89883
#
# Velocity S-wave (km/s) = -3.93520 3.46474 -1.31935
# Velocity P-wave (km/s) = 3.64516 5.48432 2.89747
#
# Compressibility (1/GPa) = 0.06065656
#
# Stress axis : x y z
#
# Youngs Moduli (GPa) = 26.94306 123.24367 73.18853
#
# Poissons Ratio (x) = 0.00488 -0.28593
# Poissons Ratio (y) = 0.00107 0.21848
# Poissons Ratio (z) = -0.10526 0.36791
#
# Static dielectric constant tensor:
#      x y z
#    x 1.850460 0.000000 -0.015100 
#    y 0.000000 1.901820 0.000000 
#    z -0.015100 0.000000 1.817960 
# 
# From -- ./inp_files/49003.got.cif
#   From: 2010.05.17/outbox.cif.g08.bks.cpg/sg14_25_cif.got.tgz:49003.got - 2010.06.03 17:49:19.
