data_PCOD9246425
_publ_section_title
;
Structure prediction by ZEFSAII (Michael W. Deem and Ramdas Pophale) SiO2 
 PCOD9246425
Probable space group: P 21/C
;
_chemical_formula_sum "Si O2"
_cell_formula_units_Z 28
_cell_length_a 9.882387
_cell_length_b 12.442710
_cell_length_c 17.220687
_cell_angle_alpha 90.000000
_cell_angle_beta 29.960618
_cell_angle_gamma 90.000000
_cell_volume 1057.498763
_symmetry_space_group_name_H-M "P 21/C"
_symmetry_group_IT_number 14
_symmetry_cell_setting 'monoclinic'
loop_
_space_group_symop_operation_xyz
x,y,z
-x,1/2+y,1/2-z
-x,-y,-z
x,1/2-y,1/2+z
loop_
_atom_site_type_symbol
_atom_site_label
_atom_site_fract_x
_atom_site_fract_y
_atom_site_fract_z
Si Si1 0.379604 0.082729 0.624349
Si Si2 0.853684 0.660507 0.971502
Si Si3 0.711139 0.560014 0.653242
Si Si4 0.945854 0.238352 0.490283
Si Si5 0.563367 0.624264 0.268976
Si Si6 0.114817 0.965367 0.216109
Si Si7 0.378626 0.310985 0.543814
O O1 0.433011 0.205318 0.570180
O O2 0.057020 0.064622 0.774793
O O3 0.500000 0.000000 0.500000
O O4 0.425093 0.063408 0.692987
O O5 0.773379 0.756793 0.953688
O O6 0.112157 0.679749 0.899686
O O7 0.924144 0.559136 0.883730
O O8 0.611208 0.635298 0.151982
O O9 0.823652 0.679570 0.592843
O O10 0.528924 0.499105 0.679843
O O11 0.142756 0.158903 0.345041
O O12 0.000000 0.500000 0.500000
O O13 0.689970 0.299614 0.584201
O O14 0.208653 0.087350 0.160181
O O15 0.343534 0.873974 0.110195
#
# Coordination Sequence:
#
# PCOD9246425 Si02
#       7
#     4   4   4   4   4   4   4
#     4  11  25  41  67  97 131 175 212 270 331 391
#     4   9  19  36  64  83 126 164 216 255 335 384
#     4  10  21  41  61  93 127 169 216 260 322 392
#     4   9  20  37  62  88 121 166 209 266 316 387
#     4   9  19  37  61  89 118 167 211 260 317 395
#     4  10  22  39  61  95 126 171 212 280 316 396
#     4  10  22  39  60  94 129 165 221 268 328 382
#
# _framework density 26.477573
#
# number of rings (size 3 to 8) (size 9 to 14) (size 15 to 20)
#    0.857    1.429    0.000    2.571    8.000    0.000 
#    5.143    0.714    0.000    0.000    0.000    0.000 
#    0.000    0.000    0.000    0.000    0.000    0.000 
#
# Total GULP energy -156101.552243 kJ/mol
# GULP energy per Si atom -5575.055437 kJ/mol
# Density = 2.641731 g / cm^3
# Si number density = 26.477573 Si / 1000 Ang^3
#
#
#
# Elastic Constant Matrix: (Units=GPa)
#
#
# Indices 1 2 3 4 5 6 
#
# 1 57.9594 27.9105 29.2300 0.0000 10.3268 0.0000
# 2 27.9105 163.3901 55.2814 0.0000 -11.3723 0.0000
# 3 29.2300 55.2814 104.9110 0.0000 -7.3781 0.0000
# 4 0.0000 0.0000 0.0000 28.7851 0.0000 -18.7500
# 5 10.3268 -11.3723 -7.3781 0.0000 19.8855 0.0000
# 6 0.0000 0.0000 0.0000 -18.7500 0.0000 35.7651
#
#
#
# Elastic Compliance Matrix: (Units=1/GPa)
#
#
# Indices 1 2 3 4 5 6 
#
# 1 0.025239 -0.003322 -0.006506 0.000000 -0.017421 0.000000
# 2 -0.003322 0.008050 -0.002948 0.000000 0.005235 0.000000
# 3 -0.006506 -0.002948 0.013366 0.000000 0.006652 0.000000
# 4 0.000000 0.000000 0.000000 0.052755 0.000000 0.027657
# 5 -0.017421 0.005235 0.006652 0.000000 0.064797 0.000000
# 6 0.000000 0.000000 0.000000 0.027657 0.000000 0.042460
#
#
# Mechanical properties :
#
#
# Convention : Reuss Voigt Hill
#
# Bulk Modulus (GPa) = 47.39146 61.23381 54.31264
# Shear Modulus (GPa) = 20.89844 31.14306 26.02075
#
# Velocity S-wave (km/s) = 2.81248 3.43331 3.13828
# Velocity P-wave (km/s) = 5.33707 6.23648 5.80422
#
# Compressibility (1/GPa) = 0.02110085
#
# Stress axis : x y z
#
# Youngs Moduli (GPa) = 39.62186 124.22999 74.81797
#
# Poissons Ratio (x) = 0.41275 0.48679
# Poissons Ratio (y) = 0.13164 0.22054
# Poissons Ratio (z) = 0.25779 0.36620
#
# Static dielectric constant tensor:
#      x y z
#    x 2.170760 0.000000 -0.056730 
#    y 0.000000 2.186130 0.000000 
#    z -0.056730 0.000000 2.180290 
# 
# From -- ./inp_files/77551.got.cif
#   From: 2010.05.17/outbox.cif.g08.bks.cpg/sg14_39_cif.got.tgz:77551.got - 2010.06.03 17:49:19.
