data_PCOD9246266
_publ_section_title
;
Structure prediction by ZEFSAII (Michael W. Deem and Ramdas Pophale) SiO2 
 PCOD9246266
Probable space group: P 21/C
;
_chemical_formula_sum "Si O2"
_cell_formula_units_Z 28
_cell_length_a 18.455329
_cell_length_b 7.756579
_cell_length_c 13.456592
_cell_angle_alpha 90.000000
_cell_angle_beta 34.160980
_cell_angle_gamma 90.000000
_cell_volume 1081.663844
_symmetry_space_group_name_H-M "P 21/C"
_symmetry_group_IT_number 14
_symmetry_cell_setting 'monoclinic'
loop_
_space_group_symop_operation_xyz
x,y,z
-x,1/2+y,1/2-z
-x,-y,-z
x,1/2-y,1/2+z
loop_
_atom_site_type_symbol
_atom_site_label
_atom_site_fract_x
_atom_site_fract_y
_atom_site_fract_z
Si Si1 0.173054 0.037356 0.957734
Si Si2 0.747233 0.143435 0.587007
Si Si3 0.039903 0.776625 0.917215
Si Si4 0.436422 0.141631 0.671020
Si Si5 0.679804 0.331990 0.371100
Si Si6 0.516961 0.544159 0.254795
Si Si7 0.015001 0.072333 0.320365
O O1 0.055932 0.077616 0.016291
O O2 0.129258 0.108277 0.114675
O O3 0.302141 0.124130 0.770193
O O4 0.217063 0.842633 0.933251
O O5 0.720137 0.064510 0.727649
O O6 0.624224 0.099861 0.660614
O O7 0.885336 0.069131 0.400212
O O8 0.197352 0.785228 0.738820
O O9 0.023719 0.613050 0.861649
O O10 0.997251 0.706356 0.074671
O O11 0.558451 0.215537 0.475177
O O12 0.417948 0.279800 0.781776
O O13 0.482734 0.975445 0.679367
O O14 0.615832 0.449142 0.529316
#
# Coordination Sequence:
#
# PCOD9246266 Si02
#       7
#     4   4   4   4   4   4   4
#     4  12  24  41  66 103 137 178 231 280 344 410
#     4  11  23  42  68  98 134 179 225 283 340 405
#     4  10  22  45  66  94 136 177 229 285 342 408
#     4  10  23  40  63  99 130 176 223 269 341 400
#     4   9  23  42  67  94 131 174 226 275 343 398
#     4  10  21  40  66  94 134 175 223 278 335 403
#     4  10  23  40  67  94 129 184 228 277 343 409
#
# _framework density 25.886044999999999
#
# number of rings (size 3 to 8) (size 9 to 14) (size 15 to 20)
#    0.857    0.857    0.000    3.857    4.000    2.857 
#    5.143    0.000    0.000    0.000    0.000    0.000 
#    0.000    0.000    0.000    0.000    0.000    0.000 
#
# Total GULP energy -156403.017773 kJ/mol
# GULP energy per Si atom -5585.822063 kJ/mol
# Density = 2.582713 g / cm^3
# Si number density = 25.886045 Si / 1000 Ang^3
#
#
#
# Elastic Constant Matrix: (Units=GPa)
#
#
# Indices 1 2 3 4 5 6 
#
# 1 135.1955 34.0355 45.8819 0.0000 -41.3338 0.0000
# 2 34.0355 71.6942 31.0088 0.0000 -16.7017 0.0000
# 3 45.8819 31.0088 128.9604 0.0000 -34.5002 0.0000
# 4 0.0000 0.0000 0.0000 23.5569 0.0000 -12.5728
# 5 -41.3338 -16.7017 -34.5002 0.0000 49.6359 0.0000
# 6 0.0000 0.0000 0.0000 -12.5728 0.0000 35.0677
#
#
#
# Elastic Compliance Matrix: (Units=1/GPa)
#
#
# Indices 1 2 3 4 5 6 
#
# 1 0.010710 -0.002906 -0.001213 0.000000 0.007098 0.000000
# 2 -0.002906 0.016791 -0.002628 0.000000 0.001403 0.000000
# 3 -0.001213 -0.002628 0.010209 0.000000 0.005202 0.000000
# 4 0.000000 0.000000 0.000000 0.052496 0.000000 0.018821
# 5 0.007098 0.001403 0.005202 0.000000 0.030145 0.000000
# 6 0.000000 0.000000 0.000000 0.018821 0.000000 0.035264
#
#
# Mechanical properties :
#
#
# Convention : Reuss Voigt Hill
#
# Bulk Modulus (GPa) = 41.29455 61.96693 51.63074
# Shear Modulus (GPa) = 28.21949 36.64703 32.43326
#
# Velocity S-wave (km/s) = 3.30531 3.76667 3.54351
# Velocity P-wave (km/s) = 5.52755 6.55037 6.06058
#
# Compressibility (1/GPa) = 0.02421627
#
# Stress axis : x y z
#
# Youngs Moduli (GPa) = 93.37105 59.55420 97.94903
#
# Poissons Ratio (x) = 0.17309 0.11879
# Poissons Ratio (y) = 0.27137 0.25742
# Poissons Ratio (z) = 0.11324 0.15652
#
# Static dielectric constant tensor:
#      x y z
#    x 2.066730 0.000000 -0.013760 
#    y 0.000000 2.130730 0.000000 
#    z -0.013760 0.000000 1.985200 
# 
# From -- ./inp_files/48552.got.cif
#   From: 2010.05.17/outbox.cif.g08.bks.cpg/sg14_25_cif.got.tgz:48552.got - 2010.06.03 17:49:19.
