data_PCOD9246543
_publ_section_title
;
Structure prediction by ZEFSAII (Michael W. Deem and Ramdas Pophale) SiO2 
 PCOD9246543
Probable space group: P 21/C
;
_chemical_formula_sum "Si O2"
_cell_formula_units_Z 32
_cell_length_a 11.891415
_cell_length_b 15.891822
_cell_length_c 14.833923
_cell_angle_alpha 90.000000
_cell_angle_beta 148.461424
_cell_angle_gamma 90.000000
_cell_volume 1466.307800
_symmetry_space_group_name_H-M "P 21/C"
_symmetry_group_IT_number 14
_symmetry_cell_setting 'monoclinic'
loop_
_space_group_symop_operation_xyz
x,y,z
-x,1/2+y,1/2-z
-x,-y,-z
x,1/2-y,1/2+z
loop_
_atom_site_type_symbol
_atom_site_label
_atom_site_fract_x
_atom_site_fract_y
_atom_site_fract_z
Si Si1 0.514472 0.392342 0.198563
Si Si2 0.462010 0.216124 0.477742
Si Si3 0.911861 0.843773 0.313978
Si Si4 0.061240 0.338097 0.964327
Si Si5 0.357186 0.044515 0.325235
Si Si6 0.087160 0.748746 0.289963
Si Si7 0.247353 0.978308 0.830205
Si Si8 0.092590 0.588264 0.409360
O O1 0.566180 0.489400 0.206629
O O2 0.721283 0.373470 0.401028
O O3 0.500397 0.332633 0.099505
O O4 0.291006 0.381688 0.099665
O O5 0.290694 0.291028 0.361761
O O6 0.401946 0.143327 0.364838
O O7 0.674913 0.258495 0.584763
O O8 0.965553 0.813867 0.450581
O O9 0.864663 0.941019 0.288849
O O10 0.082798 0.827583 0.352666
O O11 0.055245 0.255406 0.896889
O O12 0.867332 0.399828 0.799311
O O13 0.101973 0.041266 0.173113
O O14 0.500000 0.000000 0.500000
O O15 0.009012 0.669139 0.296005
O O16 0.188829 0.969081 0.895876
O O17 0.500000 0.000000 0.000000
#
# Coordination Sequence:
#
# PCOD9246543 Si02
#       8
#     4   4   4   4   4   4   4   4
#     4  11  23  42  71  95 134 187 229 284 357 416
#     4  11  23  42  65  98 137 173 230 292 344 416
#     4  12  24  44  69 101 136 180 231 281 353 418
#     4  11  24  47  70  97 143 185 227 287 356 417
#     4  10  21  41  65  93 130 181 231 281 349 411
#     4  11  24  41  66  99 135 173 222 293 345 412
#     4  11  24  44  66  96 140 185 231 281 343 425
#     4  11  23  45  64  99 139 176 228 297 343 414
#
# _framework density 21.823522000000001
#
# number of rings (size 3 to 8) (size 9 to 14) (size 15 to 20)
#    0.000    1.000    2.500    6.000    7.000    0.000 
#    2.250    0.000    0.000    0.000    0.000    0.000 
#    0.000    0.000    0.000    0.000    0.000    0.000 
#
# Total GULP energy -178487.275437 kJ/mol
# GULP energy per Si atom -5577.727357 kJ/mol
# Density = 2.177385 g / cm^3
# Si number density = 21.823522 Si / 1000 Ang^3
#
#
#
# Elastic Constant Matrix: (Units=GPa)
#
#
# Indices 1 2 3 4 5 6 
#
# 1 78.0361 12.2835 49.8982 0.0000 2.3319 0.0000
# 2 12.2835 38.6975 -2.4835 0.0000 -2.2158 0.0000
# 3 49.8982 -2.4835 103.5584 0.0000 0.2736 0.0000
# 4 0.0000 0.0000 0.0000 27.4938 0.0000 3.4042
# 5 2.3319 -2.2158 0.2736 0.0000 50.6276 0.0000
# 6 0.0000 0.0000 0.0000 3.4042 0.0000 28.8830
#
#
#
# Elastic Compliance Matrix: (Units=1/GPa)
#
#
# Indices 1 2 3 4 5 6 
#
# 1 0.020360 -0.007172 -0.009979 0.000000 -0.001198 0.000000
# 2 -0.007172 0.028472 0.004134 0.000000 0.001554 0.000000
# 3 -0.009979 0.004134 0.014562 0.000000 0.000562 0.000000
# 4 0.000000 0.000000 0.000000 0.036910 0.000000 -0.004350
# 5 -0.001198 0.001554 0.000562 0.000000 0.019872 0.000000
# 6 0.000000 0.000000 0.000000 -0.004350 0.000000 0.035135
#
#
# Mechanical properties :
#
#
# Convention : Reuss Voigt Hill
#
# Bulk Modulus (GPa) = 26.76540 37.74314 32.25427
# Shear Modulus (GPa) = 25.79986 32.10715 28.95350
#
# Velocity S-wave (km/s) = 3.44205 3.83981 3.64636
# Velocity P-wave (km/s) = 5.29982 6.08203 5.70435
#
# Compressibility (1/GPa) = 0.03736167
#
# Stress axis : x y z
#
# Youngs Moduli (GPa) = 49.11560 35.12190 68.67033
#
# Poissons Ratio (x) = 0.25189 0.68527
# Poissons Ratio (y) = 0.35225 -0.28391
# Poissons Ratio (z) = 0.49013 -0.14521
#
# Static dielectric constant tensor:
#      x y z
#    x 1.863100 0.000000 0.003390 
#    y 0.000000 1.853900 0.000000 
#    z 0.003390 0.000000 1.870490 
# 
# From -- ./inp_files/45452.got.cif
#   From: 2010.05.17/outbox.cif.g08.bks.cpg/sg14_23_cif.got.tgz:45452.got - 2010.06.03 17:49:19.
