data_PCOD9246362
_publ_section_title
;
Structure prediction by ZEFSAII (Michael W. Deem and Ramdas Pophale) SiO2 
 PCOD9246362
Probable space group: P 21/C
;
_chemical_formula_sum "Si O2"
_cell_formula_units_Z 26
_cell_length_a 31.631191
_cell_length_b 4.690133
_cell_length_c 21.132625
_cell_angle_alpha 90.000000
_cell_angle_beta 17.738648
_cell_angle_gamma 90.000000
_cell_volume 955.194510
_symmetry_space_group_name_H-M "P 21/C"
_symmetry_group_IT_number 14
_symmetry_cell_setting 'monoclinic'
loop_
_space_group_symop_operation_xyz
x,y,z
-x,1/2+y,1/2-z
-x,-y,-z
x,1/2-y,1/2+z
loop_
_atom_site_type_symbol
_atom_site_label
_atom_site_fract_x
_atom_site_fract_y
_atom_site_fract_z
Si Si1 0.479948 0.887914 0.239374
Si Si2 0.362039 0.691101 0.647027
Si Si3 0.000000 0.000000 0.500000
Si Si4 0.771518 0.385129 0.276686
Si Si5 0.063233 0.020375 0.695875
Si Si6 0.847509 0.028207 0.294423
Si Si7 0.661183 0.686186 0.735504
O O1 0.504390 0.050874 0.271910
O O2 0.320140 0.962923 0.452097
O O3 0.621088 0.985102 0.003997
O O4 0.254839 0.792851 0.747675
O O5 0.345771 0.362380 0.688499
O O6 0.519586 0.744945 0.401619
O O7 0.345241 0.859395 0.736341
O O8 0.107006 0.107124 0.404783
O O9 0.912705 0.762745 0.675887
O O10 0.850038 0.241084 0.227114
O O11 0.075691 0.905186 0.749337
O O12 0.203801 0.202695 0.489565
O O13 0.952266 0.258691 0.831323
#
# Coordination Sequence:
#
# PCOD9246362 Si02
#       7
#     4   4   2   4   4   4   4
#     4  10  21  40  70 105 147 193 243 298 374 447
#     4  10  21  42  73 100 145 181 243 304 372 423
#     4   8  20  44  74 114 152 188 240 318 376 450
#     4   9  20  40  74 110 146 193 234 317 372 440
#     4  12  27  46  72 101 147 203 247 302 366 447
#     4   9  22  44  72 110 149 192 252 304 373 453
#     4  10  23  42  67 107 137 191 244 299 350 450
#
# _framework density 27.219588000000002
#
# number of rings (size 3 to 8) (size 9 to 14) (size 15 to 20)
#    0.923    1.231    0.000    1.846    2.154    4.923 
#    0.000   11.538    0.000    0.923    0.000    0.000 
#    0.000    0.000    0.000    0.000    0.000    0.000 
#
# Total GULP energy -144849.181860 kJ/mol
# GULP energy per Si atom -5571.122379 kJ/mol
# Density = 2.715764 g / cm^3
# Si number density = 27.219588 Si / 1000 Ang^3
#
#
#
# Elastic Constant Matrix: (Units=GPa)
#
#
# Indices 1 2 3 4 5 6 
#
# 1 167.5273 39.1536 57.1942 0.0000 -40.5256 0.0000
# 2 39.1536 73.0366 8.9042 0.0000 -3.1819 0.0000
# 3 57.1942 8.9042 169.8212 0.0000 -21.6742 0.0000
# 4 0.0000 0.0000 0.0000 39.0202 0.0000 5.0382
# 5 -40.5256 -3.1819 -21.6742 0.0000 40.9478 0.0000
# 6 0.0000 0.0000 0.0000 5.0382 0.0000 28.9726
#
#
#
# Elastic Compliance Matrix: (Units=1/GPa)
#
#
# Indices 1 2 3 4 5 6 
#
# 1 0.009705 -0.004604 -0.001981 0.000000 0.008198 0.000000
# 2 -0.004604 0.015985 0.000310 0.000000 -0.003150 0.000000
# 3 -0.001981 0.000310 0.006748 0.000000 0.001636 0.000000
# 4 0.000000 0.000000 0.000000 0.026216 0.000000 -0.004559
# 5 0.008198 -0.003150 0.001636 0.000000 0.033156 0.000000
# 6 0.000000 0.000000 0.000000 -0.004559 0.000000 0.035308
#
#
# Mechanical properties :
#
#
# Convention : Reuss Voigt Hill
#
# Bulk Modulus (GPa) = 50.27853 68.98766 59.63309
# Shear Modulus (GPa) = 34.17726 42.13033 38.15379
#
# Velocity S-wave (km/s) = 3.54731 3.93847 3.74799
# Velocity P-wave (km/s) = 5.94049 6.78837 6.37853
#
# Compressibility (1/GPa) = 0.01988921
#
# Stress axis : x y z
#
# Youngs Moduli (GPa) = 103.04410 62.55975 148.18962
#
# Poissons Ratio (x) = 0.28801 0.29351
# Poissons Ratio (y) = 0.47440 -0.04599
# Poissons Ratio (z) = 0.20410 -0.01942
#
# Static dielectric constant tensor:
#      x y z
#    x 2.147020 0.000000 0.067050 
#    y 0.000000 2.161660 0.000000 
#    z 0.067050 0.000000 2.205230 
# 
# From -- ./inp_files/70622.got.cif
#   From: 2010.05.17/outbox.cif.g08.bks.cpg/sg14_36_cif.got.tgz:70622.got - 2010.06.03 17:49:19.
