data_PCOD9246193
_publ_section_title
;
Structure prediction by ZEFSAII (Michael W. Deem and Ramdas Pophale) SiO2 
 PCOD9246193
Probable space group: P 21/C
;
_chemical_formula_sum "Si O2"
_cell_formula_units_Z 20
_cell_length_a 16.057288
_cell_length_b 8.650913
_cell_length_c 9.566149
_cell_angle_alpha 90.000000
_cell_angle_beta 138.346777
_cell_angle_gamma 90.000000
_cell_volume 883.171528
_symmetry_space_group_name_H-M "P 21/C"
_symmetry_group_IT_number 14
_symmetry_cell_setting 'monoclinic'
loop_
_space_group_symop_operation_xyz
x,y,z
-x,1/2+y,1/2-z
-x,-y,-z
x,1/2-y,1/2+z
loop_
_atom_site_type_symbol
_atom_site_label
_atom_site_fract_x
_atom_site_fract_y
_atom_site_fract_z
Si Si1 0.220761 0.353384 0.135967
Si Si2 0.550017 0.628729 0.171218
Si Si3 0.403542 0.567207 0.491922
Si Si4 0.009518 0.566594 0.357333
Si Si5 0.949816 0.868180 0.336601
O O1 0.330876 0.265494 0.728547
O O2 0.275335 0.516476 0.259376
O O3 0.152414 0.290253 0.189945
O O4 0.121192 0.396025 0.889863
O O5 0.583829 0.533313 0.352028
O O6 0.500000 0.500000 0.000000
O O7 0.440232 0.755171 0.061558
O O8 0.500000 0.500000 0.500000
O O9 0.054718 0.742016 0.430351
O O10 0.000000 0.500000 0.500000
O O11 0.086542 0.454336 0.352092
O O12 0.000000 0.000000 0.500000
#
# Coordination Sequence:
#
# PCOD9246193 Si02
#       5
#     4   4   4   4   4
#     4  10  22  42  67  95 132 178 221 273 341 404
#     4  11  23  43  68  96 134 178 223 280 341 408
#     4  10  21  40  64  96 132 168 219 276 335 406
#     4  11  22  41  67  95 131 174 223 278 333 397
#     4  10  22  42  64  92 131 174 223 277 334 399
#
# _framework density 22.645658000000001
#
# number of rings (size 3 to 8) (size 9 to 14) (size 15 to 20)
#    0.000    1.600    0.000    6.000    0.000    1.600 
#    0.000   36.000    0.000    0.000    0.000    0.000 
#    0.000    0.000    0.000    0.000    0.000    0.000 
#
# Total GULP energy -111493.875099 kJ/mol
# GULP energy per Si atom -5574.693755 kJ/mol
# Density = 2.259412 g / cm^3
# Si number density = 22.645658 Si / 1000 Ang^3
#
#
#
# Elastic Constant Matrix: (Units=GPa)
#
#
# Indices 1 2 3 4 5 6 
#
# 1 106.7909 48.9854 64.7677 0.0000 -28.2614 0.0000
# 2 48.9854 174.1040 64.1964 0.0000 -7.8799 0.0000
# 3 64.7677 64.1964 159.5233 0.0000 -22.3397 0.0000
# 4 0.0000 0.0000 0.0000 46.0460 0.0000 -7.8698
# 5 -28.2614 -7.8799 -22.3397 0.0000 45.9056 0.0000
# 6 0.0000 0.0000 0.0000 -7.8698 0.0000 49.1767
#
#
#
# Elastic Compliance Matrix: (Units=1/GPa)
#
#
# Indices 1 2 3 4 5 6 
#
# 1 0.014666 -0.002317 -0.004092 0.000000 0.006640 0.000000
# 2 -0.002317 0.007112 -0.002093 0.000000 -0.001224 0.000000
# 3 -0.004092 -0.002093 0.008981 0.000000 0.001492 0.000000
# 4 0.000000 0.000000 0.000000 0.022328 0.000000 0.003573
# 5 0.006640 -0.001224 0.001492 0.000000 0.026388 0.000000
# 6 0.000000 0.000000 0.000000 0.003573 0.000000 0.020907
#
#
# Mechanical properties :
#
#
# Convention : Reuss Voigt Hill
#
# Bulk Modulus (GPa) = 72.69949 88.47970 80.58960
# Shear Modulus (GPa) = 40.99357 45.72356 43.35856
#
# Velocity S-wave (km/s) = 4.25928 4.49830 4.38042
# Velocity P-wave (km/s) = 7.50742 8.13239 7.82615
#
# Compressibility (1/GPa) = 0.01375526
#
# Stress axis : x y z
#
# Youngs Moduli (GPa) = 68.18500 140.61111 111.34273
#
# Poissons Ratio (x) = 0.32579 0.45564
# Poissons Ratio (y) = 0.15798 0.23301
# Poissons Ratio (z) = 0.27903 0.29426
#
# Static dielectric constant tensor:
#      x y z
#    x 1.985340 0.000000 0.043200 
#    y 0.000000 1.891040 0.000000 
#    z 0.043200 0.000000 1.920450 
# 
# From -- ./inp_files/18667.got.cif
#   From: 2010.05.17/outbox.cif.g08.bks.cpg/sg14_10_cif.got.tgz:18667.got - 2010.06.03 17:49:19.
