data_PCOD9246273
_publ_section_title
;
Structure prediction by ZEFSAII (Michael W. Deem and Ramdas Pophale) SiO2 
 PCOD9246273
Probable space group: P 21/C
;
_chemical_formula_sum "Si O2"
_cell_formula_units_Z 18
_cell_length_a 18.552545
_cell_length_b 7.187019
_cell_length_c 13.981672
_cell_angle_alpha 90.000000
_cell_angle_beta 19.770398
_cell_angle_gamma 90.000000
_cell_volume 630.596375
_symmetry_space_group_name_H-M "P 21/C"
_symmetry_group_IT_number 14
_symmetry_cell_setting 'monoclinic'
loop_
_space_group_symop_operation_xyz
x,y,z
-x,1/2+y,1/2-z
-x,-y,-z
x,1/2-y,1/2+z
loop_
_atom_site_type_symbol
_atom_site_label
_atom_site_fract_x
_atom_site_fract_y
_atom_site_fract_z
Si Si1 0.199326 0.910575 0.035616
Si Si2 0.811289 0.829327 0.379948
Si Si3 0.513411 0.655711 0.405362
Si Si4 0.062019 0.718338 0.902906
Si Si5 0.500000 0.500000 0.000000
O O1 0.135463 0.769163 0.201542
O O2 0.002972 0.896786 0.207763
O O3 0.209777 0.108545 0.075333
O O4 0.410912 0.884823 0.708688
O O5 0.599832 0.908134 0.695014
O O6 0.885439 0.841069 0.177869
O O7 0.500000 0.500000 0.500000
O O8 0.285601 0.757661 0.679507
O O9 0.648377 0.822748 0.281766
O O10 0.000000 0.500000 0.000000
#
# Coordination Sequence:
#
# PCOD9246273 Si02
#       5
#     4   4   4   4   2
#     4  10  21  42  65  93 139 173 227 291 339 418
#     4  10  21  40  66  96 129 183 223 280 359 405
#     4  11  22  42  70  97 136 184 227 281 351 410
#     4  10  21  42  67  95 138 179 228 291 346 412
#     4  10  22  42  64  96 132 180 224 276 338 416
#
# _framework density 28.544409999999999
#
# number of rings (size 3 to 8) (size 9 to 14) (size 15 to 20)
#    0.000    1.778    2.222    2.667    0.000    0.000 
#   20.000    1.111    0.000    0.000    0.000    0.000 
#    0.000    0.000    0.000    0.000    0.000    0.000 
#
# Total GULP energy -100266.773674 kJ/mol
# GULP energy per Si atom -5570.376315 kJ/mol
# Density = 2.847944 g / cm^3
# Si number density = 28.544410 Si / 1000 Ang^3
#
#
#
# Elastic Constant Matrix: (Units=GPa)
#
#
# Indices 1 2 3 4 5 6 
#
# 1 131.6841 29.0093 76.4924 0.0000 47.3161 0.0000
# 2 29.0093 79.1656 38.5761 0.0000 42.6354 0.0000
# 3 76.4924 38.5761 229.0152 0.0000 62.8170 0.0000
# 4 0.0000 0.0000 0.0000 49.1689 0.0000 20.0006
# 5 47.3161 42.6354 62.8170 0.0000 80.4038 0.0000
# 6 0.0000 0.0000 0.0000 20.0006 0.0000 27.5991
#
#
#
# Elastic Compliance Matrix: (Units=1/GPa)
#
#
# Indices 1 2 3 4 5 6 
#
# 1 0.010524 -0.000515 -0.002297 0.000000 -0.004126 0.000000
# 2 -0.000515 0.017755 -0.000406 0.000000 -0.008794 0.000000
# 3 -0.002297 -0.000406 0.006074 0.000000 -0.003178 0.000000
# 4 0.000000 0.000000 0.000000 0.028839 0.000000 -0.020899
# 5 -0.004126 -0.008794 -0.003178 0.000000 0.022011 0.000000
# 6 0.000000 0.000000 0.000000 -0.020899 0.000000 0.051378
#
#
# Mechanical properties :
#
#
# Convention : Reuss Voigt Hill
#
# Bulk Modulus (GPa) = 35.82238 80.89117 58.35677
# Shear Modulus (GPa) = 32.82486 51.15349 41.98917
#
# Velocity S-wave (km/s) = 3.39478 4.23787 3.83954
# Velocity P-wave (km/s) = 5.28611 7.23508 6.33598
#
# Compressibility (1/GPa) = 0.02791551
#
# Stress axis : x y z
#
# Youngs Moduli (GPa) = 95.02175 56.32316 164.64036
#
# Poissons Ratio (x) = 0.02903 0.37812
# Poissons Ratio (y) = 0.04898 0.06691
# Poissons Ratio (z) = 0.21823 0.02289
#
# Static dielectric constant tensor:
#      x y z
#    x 2.039240 0.000000 0.111760 
#    y 0.000000 2.473610 0.000000 
#    z 0.111760 0.000000 2.245800 
# 
# From -- ./inp_files/38577.got.cif
#   From: 2010.05.17/outbox.cif.g08.bks.cpg/sg14_20_cif.got.tgz:38577.got - 2010.06.03 17:49:19.
