data_PCOD9246024
_publ_section_title
;
Structure prediction by ZEFSAII (Michael W. Deem and Ramdas Pophale) SiO2 
 PCOD9246024
Probable space group: P 21/C
;
_chemical_formula_sum "Si O2"
_cell_formula_units_Z 20
_cell_length_a 7.629436
_cell_length_b 18.741078
_cell_length_c 5.566076
_cell_angle_alpha 90.000000
_cell_angle_beta 110.445496
_cell_angle_gamma 90.000000
_cell_volume 745.723794
_symmetry_space_group_name_H-M "P 21/C"
_symmetry_group_IT_number 14
_symmetry_cell_setting 'monoclinic'
loop_
_space_group_symop_operation_xyz
x,y,z
-x,1/2+y,1/2-z
-x,-y,-z
x,1/2-y,1/2+z
loop_
_atom_site_type_symbol
_atom_site_label
_atom_site_fract_x
_atom_site_fract_y
_atom_site_fract_z
Si Si1 0.940923 0.080124 0.894620
Si Si2 0.670018 0.906652 0.106468
Si Si3 0.247814 0.281951 0.080200
Si Si4 0.823266 0.272174 0.462252
Si Si5 0.626928 0.044944 0.371503
O O1 0.848792 0.142163 0.012096
O O2 0.804639 0.072234 0.601694
O O3 0.139190 0.115461 0.929152
O O4 0.000000 0.000000 0.000000
O O5 0.673905 0.861559 0.350729
O O6 0.688370 0.988390 0.197436
O O7 0.502288 0.901082 0.839344
O O8 0.314151 0.246483 0.358840
O O9 0.022289 0.269106 0.999937
O O10 0.732816 0.238927 0.656282
O O11 0.500000 0.000000 0.500000
#
# Coordination Sequence:
#
# PCOD9246024 Si02
#       5
#     4   4   4   4   4
#     4  12  24  42  76 102 136 193 234 294 365 418
#     4  11  24  45  69  99 140 186 232 297 351 426
#     4  10  21  39  72  98 133 184 239 284 353 427
#     4  10  22  41  68 104 138 177 242 294 347 435
#     4  11  26  43  65 106 141 175 242 291 352 428
#
# _framework density 26.819580999999999
#
# number of rings (size 3 to 8) (size 9 to 14) (size 15 to 20)
#    0.000    1.200    6.000    0.600    8.400    1.600 
#    0.000    2.000    0.000    0.000    0.000    0.000 
#    0.000    0.000    0.000    0.000    0.000    0.000 
#
# Total GULP energy -111868.509655 kJ/mol
# GULP energy per Si atom -5593.425483 kJ/mol
# Density = 2.675854 g / cm^3
# Si number density = 26.819581 Si / 1000 Ang^3
#
#
#
# Elastic Constant Matrix: (Units=GPa)
#
#
# Indices 1 2 3 4 5 6 
#
# 1 81.9830 -5.3669 54.1646 0.0000 16.1665 0.0000
# 2 -5.3669 110.0584 42.4485 0.0000 3.7673 0.0000
# 3 54.1646 42.4485 164.4316 0.0000 20.6358 0.0000
# 4 0.0000 0.0000 0.0000 58.1208 0.0000 -12.2265
# 5 16.1665 3.7673 20.6358 0.0000 59.4217 0.0000
# 6 0.0000 0.0000 0.0000 -12.2265 0.0000 20.5200
#
#
#
# Elastic Compliance Matrix: (Units=1/GPa)
#
#
# Indices 1 2 3 4 5 6 
#
# 1 0.016973 0.003271 -0.006096 0.000000 -0.002708 0.000000
# 2 0.003271 0.010726 -0.003816 0.000000 -0.000245 0.000000
# 3 -0.006096 -0.003816 0.009239 0.000000 -0.001308 0.000000
# 4 0.000000 0.000000 0.000000 0.019671 0.000000 0.011721
# 5 -0.002708 -0.000245 -0.001308 0.000000 0.018035 0.000000
# 6 0.000000 0.000000 0.000000 0.011721 0.000000 0.055717
#
#
# Mechanical properties :
#
#
# Convention : Reuss Voigt Hill
#
# Bulk Modulus (GPa) = 42.26979 59.88504 51.07741
# Shear Modulus (GPa) = 32.99746 45.29427 39.14587
#
# Velocity S-wave (km/s) = 3.51144 4.11402 3.82462
# Velocity P-wave (km/s) = 5.67761 6.70404 6.21206
#
# Compressibility (1/GPa) = 0.02365756
#
# Stress axis : x y z
#
# Youngs Moduli (GPa) = 58.91648 93.23398 108.24009
#
# Poissons Ratio (x) = -0.30501 0.65980
# Poissons Ratio (y) = -0.19274 0.41302
# Poissons Ratio (z) = 0.35914 0.35576
#
# Static dielectric constant tensor:
#      x y z
#    x 2.089640 0.000000 -0.009230 
#    y 0.000000 2.165530 0.000000 
#    z -0.009230 0.000000 2.161250 
# 
# From -- ./inp_files/1184.got.cif
#   From: 2010.05.17/outbox.cif.g08.bks.cpg/sg14_1_cif.got.tgz:1184.got - 2010.06.03 17:49:19.
