data_PCOD9246958
_publ_section_title
;
Structure prediction by ZEFSAII (Michael W. Deem and Ramdas Pophale) SiO2 
 PCOD9246958
Probable space group: P 21/C
;
_chemical_formula_sum "Si O2"
_cell_formula_units_Z 32
_cell_length_a 18.184396
_cell_length_b 15.375087
_cell_length_c 13.506066
_cell_angle_alpha 90.000000
_cell_angle_beta 157.004884
_cell_angle_gamma 90.000000
_cell_volume 1475.149775
_symmetry_space_group_name_H-M "P 21/C"
_symmetry_group_IT_number 14
_symmetry_cell_setting 'monoclinic'
loop_
_space_group_symop_operation_xyz
x,y,z
-x,1/2+y,1/2-z
-x,-y,-z
x,1/2-y,1/2+z
loop_
_atom_site_type_symbol
_atom_site_label
_atom_site_fract_x
_atom_site_fract_y
_atom_site_fract_z
Si Si1 0.153112 0.013892 0.921349
Si Si2 0.740259 0.287158 0.170952
Si Si3 0.721662 0.484421 0.858520
Si Si4 0.827402 0.186854 0.004843
Si Si5 0.580730 0.741246 0.499701
Si Si6 0.548675 0.377336 0.478234
Si Si7 0.919605 0.812982 0.046467
Si Si8 0.527303 0.606306 0.283923
O O1 0.148286 0.098576 0.986029
O O2 0.942647 0.017880 0.619588
O O3 0.328970 0.030299 0.066431
O O4 0.162555 0.917208 0.976439
O O5 0.821683 0.288756 0.382041
O O6 0.675545 0.187120 0.071320
O O7 0.898625 0.323364 0.296093
O O8 0.564486 0.349915 0.927191
O O9 0.655594 0.455367 0.666658
O O10 0.640622 0.577396 0.793675
O O11 0.631774 0.422980 0.832994
O O12 0.613379 0.212005 0.773324
O O13 0.994279 0.240068 0.268966
O O14 0.515967 0.682592 0.511542
O O15 0.640677 0.681382 0.482305
O O16 0.754199 0.789615 0.764480
#
# Coordination Sequence:
#
# PCOD9246958 Si02
#       8
#     4   4   4   4   4   4   4   4
#     4  12  25  43  72 105 144 188 241 291 352 434
#     4  11  23  45  71  97 143 193 229 292 358 425
#     4  10  21  43  62 102 140 173 237 300 350 419
#     4  11  26  48  70 105 142 186 243 295 356 434
#     4  10  22  44  67  99 139 183 239 294 352 425
#     4   9  20  40  67  91 136 184 227 300 358 403
#     4  12  25  45  70 105 141 190 246 291 358 431
#     4  11  24  42  70 101 140 190 231 300 356 418
#
# _framework density 21.692713999999999
#
# number of rings (size 3 to 8) (size 9 to 14) (size 15 to 20)
#    0.000    1.250    2.500    3.750    5.250    2.500 
#    2.250    2.500    0.000    0.000    0.000    0.000 
#    0.000    0.000    0.000    0.000    0.000    0.000 
#
# Total GULP energy -178233.576729 kJ/mol
# GULP energy per Si atom -5569.799273 kJ/mol
# Density = 2.164334 g / cm^3
# Si number density = 21.692714 Si / 1000 Ang^3
#
#
#
# Elastic Constant Matrix: (Units=GPa)
#
#
# Indices 1 2 3 4 5 6 
#
# 1 -479.1103 -316.5138-1662.4271 0.0000 443.9297 0.0000
# 2 -316.5138 -101.1508 -986.7231 0.0000 271.1566 0.0000
# 3 -1662.4271 -986.7231-5183.9130 0.0000 1419.0215 0.0000
# 4 0.0000 0.0000 0.0000 -34.1845 0.0000 21.4606
# 5 443.9297 271.1566 1419.0215 0.0000 -359.3275 0.0000
# 6 0.0000 0.0000 0.0000 21.4606 0.0000 -1.7521
#
#
#
# Elastic Compliance Matrix: (Units=1/GPa)
#
#
# Indices 1 2 3 4 5 6 
#
# 1 0.020100 -0.000075 -0.004326 0.000000 0.007692 0.000000
# 2 -0.000075 0.011544 -0.002296 0.000000 -0.000447 0.000000
# 3 -0.004326 -0.002296 0.003775 0.000000 0.007832 0.000000
# 4 0.000000 0.000000 0.000000 0.004373 0.000000 0.053563
# 5 0.007692 -0.000447 0.007832 0.000000 0.037312 0.000000
# 6 0.000000 0.000000 0.000000 0.053563 0.000000 0.085320
#
#
# Mechanical properties :
#
#
# Convention : Reuss Voigt Hill
#
# Bulk Modulus (GPa) = 45.40051 -1299.50022 -627.04986
# Shear Modulus (GPa) = 27.29865 -265.62017 -119.16076
#
# Velocity S-wave (km/s) = 3.55128 -11.07757 -7.41960
# Velocity P-wave (km/s) = 6.14734 27.63994 19.05488
#
# Compressibility (1/GPa) = 0.02202619
#
# Stress axis : x y z
#
# Youngs Moduli (GPa) = 49.75167 86.62495 264.87914
#
# Poissons Ratio (x) = 0.00647 1.14588
# Poissons Ratio (y) = 0.00371 0.60810
# Poissons Ratio (z) = 0.21523 0.19887
#
# Static dielectric constant tensor:
#      x y z
#    x 1.807920 0.000000 -0.006370 
#    y 0.000000 1.886940 0.000000 
#    z -0.006370 0.000000 1.861700 
# 
# From -- ./inp_files/50645.got.cif
#   From: 2010.05.17/outbox.cif.g08.bks.cpg/sg14_26_cif.got.tgz:50645.got - 2010.06.03 17:49:19.
