data_PCOD9246979
_publ_section_title
;
Structure prediction by ZEFSAII (Michael W. Deem and Ramdas Pophale) SiO2 
 PCOD9246979
Probable space group: P 21/C
;
_chemical_formula_sum "Si O2"
_cell_formula_units_Z 32
_cell_length_a 8.498341
_cell_length_b 13.838291
_cell_length_c 12.125029
_cell_angle_alpha 90.000000
_cell_angle_beta 98.498190
_cell_angle_gamma 90.000000
_cell_volume 1410.277919
_symmetry_space_group_name_H-M "P 21/C"
_symmetry_group_IT_number 14
_symmetry_cell_setting 'monoclinic'
loop_
_space_group_symop_operation_xyz
x,y,z
-x,1/2+y,1/2-z
-x,-y,-z
x,1/2-y,1/2+z
loop_
_atom_site_type_symbol
_atom_site_label
_atom_site_fract_x
_atom_site_fract_y
_atom_site_fract_z
Si Si1 0.384538 0.190951 0.692428
Si Si2 0.465951 0.398798 0.746830
Si Si3 0.063672 0.482337 0.880723
Si Si4 0.049503 0.613282 0.516831
Si Si5 0.792362 0.436085 0.671956
Si Si6 0.262469 0.141964 0.904133
Si Si7 0.716011 0.406523 0.260107
Si Si8 0.655065 0.844758 0.549564
O O1 0.372041 0.306282 0.691748
O O2 0.261457 0.156810 0.772301
O O3 0.569320 0.166602 0.734627
O O4 0.352870 0.132846 0.578582
O O5 0.641002 0.396344 0.718256
O O6 0.370161 0.494851 0.708938
O O7 0.467699 0.392884 0.879757
O O8 0.181428 0.564450 0.838602
O O9 0.174419 0.385605 0.892939
O O10 0.924546 0.468178 0.775173
O O11 0.000000 0.500000 0.000000
O O12 0.127266 0.635887 0.407640
O O13 0.167828 0.625033 0.630704
O O14 0.000000 0.500000 0.500000
O O15 0.890246 0.666023 0.538210
O O16 0.720694 0.526571 0.592109
O O17 0.379174 0.229410 0.946960
#
# Coordination Sequence:
#
# PCOD9246979 Si02
#       8
#     4   4   4   4   4   4   4   4
#     4  11  24  43  67  98 136 176 221 274 337 400
#     4  10  25  42  66  98 134 172 228 269 334 398
#     4  11  24  41  66  95 133 182 219 265 340 398
#     4  10  22  39  67  97 128 165 221 271 332 391
#     4  11  22  43  68  98 133 173 222 280 333 391
#     4  10  21  43  65  92 130 174 219 268 336 388
#     4  11  23  42  67  98 131 173 222 280 326 398
#     4  10  25  41  67  97 134 178 220 270 328 416
#
# _framework density 22.690563999999998
#
# number of rings (size 3 to 8) (size 9 to 14) (size 15 to 20)
#    0.000    1.500    3.750    0.750    5.250    5.500 
#    2.250    0.000    0.000    0.000    0.000    0.000 
#    0.000    0.000    0.000    0.000    0.000    0.000 
#
# Total GULP energy -178393.166666 kJ/mol
# GULP energy per Si atom -5574.786458 kJ/mol
# Density = 2.263892 g / cm^3
# Si number density = 22.690564 Si / 1000 Ang^3
#
#
#
# Elastic Constant Matrix: (Units=GPa)
#
#
# Indices 1 2 3 4 5 6 
#
# 1 84.0344 -0.2913 36.2173 0.0000 -39.6204 0.0000
# 2 -0.2913 41.2801 -13.0654 0.0000 -9.3034 0.0000
# 3 36.2173 -13.0654 117.2907 0.0000 -45.3693 0.0000
# 4 0.0000 0.0000 0.0000 12.0190 0.0000 -10.9705
# 5 -39.6204 -9.3034 -45.3693 0.0000 55.4068 0.0000
# 6 0.0000 0.0000 0.0000 -10.9705 0.0000 11.8859
#
#
#
# Elastic Compliance Matrix: (Units=1/GPa)
#
#
# Indices 1 2 3 4 5 6 
#
# 1 0.018353 0.003187 -0.000042 0.000000 0.013624 0.000000
# 2 0.003187 0.029640 0.007500 0.000000 0.013397 0.000000
# 3 -0.000042 0.007500 0.014416 0.000000 0.013033 0.000000
# 4 0.000000 0.000000 0.000000 0.528155 0.000000 0.487480
# 5 0.013624 0.013397 0.013033 0.000000 0.040713 0.000000
# 6 0.000000 0.000000 0.000000 0.487480 0.000000 0.534072
#
#
# Mechanical properties :
#
#
# Convention : Reuss Voigt Hill
#
# Bulk Modulus (GPa) = 11.94777 32.03628 21.99203
# Shear Modulus (GPa) = 4.26636 30.51197 17.38917
#
# Velocity S-wave (km/s) = 1.37271 3.67099 2.77133
# Velocity P-wave (km/s) = 2.79095 5.66724 4.46694
#
# Compressibility (1/GPa) = 0.08369761
#
# Stress axis : x y z
#
# Youngs Moduli (GPa) = 54.48813 33.73797 69.36917
#
# Poissons Ratio (x) = -0.10752 0.00291
# Poissons Ratio (y) = -0.17364 -0.52025
# Poissons Ratio (z) = 0.00228 -0.25302
#
# Static dielectric constant tensor:
#      x y z
#    x 1.879570 0.000000 0.004370 
#    y 0.000000 2.095210 0.000000 
#    z 0.004370 0.000000 1.940780 
# 
# From -- ./inp_files/25265.got.cif
#   From: 2010.05.17/outbox.cif.g08.bks.cpg/sg14_13_cif.got.tgz:25265.got - 2010.06.03 17:49:19.
