data_PCOD9246435
_publ_section_title
;
Structure prediction by ZEFSAII (Michael W. Deem and Ramdas Pophale) SiO2 
 PCOD9246435
Probable space group: P 21/C
;
_chemical_formula_sum "Si O2"
_cell_formula_units_Z 24
_cell_length_a 17.663314
_cell_length_b 9.239982
_cell_length_c 15.741798
_cell_angle_alpha 90.000000
_cell_angle_beta 29.014831
_cell_angle_gamma 90.000000
_cell_volume 1246.153733
_symmetry_space_group_name_H-M "P 21/C"
_symmetry_group_IT_number 14
_symmetry_cell_setting 'monoclinic'
loop_
_space_group_symop_operation_xyz
x,y,z
-x,1/2+y,1/2-z
-x,-y,-z
x,1/2-y,1/2+z
loop_
_atom_site_type_symbol
_atom_site_label
_atom_site_fract_x
_atom_site_fract_y
_atom_site_fract_z
Si Si1 0.333248 0.421666 0.154023
Si Si2 0.186131 0.592728 0.643609
Si Si3 0.816175 0.593753 0.015669
Si Si4 0.333612 0.422302 0.654629
Si Si5 0.308291 0.412011 0.367409
Si Si6 0.316351 0.587362 0.006035
O O1 0.353821 0.249947 0.122170
O O2 0.253944 0.442684 0.323803
O O3 0.500000 0.500000 0.000000
O O4 0.260395 0.493751 0.142212
O O5 0.244698 0.491990 0.662776
O O6 0.231600 0.516653 0.510781
O O7 0.271793 0.746762 0.564721
O O8 0.001254 0.612291 0.831128
O O9 0.759366 0.556532 0.166232
O O10 0.735713 0.746082 0.070439
O O11 0.761808 0.473597 0.002170
O O12 0.500000 0.500000 0.500000
O O13 0.496140 0.426916 0.186261
#
# Coordination Sequence:
#
# PCOD9246435 Si02
#       6
#     4   4   4   4   4   4
#     4   9  20  38  62  89 115 149 201 255 296 347
#     4  12  24  39  60  91 125 160 200 257 314 358
#     4  11  24  41  59  89 126 160 201 255 311 360
#     4  11  22  40  65  89 119 161 207 252 300 369
#     4  10  21  41  62  87 119 160 209 251 297 367
#     4  11  22  39  64  89 119 162 206 252 303 367
#
# _framework density 19.259260999999999
#
# number of rings (size 3 to 8) (size 9 to 14) (size 15 to 20)
#    0.000    1.333    0.000    7.500    0.000    5.333 
#    0.000    9.167    0.000    0.000    0.000    0.000 
#    0.000    0.000    0.000    0.000    0.000    0.000 
#
# Total GULP energy -134152.940053 kJ/mol
# GULP energy per Si atom -5589.705836 kJ/mol
# Density = 1.921543 g / cm^3
# Si number density = 19.259261 Si / 1000 Ang^3
#
#
#
# Elastic Constant Matrix: (Units=GPa)
#
#
# Indices 1 2 3 4 5 6 
#
# 1 63.2207 47.4178 28.2907 0.0000 25.3065 0.0000
# 2 47.4178 106.1743 29.6903 0.0000 42.9686 0.0000
# 3 28.2907 29.6903 100.2568 0.0000 12.9459 0.0000
# 4 0.0000 0.0000 0.0000 25.9505 0.0000 10.1110
# 5 25.3065 42.9686 12.9459 0.0000 34.8192 0.0000
# 6 0.0000 0.0000 0.0000 10.1110 0.0000 18.8927
#
#
#
# Elastic Compliance Matrix: (Units=1/GPa)
#
#
# Indices 1 2 3 4 5 6 
#
# 1 0.026635 -0.007013 -0.004262 0.000000 -0.009119 0.000000
# 2 -0.007013 0.021386 -0.001686 0.000000 -0.020668 0.000000
# 3 -0.004262 -0.001686 0.011563 0.000000 0.000878 0.000000
# 4 0.000000 0.000000 0.000000 0.048687 0.000000 -0.026056
# 5 -0.009119 -0.020668 0.000878 0.000000 0.060526 0.000000
# 6 0.000000 0.000000 0.000000 -0.026056 0.000000 0.066875
#
#
# Mechanical properties :
#
#
# Convention : Reuss Voigt Hill
#
# Bulk Modulus (GPa) = 29.70577 53.38329 41.54453
# Shear Modulus (GPa) = 18.32756 26.88269 22.60512
#
# Velocity S-wave (km/s) = 3.08819 3.74014 3.42969
# Velocity P-wave (km/s) = 5.30787 6.81395 6.10751
#
# Compressibility (1/GPa) = 0.03366349
#
# Stress axis : x y z
#
# Youngs Moduli (GPa) = 37.54462 46.75953 86.48521
#
# Poissons Ratio (x) = 0.32792 0.36856
# Poissons Ratio (y) = 0.26330 0.14578
# Poissons Ratio (z) = 0.16000 0.07882
#
# Static dielectric constant tensor:
#      x y z
#    x 1.671340 0.000000 0.020560 
#    y 0.000000 1.649200 0.000000 
#    z 0.020560 0.000000 1.649530 
# 
# From -- ./inp_files/38981.got.cif
#   From: 2010.05.17/outbox.cif.g08.bks.cpg/sg14_20_cif.got.tgz:38981.got - 2010.06.03 17:49:19.
