data_PCOD9246941
_publ_section_title
;
Structure prediction by ZEFSAII (Michael W. Deem and Ramdas Pophale) SiO2 
 PCOD9246941
Probable space group: P 21/C
;
_chemical_formula_sum "Si O2"
_cell_formula_units_Z 12
_cell_length_a 17.093738
_cell_length_b 6.871336
_cell_length_c 5.311513
_cell_angle_alpha 90.000000
_cell_angle_beta 51.030381
_cell_angle_gamma 90.000000
_cell_volume 485.048819
_symmetry_space_group_name_H-M "P 21/C"
_symmetry_group_IT_number 14
_symmetry_cell_setting 'monoclinic'
loop_
_space_group_symop_operation_xyz
x,y,z
-x,1/2+y,1/2-z
-x,-y,-z
x,1/2-y,1/2+z
loop_
_atom_site_type_symbol
_atom_site_label
_atom_site_fract_x
_atom_site_fract_y
_atom_site_fract_z
Si Si1 0.397650 0.879286 0.732004
Si Si2 0.889036 0.976653 0.333289
Si Si3 0.189403 0.036144 0.008738
O O1 0.393946 0.724006 0.510970
O O2 0.500000 0.000000 0.500000
O O3 0.301618 0.019737 0.886582
O O4 0.853465 0.753289 0.443227
O O5 0.880185 0.057581 0.633452
O O6 0.816264 0.052562 0.259203
O O7 0.000000 0.000000 0.000000
#
# Coordination Sequence:
#
# PCOD9246941 Si02
#       3
#     4   4   4
#     4  12  28  49  78 111 148 198 251 314 386 448
#     4  10  21  42  71  99 137 197 241 297 362 436
#     4  10  23  43  68 102 145 182 245 305 363 436
#
# _framework density 24.739775000000002
#
# number of rings (size 3 to 8) (size 9 to 14) (size 15 to 20)
#    0.000    1.333    0.000    4.000    9.333    0.000 
#   36.000    0.000    0.000    0.000    0.000    0.000 
#    0.000    0.000    0.000    0.000    0.000    0.000 
#
# Total GULP energy -67128.086560 kJ/mol
# GULP energy per Si atom -5594.007213 kJ/mol
# Density = 2.468347 g / cm^3
# Si number density = 24.739775 Si / 1000 Ang^3
#
#
#
# Elastic Constant Matrix: (Units=GPa)
#
#
# Indices 1 2 3 4 5 6 
#
# 1 120.4146 -5.5854 30.2371 0.0000 9.5141 0.0000
# 2 -5.5854 120.1384 -1.7464 0.0000 -14.8100 0.0000
# 3 30.2371 -1.7464 120.3368 0.0000 10.0386 0.0000
# 4 0.0000 0.0000 0.0000 35.1228 0.0000 -20.9263
# 5 9.5141 -14.8100 10.0386 0.0000 88.9517 0.0000
# 6 0.0000 0.0000 0.0000 -20.9263 0.0000 20.9185
#
#
#
# Elastic Compliance Matrix: (Units=1/GPa)
#
#
# Indices 1 2 3 4 5 6 
#
# 1 0.008918 0.000302 -0.002182 0.000000 -0.000657 0.000000
# 2 0.000302 0.008508 -0.000069 0.000000 0.001392 0.000000
# 3 -0.002182 -0.000069 0.008923 0.000000 -0.000785 0.000000
# 4 0.000000 0.000000 0.000000 0.070479 0.000000 0.070505
# 5 -0.000657 0.001392 -0.000785 0.000000 0.011633 0.000000
# 6 0.000000 0.000000 0.000000 0.070505 0.000000 0.118335
#
#
# Mechanical properties :
#
#
# Convention : Reuss Voigt Hill
#
# Bulk Modulus (GPa) = 44.53783 45.18895 44.86339
# Shear Modulus (GPa) = 20.99279 51.53090 36.26185
#
# Velocity S-wave (km/s) = 2.91614 4.56885 3.83264
# Velocity P-wave (km/s) = 5.42034 6.79249 6.14483
#
# Compressibility (1/GPa) = 0.02245282
#
# Stress axis : x y z
#
# Youngs Moduli (GPa) = 112.12734 117.53125 112.07369
#
# Poissons Ratio (x) = -0.03548 0.24451
# Poissons Ratio (y) = -0.03385 0.00768
# Poissons Ratio (z) = 0.24463 0.00805
#
# Static dielectric constant tensor:
#      x y z
#    x 1.996270 0.000000 0.079600 
#    y 0.000000 3.042300 0.000000 
#    z 0.079600 0.000000 1.984350 
# 
# From -- ./inp_files/2310.got.cif
#   From: 2010.05.17/outbox.cif.g08.bks.cpg/sg14_2_cif.got.tgz:2310.got - 2010.06.03 17:49:19.
