data_PCOD9246843
_publ_section_title
;
Structure prediction by ZEFSAII (Michael W. Deem and Ramdas Pophale) SiO2 
 PCOD9246843
Probable space group: P 21/C
;
_chemical_formula_sum "Si O2"
_cell_formula_units_Z 28
_cell_length_a 6.037691
_cell_length_b 11.938493
_cell_length_c 19.992255
_cell_angle_alpha 90.000000
_cell_angle_beta 59.118483
_cell_angle_gamma 90.000000
_cell_volume 1236.761995
_symmetry_space_group_name_H-M "P 21/C"
_symmetry_group_IT_number 14
_symmetry_cell_setting 'monoclinic'
loop_
_space_group_symop_operation_xyz
x,y,z
-x,1/2+y,1/2-z
-x,-y,-z
x,1/2-y,1/2+z
loop_
_atom_site_type_symbol
_atom_site_label
_atom_site_fract_x
_atom_site_fract_y
_atom_site_fract_z
Si Si1 0.755387 0.069097 0.588140
Si Si2 0.147700 0.265768 0.077731
Si Si3 0.804548 0.672820 0.638430
Si Si4 0.729474 0.086872 0.163262
Si Si5 0.682089 0.735889 0.800637
Si Si6 0.713489 0.185891 0.456901
Si Si7 0.571466 0.362801 0.835169
O O1 0.550551 0.146748 0.659092
O O2 0.716094 0.096017 0.516199
O O3 0.026871 0.120868 0.567112
O O4 0.677058 0.944488 0.619261
O O5 0.165732 0.276169 0.154778
O O6 0.955630 0.162324 0.096194
O O7 0.436098 0.252888 0.005766
O O8 0.765966 0.541146 0.637588
O O9 0.839846 0.704092 0.711120
O O10 0.547424 0.739905 0.657164
O O11 0.055679 0.726989 0.565704
O O12 0.457938 0.143757 0.183806
O O13 0.725676 0.100183 0.245062
O O14 0.722167 0.132012 0.381782
#
# Coordination Sequence:
#
# PCOD9246843 Si02
#       7
#     4   4   4   4   4   4   4
#     4  10  21  42  67  92 127 166 211 265 313 377
#     4  10  22  42  64  91 130 170 207 261 323 377
#     4  11  23  40  62  98 128 165 217 262 316 387
#     4  10  22  42  66  92 128 165 213 266 315 381
#     4   9  20  41  64  92 122 167 214 264 319 371
#     4  11  24  39  63  97 132 166 211 255 325 388
#     4  11  23  42  67  97 126 167 213 271 317 370
#
# _framework density 22.639762999999999
#
# number of rings (size 3 to 8) (size 9 to 14) (size 15 to 20)
#    0.000    1.714    1.429    2.143    0.000    6.286 
#    5.143   10.000    0.000    0.000    0.000    0.000 
#    0.000    0.000    0.000    0.000    0.000    0.000 
#
# Total GULP energy -156634.180651 kJ/mol
# GULP energy per Si atom -5594.077880 kJ/mol
# Density = 2.258823 g / cm^3
# Si number density = 22.639763 Si / 1000 Ang^3
#
#
#
# Elastic Constant Matrix: (Units=GPa)
#
#
# Indices 1 2 3 4 5 6 
#
# 1 46.0212 16.5177 10.4371 0.0000 5.4840 0.0000
# 2 16.5177 146.6384 24.4173 0.0000 -20.0841 0.0000
# 3 10.4371 24.4173 85.9026 0.0000 4.2323 0.0000
# 4 0.0000 0.0000 0.0000 28.9920 0.0000 -3.9869
# 5 5.4840 -20.0841 4.2323 0.0000 47.7430 0.0000
# 6 0.0000 0.0000 0.0000 -3.9869 0.0000 14.2947
#
#
#
# Elastic Compliance Matrix: (Units=1/GPa)
#
#
# Indices 1 2 3 4 5 6 
#
# 1 0.023629 -0.002864 -0.001872 0.000000 -0.003753 0.000000
# 2 -0.002864 0.008030 -0.002126 0.000000 0.003895 0.000000
# 3 -0.001872 -0.002126 0.012561 0.000000 -0.001793 0.000000
# 4 0.000000 0.000000 0.000000 0.035868 0.000000 0.010004
# 5 -0.003753 0.003895 -0.001793 0.000000 0.023174 0.000000
# 6 0.000000 0.000000 0.000000 0.010004 0.000000 0.072746
#
#
# Mechanical properties :
#
#
# Convention : Reuss Voigt Hill
#
# Bulk Modulus (GPa) = 32.79192 42.36738 37.57965
# Shear Modulus (GPa) = 25.01286 33.35197 29.18241
#
# Velocity S-wave (km/s) = 3.32749 3.84234 3.59414
# Velocity P-wave (km/s) = 5.41097 6.19993 5.81883
#
# Compressibility (1/GPa) = 0.03049532
#
# Stress axis : x y z
#
# Youngs Moduli (GPa) = 42.32134 124.53805 79.60983
#
# Poissons Ratio (x) = 0.35667 0.14902
# Poissons Ratio (y) = 0.12120 0.16928
# Poissons Ratio (z) = 0.07922 0.26481
#
# Static dielectric constant tensor:
#      x y z
#    x 1.877970 0.000000 -0.016750 
#    y 0.000000 1.802230 0.000000 
#    z -0.016750 0.000000 1.861460 
# 
# From -- ./inp_files/63417.got.cif
#   From: 2010.05.17/outbox.cif.g08.bks.cpg/sg14_32_cif.got.tgz:63417.got - 2010.06.03 17:49:19.
