data_PCOD9246412
_publ_section_title
;
Structure prediction by ZEFSAII (Michael W. Deem and Ramdas Pophale) SiO2 
 PCOD9246412
Probable space group: P 21/C
;
_chemical_formula_sum "Si O2"
_cell_formula_units_Z 26
_cell_length_a 16.118623
_cell_length_b 6.773621
_cell_length_c 26.633868
_cell_angle_alpha 90.000000
_cell_angle_beta 158.086889
_cell_angle_gamma 90.000000
_cell_volume 1085.237553
_symmetry_space_group_name_H-M "P 21/C"
_symmetry_group_IT_number 14
_symmetry_cell_setting 'monoclinic'
loop_
_space_group_symop_operation_xyz
x,y,z
-x,1/2+y,1/2-z
-x,-y,-z
x,1/2-y,1/2+z
loop_
_atom_site_type_symbol
_atom_site_label
_atom_site_fract_x
_atom_site_fract_y
_atom_site_fract_z
Si Si1 0.766644 0.274738 0.724735
Si Si2 0.586689 0.038664 0.363207
Si Si3 0.782994 0.371801 0.414053
Si Si4 0.157465 0.535812 0.894682
Si Si5 0.198949 0.369076 0.807428
Si Si6 0.018392 0.278715 0.959760
Si Si7 0.500000 0.500000 0.500000
O O1 0.549699 0.370685 0.578958
O O2 0.970216 0.378358 0.808029
O O3 0.812766 0.327338 0.808079
O O4 0.779328 0.042736 0.720455
O O5 0.360373 0.960589 0.212475
O O6 0.776038 0.907338 0.442696
O O7 0.629751 0.257988 0.366830
O O8 0.642447 0.028024 0.453246
O O9 0.907275 0.552983 0.508844
O O10 0.953313 0.224900 0.481563
O O11 0.210617 0.479703 0.867670
O O12 0.034785 0.749023 0.826979
O O13 0.382197 0.197553 0.908270
#
# Coordination Sequence:
#
# PCOD9246412 Si02
#       7
#     4   4   4   4   4   4   2
#     4  10  21  41  61  88 127 162 204 260 311 377
#     4  11  22  41  62  93 123 165 212 264 316 384
#     4  11  22  41  64  92 125 162 214 261 318 376
#     4  10  22  36  65  89 120 163 212 251 322 369
#     4  11  20  41  60  91 124 167 205 265 308 381
#     4  10  23  41  66  90 126 168 205 265 320 370
#     4  10  24  36  58  90 128 164 208 252 312 376
#
# _framework density 23.957888000000001
#
# number of rings (size 3 to 8) (size 9 to 14) (size 15 to 20)
#    0.000    1.538    3.077    1.846    2.154    0.000 
#    0.000    1.538    0.000    0.000    0.000    0.000 
#    0.000    0.000    0.000    0.000    0.000    0.000 
#
# Total GULP energy -144881.699403 kJ/mol
# GULP energy per Si atom -5572.373054 kJ/mol
# Density = 2.390336 g / cm^3
# Si number density = 23.957888 Si / 1000 Ang^3
#
#
#
# Elastic Constant Matrix: (Units=GPa)
#
#
# Indices 1 2 3 4 5 6 
#
# 1 50.6360 15.1285 3.4812 0.0000 -1.5107 0.0000
# 2 15.1285 94.8314 18.2899 0.0000 1.5991 0.0000
# 3 3.4812 18.2899 86.8112 0.0000 -21.3765 0.0000
# 4 0.0000 0.0000 0.0000 38.7508 0.0000 2.0464
# 5 -1.5107 1.5991 -21.3765 0.0000 18.9904 0.0000
# 6 0.0000 0.0000 0.0000 2.0464 0.0000 25.2484
#
#
#
# Elastic Compliance Matrix: (Units=1/GPa)
#
#
# Indices 1 2 3 4 5 6 
#
# 1 0.020824 -0.003465 0.000518 0.000000 0.002532 0.000000
# 2 -0.003465 0.011906 -0.003714 0.000000 -0.005458 0.000000
# 3 0.000518 -0.003714 0.017111 0.000000 0.019615 0.000000
# 4 0.000000 0.000000 0.000000 0.025917 0.000000 -0.002101
# 5 0.002532 -0.005458 0.019615 0.000000 0.075398 0.000000
# 6 0.000000 0.000000 0.000000 -0.002101 0.000000 0.039777
#
#
# Mechanical properties :
#
#
# Convention : Reuss Voigt Hill
#
# Bulk Modulus (GPa) = 27.38166 34.00864 30.69515
# Shear Modulus (GPa) = 23.10258 29.62318 26.36288
#
# Velocity S-wave (km/s) = 3.10869 3.52016 3.32080
# Velocity P-wave (km/s) = 4.93347 5.54509 5.24820
#
# Compressibility (1/GPa) = 0.03652079
#
# Stress axis : x y z
#
# Youngs Moduli (GPa) = 48.02185 83.99107 58.44264
#
# Poissons Ratio (x) = 0.29100 -0.03029
# Poissons Ratio (y) = 0.16638 0.21703
# Poissons Ratio (z) = -0.02489 0.31191
#
# Static dielectric constant tensor:
#      x y z
#    x 1.892990 0.000000 0.063560 
#    y 0.000000 1.896860 0.000000 
#    z 0.063560 0.000000 1.932380 
# 
# From -- ./inp_files/60965.got.cif
#   From: 2010.05.17/outbox.cif.g08.bks.cpg/sg14_31_cif.got.tgz:60965.got - 2010.06.03 17:49:19.
