data_PCOD9246219
_publ_section_title
;
Structure prediction by ZEFSAII (Michael W. Deem and Ramdas Pophale) SiO2 
 PCOD9246219
Probable space group: P 21/C
;
_chemical_formula_sum "Si O2"
_cell_formula_units_Z 28
_cell_length_a 11.826474
_cell_length_b 7.575072
_cell_length_c 24.065418
_cell_angle_alpha 90.000000
_cell_angle_beta 33.925827
_cell_angle_gamma 90.000000
_cell_volume 1203.268130
_symmetry_space_group_name_H-M "P 21/C"
_symmetry_group_IT_number 14
_symmetry_cell_setting 'monoclinic'
loop_
_space_group_symop_operation_xyz
x,y,z
-x,1/2+y,1/2-z
-x,-y,-z
x,1/2-y,1/2+z
loop_
_atom_site_type_symbol
_atom_site_label
_atom_site_fract_x
_atom_site_fract_y
_atom_site_fract_z
Si Si1 0.461729 0.428780 0.918833
Si Si2 0.453511 0.255699 0.036835
Si Si3 0.167033 0.566933 0.656588
Si Si4 0.700113 0.064995 0.629345
Si Si5 0.993281 0.343427 0.558499
Si Si6 0.886066 0.206104 0.218638
Si Si7 0.266141 0.175765 0.855170
O O1 0.560785 0.590272 0.912940
O O2 0.328250 0.508427 0.923511
O O3 0.645023 0.323029 0.814855
O O4 0.383987 0.311825 0.002807
O O5 0.325697 0.087342 0.107519
O O6 0.691122 0.206653 0.933062
O O7 0.075188 0.656531 0.748190
O O8 0.995754 0.475169 0.690642
O O9 0.857360 0.223831 0.572763
O O10 0.486052 0.127789 0.742370
O O11 0.760360 0.886489 0.638011
O O12 0.972462 0.242719 0.624352
O O13 0.889767 0.535101 0.607933
O O14 0.214662 0.360847 0.441567
#
# Coordination Sequence:
#
# PCOD9246219 Si02
#       7
#     4   4   4   4   4   4   4
#     4  10  21  40  65  92 133 165 224 279 337 405
#     4   9  21  41  62  98 125 176 218 272 346 407
#     4  10  22  40  65  92 132 168 222 270 343 403
#     4  12  23  46  69 100 135 187 228 288 348 412
#     4  11  26  46  67 102 142 178 237 285 345 418
#     4  11  22  43  63  97 131 173 219 286 331 410
#     4  11  24  44  67  98 137 179 230 282 342 410
#
# _framework density 23.269959
#
# number of rings (size 3 to 8) (size 9 to 14) (size 15 to 20)
#    0.000    1.429    2.857    1.286    2.000    3.429 
#   10.286    0.000    0.000    0.000    0.000    0.000 
#    0.000    0.000    0.000    0.000    0.000    0.000 
#
# Total GULP energy -156454.472937 kJ/mol
# GULP energy per Si atom -5587.659748 kJ/mol
# Density = 2.321700 g / cm^3
# Si number density = 23.269959 Si / 1000 Ang^3
#
#
#
# Elastic Constant Matrix: (Units=GPa)
#
#
# Indices 1 2 3 4 5 6 
#
# 1 95.6948 23.2346 32.0418 0.0000 11.0221 0.0000
# 2 23.2346 90.8755 19.4092 0.0000 1.6638 0.0000
# 3 32.0418 19.4092 124.0121 0.0000 16.3093 0.0000
# 4 0.0000 0.0000 0.0000 28.1082 0.0000 -6.7633
# 5 11.0221 1.6638 16.3093 0.0000 28.8040 0.0000
# 6 0.0000 0.0000 0.0000 -6.7633 0.0000 32.5905
#
#
#
# Elastic Compliance Matrix: (Units=1/GPa)
#
#
# Indices 1 2 3 4 5 6 
#
# 1 0.012225 -0.002568 -0.002335 0.000000 -0.003208 0.000000
# 2 -0.002568 0.011928 -0.001342 0.000000 0.001054 0.000000
# 3 -0.002335 -0.001342 0.009453 0.000000 -0.004382 0.000000
# 4 0.000000 0.000000 0.000000 0.037447 0.000000 0.007771
# 5 -0.003208 0.001054 -0.004382 0.000000 0.038365 0.000000
# 6 0.000000 0.000000 0.000000 0.007771 0.000000 0.032297
#
#
# Mechanical properties :
#
#
# Convention : Reuss Voigt Hill
#
# Bulk Modulus (GPa) = 47.35681 51.10596 49.23139
# Shear Modulus (GPa) = 31.00924 33.62699 32.31812
#
# Velocity S-wave (km/s) = 3.65442 3.80555 3.73075
# Velocity P-wave (km/s) = 6.18075 6.42802 6.30560
#
# Compressibility (1/GPa) = 0.02111629
#
# Stress axis : x y z
#
# Youngs Moduli (GPa) = 81.80203 83.83653 105.78377
#
# Poissons Ratio (x) = 0.21530 0.24698
# Poissons Ratio (y) = 0.21008 0.14195
# Poissons Ratio (z) = 0.19099 0.11250
#
# Static dielectric constant tensor:
#      x y z
#    x 1.882780 0.000000 -0.020290 
#    y 0.000000 1.872980 0.000000 
#    z -0.020290 0.000000 1.875050 
# 
# From -- ./inp_files/72964.got.cif
#   From: 2010.05.17/outbox.cif.g08.bks.cpg/sg14_37_cif.got.tgz:72964.got - 2010.06.03 17:49:19.
