data_PCOD9246467
_publ_section_title
;
Structure prediction by ZEFSAII (Michael W. Deem and Ramdas Pophale) SiO2 
 PCOD9246467
Probable space group: P 21/C
;
_chemical_formula_sum "Si O2"
_cell_formula_units_Z 30
_cell_length_a 13.319920
_cell_length_b 8.232156
_cell_length_c 17.973166
_cell_angle_alpha 90.000000
_cell_angle_beta 141.842032
_cell_angle_gamma 90.000000
_cell_volume 1217.615029
_symmetry_space_group_name_H-M "P 21/C"
_symmetry_group_IT_number 14
_symmetry_cell_setting 'monoclinic'
loop_
_space_group_symop_operation_xyz
x,y,z
-x,1/2+y,1/2-z
-x,-y,-z
x,1/2-y,1/2+z
loop_
_atom_site_type_symbol
_atom_site_label
_atom_site_fract_x
_atom_site_fract_y
_atom_site_fract_z
Si Si1 0.777245 0.338377 0.160340
Si Si2 0.963302 0.452840 0.613381
Si Si3 0.656666 0.576191 0.353024
Si Si4 0.647218 0.285208 0.784975
Si Si5 0.715222 0.713960 0.236855
Si Si6 0.500000 0.500000 0.000000
Si Si7 0.201848 0.599493 0.979684
Si Si8 0.133467 0.561060 0.203489
O O1 0.704108 0.429575 0.043587
O O2 0.817939 0.151782 0.192844
O O3 0.943685 0.435771 0.271835
O O4 0.616959 0.370200 0.115215
O O5 0.831490 0.559830 0.493978
O O6 0.877741 0.278780 0.581385
O O7 0.121079 0.394912 0.659593
O O8 0.522850 0.631338 0.335309
O O9 0.630326 0.400227 0.300174
O O10 0.642837 0.703247 0.277091
O O11 0.802418 0.318488 0.823114
O O12 0.692141 0.384756 0.886602
O O13 0.774423 0.893819 0.253527
O O14 0.607014 0.648898 0.106124
O O15 0.057056 0.474864 0.908300
#
# Coordination Sequence:
#
# PCOD9246467 Si02
#       8
#     4   4   4   4   4   2   4   4
#     4  11  22  41  65  93 125 168 212 265 329 389
#     4   9  21  39  61  86 121 169 216 261 317 382
#     4  11  22  40  63  90 132 175 221 267 320 384
#     4  11  23  39  63  97 131 172 218 271 324 377
#     4  10  21  41  63  92 127 168 213 268 324 384
#     4  10  22  40  64  90 126 166 210 260 322 384
#     4  10  22  41  63  89 129 169 214 265 318 390
#     4  11  24  40  65  98 129 164 217 269 326 388
#
# _framework density 24.638328999999999
#
# number of rings (size 3 to 8) (size 9 to 14) (size 15 to 20)
#    0.000    1.600    0.000    4.800    0.000    5.867 
#    0.000   10.667    0.000    0.000    0.000    0.000 
#    0.000    0.000    0.000    0.000    0.000    0.000 
#
# Total GULP energy -167067.329322 kJ/mol
# GULP energy per Si atom -5568.910977 kJ/mol
# Density = 2.458225 g / cm^3
# Si number density = 24.638329 Si / 1000 Ang^3
#
#
#
# Elastic Constant Matrix: (Units=GPa)
#
#
# Indices 1 2 3 4 5 6 
#
# 1 48.7632 -2.7587 -0.9590 0.0000 6.6790 0.0000
# 2 -2.7587 91.1550 25.1303 0.0000 18.2842 0.0000
# 3 -0.9590 25.1303 116.0911 0.0000 18.4595 0.0000
# 4 0.0000 0.0000 0.0000 25.1748 0.0000 1.7434
# 5 6.6790 18.2842 18.4595 0.0000 32.5272 0.0000
# 6 0.0000 0.0000 0.0000 1.7434 0.0000 26.8215
#
#
#
# Elastic Compliance Matrix: (Units=1/GPa)
#
#
# Indices 1 2 3 4 5 6 
#
# 1 0.021393 0.001588 0.000740 0.000000 -0.005705 0.000000
# 2 0.001588 0.012806 -0.001717 0.000000 -0.006550 0.000000
# 3 0.000740 -0.001717 0.009742 0.000000 -0.004715 0.000000
# 4 0.000000 0.000000 0.000000 0.039902 0.000000 -0.002594
# 5 -0.005705 -0.006550 -0.004715 0.000000 0.038273 0.000000
# 6 0.000000 0.000000 0.000000 -0.002594 0.000000 0.037452
#
#
# Mechanical properties :
#
#
# Convention : Reuss Voigt Hill
#
# Bulk Modulus (GPa) = 22.14285 33.20384 27.67334
# Shear Modulus (GPa) = 28.83516 32.54449 30.68983
#
# Velocity S-wave (km/s) = 3.42473 3.63835 3.53315
# Velocity P-wave (km/s) = 4.96438 5.58174 5.28209
#
# Compressibility (1/GPa) = 0.04516131
#
# Stress axis : x y z
#
# Youngs Moduli (GPa) = 46.74406 78.09079 102.65314
#
# Poissons Ratio (x) = -0.12399 -0.07599
# Poissons Ratio (y) = -0.07422 0.17630
# Poissons Ratio (z) = -0.03460 0.13412
#
# Static dielectric constant tensor:
#      x y z
#    x 1.814930 0.000000 -0.120050 
#    y 0.000000 1.950490 0.000000 
#    z -0.120050 0.000000 1.922090 
# 
# From -- ./inp_files/59067.got.cif
#   From: 2010.05.17/outbox.cif.g08.bks.cpg/sg14_30_cif.got.tgz:59067.got - 2010.06.03 17:49:19.
