data_PCOD9246354
_publ_section_title
;
Structure prediction by ZEFSAII (Michael W. Deem and Ramdas Pophale) SiO2 
 PCOD9246354
Probable space group: P 21/C
;
_chemical_formula_sum "Si O2"
_cell_formula_units_Z 28
_cell_length_a 11.348675
_cell_length_b 11.743280
_cell_length_c 9.544110
_cell_angle_alpha 90.000000
_cell_angle_beta 114.348856
_cell_angle_gamma 90.000000
_cell_volume 1158.812576
_symmetry_space_group_name_H-M "P 21/C"
_symmetry_group_IT_number 14
_symmetry_cell_setting 'monoclinic'
loop_
_space_group_symop_operation_xyz
x,y,z
-x,1/2+y,1/2-z
-x,-y,-z
x,1/2-y,1/2+z
loop_
_atom_site_type_symbol
_atom_site_label
_atom_site_fract_x
_atom_site_fract_y
_atom_site_fract_z
Si Si1 0.404082 0.291188 0.149627
Si Si2 0.580241 0.102192 0.106531
Si Si3 0.130550 0.477070 0.647942
Si Si4 0.831571 0.171252 0.317928
Si Si5 0.653895 0.126874 0.844888
Si Si6 0.777929 0.755787 0.189841
Si Si7 0.955668 0.157497 0.674692
O O1 0.486889 0.175895 0.159625
O O2 0.516853 0.385848 0.199539
O O3 0.336699 0.295951 0.266214
O O4 0.290810 0.292888 0.981212
O O5 0.721672 0.075498 0.240399
O O6 0.622168 0.168868 0.985670
O O7 0.500000 0.000000 0.000000
O O8 0.255496 0.517521 0.621101
O O9 0.150942 0.346925 0.695366
O O10 0.115833 0.554912 0.779810
O O11 0.000000 0.500000 0.500000
O O12 0.740259 0.276075 0.318416
O O13 0.925101 0.149933 0.494895
O O14 0.906160 0.222833 0.220300
O O15 0.891325 0.845939 0.219364
#
# Coordination Sequence:
#
# PCOD9246354 Si02
#       7
#     4   4   4   4   4   4   4
#     4  11  24  42  67  96 139 182 220 284 350 400
#     4  11  22  38  66  97 135 172 225 285 342 408
#     4  11  25  43  72  99 135 184 233 281 352 415
#     4  10  21  40  69  94 129 177 227 281 345 407
#     4  10  21  42  65  96 130 174 228 272 337 421
#     4  12  24  45  67  98 143 179 226 292 344 408
#     4  11  23  44  69 100 135 183 232 285 348 420
#
# _framework density 24.162662999999998
#
# number of rings (size 3 to 8) (size 9 to 14) (size 15 to 20)
#    0.000    1.143    2.857    4.286    0.000    1.714 
#    0.000    1.429    0.000    0.000    0.000    0.000 
#    0.000    0.000    0.000    0.000    0.000    0.000 
#
# Total GULP energy -156574.170281 kJ/mol
# GULP energy per Si atom -5591.934653 kJ/mol
# Density = 2.410767 g / cm^3
# Si number density = 24.162663 Si / 1000 Ang^3
#
#
#
# Elastic Constant Matrix: (Units=GPa)
#
#
# Indices 1 2 3 4 5 6 
#
# 1 138.0469 20.1256 18.9892 0.0000 12.3252 0.0000
# 2 20.1256 43.8674 -7.5056 0.0000 1.8071 0.0000
# 3 18.9892 -7.5056 113.5805 0.0000 27.2096 0.0000
# 4 0.0000 0.0000 0.0000 26.8501 0.0000 9.3650
# 5 12.3252 1.8071 27.2096 0.0000 43.5549 0.0000
# 6 0.0000 0.0000 0.0000 9.3650 0.0000 38.6219
#
#
#
# Elastic Compliance Matrix: (Units=1/GPa)
#
#
# Indices 1 2 3 4 5 6 
#
# 1 0.008107 -0.003886 -0.001295 0.000000 -0.001324 0.000000
# 2 -0.003886 0.025108 0.002699 0.000000 -0.001628 0.000000
# 3 -0.001295 0.002699 0.010747 0.000000 -0.006459 0.000000
# 4 0.000000 0.000000 0.000000 0.040685 0.000000 -0.009865
# 5 -0.001324 -0.001628 -0.006459 0.000000 0.027437 0.000000
# 6 0.000000 0.000000 0.000000 -0.009865 0.000000 0.028284
#
#
# Mechanical properties :
#
#
# Convention : Reuss Voigt Hill
#
# Bulk Modulus (GPa) = 25.64349 39.85704 32.75026
# Shear Modulus (GPa) = 31.57955 39.39775 35.48865
#
# Velocity S-wave (km/s) = 3.61911 4.04235 3.83657
# Velocity P-wave (km/s) = 5.30093 6.19020 5.76274
#
# Compressibility (1/GPa) = 0.03899626
#
# Stress axis : x y z
#
# Youngs Moduli (GPa) = 123.35289 39.82832 93.05313
#
# Poissons Ratio (x) = 0.15479 0.12051
# Poissons Ratio (y) = 0.47939 -0.25114
# Poissons Ratio (z) = 0.15975 -0.10749
#
# Static dielectric constant tensor:
#      x y z
#    x 1.993740 0.000000 0.038630 
#    y 0.000000 1.977980 0.000000 
#    z 0.038630 0.000000 1.975160 
# 
# From -- ./inp_files/13180.got.cif
#   From: 2010.05.17/outbox.cif.g08.bks.cpg/sg14_7_cif.got.tgz:13180.got - 2010.06.03 17:49:19.
