data_PCOD9246991
_publ_section_title
;
Structure prediction by ZEFSAII (Michael W. Deem and Ramdas Pophale) SiO2 
 PCOD9246991
Probable space group: P 21/C
;
_chemical_formula_sum "Si O2"
_cell_formula_units_Z 32
_cell_length_a 6.369693
_cell_length_b 27.683278
_cell_length_c 8.838764
_cell_angle_alpha 90.000000
_cell_angle_beta 111.795217
_cell_angle_gamma 90.000000
_cell_volume 1447.162603
_symmetry_space_group_name_H-M "P 21/C"
_symmetry_group_IT_number 14
_symmetry_cell_setting 'monoclinic'
loop_
_space_group_symop_operation_xyz
x,y,z
-x,1/2+y,1/2-z
-x,-y,-z
x,1/2-y,1/2+z
loop_
_atom_site_type_symbol
_atom_site_label
_atom_site_fract_x
_atom_site_fract_y
_atom_site_fract_z
Si Si1 0.742946 0.957298 0.295953
Si Si2 0.949751 0.623730 0.261184
Si Si3 0.112679 0.682645 0.766707
Si Si4 0.235858 0.392407 0.464777
Si Si5 0.375747 0.684833 0.397085
Si Si6 0.242072 0.736891 0.078758
Si Si7 0.209120 0.939950 0.587610
Si Si8 0.525658 0.621864 0.955716
O O1 0.724149 0.941176 0.117602
O O2 0.605483 0.918134 0.356778
O O3 0.005089 0.953120 0.418416
O O4 0.673296 0.011248 0.322661
O O5 0.853775 0.601010 0.389406
O O6 0.746581 0.641086 0.099897
O O7 0.120027 0.666175 0.350824
O O8 0.093634 0.586425 0.198812
O O9 0.101329 0.726870 0.647263
O O10 0.945535 0.639899 0.677201
O O11 0.088852 0.704168 0.928416
O O12 0.367193 0.661141 0.834177
O O13 0.456689 0.358878 0.529624
O O14 0.386763 0.703552 0.228837
O O15 0.400051 0.730011 0.515143
O O16 0.375955 0.904890 0.543149
#
# Coordination Sequence:
#
# PCOD9246991 Si02
#       8
#     4   4   4   4   4   4   4   4
#     4  10  23  38  70 100 128 175 220 274 322 392
#     4  11  24  42  66  94 135 177 213 268 331 392
#     4  11  22  42  63  96 125 169 213 269 324 388
#     4  12  24  41  67  96 133 173 213 270 333 387
#     4  11  24  45  62  95 130 171 220 267 330 392
#     4  10  23  43  64  91 129 164 222 270 319 392
#     4  10  21  43  65  99 134 169 226 267 323 396
#     4  11  22  44  69  94 131 177 218 269 333 389
#
# _framework density 22.112233
#
# number of rings (size 3 to 8) (size 9 to 14) (size 15 to 20)
#    0.000    1.250    2.500    3.375    1.750    1.500 
#    9.000    2.500    0.000    0.000    0.000    0.000 
#    0.000    0.000    0.000    0.000    0.000    0.000 
#
# Total GULP energy -179072.444247 kJ/mol
# GULP energy per Si atom -5596.013883 kJ/mol
# Density = 2.206190 g / cm^3
# Si number density = 22.112233 Si / 1000 Ang^3
#
#
#
# Elastic Constant Matrix: (Units=GPa)
#
#
# Indices 1 2 3 4 5 6 
#
# 1 63.9892 -5.7287 15.2119 0.0000 -2.0206 0.0000
# 2 -5.7287 17.3622 -7.8186 0.0000 8.3280 0.0000
# 3 15.2119 -7.8186 77.4781 0.0000 -3.2393 0.0000
# 4 0.0000 0.0000 0.0000 13.9748 0.0000 -0.6693
# 5 -2.0206 8.3280 -3.2393 0.0000 29.3558 0.0000
# 6 0.0000 0.0000 0.0000 -0.6693 0.0000 14.7121
#
#
#
# Elastic Compliance Matrix: (Units=1/GPa)
#
#
# Indices 1 2 3 4 5 6 
#
# 1 0.016687 0.004426 -0.002847 0.000000 -0.000421 0.000000
# 2 0.004426 0.070704 0.005465 0.000000 -0.019150 0.000000
# 3 -0.002847 0.005465 0.014009 0.000000 -0.000201 0.000000
# 4 0.000000 0.000000 0.000000 0.071713 0.000000 0.003262
# 5 -0.000421 -0.019150 -0.000201 0.000000 0.039447 0.000000
# 6 0.000000 0.000000 0.000000 0.003262 0.000000 0.068119
#
#
# Mechanical properties :
#
#
# Convention : Reuss Voigt Hill
#
# Bulk Modulus (GPa) = 8.65894 18.01765 13.33830
# Shear Modulus (GPa) = 16.38872 22.08620 19.23746
#
# Velocity S-wave (km/s) = 2.72538 3.16384 2.95276
# Velocity P-wave (km/s) = 3.71860 4.63816 4.20360
#
# Compressibility (1/GPa) = 0.11548754
#
# Stress axis : x y z
#
# Youngs Moduli (GPa) = 59.92525 14.14356 71.38236
#
# Poissons Ratio (x) = -0.06260 0.20325
# Poissons Ratio (y) = -0.26522 -0.39013
# Poissons Ratio (z) = 0.17063 -0.07730
#
# Static dielectric constant tensor:
#      x y z
#    x 1.800330 0.000000 -0.012760 
#    y 0.000000 1.796750 0.000000 
#    z -0.012760 0.000000 1.834280 
# 
# From -- ./inp_files/6999.got.cif
#   From: 2010.05.17/outbox.cif.g08.bks.cpg/sg14_4_cif.got.tgz:6999.got - 2010.06.03 17:49:19.
