data_PCOD9246668
_publ_section_title
;
Structure prediction by ZEFSAII (Michael W. Deem and Ramdas Pophale) SiO2 
 PCOD9246668
Probable space group: P 21/C
;
_chemical_formula_sum "Si O2"
_cell_formula_units_Z 32
_cell_length_a 23.090825
_cell_length_b 13.320665
_cell_length_c 15.771246
_cell_angle_alpha 90.000000
_cell_angle_beta 18.914275
_cell_angle_gamma 90.000000
_cell_volume 1572.467108
_symmetry_space_group_name_H-M "P 21/C"
_symmetry_group_IT_number 14
_symmetry_cell_setting 'monoclinic'
loop_
_space_group_symop_operation_xyz
x,y,z
-x,1/2+y,1/2-z
-x,-y,-z
x,1/2-y,1/2+z
loop_
_atom_site_type_symbol
_atom_site_label
_atom_site_fract_x
_atom_site_fract_y
_atom_site_fract_z
Si Si1 0.586601 0.282338 0.250238
Si Si2 0.583268 0.060017 0.192326
Si Si3 0.117295 0.700886 0.014022
Si Si4 0.996304 0.597666 0.615183
Si Si5 0.303503 0.394330 0.754833
Si Si6 0.592949 0.097910 0.981937
Si Si7 0.266428 0.561602 0.093168
Si Si8 0.059309 0.513775 0.703616
O O1 0.543264 0.173243 0.275069
O O2 0.408922 0.324381 0.542697
O O3 0.748920 0.274190 0.093354
O O4 0.656162 0.358298 0.081051
O O5 0.426392 0.982011 0.428265
O O6 0.597709 0.062302 0.070745
O O7 0.765171 0.028231 0.984793
O O8 0.988095 0.790115 0.163922
O O9 0.015046 0.598494 0.178872
O O10 0.256649 0.680396 0.744259
O O11 0.113956 0.601798 0.366902
O O12 0.088194 0.534567 0.564110
O O13 0.820806 0.533551 0.835278
O O14 0.350262 0.505637 0.656731
O O15 0.400800 0.373011 0.709697
O O16 0.091255 0.404117 0.058880
#
# Coordination Sequence:
#
# PCOD9246668 Si02
#       8
#     4   4   4   4   4   4   4   4
#     4  11  21  43  66  96 134 174 219 271 336 390
#     4  12  24  40  65 104 134 166 220 280 331 393
#     4  10  21  41  69  96 130 177 220 268 324 392
#     4  11  23  46  67  95 133 181 223 259 340 405
#     4   9  19  39  68  87 122 173 214 264 324 388
#     4   9  18  37  65  91 124 164 212 268 323 379
#     4  11  25  44  70  93 137 178 216 277 333 402
#     4  11  23  41  69  98 133 170 223 279 319 390
#
# _framework density 20.350186000000001
#
# number of rings (size 3 to 8) (size 9 to 14) (size 15 to 20)
#    0.000    1.500    3.750    2.250    0.000    3.500 
#    9.000    1.250    0.000    0.000    0.000    0.000 
#    0.000    0.000    0.000    0.000    0.000    0.000 
#
# Total GULP energy -178557.689000 kJ/mol
# GULP energy per Si atom -5579.927781 kJ/mol
# Density = 2.030387 g / cm^3
# Si number density = 20.350186 Si / 1000 Ang^3
#
#
#
# Elastic Constant Matrix: (Units=GPa)
#
#
# Indices 1 2 3 4 5 6 
#
# 1 66.2578 -2.9889 17.7069 0.0000 -4.5452 0.0000
# 2 -2.9889 52.0274 -16.1696 0.0000 1.4216 0.0000
# 3 17.7069 -16.1696 21.6752 0.0000 -0.3041 0.0000
# 4 0.0000 0.0000 0.0000 23.2303 0.0000 -0.8583
# 5 -4.5452 1.4216 -0.3041 0.0000 36.3005 0.0000
# 6 0.0000 0.0000 0.0000 -0.8583 0.0000 18.7033
#
#
#
# Elastic Compliance Matrix: (Units=1/GPa)
#
#
# Indices 1 2 3 4 5 6 
#
# 1 0.020578 -0.005341 -0.020758 0.000000 0.002612 0.000000
# 2 -0.005341 0.026433 0.024060 0.000000 -0.001502 0.000000
# 3 -0.020758 0.024060 0.081003 0.000000 -0.002863 0.000000
# 4 0.000000 0.000000 0.000000 0.043120 0.000000 0.001979
# 5 0.002612 -0.001502 -0.002863 0.000000 0.027910 0.000000
# 6 0.000000 0.000000 0.000000 0.001979 0.000000 0.053557
#
#
# Mechanical properties :
#
#
# Convention : Reuss Voigt Hill
#
# Bulk Modulus (GPa) = 8.06865 15.22859 11.64862
# Shear Modulus (GPa) = 16.77907 25.07428 20.92668
#
# Velocity S-wave (km/s) = 2.87456 3.51399 3.21024
# Velocity P-wave (km/s) = 3.87181 4.89527 4.41331
#
# Compressibility (1/GPa) = 0.12393642
#
# Stress axis : x y z
#
# Youngs Moduli (GPa) = 48.59479 37.83199 12.34529
#
# Poissons Ratio (x) = 0.20205 0.25627
# Poissons Ratio (y) = 0.25953 -0.29703
# Poissons Ratio (z) = 1.00875 -0.91026
#
# Static dielectric constant tensor:
#      x y z
#    x 1.717190 0.000000 0.012180 
#    y 0.000000 1.730630 0.000000 
#    z 0.012180 0.000000 1.759370 
# 
# From -- ./inp_files/50677.got.cif
#   From: 2010.05.17/outbox.cif.g08.bks.cpg/sg14_26_cif.got.tgz:50677.got - 2010.06.03 17:49:19.
