data_PCOD9246208
_publ_section_title
;
Structure prediction by ZEFSAII (Michael W. Deem and Ramdas Pophale) SiO2 
 PCOD9246208
Probable space group: P 21/C
;
_chemical_formula_sum "Si O2"
_cell_formula_units_Z 20
_cell_length_a 7.325212
_cell_length_b 9.819001
_cell_length_c 17.869908
_cell_angle_alpha 90.000000
_cell_angle_beta 144.144831
_cell_angle_gamma 90.000000
_cell_volume 752.858723
_symmetry_space_group_name_H-M "P 21/C"
_symmetry_group_IT_number 14
_symmetry_cell_setting 'monoclinic'
loop_
_space_group_symop_operation_xyz
x,y,z
-x,1/2+y,1/2-z
-x,-y,-z
x,1/2-y,1/2+z
loop_
_atom_site_type_symbol
_atom_site_label
_atom_site_fract_x
_atom_site_fract_y
_atom_site_fract_z
Si Si1 0.245548 0.376918 0.864162
Si Si2 0.943951 0.597657 0.680009
Si Si3 0.324872 0.012975 0.055375
Si Si4 0.780503 0.462918 0.833239
Si Si5 0.873691 0.208962 0.513046
O O1 0.031101 0.245553 0.775367
O O2 0.593339 0.319528 0.978926
O O3 0.215209 0.495679 0.793132
O O4 0.095426 0.427850 0.891226
O O5 0.870862 0.604359 0.567625
O O6 0.642694 0.528163 0.617330
O O7 0.480887 0.065824 0.183082
O O8 0.140219 0.870594 0.004167
O O9 0.782442 0.371716 0.907325
O O10 0.818151 0.626037 0.859723
#
# Coordination Sequence:
#
# PCOD9246208 Si02
#       5
#     4   4   4   4   4
#     4  10  21  40  65  91 123 164 204 258 306 374
#     4   9  20  38  65  94 121 165 209 250 315 368
#     4   9  20  39  63  88 128 160 204 261 307 369
#     4  10  22  42  59  93 125 156 212 257 303 374
#     4  10  22  39  64  88 120 169 203 254 315 361
#
# _framework density 26.565408999999999
#
# number of rings (size 3 to 8) (size 9 to 14) (size 15 to 20)
#    0.000    2.400    0.000    0.600    8.400    1.600 
#   14.400    2.000    0.000    0.000    0.000    0.000 
#    0.000    0.000    0.000    0.000    0.000    0.000 
#
# Total GULP energy -111864.363090 kJ/mol
# GULP energy per Si atom -5593.218155 kJ/mol
# Density = 2.650494 g / cm^3
# Si number density = 26.565409 Si / 1000 Ang^3
#
#
#
# Elastic Constant Matrix: (Units=GPa)
#
#
# Indices 1 2 3 4 5 6 
#
# 1 94.9915 -22.7224 33.9502 0.0000 -3.0147 0.0000
# 2 -22.7224 104.4188 24.3754 0.0000 -13.3726 0.0000
# 3 33.9502 24.3754 86.3718 0.0000 -7.6016 0.0000
# 4 0.0000 0.0000 0.0000 31.0159 0.0000 -0.5950
# 5 -3.0147 -13.3726 -7.6016 0.0000 17.6656 0.0000
# 6 0.0000 0.0000 0.0000 -0.5950 0.0000 28.8224
#
#
#
# Elastic Compliance Matrix: (Units=1/GPa)
#
#
# Indices 1 2 3 4 5 6 
#
# 1 0.014274 0.005119 -0.006756 0.000000 0.003404 0.000000
# 2 0.005119 0.012932 -0.004909 0.000000 0.008550 0.000000
# 3 -0.006756 -0.004909 0.015788 0.000000 0.001925 0.000000
# 4 0.000000 0.000000 0.000000 0.032254 0.000000 0.000666
# 5 0.003404 0.008550 0.001925 0.000000 0.064489 0.000000
# 6 0.000000 0.000000 0.000000 0.000666 0.000000 0.034709
#
#
# Mechanical properties :
#
#
# Convention : Reuss Voigt Hill
#
# Bulk Modulus (GPa) = 33.44186 39.66541 36.55364
# Shear Modulus (GPa) = 25.31563 32.17937 28.74750
#
# Velocity S-wave (km/s) = 3.09035 3.48419 3.29316
# Velocity P-wave (km/s) = 5.03483 5.58119 5.31503
#
# Compressibility (1/GPa) = 0.02990264
#
# Stress axis : x y z
#
# Youngs Moduli (GPa) = 70.05513 77.32834 63.33803
#
# Poissons Ratio (x) = -0.39587 0.42791
# Poissons Ratio (y) = -0.35863 0.31095
# Poissons Ratio (z) = 0.47329 0.37963
#
# Static dielectric constant tensor:
#      x y z
#    x 2.122720 0.000000 -0.010540 
#    y 0.000000 2.128380 0.000000 
#    z -0.010540 0.000000 2.071740 
# 
# From -- ./inp_files/64923.got.cif
#   From: 2010.05.17/outbox.cif.g08.bks.cpg/sg14_33_cif.got.tgz:64923.got - 2010.06.03 17:49:19.
