data_PCOD9246995
_publ_section_title
;
Structure prediction by ZEFSAII (Michael W. Deem and Ramdas Pophale) SiO2 
 PCOD9246995
Probable space group: P 21/C
;
_chemical_formula_sum "Si O2"
_cell_formula_units_Z 22
_cell_length_a 25.373172
_cell_length_b 5.166928
_cell_length_c 12.843058
_cell_angle_alpha 90.000000
_cell_angle_beta 28.733360
_cell_angle_gamma 90.000000
_cell_volume 809.432375
_symmetry_space_group_name_H-M "P 21/C"
_symmetry_group_IT_number 14
_symmetry_cell_setting 'monoclinic'
loop_
_space_group_symop_operation_xyz
x,y,z
-x,1/2+y,1/2-z
-x,-y,-z
x,1/2-y,1/2+z
loop_
_atom_site_type_symbol
_atom_site_label
_atom_site_fract_x
_atom_site_fract_y
_atom_site_fract_z
Si Si1 0.500000 0.500000 0.000000
Si Si2 0.568785 0.569351 0.101956
Si Si3 0.160885 0.525085 0.792858
Si Si4 0.182189 0.125812 0.471509
Si Si5 0.685283 0.147289 0.590261
Si Si6 0.944408 0.964218 0.947168
O O1 0.587804 0.540789 0.946778
O O2 0.427400 0.740146 0.171564
O O3 0.523966 0.847063 0.216709
O O4 0.664868 0.488231 0.014120
O O5 0.230361 0.482832 0.779173
O O6 0.236166 0.609048 0.567879
O O7 0.912754 0.730975 0.080133
O O8 0.086471 0.770766 0.946118
O O9 0.263382 0.062134 0.422667
O O10 0.069367 0.973092 0.694811
O O11 0.132441 0.400122 0.520179
#
# Coordination Sequence:
#
# PCOD9246995 Si02
#       6
#     2   4   4   4   4   4
#     4  10  24  50  76  98 152 188 246 328 362 432
#     4  10  24  48  70 104 135 184 246 308 374 435
#     4  10  22  42  64 106 144 192 240 295 360 452
#     4  10  21  44  70 106 148 197 238 303 366 446
#     4  11  24  44  73 110 140 197 254 304 374 441
#     4  10  21  43  66 102 155 188 240 295 371 439
#
# _framework density 27.179538999999998
#
# number of rings (size 3 to 8) (size 9 to 14) (size 15 to 20)
#    1.091    0.727    1.818    1.091    0.000    7.273 
#   13.091    0.000    0.000    0.000    0.000    0.000 
#    0.000    0.000    0.000    0.000    0.000    0.000 
#
# Total GULP energy -122759.699471 kJ/mol
# GULP energy per Si atom -5579.986340 kJ/mol
# Density = 2.711768 g / cm^3
# Si number density = 27.179539 Si / 1000 Ang^3
#
#
#
# Elastic Constant Matrix: (Units=GPa)
#
#
# Indices 1 2 3 4 5 6 
#
# 1 172.3818 -4.1705 12.6269 0.0000 -9.8687 0.0000
# 2 -4.1705 108.5507 31.4993 0.0000 8.6673 0.0000
# 3 12.6269 31.4993 80.4017 0.0000 5.6247 0.0000
# 4 0.0000 0.0000 0.0000 38.4529 0.0000 15.0682
# 5 -9.8687 8.6673 5.6247 0.0000 18.7122 0.0000
# 6 0.0000 0.0000 0.0000 15.0682 0.0000 18.6386
#
#
#
# Elastic Compliance Matrix: (Units=1/GPa)
#
#
# Indices 1 2 3 4 5 6 
#
# 1 0.006106 0.000346 -0.001337 0.000000 0.003461 0.000000
# 2 0.000346 0.010666 -0.003984 0.000000 -0.003560 0.000000
# 3 -0.001337 -0.003984 0.014432 0.000000 -0.003198 0.000000
# 4 0.000000 0.000000 0.000000 0.038065 0.000000 -0.030773
# 5 0.003461 -0.003560 -0.003198 0.000000 0.057877 0.000000
# 6 0.000000 0.000000 0.000000 -0.030773 0.000000 0.078530
#
#
# Mechanical properties :
#
#
# Convention : Reuss Voigt Hill
#
# Bulk Modulus (GPa) = 47.04891 49.02730 48.03811
# Shear Modulus (GPa) = 22.45083 36.58597 29.51840
#
# Velocity S-wave (km/s) = 2.87717 3.67288 3.29911
# Velocity P-wave (km/s) = 5.32780 6.00535 5.67670
#
# Compressibility (1/GPa) = 0.02125448
#
# Stress axis : x y z
#
# Youngs Moduli (GPa) = 163.78624 93.75673 69.29073
#
# Poissons Ratio (x) = -0.03244 0.09261
# Poissons Ratio (y) = -0.05668 0.27605
# Poissons Ratio (z) = 0.21891 0.37352
#
# Static dielectric constant tensor:
#      x y z
#    x 2.171930 0.000000 0.020330 
#    y 0.000000 2.103690 0.000000 
#    z 0.020330 0.000000 2.122190 
# 
# From -- ./inp_files/51657.got.cif
#   From: 2010.05.17/outbox.cif.g08.bks.cpg/sg14_26_cif.got.tgz:51657.got - 2010.06.03 17:49:19.
