data_PCOD9246469
_publ_section_title
;
Structure prediction by ZEFSAII (Michael W. Deem and Ramdas Pophale) SiO2 
 PCOD9246469
Probable space group: P 21/C
;
_chemical_formula_sum "Si O2"
_cell_formula_units_Z 32
_cell_length_a 25.480361
_cell_length_b 10.847633
_cell_length_c 12.640411
_cell_angle_alpha 90.000000
_cell_angle_beta 154.794628
_cell_angle_gamma 90.000000
_cell_volume 1487.896809
_symmetry_space_group_name_H-M "P 21/C"
_symmetry_group_IT_number 14
_symmetry_cell_setting 'monoclinic'
loop_
_space_group_symop_operation_xyz
x,y,z
-x,1/2+y,1/2-z
-x,-y,-z
x,1/2-y,1/2+z
loop_
_atom_site_type_symbol
_atom_site_label
_atom_site_fract_x
_atom_site_fract_y
_atom_site_fract_z
Si Si1 0.704456 0.861013 0.588648
Si Si2 0.899792 0.704228 0.039809
Si Si3 0.621940 0.059733 0.272925
Si Si4 0.493248 0.153645 0.233428
Si Si5 0.277163 0.917673 0.229000
Si Si6 0.916904 0.397583 0.790181
Si Si7 0.882847 0.221195 0.432304
Si Si8 0.724246 0.487217 0.746300
O O1 0.688680 0.952602 0.462012
O O2 0.587135 0.773006 0.388957
O O3 0.718370 0.945529 0.716877
O O4 0.824931 0.777508 0.813683
O O5 0.001700 0.629441 0.163080
O O6 0.980755 0.784277 0.267804
O O7 0.803778 0.609763 0.917669
O O8 0.698556 0.089164 0.307182
O O9 0.576457 0.158129 0.277590
O O10 0.500000 0.000000 0.000000
O O11 0.584682 0.130867 0.498045
O O12 0.398439 0.040675 0.034802
O O13 0.192603 0.833983 0.153848
O O14 0.217603 0.923359 0.004662
O O15 0.900143 0.282221 0.838420
O O16 0.000000 0.500000 0.000000
O O17 0.803724 0.100116 0.316405
#
# Coordination Sequence:
#
# PCOD9246469 Si02
#       8
#     4   4   4   4   4   4   4   4
#     4  10  21  41  63  93 131 162 214 272 315 396
#     4  10  23  39  65  96 126 172 215 265 323 382
#     4   9  20  38  65  92 121 168 209 258 325 380
#     4   9  21  41  65  92 130 162 212 270 326 382
#     4  10  24  40  66  97 125 172 213 266 330 384
#     4  11  22  44  66  94 131 173 216 269 327 379
#     4  11  24  40  68  88 137 166 218 272 319 389
#     4  10  21  42  65  94 126 175 213 268 324 381
#
# _framework density 21.506868000000001
#
# number of rings (size 3 to 8) (size 9 to 14) (size 15 to 20)
#    0.000    2.000    1.250    0.750    8.750    4.000 
#    4.500    1.875    0.000    0.000    0.000    0.000 
#    0.000    0.000    0.000    0.000    0.000    0.000 
#
# Total GULP energy -178419.145161 kJ/mol
# GULP energy per Si atom -5575.598286 kJ/mol
# Density = 2.145792 g / cm^3
# Si number density = 21.506868 Si / 1000 Ang^3
#
#
#
# Elastic Constant Matrix: (Units=GPa)
#
#
# Indices 1 2 3 4 5 6 
#
# 1 35.4491 -10.5774 29.0015 0.0000 -6.6959 0.0000
# 2 -10.5774 39.5554 28.5203 0.0000 1.8377 0.0000
# 3 29.0015 28.5203 164.1387 0.0000 -14.1135 0.0000
# 4 0.0000 0.0000 0.0000 16.9106 0.0000 -4.4957
# 5 -6.6959 1.8377 -14.1135 0.0000 32.6193 0.0000
# 6 0.0000 0.0000 0.0000 -4.4957 0.0000 23.1739
#
#
#
# Elastic Compliance Matrix: (Units=1/GPa)
#
#
# Indices 1 2 3 4 5 6 
#
# 1 0.043271 0.019137 -0.010698 0.000000 0.003176 0.000000
# 2 0.019137 0.037863 -0.010185 0.000000 -0.002611 0.000000
# 3 -0.010698 -0.010185 0.009984 0.000000 0.002698 0.000000
# 4 0.000000 0.000000 0.000000 0.062350 0.000000 0.012096
# 5 0.003176 -0.002611 0.002698 0.000000 0.032623 0.000000
# 6 0.000000 0.000000 0.000000 0.012096 0.000000 0.045498
#
#
# Mechanical properties :
#
#
# Convention : Reuss Voigt Hill
#
# Bulk Modulus (GPa) = 11.41197 37.00353 24.20775
# Shear Modulus (GPa) = 18.91857 27.35402 23.13630
#
# Velocity S-wave (km/s) = 2.96911 3.57020 3.28344
# Velocity P-wave (km/s) = 4.13181 5.85132 5.06507
#
# Compressibility (1/GPa) = 0.08762727
#
# Stress axis : x y z
#
# Youngs Moduli (GPa) = 23.10999 26.41095 100.15822
#
# Poissons Ratio (x) = -0.50542 1.07146
# Poissons Ratio (y) = -0.44225 1.02009
# Poissons Ratio (z) = 0.24722 0.26899
#
# Static dielectric constant tensor:
#      x y z
#    x 2.156520 0.000000 0.483110 
#    y 0.000000 1.820440 0.000000 
#    z 0.483110 0.000000 2.452690 
# 
# From -- ./inp_files/35923.got.cif
#   From: 2010.05.17/outbox.cif.g08.bks.cpg/sg14_18_cif.got.tgz:35923.got - 2010.06.03 17:49:19.
