data_PCOD9246851
_publ_section_title
;
Structure prediction by ZEFSAII (Michael W. Deem and Ramdas Pophale) SiO2 
 PCOD9246851
Probable space group: P 21/C
;
_chemical_formula_sum "Si O2"
_cell_formula_units_Z 20
_cell_length_a 15.650825
_cell_length_b 11.598489
_cell_length_c 12.861006
_cell_angle_alpha 90.000000
_cell_angle_beta 21.204563
_cell_angle_gamma 90.000000
_cell_volume 844.424220
_symmetry_space_group_name_H-M "P 21/C"
_symmetry_group_IT_number 14
_symmetry_cell_setting 'monoclinic'
loop_
_space_group_symop_operation_xyz
x,y,z
-x,1/2+y,1/2-z
-x,-y,-z
x,1/2-y,1/2+z
loop_
_atom_site_type_symbol
_atom_site_label
_atom_site_fract_x
_atom_site_fract_y
_atom_site_fract_z
Si Si1 0.021585 0.104335 0.830749
Si Si2 0.804382 0.470507 0.371164
Si Si3 0.298857 0.406032 0.700693
Si Si4 0.659733 0.069830 0.399956
Si Si5 0.584069 0.724182 0.243491
O O1 0.177604 0.195954 0.590017
O O2 0.877069 0.030632 0.908807
O O3 0.195028 0.020956 0.696700
O O4 0.838856 0.146200 0.125706
O O5 0.726252 0.582900 0.394145
O O6 0.608329 0.370788 0.575645
O O7 0.048864 0.437018 0.036184
O O8 0.500000 0.500000 0.500000
O O9 0.371243 0.293917 0.682779
O O10 0.524750 0.150243 0.633823
O O11 0.500000 0.000000 0.500000
#
# Coordination Sequence:
#
# PCOD9246851 Si02
#       5
#     4   4   4   4   4
#     4  10  23  42  67  96 130 179 221 268 336 392
#     4   9  17  37  61  93 131 164 216 272 324 385
#     4   8  16  32  60  94 129 165 211 269 324 386
#     4  11  25  47  66  94 139 175 218 275 331 398
#     4  10  21  42  67  94 128 173 222 269 331 395
#
# _framework density 23.684777
#
# number of rings (size 3 to 8) (size 9 to 14) (size 15 to 20)
#    0.000    2.400    0.000    1.200    0.000    6.400 
#    0.000   52.000    0.000    0.000    0.000    0.000 
#    0.000    0.000    0.000    0.000    0.000    0.000 
#
# Total GULP energy -111655.381236 kJ/mol
# GULP energy per Si atom -5582.769062 kJ/mol
# Density = 2.363087 g / cm^3
# Si number density = 23.684777 Si / 1000 Ang^3
#
#
#
# Elastic Constant Matrix: (Units=GPa)
#
#
# Indices 1 2 3 4 5 6 
#
# 1 167.6639 22.2289 35.0815 0.0000 0.0560 0.0000
# 2 22.2289 36.0529 37.5271 0.0000 11.2604 0.0000
# 3 35.0815 37.5271 158.1384 0.0000 34.0373 0.0000
# 4 0.0000 0.0000 0.0000 35.2413 0.0000 3.3748
# 5 0.0560 11.2604 34.0373 0.0000 47.8389 0.0000
# 6 0.0000 0.0000 0.0000 3.3748 0.0000 19.7583
#
#
#
# Elastic Compliance Matrix: (Units=1/GPa)
#
#
# Indices 1 2 3 4 5 6 
#
# 1 0.006636 -0.003576 -0.000948 0.000000 0.001509 0.000000
# 2 -0.003576 0.039105 -0.007683 0.000000 -0.003734 0.000000
# 3 -0.000948 -0.007683 0.009409 0.000000 -0.004885 0.000000
# 4 0.000000 0.000000 0.000000 0.028848 0.000000 -0.004927
# 5 0.001509 -0.003734 -0.004885 0.000000 0.025256 0.000000
# 6 0.000000 0.000000 0.000000 -0.004927 0.000000 0.051453
#
#
# Mechanical properties :
#
#
# Convention : Reuss Voigt Hill
#
# Bulk Modulus (GPa) = 32.53539 61.28114 46.90826
# Shear Modulus (GPa) = 25.59298 38.36888 31.98093
#
# Velocity S-wave (km/s) = 3.29076 4.02926 3.67859
# Velocity P-wave (km/s) = 5.31088 6.89757 6.15556
#
# Compressibility (1/GPa) = 0.03073577
#
# Stress axis : x y z
#
# Youngs Moduli (GPa) = 150.68596 25.57222 106.28686
#
# Poissons Ratio (x) = 0.09144 0.10080
# Poissons Ratio (y) = 0.53882 0.81659
# Poissons Ratio (z) = 0.14291 0.19647
#
# Static dielectric constant tensor:
#      x y z
#    x 1.903950 0.000000 0.001190 
#    y 0.000000 1.887490 0.000000 
#    z 0.001190 0.000000 1.906100 
# 
# From -- ./inp_files/48850.got.cif
#   From: 2010.05.17/outbox.cif.g08.bks.cpg/sg14_25_cif.got.tgz:48850.got - 2010.06.03 17:49:19.
