data_PCOD9246797
_publ_section_title
;
Structure prediction by ZEFSAII (Michael W. Deem and Ramdas Pophale) SiO2 
 PCOD9246797
Probable space group: P 21/C
;
_chemical_formula_sum "Si O2"
_cell_formula_units_Z 32
_cell_length_a 13.554107
_cell_length_b 12.494569
_cell_length_c 16.029153
_cell_angle_alpha 90.000000
_cell_angle_beta 146.090356
_cell_angle_gamma 90.000000
_cell_volume 1514.423357
_symmetry_space_group_name_H-M "P 21/C"
_symmetry_group_IT_number 14
_symmetry_cell_setting 'monoclinic'
loop_
_space_group_symop_operation_xyz
x,y,z
-x,1/2+y,1/2-z
-x,-y,-z
x,1/2-y,1/2+z
loop_
_atom_site_type_symbol
_atom_site_label
_atom_site_fract_x
_atom_site_fract_y
_atom_site_fract_z
Si Si1 0.388244 0.750021 0.561321
Si Si2 0.424713 0.885704 0.425965
Si Si3 0.971823 0.150373 0.152940
Si Si4 0.958974 0.269448 0.964856
Si Si5 0.407510 0.868398 0.751149
Si Si6 0.946567 0.438973 0.379758
Si Si7 0.289900 0.273586 0.985475
Si Si8 0.294740 0.112579 0.666578
O O1 0.359205 0.822901 0.460892
O O2 0.390541 0.824148 0.645051
O O3 0.575369 0.689938 0.690275
O O4 0.229658 0.665592 0.459702
O O5 0.258499 0.912510 0.252845
O O6 0.577465 0.821125 0.489768
O O7 0.500000 0.000000 0.500000
O O8 0.983359 0.211120 0.071520
O O9 0.099766 0.210430 0.308565
O O10 0.019845 0.024721 0.170347
O O11 0.094290 0.367604 0.054542
O O12 0.755919 0.309305 0.815237
O O13 0.022731 0.181847 0.939602
O O14 0.606285 0.836928 0.919785
O O15 0.365195 0.993057 0.724199
O O16 0.000000 0.500000 0.500000
O O17 0.304535 0.347768 0.077702
#
# Coordination Sequence:
#
# PCOD9246797 Si02
#       8
#     4   4   4   4   4   4   4   4
#     4  10  25  42  61  92 135 160 214 268 318 381
#     4  12  22  41  66  94 126 167 215 266 318 379
#     4  10  22  42  62  98 128 160 209 275 323 380
#     4  10  21  42  65  91 129 166 212 259 325 391
#     4  10  22  43  62  90 128 173 209 266 321 384
#     4  10  22  37  69  96 123 160 210 265 325 376
#     4  11  23  39  65  93 126 163 222 266 313 384
#     4  11  24  41  63  91 126 177 211 260 326 383
#
# _framework density 21.130154999999998
#
# number of rings (size 3 to 8) (size 9 to 14) (size 15 to 20)
#    0.000    1.500    2.500    1.875    5.250    2.000 
#    0.000    2.500    0.000    0.000    0.000    0.000 
#    0.000    0.000    0.000    0.000    0.000    0.000 
#
# Total GULP energy -178555.748435 kJ/mol
# GULP energy per Si atom -5579.867139 kJ/mol
# Density = 2.108206 g / cm^3
# Si number density = 21.130155 Si / 1000 Ang^3
#
#
#
# Elastic Constant Matrix: (Units=GPa)
#
#
# Indices 1 2 3 4 5 6 
#
# 1 47.6426 3.5124 -3.9015 0.0000 4.5718 0.0000
# 2 3.5124 101.8481 8.0285 0.0000 -6.2865 0.0000
# 3 -3.9015 8.0285 96.6554 0.0000 0.3607 0.0000
# 4 0.0000 0.0000 0.0000 33.1065 0.0000 0.8680
# 5 4.5718 -6.2865 0.3607 0.0000 20.4835 0.0000
# 6 0.0000 0.0000 0.0000 0.8680 0.0000 22.3775
#
#
#
# Elastic Compliance Matrix: (Units=1/GPa)
#
#
# Indices 1 2 3 4 5 6 
#
# 1 0.021654 -0.001146 0.000989 0.000000 -0.005202 0.000000
# 2 -0.001146 0.010138 -0.000901 0.000000 0.003383 0.000000
# 3 0.000989 -0.000901 0.010463 0.000000 -0.000681 0.000000
# 4 0.000000 0.000000 0.000000 0.030236 0.000000 -0.001173
# 5 -0.005202 0.003383 -0.000681 0.000000 0.051031 0.000000
# 6 0.000000 0.000000 0.000000 -0.001173 0.000000 0.044733
#
#
# Mechanical properties :
#
#
# Convention : Reuss Voigt Hill
#
# Bulk Modulus (GPa) = 24.91325 29.04720 26.98022
# Shear Modulus (GPa) = 27.21057 31.09394 29.15225
#
# Velocity S-wave (km/s) = 3.59243 3.84023 3.71840
# Velocity P-wave (km/s) = 5.38734 5.78272 5.58852
#
# Compressibility (1/GPa) = 0.04013929
#
# Stress axis : x y z
#
# Youngs Moduli (GPa) = 46.18026 98.63983 95.57191
#
# Poissons Ratio (x) = 0.11302 -0.09449
# Poissons Ratio (y) = 0.05291 0.08611
# Poissons Ratio (z) = -0.04566 0.08887
#
# Static dielectric constant tensor:
#      x y z
#    x 1.746400 0.000000 -0.015040 
#    y 0.000000 1.812450 0.000000 
#    z -0.015040 0.000000 1.745150 
# 
# From -- ./inp_files/59508.got.cif
#   From: 2010.05.17/outbox.cif.g08.bks.cpg/sg14_30_cif.got.tgz:59508.got - 2010.06.03 17:49:19.
