data_PCOD9246527
_publ_section_title
;
Structure prediction by ZEFSAII (Michael W. Deem and Ramdas Pophale) SiO2 
 PCOD9246527
Probable space group: P 21/C
;
_chemical_formula_sum "Si O2"
_cell_formula_units_Z 28
_cell_length_a 10.033689
_cell_length_b 9.725615
_cell_length_c 24.122718
_cell_angle_alpha 90.000000
_cell_angle_beta 145.499600
_cell_angle_gamma 90.000000
_cell_volume 1333.326121
_symmetry_space_group_name_H-M "P 21/C"
_symmetry_group_IT_number 14
_symmetry_cell_setting 'monoclinic'
loop_
_space_group_symop_operation_xyz
x,y,z
-x,1/2+y,1/2-z
-x,-y,-z
x,1/2-y,1/2+z
loop_
_atom_site_type_symbol
_atom_site_label
_atom_site_fract_x
_atom_site_fract_y
_atom_site_fract_z
Si Si1 0.162439 0.628524 0.698442
Si Si2 0.017530 0.722846 0.039095
Si Si3 0.320874 0.051800 0.647489
Si Si4 0.322504 0.893345 0.065741
Si Si5 0.653950 0.118467 0.170057
Si Si6 0.806428 0.644322 0.773922
Si Si7 0.172400 0.616421 0.388995
O O1 0.027849 0.706317 0.602493
O O2 0.396802 0.554829 0.754576
O O3 0.264816 0.740621 0.775738
O O4 0.989707 0.519239 0.666743
O O5 0.212417 0.600144 0.106641
O O6 0.103141 0.836333 0.024094
O O7 0.784766 0.643919 0.938700
O O8 0.223133 0.117511 0.670930
O O9 0.552187 0.808862 0.163961
O O10 0.408742 0.050234 0.106922
O O11 0.289581 0.878366 0.989306
O O12 0.656714 0.119660 0.104835
O O13 0.838468 0.002545 0.254823
O O14 0.003686 0.752109 0.827597
#
# Coordination Sequence:
#
# PCOD9246527 Si02
#       7
#     4   4   4   4   4   4   4
#     4  12  25  40  68  94 125 168 214 262 322 377
#     4  11  22  40  66  95 130 164 204 268 330 369
#     4  11  23  40  62  97 133 158 211 266 320 391
#     4  10  22  40  68  92 127 166 212 265 315 374
#     4  10  24  44  61  91 132 169 214 261 305 382
#     4  10  21  41  65  89 132 167 207 264 321 364
#     4  12  24  42  66  94 127 174 215 258 317 380
#
# _framework density 21.000114
#
# number of rings (size 3 to 8) (size 9 to 14) (size 15 to 20)
#    0.857    0.286    4.286    2.143    2.000    0.571 
#    0.000    0.000    0.000    3.429    0.000    0.000 
#    0.000    0.000    0.000    0.000    0.000    0.000 
#
# Total GULP energy -156384.607249 kJ/mol
# GULP energy per Si atom -5585.164545 kJ/mol
# Density = 2.095232 g / cm^3
# Si number density = 21.000114 Si / 1000 Ang^3
#
#
#
# Elastic Constant Matrix: (Units=GPa)
#
#
# Indices 1 2 3 4 5 6 
#
# 1 66.5901 22.7870 6.4872 0.0000 -8.7947 0.0000
# 2 22.7870 85.5334 20.1798 0.0000 -4.1558 0.0000
# 3 6.4872 20.1798 70.4605 0.0000 -5.7963 0.0000
# 4 0.0000 0.0000 0.0000 25.5766 0.0000 -1.3137
# 5 -8.7947 -4.1558 -5.7963 0.0000 25.8057 0.0000
# 6 0.0000 0.0000 0.0000 -1.3137 0.0000 24.6179
#
#
#
# Elastic Compliance Matrix: (Units=1/GPa)
#
#
# Indices 1 2 3 4 5 6 
#
# 1 0.017179 -0.004346 0.000089 0.000000 0.005175 0.000000
# 2 -0.004346 0.013677 -0.003523 0.000000 -0.000070 0.000000
# 3 0.000089 -0.003523 0.015434 0.000000 0.002930 0.000000
# 4 0.000000 0.000000 0.000000 0.039206 0.000000 0.002092
# 5 0.005175 -0.000070 0.002930 0.000000 0.041161 0.000000
# 6 0.000000 0.000000 0.000000 0.002092 0.000000 0.040732
#
#
# Mechanical properties :
#
#
# Convention : Reuss Voigt Hill
#
# Bulk Modulus (GPa) = 32.54145 35.72133 34.13139
# Shear Modulus (GPa) = 25.88080 26.74207 26.31143
#
# Velocity S-wave (km/s) = 3.51438 3.57238 3.54350
# Velocity P-wave (km/s) = 5.65662 5.83634 5.74718
#
# Compressibility (1/GPa) = 0.03073003
#
# Stress axis : x y z
#
# Youngs Moduli (GPa) = 58.20952 73.11585 64.79178
#
# Poissons Ratio (x) = 0.31778 -0.00575
# Poissons Ratio (y) = 0.25299 0.22824
# Poissons Ratio (z) = -0.00517 0.25756
#
# Static dielectric constant tensor:
#      x y z
#    x 1.738040 0.000000 0.010300 
#    y 0.000000 1.758740 0.000000 
#    z 0.010300 0.000000 1.772020 
# 
# From -- ./inp_files/77155.got.cif
#   From: 2010.05.17/outbox.cif.g08.bks.cpg/sg14_39_cif.got.tgz:77155.got - 2010.06.03 17:49:19.
