data_PCOD9246710
_publ_section_title
;
Structure prediction by ZEFSAII (Michael W. Deem and Ramdas Pophale) SiO2 
 PCOD9246710
Probable space group: P 21/C
;
_chemical_formula_sum "Si O2"
_cell_formula_units_Z 32
_cell_length_a 29.102379
_cell_length_b 8.115891
_cell_length_c 11.295305
_cell_angle_alpha 90.000000
_cell_angle_beta 32.465575
_cell_angle_gamma 90.000000
_cell_volume 1432.086740
_symmetry_space_group_name_H-M "P 21/C"
_symmetry_group_IT_number 14
_symmetry_cell_setting 'monoclinic'
loop_
_space_group_symop_operation_xyz
x,y,z
-x,1/2+y,1/2-z
-x,-y,-z
x,1/2-y,1/2+z
loop_
_atom_site_type_symbol
_atom_site_label
_atom_site_fract_x
_atom_site_fract_y
_atom_site_fract_z
Si Si1 0.918996 0.644719 0.043535
Si Si2 0.369400 0.982995 0.729026
Si Si3 0.368517 0.511755 0.597144
Si Si4 0.727449 0.656034 0.383757
Si Si5 0.338008 0.861631 0.413908
Si Si6 0.230249 0.999504 0.828510
Si Si7 0.470478 0.650568 0.817689
Si Si8 0.951352 0.645057 0.235600
O O1 0.946922 0.740627 0.862367
O O2 0.965106 0.468254 0.943126
O O3 0.816837 0.628869 0.255801
O O4 0.942341 0.722403 0.122400
O O5 0.362762 0.822217 0.824422
O O6 0.454633 0.964994 0.466754
O O7 0.290937 0.962938 0.807188
O O8 0.349087 0.137957 0.855125
O O9 0.290964 0.479647 0.676821
O O10 0.334741 0.532346 0.802461
O O11 0.432256 0.358846 0.434321
O O12 0.426140 0.674913 0.445891
O O13 0.736641 0.828906 0.298939
O O14 0.414342 0.922000 0.332572
O O15 0.252051 0.870611 0.677739
O O16 0.131828 0.025178 0.073332
#
# Coordination Sequence:
#
# PCOD9246710 Si02
#       8
#     4   4   4   4   4   4   4   4
#     4  10  23  43  69  96 138 171 219 272 323 394
#     4  10  21  42  59  90 124 160 210 267 315 383
#     4  11  24  40  61  91 126 169 217 270 325 383
#     4  11  23  40  65  91 126 168 214 263 324 382
#     4  10  22  42  62  88 130 161 216 271 323 388
#     4  10  23  39  67  93 124 165 211 256 324 389
#     4  10  23  40  59  88 125 168 214 270 325 385
#     4  10  22  44  66 102 133 173 218 268 324 394
#
# _framework density 22.345015
#
# number of rings (size 3 to 8) (size 9 to 14) (size 15 to 20)
#    0.000    1.750    2.500    0.375    5.250    3.000 
#    0.000    0.000    0.000    0.000    0.000    0.000 
#    0.000    0.000    0.000    0.000    0.000    0.000 
#
# Total GULP energy -178725.743620 kJ/mol
# GULP energy per Si atom -5585.179488 kJ/mol
# Density = 2.229416 g / cm^3
# Si number density = 22.345015 Si / 1000 Ang^3
#
#
#
# Elastic Constant Matrix: (Units=GPa)
#
#
# Indices 1 2 3 4 5 6 
#
# 1 122.7650 13.3371 23.1762 0.0000 25.8147 0.0000
# 2 13.3371 43.1184 16.5392 0.0000 4.7626 0.0000
# 3 23.1762 16.5392 50.0678 0.0000 16.8675 0.0000
# 4 0.0000 0.0000 0.0000 33.2166 0.0000 11.1018
# 5 25.8147 4.7626 16.8675 0.0000 43.0407 0.0000
# 6 0.0000 0.0000 0.0000 11.1018 0.0000 15.8761
#
#
#
# Elastic Compliance Matrix: (Units=1/GPa)
#
#
# Indices 1 2 3 4 5 6 
#
# 1 0.009768 -0.001576 -0.002403 0.000000 -0.004742 0.000000
# 2 -0.001576 0.026824 -0.008583 0.000000 0.001341 0.000000
# 3 -0.002403 -0.008583 0.026631 0.000000 -0.008045 0.000000
# 4 0.000000 0.000000 0.000000 0.039287 0.000000 -0.027473
# 5 -0.004742 0.001341 -0.008045 0.000000 0.029083 0.000000
# 6 0.000000 0.000000 0.000000 -0.027473 0.000000 0.082199
#
#
# Mechanical properties :
#
#
# Convention : Reuss Voigt Hill
#
# Bulk Modulus (GPa) = 26.24784 35.78402 31.01593
# Shear Modulus (GPa) = 19.87167 29.28660 24.57913
#
# Velocity S-wave (km/s) = 2.98537 3.62422 3.32020
# Velocity P-wave (km/s) = 4.86368 5.79331 5.34873
#
# Compressibility (1/GPa) = 0.03809837
#
# Stress axis : x y z
#
# Youngs Moduli (GPa) = 102.37815 37.28072 37.55004
#
# Poissons Ratio (x) = 0.05874 0.09024
# Poissons Ratio (y) = 0.16131 0.32229
# Poissons Ratio (z) = 0.24605 0.31998
#
# Static dielectric constant tensor:
#      x y z
#    x 1.837800 0.000000 0.039200 
#    y 0.000000 1.872710 0.000000 
#    z 0.039200 0.000000 1.824160 
# 
# From -- ./inp_files/33682.got.cif
#   From: 2010.05.17/outbox.cif.g08.bks.cpg/sg14_17_cif.got.tgz:33682.got - 2010.06.03 17:49:19.
