data_PCOD9246621
_publ_section_title
;
Structure prediction by ZEFSAII (Michael W. Deem and Ramdas Pophale) SiO2 
 PCOD9246621
Probable space group: P 21/C
;
_chemical_formula_sum "Si O2"
_cell_formula_units_Z 20
_cell_length_a 5.610625
_cell_length_b 19.607249
_cell_length_c 9.058737
_cell_angle_alpha 90.000000
_cell_angle_beta 51.702239
_cell_angle_gamma 90.000000
_cell_volume 782.086660
_symmetry_space_group_name_H-M "P 21/C"
_symmetry_group_IT_number 14
_symmetry_cell_setting 'monoclinic'
loop_
_space_group_symop_operation_xyz
x,y,z
-x,1/2+y,1/2-z
-x,-y,-z
x,1/2-y,1/2+z
loop_
_atom_site_type_symbol
_atom_site_label
_atom_site_fract_x
_atom_site_fract_y
_atom_site_fract_z
Si Si1 0.560516 0.641723 0.629934
Si Si2 0.303358 0.560332 0.501519
Si Si3 0.610348 0.983260 0.297943
Si Si4 0.931313 0.184717 0.256375
Si Si5 0.268276 0.213814 0.424761
O O1 0.358349 0.631982 0.560325
O O2 0.959715 0.539121 0.659583
O O3 0.893340 0.632939 0.423235
O O4 0.589361 0.714814 0.692048
O O5 0.500000 0.500000 0.500000
O O6 0.418047 0.549719 0.292578
O O7 0.458720 0.582462 0.778605
O O8 0.500000 0.000000 0.500000
O O9 0.076962 0.180568 0.364624
O O10 0.568791 0.179899 0.380384
O O11 0.050086 0.256532 0.137606
#
# Coordination Sequence:
#
# PCOD9246621 Si02
#       5
#     4   4   4   4   4
#     4   9  23  37  67  84 135 169 213 266 345 380
#     4   9  20  41  63  92 130 166 205 275 327 394
#     4  10  21  41  67  96 129 164 223 269 329 405
#     4  10  22  40  62  93 128 171 218 268 320 390
#     4  10  22  40  64  90 130 171 218 267 320 394
#
# _framework density 25.572611999999999
#
# number of rings (size 3 to 8) (size 9 to 14) (size 15 to 20)
#    1.200    1.200    0.000    1.200    5.600    3.200 
#    3.600    8.000    0.000    0.000    0.000    0.000 
#    0.000    0.000    0.000    0.000    0.000    0.000 
#
# Total GULP energy -111538.095760 kJ/mol
# GULP energy per Si atom -5576.904788 kJ/mol
# Density = 2.551441 g / cm^3
# Si number density = 25.572612 Si / 1000 Ang^3
#
#
#
# Elastic Constant Matrix: (Units=GPa)
#
#
# Indices 1 2 3 4 5 6 
#
# 1 127.2398 14.1609 50.3252 0.0000 14.2284 0.0000
# 2 14.1609 80.9558 22.1778 0.0000 16.0464 0.0000
# 3 50.3252 22.1778 136.2551 0.0000 23.1768 0.0000
# 4 0.0000 0.0000 0.0000 41.9037 0.0000 5.2075
# 5 14.2284 16.0464 23.1768 0.0000 34.4890 0.0000
# 6 0.0000 0.0000 0.0000 5.2075 0.0000 34.8131
#
#
#
# Elastic Compliance Matrix: (Units=1/GPa)
#
#
# Indices 1 2 3 4 5 6 
#
# 1 0.009310 -0.000475 -0.003100 0.000000 -0.001537 0.000000
# 2 -0.000475 0.013834 -0.001146 0.000000 -0.005470 0.000000
# 3 -0.003100 -0.001146 0.009442 0.000000 -0.004533 0.000000
# 4 0.000000 0.000000 0.000000 0.024316 0.000000 -0.003637
# 5 -0.001537 -0.005470 -0.004533 0.000000 0.035220 0.000000
# 6 0.000000 0.000000 0.000000 -0.003637 0.000000 0.029269
#
#
# Mechanical properties :
#
#
# Convention : Reuss Voigt Hill
#
# Bulk Modulus (GPa) = 43.20698 57.53094 50.36896
# Shear Modulus (GPa) = 36.08910 39.42696 37.75803
#
# Velocity S-wave (km/s) = 3.76072 3.93079 3.84670
# Velocity P-wave (km/s) = 5.98246 6.56867 6.28241
#
# Compressibility (1/GPa) = 0.02314441
#
# Stress axis : x y z
#
# Youngs Moduli (GPa) = 107.41245 72.28743 105.91380
#
# Poissons Ratio (x) = 0.03431 0.32832
# Poissons Ratio (y) = 0.05099 0.12136
# Poissons Ratio (z) = 0.33297 0.08283
#
# Static dielectric constant tensor:
#      x y z
#    x 2.126240 0.000000 0.053020 
#    y 0.000000 2.097560 0.000000 
#    z 0.053020 0.000000 2.016770 
# 
# From -- ./inp_files/6360.got.cif
#   From: 2010.05.17/outbox.cif.g08.bks.cpg/sg14_4_cif.got.tgz:6360.got - 2010.06.03 17:49:19.
