data_PCOD9246859
_publ_section_title
;
Structure prediction by ZEFSAII (Michael W. Deem and Ramdas Pophale) SiO2 
 PCOD9246859
Probable space group: P 21/C
;
_chemical_formula_sum "Si O2"
_cell_formula_units_Z 20
_cell_length_a 9.044127
_cell_length_b 7.962442
_cell_length_c 13.185534
_cell_angle_alpha 90.000000
_cell_angle_beta 90.289906
_cell_angle_gamma 90.000000
_cell_volume 949.522144
_symmetry_space_group_name_H-M "P 21/C"
_symmetry_group_IT_number 14
_symmetry_cell_setting 'monoclinic'
loop_
_space_group_symop_operation_xyz
x,y,z
-x,1/2+y,1/2-z
-x,-y,-z
x,1/2-y,1/2+z
loop_
_atom_site_type_symbol
_atom_site_label
_atom_site_fract_x
_atom_site_fract_y
_atom_site_fract_z
Si Si1 0.921838 0.003767 0.608488
Si Si2 0.140167 0.292620 0.248936
Si Si3 0.406787 0.345993 0.369656
Si Si4 0.618655 0.853907 0.887719
Si Si5 0.423066 0.965979 0.392524
O O1 0.917103 0.820189 0.659130
O O2 0.752108 0.063917 0.598408
O O3 0.000000 0.000000 0.500000
O O4 0.014288 0.113537 0.687893
O O5 0.268312 0.405513 0.301338
O O6 0.227263 0.178167 0.167337
O O7 0.365425 0.348938 0.489563
O O8 0.545347 0.468558 0.360043
O O9 0.436403 0.150535 0.341913
O O10 0.508638 0.699961 0.857211
O O11 0.500000 0.000000 0.500000
#
# Coordination Sequence:
#
# PCOD9246859 Si02
#       5
#     4   4   4   4   4
#     4  11  25  47  65  99 145 180 225 283 349 414
#     4  11  24  42  67  98 133 181 230 271 354 416
#     4   9  21  39  64  98 127 165 222 285 333 407
#     4  10  21  42  67  95 131 167 232 284 338 401
#     4   9  19  40  68  94 125 181 216 280 343 387
#
# _framework density 21.063227999999999
#
# number of rings (size 3 to 8) (size 9 to 14) (size 15 to 20)
#    0.000    2.000    0.000    3.600    8.400    0.000 
#   14.400    2.000    0.000    0.000    0.000    0.000 
#    0.000    0.000    0.000    0.000    0.000    0.000 
#
# Total GULP energy -111672.619599 kJ/mol
# GULP energy per Si atom -5583.630980 kJ/mol
# Density = 2.101529 g / cm^3
# Si number density = 21.063228 Si / 1000 Ang^3
#
#
#
# Elastic Constant Matrix: (Units=GPa)
#
#
# Indices 1 2 3 4 5 6 
#
# 1 124.4059 38.5895 41.3054 0.0000 27.2288 0.0000
# 2 38.5895 51.2642 6.6600 0.0000 -3.4960 0.0000
# 3 41.3054 6.6600 91.5770 0.0000 10.6812 0.0000
# 4 0.0000 0.0000 0.0000 34.2493 0.0000 6.3179
# 5 27.2288 -3.4960 10.6812 0.0000 44.3722 0.0000
# 6 0.0000 0.0000 0.0000 6.3179 0.0000 40.3470
#
#
#
# Elastic Compliance Matrix: (Units=1/GPa)
#
#
# Indices 1 2 3 4 5 6 
#
# 1 0.015210 -0.011419 -0.004976 0.000000 -0.009036 0.000000
# 2 -0.011419 0.028432 0.002062 0.000000 0.008751 0.000000
# 3 -0.004976 0.002062 0.013004 0.000000 0.000086 0.000000
# 4 0.000000 0.000000 0.000000 0.030066 0.000000 -0.004708
# 5 -0.009036 0.008751 0.000086 0.000000 0.028750 0.000000
# 6 0.000000 0.000000 0.000000 -0.004708 0.000000 0.025522
#
#
# Mechanical properties :
#
#
# Convention : Reuss Voigt Hill
#
# Bulk Modulus (GPa) = 35.74027 48.92854 42.33441
# Shear Modulus (GPa) = 27.93650 35.83985 31.88818
#
# Velocity S-wave (km/s) = 3.64581 4.12944 3.89514
# Velocity P-wave (km/s) = 5.89301 6.78352 6.35389
#
# Compressibility (1/GPa) = 0.02797964
#
# Stress axis : x y z
#
# Youngs Moduli (GPa) = 65.74565 35.17218 76.89781
#
# Poissons Ratio (x) = 0.40164 0.38265
# Poissons Ratio (y) = 0.75076 -0.15858
# Poissons Ratio (z) = 0.32716 -0.07253
#
# Static dielectric constant tensor:
#      x y z
#    x 1.747010 0.000000 0.004980 
#    y 0.000000 1.748920 0.000000 
#    z 0.004980 0.000000 1.838420 
# 
# From -- ./inp_files/38806.got.cif
#   From: 2010.05.17/outbox.cif.g08.bks.cpg/sg14_20_cif.got.tgz:38806.got - 2010.06.03 17:49:19.
