data_PCOD9246802
_publ_section_title
;
Structure prediction by ZEFSAII (Michael W. Deem and Ramdas Pophale) SiO2 
 PCOD9246802
Probable space group: P 21/C
;
_chemical_formula_sum "Si O2"
_cell_formula_units_Z 24
_cell_length_a 12.759999
_cell_length_b 8.725730
_cell_length_c 18.441865
_cell_angle_alpha 90.000000
_cell_angle_beta 32.771954
_cell_angle_gamma 90.000000
_cell_volume 1111.456890
_symmetry_space_group_name_H-M "P 21/C"
_symmetry_group_IT_number 14
_symmetry_cell_setting 'monoclinic'
loop_
_space_group_symop_operation_xyz
x,y,z
-x,1/2+y,1/2-z
-x,-y,-z
x,1/2-y,1/2+z
loop_
_atom_site_type_symbol
_atom_site_label
_atom_site_fract_x
_atom_site_fract_y
_atom_site_fract_z
Si Si1 0.941059 0.638549 0.978789
Si Si2 0.054316 0.513761 0.181097
Si Si3 0.796742 0.279693 0.574675
Si Si4 0.138283 0.220919 0.758388
Si Si5 0.455666 0.030797 0.294560
Si Si6 0.474581 0.579502 0.937591
O O1 0.955876 0.586919 0.886569
O O2 0.088220 0.772000 0.915595
O O3 0.712068 0.654738 0.125296
O O4 0.000000 0.500000 0.000000
O O5 0.081266 0.414169 0.236589
O O6 0.872998 0.624970 0.282314
O O7 0.248086 0.621033 0.065011
O O8 0.658113 0.424045 0.641252
O O9 0.975057 0.269862 0.415161
O O10 0.649265 0.133007 0.658102
O O11 0.351653 0.199637 0.666849
O O12 0.498216 0.033468 0.355844
O O13 0.500000 0.500000 0.000000
#
# Coordination Sequence:
#
# PCOD9246802 Si02
#       6
#     4   4   4   4   4   4
#     4   9  18  39  65  83 123 168 206 251 324 360
#     4  10  21  42  65  93 127 168 206 265 317 377
#     4  11  23  40  64  94 124 170 212 262 315 376
#     4  11  22  40  66  92 129 168 209 259 319 380
#     4  10  22  41  63  89 131 161 209 268 310 368
#     4   9  20  39  61  86 127 163 202 254 317 361
#
# _framework density 21.59328
#
# number of rings (size 3 to 8) (size 9 to 14) (size 15 to 20)
#    0.000    2.000    5.000    0.000    2.333    3.333 
#    9.000    0.833    0.000    0.000    0.000    0.000 
#    0.000    0.000    0.000    0.000    0.000    0.000 
#
# Total GULP energy -133635.954752 kJ/mol
# GULP energy per Si atom -5568.164781 kJ/mol
# Density = 2.154413 g / cm^3
# Si number density = 21.593280 Si / 1000 Ang^3
#
#
#
# Elastic Constant Matrix: (Units=GPa)
#
#
# Indices 1 2 3 4 5 6 
#
# 1 130.1804 21.2135 35.5707 0.0000 -25.0764 0.0000
# 2 21.2135 30.1304 26.0410 0.0000 -6.8717 0.0000
# 3 35.5707 26.0410 60.2875 0.0000 -16.1759 0.0000
# 4 0.0000 0.0000 0.0000 29.7970 0.0000 -8.8604
# 5 -25.0764 -6.8717 -16.1759 0.0000 21.7658 0.0000
# 6 0.0000 0.0000 0.0000 -8.8604 0.0000 26.8074
#
#
#
# Elastic Compliance Matrix: (Units=1/GPa)
#
#
# Indices 1 2 3 4 5 6 
#
# 1 0.010698 -0.003372 -0.002291 0.000000 0.009558 0.000000
# 2 -0.003372 0.054025 -0.022249 0.000000 -0.003364 0.000000
# 3 -0.002291 -0.022249 0.031172 0.000000 0.013503 0.000000
# 4 0.000000 0.000000 0.000000 0.037218 0.000000 0.012301
# 5 0.009558 -0.003364 0.013503 0.000000 0.065929 0.000000
# 6 0.000000 0.000000 0.000000 0.012301 0.000000 0.041369
#
#
# Mechanical properties :
#
#
# Convention : Reuss Voigt Hill
#
# Bulk Modulus (GPa) = 24.95529 42.91654 33.93591
# Shear Modulus (GPa) = 16.15019 24.85891 20.50455
#
# Velocity S-wave (km/s) = 2.73779 3.39666 3.08487
# Velocity P-wave (km/s) = 4.64500 5.94148 5.33279
#
# Compressibility (1/GPa) = 0.04007166
#
# Stress axis : x y z
#
# Youngs Moduli (GPa) = 93.47213 18.50984 32.07983
#
# Poissons Ratio (x) = 0.06242 0.07349
# Poissons Ratio (y) = 0.31522 0.71374
# Poissons Ratio (z) = 0.21414 0.41182
#
# Static dielectric constant tensor:
#      x y z
#    x 1.796090 0.000000 -0.013310 
#    y 0.000000 1.862560 0.000000 
#    z -0.013310 0.000000 1.821020 
# 
# From -- ./inp_files/57655.got.cif
#   From: 2010.05.17/outbox.cif.g08.bks.cpg/sg14_29_cif.got.tgz:57655.got - 2010.06.03 17:49:19.
