data_PCOD9246159
_publ_section_title
;
Structure prediction by ZEFSAII (Michael W. Deem and Ramdas Pophale) SiO2 
 PCOD9246159
Probable space group: P 21/C
;
_chemical_formula_sum "Si O2"
_cell_formula_units_Z 28
_cell_length_a 34.713201
_cell_length_b 6.906486
_cell_length_c 35.049870
_cell_angle_alpha 90.000000
_cell_angle_beta 171.791895
_cell_angle_gamma 90.000000
_cell_volume 1199.698071
_symmetry_space_group_name_H-M "P 21/C"
_symmetry_group_IT_number 14
_symmetry_cell_setting 'monoclinic'
loop_
_space_group_symop_operation_xyz
x,y,z
-x,1/2+y,1/2-z
-x,-y,-z
x,1/2-y,1/2+z
loop_
_atom_site_type_symbol
_atom_site_label
_atom_site_fract_x
_atom_site_fract_y
_atom_site_fract_z
Si Si1 0.644864 0.848875 0.729406
Si Si2 0.662503 0.303509 0.765474
Si Si3 0.289048 0.688140 0.996807
Si Si4 0.777355 0.077866 0.996254
Si Si5 0.894732 0.203245 0.763262
Si Si6 0.724853 0.947759 0.250774
Si Si7 0.109614 0.244397 0.760338
O O1 0.341440 0.775311 0.437842
O O2 0.739020 0.770531 0.781032
O O3 0.659594 0.079378 0.748853
O O4 0.824083 0.765367 0.940095
O O5 0.661037 0.430249 0.726315
O O6 0.413752 0.322975 0.551278
O O7 0.934151 0.346300 0.054778
O O8 0.544762 0.539908 0.244978
O O9 0.351772 0.836803 0.092057
O O10 0.197592 0.791969 0.867678
O O11 0.021149 0.567323 0.745333
O O12 0.927218 0.250285 0.119616
O O13 0.887644 0.975621 0.745184
O O14 0.000000 0.000000 0.500000
O O15 0.500000 0.000000 0.000000
#
# Coordination Sequence:
#
# PCOD9246159 Si02
#       7
#     4   4   4   4   4   4   4
#     4  10  21  40  64  89 117 164 210 249 311 383
#     4  10  21  40  64  89 117 164 210 249 311 383
#     4  11  22  39  61  90 132 169 214 269 327 379
#     4  11  22  39  61  90 132 169 214 269 327 379
#     4   9  18  37  63  83 117 164 208 252 302 367
#     4  12  26  42  62  94 132 156 198 272 326 382
#     4   9  18  37  63  83 117 164 208 252 302 367
#
# _framework density 23.339206000000001
#
# number of rings (size 3 to 8) (size 9 to 14) (size 15 to 20)
#    0.000    1.714    0.000    6.857    0.000    1.143 
#    7.714    0.000    0.000    0.000    0.000    0.000 
#    0.000    0.000    0.000    0.000    0.000    0.000 
#
# Total GULP energy -156432.233189 kJ/mol
# GULP energy per Si atom -5586.865471 kJ/mol
# Density = 2.328609 g / cm^3
# Si number density = 23.339206 Si / 1000 Ang^3
#
#
#
# Elastic Constant Matrix: (Units=GPa)
#
#
# Indices 1 2 3 4 5 6 
#
# 1 67.7142 0.4796 4.6291 0.0000 -6.8817 0.0000
# 2 0.4796 64.9939 -8.6716 0.0000 1.5798 0.0000
# 3 4.6291 -8.6716 122.1360 0.0000 -2.1359 0.0000
# 4 0.0000 0.0000 0.0000 18.3643 0.0000 0.6930
# 5 -6.8817 1.5798 -2.1359 0.0000 45.1575 0.0000
# 6 0.0000 0.0000 0.0000 0.6930 0.0000 43.3803
#
#
#
# Elastic Compliance Matrix: (Units=1/GPa)
#
#
# Indices 1 2 3 4 5 6 
#
# 1 0.015038 -0.000239 -0.000547 0.000000 0.002274 0.000000
# 2 -0.000239 0.015548 0.001104 0.000000 -0.000528 0.000000
# 3 -0.000547 0.001104 0.008291 0.000000 0.000270 0.000000
# 4 0.000000 0.000000 0.000000 0.054486 0.000000 -0.000870
# 5 0.002274 -0.000528 0.000270 0.000000 0.022523 0.000000
# 6 0.000000 0.000000 0.000000 -0.000870 0.000000 0.023066
#
#
# Mechanical properties :
#
#
# Convention : Reuss Voigt Hill
#
# Bulk Modulus (GPa) = 25.30871 27.52427 26.41649
# Shear Modulus (GPa) = 33.00583 38.60755 35.80669
#
# Velocity S-wave (km/s) = 3.76464 4.07159 3.92112
# Velocity P-wave (km/s) = 5.45565 5.82431 5.64299
#
# Compressibility (1/GPa) = 0.03951208
#
# Stress axis : x y z
#
# Youngs Moduli (GPa) = 66.49746 64.31728 120.60661
#
# Poissons Ratio (x) = 0.01539 0.06599
# Poissons Ratio (y) = 0.01591 -0.13312
# Poissons Ratio (z) = 0.03639 -0.07099
#
# Static dielectric constant tensor:
#      x y z
#    x 1.888610 0.000000 0.007300 
#    y 0.000000 1.985400 0.000000 
#    z 0.007300 0.000000 1.839160 
# 
# From -- ./inp_files/80904.got.cif
#   From: 2010.05.17/outbox.cif.g08.bks.cpg/sg14_41_cif.got.tgz:80904.got - 2010.06.03 17:49:19.
