data_PCOD9246940
_publ_section_title
;
Structure prediction by ZEFSAII (Michael W. Deem and Ramdas Pophale) SiO2 
 PCOD9246940
Probable space group: P 21/C
;
_chemical_formula_sum "Si O2"
_cell_formula_units_Z 20
_cell_length_a 6.645124
_cell_length_b 11.908219
_cell_length_c 11.201162
_cell_angle_alpha 90.000000
_cell_angle_beta 76.196024
_cell_angle_gamma 90.000000
_cell_volume 860.765519
_symmetry_space_group_name_H-M "P 21/C"
_symmetry_group_IT_number 14
_symmetry_cell_setting 'monoclinic'
loop_
_space_group_symop_operation_xyz
x,y,z
-x,1/2+y,1/2-z
-x,-y,-z
x,1/2-y,1/2+z
loop_
_atom_site_type_symbol
_atom_site_label
_atom_site_fract_x
_atom_site_fract_y
_atom_site_fract_z
Si Si1 0.328334 0.956213 0.112660
Si Si2 0.013295 0.652216 0.320429
Si Si3 0.412343 0.513114 0.212598
Si Si4 0.235983 0.002392 0.503646
Si Si5 0.890074 0.263548 0.950484
O O1 0.227913 0.846125 0.075025
O O2 0.150359 0.050516 0.150011
O O3 0.462780 0.937617 0.212834
O O4 0.500000 0.000000 0.000000
O O5 0.249357 0.600828 0.291253
O O6 0.995986 0.732004 0.440367
O O7 0.990027 0.702810 0.189702
O O8 0.605954 0.560480 0.108049
O O9 0.274275 0.453122 0.130978
O O10 0.266693 0.866939 0.503410
O O11 0.000000 0.000000 0.500000
#
# Coordination Sequence:
#
# PCOD9246940 Si02
#       5
#     4   4   4   4   4
#     4  12  25  48  69 102 150 190 242 306 364 438
#     4  11  25  47  70 105 147 189 246 308 359 448
#     4  10  21  42  71  98 142 187 231 301 364 414
#     4  10  22  45  69 107 148 182 238 304 359 440
#     4  11  24  47  72 106 145 193 250 291 380 438
#
# _framework density 23.235133000000001
#
# number of rings (size 3 to 8) (size 9 to 14) (size 15 to 20)
#    0.000    1.200    2.000    4.200    0.000    0.000 
#   21.600    0.000    0.000    0.000    0.000    0.000 
#    0.000    0.000    0.000    0.000    0.000    0.000 
#
# Total GULP energy -111523.655976 kJ/mol
# GULP energy per Si atom -5576.182799 kJ/mol
# Density = 2.318225 g / cm^3
# Si number density = 23.235133 Si / 1000 Ang^3
#
#
#
# Elastic Constant Matrix: (Units=GPa)
#
#
# Indices 1 2 3 4 5 6 
#
# 1 149.4289 43.6959 65.9610 0.0000 9.5126 0.0000
# 2 43.6959 91.1391 36.5274 0.0000 -15.7846 0.0000
# 3 65.9610 36.5274 146.0511 0.0000 10.3720 0.0000
# 4 0.0000 0.0000 0.0000 26.1762 0.0000 -1.9181
# 5 9.5126 -15.7846 10.3720 0.0000 48.9468 0.0000
# 6 0.0000 0.0000 0.0000 -1.9181 0.0000 7.5392
#
#
#
# Elastic Compliance Matrix: (Units=1/GPa)
#
#
# Indices 1 2 3 4 5 6 
#
# 1 0.009267 -0.003588 -0.003125 0.000000 -0.002296 0.000000
# 2 -0.003588 0.014723 -0.002486 0.000000 0.005972 0.000000
# 3 -0.003125 -0.002486 0.009030 0.000000 -0.002108 0.000000
# 4 0.000000 0.000000 0.000000 0.038928 0.000000 0.009904
# 5 -0.002296 0.005972 -0.002108 0.000000 0.023249 0.000000
# 6 0.000000 0.000000 0.000000 0.009904 0.000000 0.135159
#
#
# Mechanical properties :
#
#
# Convention : Reuss Voigt Hill
#
# Bulk Modulus (GPa) = 68.39000 75.44309 71.91654
# Shear Modulus (GPa) = 19.71391 32.56144 26.13767
#
# Velocity S-wave (km/s) = 2.91598 3.74757 3.35762
# Velocity P-wave (km/s) = 6.39023 7.16000 6.78604
#
# Compressibility (1/GPa) = 0.01462202
#
# Stress axis : x y z
#
# Youngs Moduli (GPa) = 107.91094 67.91988 110.74760
#
# Poissons Ratio (x) = 0.24371 0.34606
# Poissons Ratio (y) = 0.38721 0.27530
# Poissons Ratio (z) = 0.33719 0.16884
#
# Static dielectric constant tensor:
#      x y z
#    x 1.826490 0.000000 0.009590 
#    y 0.000000 1.884110 0.000000 
#    z 0.009590 0.000000 1.973190 
# 
# From -- ./inp_files/20632.got.cif
#   From: 2010.05.17/outbox.cif.g08.bks.cpg/sg14_11_cif.got.tgz:20632.got - 2010.06.03 17:49:19.
