data_PCOD9246607
_publ_section_title
;
Structure prediction by ZEFSAII (Michael W. Deem and Ramdas Pophale) SiO2 
 PCOD9246607
Probable space group: P 21/C
;
_chemical_formula_sum "Si O2"
_cell_formula_units_Z 26
_cell_length_a 9.006428
_cell_length_b 7.320258
_cell_length_c 16.643850
_cell_angle_alpha 90.000000
_cell_angle_beta 106.541850
_cell_angle_gamma 90.000000
_cell_volume 1051.902862
_symmetry_space_group_name_H-M "P 21/C"
_symmetry_group_IT_number 14
_symmetry_cell_setting 'monoclinic'
loop_
_space_group_symop_operation_xyz
x,y,z
-x,1/2+y,1/2-z
-x,-y,-z
x,1/2-y,1/2+z
loop_
_atom_site_type_symbol
_atom_site_label
_atom_site_fract_x
_atom_site_fract_y
_atom_site_fract_z
Si Si1 0.431313 0.012026 0.078016
Si Si2 0.011538 0.886513 0.782187
Si Si3 0.668489 0.429498 0.744195
Si Si4 0.900088 0.112611 0.920411
Si Si5 0.000000 0.500000 0.000000
Si Si6 0.189922 0.976636 0.377840
Si Si7 0.502216 0.889898 0.357991
O O1 0.400246 0.227635 0.087765
O O2 0.566581 0.965145 0.161802
O O3 0.276248 0.911840 0.078582
O O4 0.500000 0.000000 0.000000
O O5 0.155520 0.960953 0.751739
O O6 0.943294 0.016986 0.841910
O O7 0.874768 0.873425 0.695351
O O8 0.093802 0.708846 0.835239
O O9 0.614426 0.221095 0.720887
O O10 0.613663 0.488334 0.822677
O O11 0.945104 0.322185 0.936424
O O12 0.000000 0.000000 0.000000
O O13 0.150068 0.516804 0.964518
O O14 0.375055 0.972938 0.396744
#
# Coordination Sequence:
#
# PCOD9246607 Si02
#       7
#     4   4   4   4   2   4   4
#     4  10  21  41  67  91 138 189 226 290 361 420
#     4  11  23  41  68 102 140 182 238 291 364 419
#     4   9  21  38  65  96 132 177 230 287 341 424
#     4  12  24  43  71 102 140 185 237 299 354 428
#     4  12  26  44  68 104 144 180 244 294 362 418
#     4  11  23  42  67 104 138 186 239 298 355 439
#     4   9  21  40  64  97 134 180 235 280 354 421
#
# _framework density 24.717110000000002
#
# number of rings (size 3 to 8) (size 9 to 14) (size 15 to 20)
#    0.923    0.615    1.538    3.692    2.154    2.462 
#    0.000    0.000    0.000    4.615    0.000    0.000 
#    0.000    0.000    0.000    0.000    0.000    0.000 
#
# Total GULP energy -144784.363990 kJ/mol
# GULP energy per Si atom -5568.629384 kJ/mol
# Density = 2.466085 g / cm^3
# Si number density = 24.717110 Si / 1000 Ang^3
#
#
#
# Elastic Constant Matrix: (Units=GPa)
#
#
# Indices 1 2 3 4 5 6 
#
# 1 115.0957 35.8830 30.6200 0.0000 -29.8548 0.0000
# 2 35.8830 44.0808 7.3373 0.0000 -3.7097 0.0000
# 3 30.6200 7.3373 111.6255 0.0000 -35.3583 0.0000
# 4 0.0000 0.0000 0.0000 31.5302 0.0000 4.5939
# 5 -29.8548 -3.7097 -35.3583 0.0000 55.8018 0.0000
# 6 0.0000 0.0000 0.0000 4.5939 0.0000 32.4504
#
#
#
# Elastic Compliance Matrix: (Units=1/GPa)
#
#
# Indices 1 2 3 4 5 6 
#
# 1 0.013848 -0.010569 -0.001226 0.000000 0.005930 0.000000
# 2 -0.010569 0.031027 -0.000348 0.000000 -0.003813 0.000000
# 3 -0.001226 -0.000348 0.011388 0.000000 0.006537 0.000000
# 4 0.000000 0.000000 0.000000 0.032384 0.000000 -0.004584
# 5 0.005930 -0.003813 0.006537 0.000000 0.024982 0.000000
# 6 0.000000 0.000000 0.000000 -0.004584 0.000000 0.031465
#
#
# Mechanical properties :
#
#
# Convention : Reuss Voigt Hill
#
# Bulk Modulus (GPa) = 31.27259 46.49807 38.88533
# Shear Modulus (GPa) = 27.77194 37.08725 32.42959
#
# Velocity S-wave (km/s) = 3.35564 3.87779 3.62613
# Velocity P-wave (km/s) = 5.26245 6.23720 5.77044
#
# Compressibility (1/GPa) = 0.03197689
#
# Stress axis : x y z
#
# Youngs Moduli (GPa) = 72.21382 32.23051 87.80936
#
# Poissons Ratio (x) = 0.34066 0.10762
# Poissons Ratio (y) = 0.76326 0.03054
# Poissons Ratio (z) = 0.08851 0.01121
#
# Static dielectric constant tensor:
#      x y z
#    x 1.955030 0.000000 0.012630 
#    y 0.000000 3.655430 0.000000 
#    z 0.012630 0.000000 1.974170 
# 
# From -- ./inp_files/54788.got.cif
#   From: 2010.05.17/outbox.cif.g08.bks.cpg/sg14_28_cif.got.tgz:54788.got - 2010.06.03 17:49:19.
