data_PCOD9246424
_publ_section_title
;
Structure prediction by ZEFSAII (Michael W. Deem and Ramdas Pophale) SiO2 
 PCOD9246424
Probable space group: P 21/C
;
_chemical_formula_sum "Si O2"
_cell_formula_units_Z 22
_cell_length_a 6.846516
_cell_length_b 7.983351
_cell_length_c 16.872021
_cell_angle_alpha 90.000000
_cell_angle_beta 118.183109
_cell_angle_gamma 90.000000
_cell_volume 812.860567
_symmetry_space_group_name_H-M "P 21/C"
_symmetry_group_IT_number 14
_symmetry_cell_setting 'monoclinic'
loop_
_space_group_symop_operation_xyz
x,y,z
-x,1/2+y,1/2-z
-x,-y,-z
x,1/2-y,1/2+z
loop_
_atom_site_type_symbol
_atom_site_label
_atom_site_fract_x
_atom_site_fract_y
_atom_site_fract_z
Si Si1 0.288601 0.988904 0.069266
Si Si2 0.652595 0.840502 0.366858
Si Si3 0.811167 0.973916 0.130114
Si Si4 0.500000 0.000000 0.500000
Si Si5 0.645484 0.185871 0.312673
Si Si6 0.182490 0.393318 0.815669
O O1 0.556902 0.995594 0.110325
O O2 0.242207 0.819793 0.108049
O O3 0.229097 0.161597 0.101543
O O4 0.196831 0.979818 0.963431
O O5 0.631792 0.908526 0.452054
O O6 0.422081 0.785013 0.279254
O O7 0.744202 0.997833 0.332564
O O8 0.869002 0.779303 0.150250
O O9 0.985287 0.063797 0.219696
O O10 0.728593 0.014683 0.598499
O O11 0.404828 0.147458 0.307211
#
# Coordination Sequence:
#
# PCOD9246424 Si02
#       6
#     4   4   4   2   4   4
#     4  10  21  41  61  93 123 173 210 263 316 378
#     4  11  20  38  64  92 123 168 214 261 314 385
#     4  10  22  37  62  91 130 159 219 263 314 379
#     4  10  22  38  66  90 120 168 220 254 318 368
#     4  10  22  37  64  91 125 167 214 260 328 368
#     4  10  22  37  61  96 120 170 206 269 315 379
#
# _framework density 27.064910000000001
#
# number of rings (size 3 to 8) (size 9 to 14) (size 15 to 20)
#    0.000    1.818    3.636    0.000    7.636    0.000 
#    0.000    0.909    4.000    3.273    0.000    0.000 
#    0.000    0.000    0.000    0.000    0.000    0.000 
#
# Total GULP energy -122632.070852 kJ/mol
# GULP energy per Si atom -5574.185039 kJ/mol
# Density = 2.700331 g / cm^3
# Si number density = 27.064910 Si / 1000 Ang^3
#
#
#
# Elastic Constant Matrix: (Units=GPa)
#
#
# Indices 1 2 3 4 5 6 
#
# 1 76.6674 23.4027 48.3519 0.0000 14.8409 0.0000
# 2 23.4027 162.7054 72.2111 0.0000 -9.0008 0.0000
# 3 48.3519 72.2111 239.6766 0.0000 23.9639 0.0000
# 4 0.0000 0.0000 0.0000 35.0960 0.0000 -0.8049
# 5 14.8409 -9.0008 23.9639 0.0000 39.1943 0.0000
# 6 0.0000 0.0000 0.0000 -0.8049 0.0000 10.5858
#
#
#
# Elastic Compliance Matrix: (Units=1/GPa)
#
#
# Indices 1 2 3 4 5 6 
#
# 1 0.015903 -0.001574 -0.002232 0.000000 -0.005018 0.000000
# 2 -0.001574 0.007630 -0.002360 0.000000 0.003791 0.000000
# 3 -0.002232 -0.002360 0.005649 0.000000 -0.003150 0.000000
# 4 0.000000 0.000000 0.000000 0.028543 0.000000 0.002170
# 5 -0.005018 0.003791 -0.003150 0.000000 0.030211 0.000000
# 6 0.000000 0.000000 0.000000 0.002170 0.000000 0.094631
#
#
# Mechanical properties :
#
#
# Convention : Reuss Voigt Hill
#
# Bulk Modulus (GPa) = 59.35379 85.22006 72.28693
# Shear Modulus (GPa) = 24.93561 39.31413 32.12487
#
# Velocity S-wave (km/s) = 3.03863 3.81542 3.44896
# Velocity P-wave (km/s) = 5.85566 7.13901 6.52895
#
# Compressibility (1/GPa) = 0.01684812
#
# Stress axis : x y z
#
# Youngs Moduli (GPa) = 62.88064 131.06585 177.03202
#
# Poissons Ratio (x) = 0.20635 0.39516
# Poissons Ratio (y) = 0.09900 0.41783
# Poissons Ratio (z) = 0.14036 0.30934
#
# Static dielectric constant tensor:
#      x y z
#    x 2.251000 0.000000 -0.027710 
#    y 0.000000 2.100420 0.000000 
#    z -0.027710 0.000000 2.068120 
# 
# From -- ./inp_files/43259.got.cif
#   From: 2010.05.17/outbox.cif.g08.bks.cpg/sg14_22_cif.got.tgz:43259.got - 2010.06.03 17:49:19.
