data_PCOD9246451
_publ_section_title
;
Structure prediction by ZEFSAII (Michael W. Deem and Ramdas Pophale) SiO2 
 PCOD9246451
Probable space group: P 21/C
;
_chemical_formula_sum "Si O2"
_cell_formula_units_Z 20
_cell_length_a 22.102981
_cell_length_b 7.699002
_cell_length_c 5.253651
_cell_angle_alpha 90.000000
_cell_angle_beta 104.211274
_cell_angle_gamma 90.000000
_cell_volume 866.658900
_symmetry_space_group_name_H-M "P 21/C"
_symmetry_group_IT_number 14
_symmetry_cell_setting 'monoclinic'
loop_
_space_group_symop_operation_xyz
x,y,z
-x,1/2+y,1/2-z
-x,-y,-z
x,1/2-y,1/2+z
loop_
_atom_site_type_symbol
_atom_site_label
_atom_site_fract_x
_atom_site_fract_y
_atom_site_fract_z
Si Si1 0.760464 0.179548 0.628037
Si Si2 0.059220 0.871338 0.055314
Si Si3 0.557261 0.864214 0.075828
Si Si4 0.824756 0.635702 0.345363
Si Si5 0.379139 0.681445 0.513761
O O1 0.790185 0.201062 0.379951
O O2 0.690553 0.248941 0.514612
O O3 0.764302 0.985127 0.734888
O O4 0.058258 0.755107 0.798971
O O5 0.119032 0.998098 0.122838
O O6 0.000000 0.000000 0.000000
O O7 0.556411 0.771316 0.344903
O O8 0.616883 0.988546 0.089483
O O9 0.500000 0.000000 0.000000
O O10 0.827282 0.724924 0.621733
O O11 0.409137 0.699100 0.823968
#
# Coordination Sequence:
#
# PCOD9246451 Si02
#       5
#     4   4   4   4   4
#     4  10  21  41  63  86 122 168 207 255 313 365
#     4  12  24  42  66  95 130 169 210 263 320 376
#     4  12  24  41  66  96 126 164 206 256 313 376
#     4  12  24  41  64  95 127 166 216 262 312 378
#     4  10  21  41  63  88 125 163 204 254 308 369
#
# _framework density 23.077128999999999
#
# number of rings (size 3 to 8) (size 9 to 14) (size 15 to 20)
#    0.000    0.800    0.000    8.400    0.000    0.000 
#    0.000   24.000    0.000    0.000    0.000    0.000 
#    0.000    0.000    0.000    0.000    0.000    0.000 
#
# Total GULP energy -111856.055459 kJ/mol
# GULP energy per Si atom -5592.802773 kJ/mol
# Density = 2.302460 g / cm^3
# Si number density = 23.077129 Si / 1000 Ang^3
#
#
#
# Elastic Constant Matrix: (Units=GPa)
#
#
# Indices 1 2 3 4 5 6 
#
# 1 77.1176 34.8601 -7.9380 0.0000 9.1527 0.0000
# 2 34.8601 104.1481 13.4360 0.0000 6.2315 0.0000
# 3 -7.9380 13.4360 133.6798 0.0000 -21.2524 0.0000
# 4 0.0000 0.0000 0.0000 75.4420 0.0000 -2.4497
# 5 9.1527 6.2315 -21.2524 0.0000 22.6836 0.0000
# 6 0.0000 0.0000 0.0000 -2.4497 0.0000 64.3619
#
#
#
# Elastic Compliance Matrix: (Units=1/GPa)
#
#
# Indices 1 2 3 4 5 6 
#
# 1 0.015888 -0.005165 0.000786 0.000000 -0.004255 0.000000
# 2 -0.005165 0.011763 -0.001964 0.000000 -0.002987 0.000000
# 3 0.000786 -0.001964 0.009118 0.000000 0.008765 0.000000
# 4 0.000000 0.000000 0.000000 0.013272 0.000000 0.000505
# 5 -0.004255 -0.002987 0.008765 0.000000 0.054835 0.000000
# 6 0.000000 0.000000 0.000000 0.000505 0.000000 0.015556
#
#
# Mechanical properties :
#
#
# Convention : Reuss Voigt Hill
#
# Bulk Modulus (GPa) = 41.52251 43.96243 42.74247
# Shear Modulus (GPa) = 35.42483 50.80330 43.11407
#
# Velocity S-wave (km/s) = 3.92224 4.69706 4.32703
# Velocity P-wave (km/s) = 6.20837 6.96477 6.59742
#
# Compressibility (1/GPa) = 0.02408333
#
# Stress axis : x y z
#
# Youngs Moduli (GPa) = 62.94134 85.01573 109.67193
#
# Poissons Ratio (x) = 0.43908 -0.08620
# Poissons Ratio (y) = 0.32507 0.21538
# Poissons Ratio (z) = -0.04947 0.16696
#
# Static dielectric constant tensor:
#      x y z
#    x 2.064520 0.000000 0.030170 
#    y 0.000000 1.869600 0.000000 
#    z 0.030170 0.000000 1.960560 
# 
# From -- ./inp_files/4511.got.cif
#   From: 2010.05.17/outbox.cif.g08.bks.cpg/sg14_3_cif.got.tgz:4511.got - 2010.06.03 17:49:19.
