data_PCOD9246154
_publ_section_title
;
Structure prediction by ZEFSAII (Michael W. Deem and Ramdas Pophale) SiO2 
 PCOD9246154
Probable space group: P 21/C
;
_chemical_formula_sum "Si O2"
_cell_formula_units_Z 32
_cell_length_a 9.204346
_cell_length_b 23.687716
_cell_length_c 12.464118
_cell_angle_alpha 90.000000
_cell_angle_beta 30.432640
_cell_angle_gamma 90.000000
_cell_volume 1376.507526
_symmetry_space_group_name_H-M "P 21/C"
_symmetry_group_IT_number 14
_symmetry_cell_setting 'monoclinic'
loop_
_space_group_symop_operation_xyz
x,y,z
-x,1/2+y,1/2-z
-x,-y,-z
x,1/2-y,1/2+z
loop_
_atom_site_type_symbol
_atom_site_label
_atom_site_fract_x
_atom_site_fract_y
_atom_site_fract_z
Si Si1 0.191990 0.340972 0.810687
Si Si2 0.638695 0.412918 0.188127
Si Si3 0.186421 0.978095 0.230484
Si Si4 0.174460 0.520595 0.219823
Si Si5 0.082316 0.767931 0.336528
Si Si6 0.663456 0.808901 0.010702
Si Si7 0.169635 0.634954 0.609233
Si Si8 0.054530 0.079734 0.943524
O O1 0.232513 0.306405 0.676646
O O2 0.493279 0.372538 0.632561
O O3 0.126425 0.302235 0.953003
O O4 0.912544 0.378936 0.973879
O O5 0.762993 0.464933 0.176379
O O6 0.469710 0.369836 0.377238
O O7 0.388362 0.424228 0.263224
O O8 0.099720 0.916666 0.235296
O O9 0.969583 0.020084 0.306049
O O10 0.500000 0.000000 0.000000
O O11 0.996983 0.473579 0.401324
O O12 0.129594 0.573411 0.329389
O O13 0.500000 0.500000 0.000000
O O14 0.930396 0.709101 0.411499
O O15 0.119416 0.806796 0.205814
O O16 0.394690 0.766461 0.191628
O O17 0.005493 0.630494 0.600675
#
# Coordination Sequence:
#
# PCOD9246154 Si02
#       8
#     4   4   4   4   4   4   4   4
#     4  10  21  40  64  86 123 161 203 249 316 364
#     4  11  22  40  60  94 123 161 207 255 300 373
#     4  11  20  40  65  85 128 164 201 262 300 357
#     4  10  23  39  57  88 125 166 209 251 303 371
#     4  10  22  40  62  90 122 160 202 257 306 367
#     4  10  23  40  62  91 125 154 208 255 301 372
#     4  10  22  40  61  90 126 162 204 253 308 368
#     4  10  23  38  57  89 127 159 205 259 303 356
#
# _framework density 23.247240000000001
#
# number of rings (size 3 to 8) (size 9 to 14) (size 15 to 20)
#    0.000    1.750    5.000    0.000    1.750    9.000 
#    0.000    1.250    0.000    0.000    0.000    0.000 
#    0.000    0.000    0.000    0.000    0.000    0.000 
#
# Total GULP energy -178578.628666 kJ/mol
# GULP energy per Si atom -5580.582146 kJ/mol
# Density = 2.319433 g / cm^3
# Si number density = 23.247240 Si / 1000 Ang^3
#
#
#
# Elastic Constant Matrix: (Units=GPa)
#
#
# Indices 1 2 3 4 5 6 
#
# 1 126.9039 9.4247 14.7053 0.0000 -6.7709 0.0000
# 2 9.4247 39.2303 10.4113 0.0000 1.4408 0.0000
# 3 14.7053 10.4113 83.4817 0.0000 0.6504 0.0000
# 4 0.0000 0.0000 0.0000 14.6653 0.0000 -12.0570
# 5 -6.7709 1.4408 0.6504 0.0000 26.3391 0.0000
# 6 0.0000 0.0000 0.0000 -12.0570 0.0000 38.6415
#
#
#
# Elastic Compliance Matrix: (Units=1/GPa)
#
#
# Indices 1 2 3 4 5 6 
#
# 1 0.008275 -0.001737 -0.001259 0.000000 0.002253 0.000000
# 2 -0.001737 0.026776 -0.003019 0.000000 -0.001837 0.000000
# 3 -0.001259 -0.003019 0.012581 0.000000 -0.000469 0.000000
# 4 0.000000 0.000000 0.000000 0.091716 0.000000 0.028617
# 5 0.002253 -0.001837 -0.000469 0.000000 0.038658 0.000000
# 6 0.000000 0.000000 0.000000 0.028617 0.000000 0.034808
#
#
# Mechanical properties :
#
#
# Convention : Reuss Voigt Hill
#
# Bulk Modulus (GPa) = 28.08746 35.41093 31.74919
# Shear Modulus (GPa) = 21.12287 30.26750 25.69519
#
# Velocity S-wave (km/s) = 3.01760 3.61221 3.32821
# Velocity P-wave (km/s) = 4.92438 5.71514 5.33443
#
# Compressibility (1/GPa) = 0.03560308
#
# Stress axis : x y z
#
# Youngs Moduli (GPa) = 120.84548 37.34624 79.48775
#
# Poissons Ratio (x) = 0.06486 0.10004
# Poissons Ratio (y) = 0.20988 0.23998
# Poissons Ratio (z) = 0.15210 0.11275
#
# Static dielectric constant tensor:
#      x y z
#    x 1.921360 0.000000 0.031660 
#    y 0.000000 1.957920 0.000000 
#    z 0.031660 0.000000 1.865370 
# 
# From -- ./inp_files/27154.got.cif
#   From: 2010.05.17/outbox.cif.g08.bks.cpg/sg14_14_cif.got.tgz:27154.got - 2010.06.03 17:49:19.
