data_PCOD9246381
_publ_section_title
;
Structure prediction by ZEFSAII (Michael W. Deem and Ramdas Pophale) SiO2 
 PCOD9246381
Probable space group: P 21/C
;
_chemical_formula_sum "Si O2"
_cell_formula_units_Z 28
_cell_length_a 5.419951
_cell_length_b 10.865659
_cell_length_c 19.518870
_cell_angle_alpha 90.000000
_cell_angle_beta 73.862774
_cell_angle_gamma 90.000000
_cell_volume 1104.200989
_symmetry_space_group_name_H-M "P 21/C"
_symmetry_group_IT_number 14
_symmetry_cell_setting 'monoclinic'
loop_
_space_group_symop_operation_xyz
x,y,z
-x,1/2+y,1/2-z
-x,-y,-z
x,1/2-y,1/2+z
loop_
_atom_site_type_symbol
_atom_site_label
_atom_site_fract_x
_atom_site_fract_y
_atom_site_fract_z
Si Si1 0.054135 0.051097 0.071629
Si Si2 0.863395 0.545881 0.943529
Si Si3 0.551261 0.767387 0.669265
Si Si4 0.039943 0.632845 0.693867
Si Si5 0.280798 0.735657 0.896008
Si Si6 0.523537 0.758130 0.010348
Si Si7 0.663371 0.978998 0.326257
O O1 0.808131 0.128607 0.119778
O O2 0.293856 0.142860 0.041731
O O3 0.122526 0.945974 0.120719
O O4 0.000000 0.000000 0.000000
O O5 0.626028 0.622015 0.988769
O O6 0.777698 0.462922 0.887761
O O7 0.052003 0.644925 0.894968
O O8 0.000000 0.500000 0.000000
O O9 0.808769 0.720360 0.685301
O O10 0.555146 0.728967 0.588648
O O11 0.528435 0.913930 0.682130
O O12 0.280762 0.701836 0.710643
O O13 0.894416 0.543404 0.757238
O O14 0.276230 0.754525 0.979895
O O15 0.526170 0.653814 0.853436
#
# Coordination Sequence:
#
# PCOD9246381 Si02
#       7
#     4   4   4   4   4   4   4
#     4  11  23  44  72 109 150 199 250 319 372 462
#     4  10  21  40  72 107 143 186 246 311 378 443
#     4  12  28  49  76 110 149 199 256 313 381 454
#     4  12  31  47  75 111 153 206 250 311 383 456
#     4  10  23  41  73 104 146 189 250 307 385 437
#     4  10  22  41  72 110 141 192 250 315 376 446
#     4  11  28  47  74 108 153 200 255 318 380 467
#
# _framework density 25.357703999999998
#
# number of rings (size 3 to 8) (size 9 to 14) (size 15 to 20)
#    0.000    1.143    1.429    2.571   12.000    5.714 
#    0.000    0.000    0.000    0.000    0.000    0.000 
#    0.000    0.000    0.000    0.000    0.000    0.000 
#
# Total GULP energy -156434.519170 kJ/mol
# GULP energy per Si atom -5586.947113 kJ/mol
# Density = 2.529999 g / cm^3
# Si number density = 25.357704 Si / 1000 Ang^3
#
#
#
# Elastic Constant Matrix: (Units=GPa)
#
#
# Indices 1 2 3 4 5 6 
#
# 1 66.6714 29.4711 -3.7412 0.0000 -5.9107 0.0000
# 2 29.4711 107.4407 13.2183 0.0000 -3.6601 0.0000
# 3 -3.7412 13.2183 89.3663 0.0000 -11.9378 0.0000
# 4 0.0000 0.0000 0.0000 31.5763 0.0000 -6.4491
# 5 -5.9107 -3.6601 -11.9378 0.0000 24.4713 0.0000
# 6 0.0000 0.0000 0.0000 -6.4491 0.0000 54.0868
#
#
#
# Elastic Compliance Matrix: (Units=1/GPa)
#
#
# Indices 1 2 3 4 5 6 
#
# 1 0.017712 -0.004960 0.002083 0.000000 0.004552 0.000000
# 2 -0.004960 0.010883 -0.001883 0.000000 -0.000489 0.000000
# 3 0.002083 -0.001883 0.012393 0.000000 0.006267 0.000000
# 4 0.000000 0.000000 0.000000 0.032460 0.000000 0.003870
# 5 0.004552 -0.000489 0.006267 0.000000 0.044948 0.000000
# 6 0.000000 0.000000 0.000000 0.003870 0.000000 0.018950
#
#
# Mechanical properties :
#
#
# Convention : Reuss Voigt Hill
#
# Bulk Modulus (GPa) = 31.77691 37.93055 34.85373
# Shear Modulus (GPa) = 31.77567 36.99556 34.38561
#
# Velocity S-wave (km/s) = 3.54375 3.82376 3.68642
# Velocity P-wave (km/s) = 5.41322 5.87244 5.64750
#
# Compressibility (1/GPa) = 0.03146939
#
# Stress axis : x y z
#
# Youngs Moduli (GPa) = 56.45976 91.88781 80.69239
#
# Poissons Ratio (x) = 0.45572 -0.16810
# Poissons Ratio (y) = 0.28002 0.15191
# Poissons Ratio (z) = -0.11762 0.17299
#
# Static dielectric constant tensor:
#      x y z
#    x 2.115780 0.000000 0.045550 
#    y 0.000000 2.077320 0.000000 
#    z 0.045550 0.000000 2.110870 
# 
# From -- ./inp_files/63488.got.cif
#   From: 2010.05.17/outbox.cif.g08.bks.cpg/sg14_32_cif.got.tgz:63488.got - 2010.06.03 17:49:19.
