data_PCOD9246076
_publ_section_title
;
Structure prediction by ZEFSAII (Michael W. Deem and Ramdas Pophale) SiO2 
 PCOD9246076
Probable space group: P 21/C
;
_chemical_formula_sum "Si O2"
_cell_formula_units_Z 32
_cell_length_a 8.736122
_cell_length_b 11.045592
_cell_length_c 28.149461
_cell_angle_alpha 90.000000
_cell_angle_beta 142.017356
_cell_angle_gamma 90.000000
_cell_volume 1671.672942
_symmetry_space_group_name_H-M "P 21/C"
_symmetry_group_IT_number 14
_symmetry_cell_setting 'monoclinic'
loop_
_space_group_symop_operation_xyz
x,y,z
-x,1/2+y,1/2-z
-x,-y,-z
x,1/2-y,1/2+z
loop_
_atom_site_type_symbol
_atom_site_label
_atom_site_fract_x
_atom_site_fract_y
_atom_site_fract_z
Si Si1 0.572808 0.051158 0.184378
Si Si2 0.903945 0.846764 0.309426
Si Si3 0.197349 0.467058 0.120739
Si Si4 0.105518 0.169523 0.499687
Si Si5 0.648646 0.260586 0.621643
Si Si6 0.695058 0.586566 0.284478
Si Si7 0.193447 0.894118 0.035706
Si Si8 0.237386 0.931529 0.937230
O O1 0.665996 0.158361 0.173221
O O2 0.400030 0.104562 0.184332
O O3 0.767286 0.967653 0.258668
O O4 0.438568 0.952105 0.118052
O O5 0.752092 0.717523 0.273440
O O6 0.141668 0.840887 0.332537
O O7 0.927338 0.878221 0.371100
O O8 0.188028 0.402395 0.067339
O O9 0.475782 0.511313 0.204278
O O10 0.024260 0.584031 0.070467
O O11 0.363274 0.225379 0.545430
O O12 0.909285 0.272905 0.465911
O O13 0.724730 0.334238 0.593926
O O14 0.961600 0.516942 0.356010
O O15 0.213775 0.881137 0.984454
O O16 0.000000 0.000000 0.000000
O O17 0.500000 0.000000 0.000000
#
# Coordination Sequence:
#
# PCOD9246076 Si02
#       8
#     4   4   4   4   4   4   4   4
#     4  11  21  38  63  88 121 164 210 256 309 373
#     4  10  23  40  60  90 126 162 203 262 312 370
#     4  10  23  42  64  88 120 169 213 251 306 370
#     4  11  22  40  64  91 122 165 211 254 310 373
#     4  11  22  37  59  88 128 159 202 256 318 361
#     4  10  21  40  62  87 121 159 214 255 302 372
#     4  12  20  37  65  90 118 159 211 254 301 369
#     4  11  20  35  58  91 124 154 194 258 313 357
#
# _framework density 19.142499000000001
#
# number of rings (size 3 to 8) (size 9 to 14) (size 15 to 20)
#    0.000    1.250    3.750    3.000    0.000    2.500 
#    0.000    2.500    0.000    0.000    0.000    0.000 
#    0.000    0.000    0.000    0.000    0.000    0.000 
#
# Total GULP energy -178151.496869 kJ/mol
# GULP energy per Si atom -5567.234277 kJ/mol
# Density = 1.909893 g / cm^3
# Si number density = 19.142499 Si / 1000 Ang^3
#
#
#
# Elastic Constant Matrix: (Units=GPa)
#
#
# Indices 1 2 3 4 5 6 
#
# 1 91.9899 9.3890 28.6787 0.0000 14.1855 0.0000
# 2 9.3890 42.7427 10.6658 0.0000 11.0935 0.0000
# 3 28.6787 10.6658 69.8862 0.0000 7.8792 0.0000
# 4 0.0000 0.0000 0.0000 31.5160 0.0000 -5.1117
# 5 14.1855 11.0935 7.8792 0.0000 25.6234 0.0000
# 6 0.0000 0.0000 0.0000 -5.1117 0.0000 4.8523
#
#
#
# Elastic Compliance Matrix: (Units=1/GPa)
#
#
# Indices 1 2 3 4 5 6 
#
# 1 0.013269 -0.000226 -0.004759 0.000000 -0.005785 0.000000
# 2 -0.000226 0.026915 -0.002813 0.000000 -0.010663 0.000000
# 3 -0.004759 -0.002813 0.016841 0.000000 -0.001326 0.000000
# 4 0.000000 0.000000 0.000000 0.038269 0.000000 0.040315
# 5 -0.005785 -0.010663 -0.001326 0.000000 0.047254 0.000000
# 6 0.000000 0.000000 0.000000 0.040315 0.000000 0.248559
#
#
# Mechanical properties :
#
#
# Convention : Reuss Voigt Hill
#
# Bulk Modulus (GPa) = 24.13704 33.56509 28.85106
# Shear Modulus (GPa) = 11.89029 22.79070 17.34049
#
# Velocity S-wave (km/s) = 2.49498 3.45422 3.01302
# Velocity P-wave (km/s) = 4.57564 5.78630 5.21621
#
# Compressibility (1/GPa) = 0.04143009
#
# Stress axis : x y z
#
# Youngs Moduli (GPa) = 75.36105 37.15441 59.38057
#
# Poissons Ratio (x) = 0.00839 0.28257
# Poissons Ratio (y) = 0.01702 0.16703
# Poissons Ratio (z) = 0.35861 0.10451
#
# Static dielectric constant tensor:
#      x y z
#    x 1.631860 0.000000 -0.006310 
#    y 0.000000 1.587510 0.000000 
#    z -0.006310 0.000000 1.725900 
# 
# From -- ./inp_files/79649.got.cif
#   From: 2010.05.17/outbox.cif.g08.bks.cpg/sg14_40_cif.got.tgz:79649.got - 2010.06.03 17:49:19.
