data_PCOD9246206
_publ_section_title
;
Structure prediction by ZEFSAII (Michael W. Deem and Ramdas Pophale) SiO2 
 PCOD9246206
Probable space group: P 21/C
;
_chemical_formula_sum "Si O2"
_cell_formula_units_Z 32
_cell_length_a 18.139588
_cell_length_b 13.676739
_cell_length_c 10.911449
_cell_angle_alpha 90.000000
_cell_angle_beta 153.970094
_cell_angle_gamma 90.000000
_cell_volume 1187.951825
_symmetry_space_group_name_H-M "P 21/C"
_symmetry_group_IT_number 14
_symmetry_cell_setting 'monoclinic'
loop_
_space_group_symop_operation_xyz
x,y,z
-x,1/2+y,1/2-z
-x,-y,-z
x,1/2-y,1/2+z
loop_
_atom_site_type_symbol
_atom_site_label
_atom_site_fract_x
_atom_site_fract_y
_atom_site_fract_z
Si Si1 0.542027 0.938306 0.292963
Si Si2 0.014831 0.687935 0.028807
Si Si3 0.840241 0.364200 0.364496
Si Si4 0.637706 0.120059 0.321722
Si Si5 0.815177 0.660094 0.373807
Si Si6 0.682955 0.335570 0.366922
Si Si7 0.089511 0.546030 0.943938
Si Si8 0.195591 0.142094 0.502364
O O1 0.374570 0.901250 0.107002
O O2 0.636256 0.887973 0.318408
O O3 0.506729 0.045392 0.183998
O O4 0.670588 0.907949 0.598084
O O5 0.136941 0.747969 0.116819
O O6 0.123372 0.688531 0.315317
O O7 0.868256 0.763792 0.844021
O O8 0.005764 0.589035 0.940863
O O9 0.775873 0.395235 0.136678
O O10 0.699353 0.381796 0.257525
O O11 0.031049 0.392088 0.678178
O O12 0.586445 0.232594 0.232808
O O13 0.734936 0.089774 0.345435
O O14 0.787480 0.744067 0.436810
O O15 0.951339 0.585949 0.636521
O O16 0.146975 0.432076 0.040933
#
# Coordination Sequence:
#
# PCOD9246206 Si02
#       8
#     4   4   4   4   4   4   4   4
#     4  11  25  41  62  95 127 157 211 262 310 360
#     4  11  19  38  65  87 122 165 205 247 299 380
#     4  11  18  39  67  88 121 161 211 252 297 377
#     4  10  21  40  65  90 119 172 213 245 307 375
#     4  12  20  40  64  95 125 160 206 266 307 352
#     4  11  23  41  63  90 125 168 203 252 312 368
#     4  11  20  37  65  94 120 162 212 253 306 372
#     4  11  22  38  61  97 123 158 204 260 315 359
#
# _framework density 26.93712
#
# number of rings (size 3 to 8) (size 9 to 14) (size 15 to 20)
#    0.000    1.000    7.500    0.750    0.000    5.000 
#    2.250    2.500    0.000    0.000    0.000    0.000 
#    0.000    0.000    0.000    0.000    0.000    0.000 
#
# Total GULP energy -178330.707337 kJ/mol
# GULP energy per Si atom -5572.834604 kJ/mol
# Density = 2.687581 g / cm^3
# Si number density = 26.937120 Si / 1000 Ang^3
#
#
#
# Elastic Constant Matrix: (Units=GPa)
#
#
# Indices 1 2 3 4 5 6 
#
# 1 112.9017 20.2276 -4.0546 0.0000 0.3494 0.0000
# 2 20.2276 100.7536 -10.0383 0.0000 3.5293 0.0000
# 3 -4.0546 -10.0383 82.4215 0.0000 -8.8818 0.0000
# 4 0.0000 0.0000 0.0000 12.5518 0.0000 4.1477
# 5 0.3494 3.5293 -8.8818 0.0000 28.8397 0.0000
# 6 0.0000 0.0000 0.0000 4.1477 0.0000 50.0508
#
#
#
# Elastic Compliance Matrix: (Units=1/GPa)
#
#
# Indices 1 2 3 4 5 6 
#
# 1 0.009193 -0.001827 0.000250 0.000000 0.000189 0.000000
# 2 -0.001827 0.010432 0.001081 0.000000 -0.000921 0.000000
# 3 0.000250 0.001081 0.012683 0.000000 0.003771 0.000000
# 4 0.000000 0.000000 0.000000 0.081913 0.000000 -0.006788
# 5 0.000189 -0.000921 0.003771 0.000000 0.035946 0.000000
# 6 0.000000 0.000000 0.000000 -0.006788 0.000000 0.020542
#
#
# Mechanical properties :
#
#
# Convention : Reuss Voigt Hill
#
# Bulk Modulus (GPa) = 31.93216 34.26070 33.09643
# Shear Modulus (GPa) = 27.45135 37.61793 32.53464
#
# Velocity S-wave (km/s) = 3.19578 3.74104 3.47911
# Velocity P-wave (km/s) = 5.04950 5.60419 5.33406
#
# Compressibility (1/GPa) = 0.03131639
#
# Stress axis : x y z
#
# Youngs Moduli (GPa) = 108.77788 95.85818 78.84514
#
# Poissons Ratio (x) = 0.17516 -0.01972
# Poissons Ratio (y) = 0.19877 -0.08526
# Poissons Ratio (z) = -0.02720 -0.10366
#
# Static dielectric constant tensor:
#      x y z
#    x 2.200800 0.000000 -0.086300 
#    y 0.000000 2.205500 0.000000 
#    z -0.086300 0.000000 2.249450 
# 
# From -- ./inp_files/34249.got.cif
#   From: 2010.05.17/outbox.cif.g08.bks.cpg/sg14_18_cif.got.tgz:34249.got - 2010.06.03 17:49:19.
