data_PCOD9246763
_publ_section_title
;
Structure prediction by ZEFSAII (Michael W. Deem and Ramdas Pophale) SiO2 
 PCOD9246763
Probable space group: P 21/C
;
_chemical_formula_sum "Si O2"
_cell_formula_units_Z 28
_cell_length_a 5.246021
_cell_length_b 13.317409
_cell_length_c 16.810245
_cell_angle_alpha 90.000000
_cell_angle_beta 79.595556
_cell_angle_gamma 90.000000
_cell_volume 1155.110536
_symmetry_space_group_name_H-M "P 21/C"
_symmetry_group_IT_number 14
_symmetry_cell_setting 'monoclinic'
loop_
_space_group_symop_operation_xyz
x,y,z
-x,1/2+y,1/2-z
-x,-y,-z
x,1/2-y,1/2+z
loop_
_atom_site_type_symbol
_atom_site_label
_atom_site_fract_x
_atom_site_fract_y
_atom_site_fract_z
Si Si1 0.716289 0.643210 0.736828
Si Si2 0.194467 0.400612 0.895772
Si Si3 0.740796 0.389902 0.355224
Si Si4 0.958068 0.743840 0.362071
Si Si5 0.257186 0.607486 0.948800
Si Si6 0.407521 0.230281 0.983120
Si Si7 0.979483 0.438989 0.734177
O O1 0.449280 0.644672 0.704997
O O2 0.750585 0.717467 0.808572
O O3 0.976222 0.660735 0.668272
O O4 0.770027 0.526906 0.758863
O O5 0.352225 0.498703 0.916244
O O6 0.338160 0.299033 0.911079
O O7 0.108071 0.410240 0.810247
O O8 0.942158 0.403247 0.966801
O O9 0.594277 0.357684 0.443207
O O10 0.806133 0.505965 0.334099
O O11 0.837523 0.699036 0.450271
O O12 0.117428 0.658069 0.307575
O O13 0.109173 0.842283 0.382779
O O14 0.459077 0.688230 0.967514
#
# Coordination Sequence:
#
# PCOD9246763 Si02
#       7
#     4   4   4   4   4   4   4
#     4  10  24  47  67 100 140 179 236 296 337 421
#     4  10  21  42  64 101 130 181 232 289 357 407
#     4  10  25  46  67  99 140 183 231 289 346 423
#     4  11  24  41  68 103 138 187 234 291 358 416
#     4  10  22  41  64 100 136 176 230 295 346 426
#     4  11  25  39  71  96 143 183 231 287 359 424
#     4  10  24  42  71  99 138 186 234 294 347 422
#
# _framework density 24.240103000000001
#
# number of rings (size 3 to 8) (size 9 to 14) (size 15 to 20)
#    0.857    0.857    1.429    1.286   10.000    2.857 
#    0.000    1.429    0.000    0.000    0.000    0.000 
#    0.000    0.000    0.000    0.000    0.000    0.000 
#
# Total GULP energy -156471.315364 kJ/mol
# GULP energy per Si atom -5588.261263 kJ/mol
# Density = 2.418493 g / cm^3
# Si number density = 24.240103 Si / 1000 Ang^3
#
#
#
# Elastic Constant Matrix: (Units=GPa)
#
#
# Indices 1 2 3 4 5 6 
#
# 1 52.0452 2.7957 -5.5488 0.0000 11.0033 0.0000
# 2 2.7957 84.9441 44.5351 0.0000 1.5458 0.0000
# 3 -5.5488 44.5351 68.8975 0.0000 -4.8604 0.0000
# 4 0.0000 0.0000 0.0000 33.3447 0.0000 1.6039
# 5 11.0033 1.5458 -4.8604 0.0000 36.5150 0.0000
# 6 0.0000 0.0000 0.0000 1.6039 0.0000 20.7032
#
#
#
# Elastic Compliance Matrix: (Units=1/GPa)
#
#
# Indices 1 2 3 4 5 6 
#
# 1 0.020819 -0.001877 0.002476 0.000000 -0.005864 0.000000
# 2 -0.001877 0.018171 -0.012024 0.000000 -0.001804 0.000000
# 3 0.002476 -0.012024 0.022682 0.000000 0.002782 0.000000
# 4 0.000000 0.000000 0.000000 0.030102 0.000000 -0.002332
# 5 -0.005864 -0.001804 0.002782 0.000000 0.029600 0.000000
# 6 0.000000 0.000000 0.000000 -0.002332 0.000000 0.048482
#
#
# Mechanical properties :
#
#
# Convention : Reuss Voigt Hill
#
# Bulk Modulus (GPa) = 25.75817 32.16121 28.95969
# Shear Modulus (GPa) = 24.31351 29.05289 26.68320
#
# Velocity S-wave (km/s) = 3.17050 3.46576 3.32141
# Velocity P-wave (km/s) = 4.90429 5.41405 5.16546
#
# Compressibility (1/GPa) = 0.03882263
#
# Stress axis : x y z
#
# Youngs Moduli (GPa) = 48.03378 55.03216 44.08700
#
# Poissons Ratio (x) = 0.10327 -0.10916
# Poissons Ratio (y) = 0.09014 0.53011
# Poissons Ratio (z) = -0.11893 0.66172
#
# Static dielectric constant tensor:
#      x y z
#    x 1.959370 0.000000 -0.037060 
#    y 0.000000 1.929380 0.000000 
#    z -0.037060 0.000000 1.927600 
# 
# From -- ./inp_files/53169.got.cif
#   From: 2010.05.17/outbox.cif.g08.bks.cpg/sg14_27_cif.got.tgz:53169.got - 2010.06.03 17:49:19.
