data_PCOD9246985
_publ_section_title
;
Structure prediction by ZEFSAII (Michael W. Deem and Ramdas Pophale) SiO2 
 PCOD9246985
Probable space group: P 21/C
;
_chemical_formula_sum "Si O2"
_cell_formula_units_Z 32
_cell_length_a 5.741724
_cell_length_b 11.440429
_cell_length_c 19.578084
_cell_angle_alpha 90.000000
_cell_angle_beta 72.163866
_cell_angle_gamma 90.000000
_cell_volume 1224.229246
_symmetry_space_group_name_H-M "P 21/C"
_symmetry_group_IT_number 14
_symmetry_cell_setting 'monoclinic'
loop_
_space_group_symop_operation_xyz
x,y,z
-x,1/2+y,1/2-z
-x,-y,-z
x,1/2-y,1/2+z
loop_
_atom_site_type_symbol
_atom_site_label
_atom_site_fract_x
_atom_site_fract_y
_atom_site_fract_z
Si Si1 0.197443 0.563374 0.068600
Si Si2 0.501061 0.640421 0.502854
Si Si3 0.001259 0.358739 0.495005
Si Si4 0.809155 0.514867 0.687690
Si Si5 0.182928 0.212332 0.309669
Si Si6 0.327349 0.109008 0.157506
Si Si7 0.516514 0.022936 0.341733
Si Si8 0.870175 0.353000 0.080255
O O1 0.456376 0.555892 0.081363
O O2 0.037789 0.642026 0.134815
O O3 0.100215 0.430584 0.081361
O O4 0.172899 0.608537 0.994629
O O5 0.500000 0.500000 0.500000
O O6 0.218569 0.670387 0.537111
O O7 0.579471 0.674205 0.418863
O O8 0.714216 0.677154 0.535159
O O9 0.920426 0.284283 0.569695
O O10 0.000000 0.500000 0.500000
O O11 0.812913 0.652429 0.673044
O O12 0.570427 0.459505 0.667497
O O13 0.746658 0.502672 0.773606
O O14 0.089631 0.468281 0.655617
O O15 0.212983 0.191705 0.225906
O O16 0.407565 0.139254 0.319222
O O17 0.345300 0.907814 0.355047
#
# Coordination Sequence:
#
# PCOD9246985 Si02
#       8
#     4   4   4   4   4   4   4   4
#     4  10  21  43  65  96 136 173 228 280 341 402
#     4  10  23  43  66  91 138 173 219 275 330 402
#     4  10  23  43  63 102 135 176 219 275 331 408
#     4  11  25  42  71  94 133 181 222 277 341 397
#     4  10  24  41  63  97 131 173 224 280 331 404
#     4  11  24  44  64  99 131 174 224 278 335 403
#     4  10  22  44  63 100 132 172 231 280 333 410
#     4  10  23  38  68  98 133 180 224 279 345 400
#
# _framework density 26.138895999999999
#
# number of rings (size 3 to 8) (size 9 to 14) (size 15 to 20)
#    0.000    1.750    1.250    1.125    5.250    4.000 
#    0.000    0.000    0.000    0.000    0.000    0.000 
#    0.000    0.000    0.000    0.000    0.000    0.000 
#
# Total GULP energy -178620.480690 kJ/mol
# GULP energy per Si atom -5581.890022 kJ/mol
# Density = 2.607940 g / cm^3
# Si number density = 26.138896 Si / 1000 Ang^3
#
#
#
# Elastic Constant Matrix: (Units=GPa)
#
#
# Indices 1 2 3 4 5 6 
#
# 1 178.0366 48.7803 38.0335 0.0000 -2.1940 0.0000
# 2 48.7803 132.1483 25.9740 0.0000 -11.1784 0.0000
# 3 38.0335 25.9740 126.8984 0.0000 1.8640 0.0000
# 4 0.0000 0.0000 0.0000 39.4723 0.0000 3.3673
# 5 -2.1940 -11.1784 1.8640 0.0000 39.5788 0.0000
# 6 0.0000 0.0000 0.0000 3.3673 0.0000 3.5378
#
#
#
# Elastic Compliance Matrix: (Units=1/GPa)
#
#
# Indices 1 2 3 4 5 6 
#
# 1 0.006521 -0.002123 -0.001517 0.000000 -0.000167 0.000000
# 2 -0.002123 0.008791 -0.001199 0.000000 0.002422 0.000000
# 3 -0.001517 -0.001199 0.008593 0.000000 -0.000827 0.000000
# 4 0.000000 0.000000 0.000000 0.027573 0.000000 -0.026244
# 5 -0.000167 0.002422 -0.000827 0.000000 0.025980 0.000000
# 6 0.000000 0.000000 0.000000 -0.026244 0.000000 0.307639
#
#
# Mechanical properties :
#
#
# Convention : Reuss Voigt Hill
#
# Bulk Modulus (GPa) = 70.29079 73.62877 71.95978
# Shear Modulus (GPa) = 12.51513 38.13748 25.32631
#
# Velocity S-wave (km/s) = 2.19051 3.82387 3.11611
# Velocity P-wave (km/s) = 5.77472 6.90836 6.36682
#
# Compressibility (1/GPa) = 0.01422662
#
# Stress axis : x y z
#
# Youngs Moduli (GPa) = 153.36140 113.74841 116.37898
#
# Poissons Ratio (x) = 0.24147 0.17659
# Poissons Ratio (y) = 0.32556 0.13951
# Poissons Ratio (z) = 0.23270 0.13636
#
# Static dielectric constant tensor:
#      x y z
#    x 2.180840 0.000000 -0.007060 
#    y 0.000000 2.046780 0.000000 
#    z -0.007060 0.000000 2.073240 
# 
# From -- ./inp_files/71301.got.cif
#   From: 2010.05.17/outbox.cif.g08.bks.cpg/sg14_36_cif.got.tgz:71301.got - 2010.06.03 17:49:19.
