data_PCOD9246018
_publ_section_title
;
Structure prediction by ZEFSAII (Michael W. Deem and Ramdas Pophale) SiO2 
 PCOD9246018
Probable space group: P 21/C
;
_chemical_formula_sum "Si O2"
_cell_formula_units_Z 32
_cell_length_a 22.949996
_cell_length_b 8.828072
_cell_length_c 24.163538
_cell_angle_alpha 90.000000
_cell_angle_beta 161.695075
_cell_angle_gamma 90.000000
_cell_volume 1537.591891
_symmetry_space_group_name_H-M "P 21/C"
_symmetry_group_IT_number 14
_symmetry_cell_setting 'monoclinic'
loop_
_space_group_symop_operation_xyz
x,y,z
-x,1/2+y,1/2-z
-x,-y,-z
x,1/2-y,1/2+z
loop_
_atom_site_type_symbol
_atom_site_label
_atom_site_fract_x
_atom_site_fract_y
_atom_site_fract_z
Si Si1 0.028696 0.945577 0.390104
Si Si2 0.177752 0.418420 0.189326
Si Si3 0.195289 0.054579 0.200112
Si Si4 0.237802 0.620787 0.418072
Si Si5 0.846438 0.114604 0.032249
Si Si6 0.791962 0.444039 0.162432
Si Si7 0.572368 0.097242 0.685821
Si Si8 0.603150 0.455367 0.708077
O O1 0.858770 0.960953 0.280323
O O2 0.058584 0.769742 0.403271
O O3 0.220868 0.994709 0.593052
O O4 0.956351 0.040102 0.273195
O O5 0.183085 0.236382 0.192130
O O6 0.350957 0.476848 0.310658
O O7 0.000000 0.500000 0.000000
O O8 0.218560 0.979615 0.281420
O O9 0.348484 0.997840 0.294679
O O10 0.000000 0.000000 0.000000
O O11 0.235223 0.647344 0.481294
O O12 0.251521 0.773984 0.394928
O O13 0.414771 0.517960 0.563478
O O14 0.692705 0.067198 0.848944
O O15 0.004178 0.987688 0.174347
O O16 0.639504 0.552204 0.997313
O O17 0.594599 0.274837 0.694142
#
# Coordination Sequence:
#
# PCOD9246018 Si02
#       8
#     4   4   4   4   4   4   4   4
#     4  10  22  45  67  95 134 177 226 281 339 404
#     4  10  21  39  70  98 136 174 221 274 344 409
#     4  12  22  42  69 101 142 174 222 281 349 415
#     4  12  27  41  69 100 135 178 237 275 341 411
#     4  11  24  48  67  95 134 185 227 285 337 405
#     4  12  26  43  69 104 136 180 228 283 346 408
#     4  11  25  44  70  98 140 178 225 282 348 400
#     4  10  24  43  67 101 132 179 222 284 337 407
#
# _framework density 20.811765999999999
#
# number of rings (size 3 to 8) (size 9 to 14) (size 15 to 20)
#    0.000    1.000    2.500    4.125    5.250    4.500 
#    0.000    0.000    0.000    0.000    0.000    0.000 
#    0.000    0.000    0.000    0.000    0.000    0.000 
#
# Total GULP energy -178908.359715 kJ/mol
# GULP energy per Si atom -5590.886241 kJ/mol
# Density = 2.076440 g / cm^3
# Si number density = 20.811766 Si / 1000 Ang^3
#
#
#
# Elastic Constant Matrix: (Units=GPa)
#
#
# Indices 1 2 3 4 5 6 
#
# 1 90.6564 31.7328 38.0883 0.0000 -16.8445 0.0000
# 2 31.7328 68.7000 28.5987 0.0000 -10.2905 0.0000
# 3 38.0883 28.5987 91.0123 0.0000 4.9290 0.0000
# 4 0.0000 0.0000 0.0000 25.7416 0.0000 -7.0982
# 5 -16.8445 -10.2905 4.9290 0.0000 13.0384 0.0000
# 6 0.0000 0.0000 0.0000 -7.0982 0.0000 7.6359
#
#
#
# Elastic Compliance Matrix: (Units=1/GPa)
#
#
# Indices 1 2 3 4 5 6 
#
# 1 0.021449 -0.000984 -0.010337 0.000000 0.030841 0.000000
# 2 -0.000984 0.020563 -0.007003 0.000000 0.017605 0.000000
# 3 -0.010337 -0.007003 0.018924 0.000000 -0.026036 0.000000
# 4 0.000000 0.000000 0.000000 0.052238 0.000000 0.048559
# 5 0.030841 0.017605 -0.026036 0.000000 0.140278 0.000000
# 6 0.000000 0.000000 0.000000 0.048559 0.000000 0.176101
#
#
# Mechanical properties :
#
#
# Convention : Reuss Voigt Hill
#
# Bulk Modulus (GPa) = 41.17468 49.68983 45.43225
# Shear Modulus (GPa) = 10.54193 19.41310 14.97751
#
# Velocity S-wave (km/s) = 2.25308 3.05748 2.68557
# Velocity P-wave (km/s) = 5.15711 6.03257 5.61194
#
# Compressibility (1/GPa) = 0.02428677
#
# Stress axis : x y z
#
# Youngs Moduli (GPa) = 46.62288 48.63113 52.84259
#
# Poissons Ratio (x) = 0.04788 0.54624
# Poissons Ratio (y) = 0.04590 0.37005
# Poissons Ratio (z) = 0.48195 0.34056
#
# Static dielectric constant tensor:
#      x y z
#    x 1.760920 0.000000 -0.026730 
#    y 0.000000 2.680760 0.000000 
#    z -0.026730 0.000000 1.835600 
# 
# From -- ./inp_files/74918.got.cif
#   From: 2010.05.17/outbox.cif.g08.bks.cpg/sg14_38_cif.got.tgz:74918.got - 2010.06.03 17:49:19.
