data_PCOD9246179
_publ_section_title
;
Structure prediction by ZEFSAII (Michael W. Deem and Ramdas Pophale) SiO2 
 PCOD9246179
Probable space group: P 21/C
;
_chemical_formula_sum "Si O2"
_cell_formula_units_Z 28
_cell_length_a 12.279037
_cell_length_b 7.987639
_cell_length_c 19.012857
_cell_angle_alpha 90.000000
_cell_angle_beta 41.480391
_cell_angle_gamma 90.000000
_cell_volume 1235.169709
_symmetry_space_group_name_H-M "P 21/C"
_symmetry_group_IT_number 14
_symmetry_cell_setting 'monoclinic'
loop_
_space_group_symop_operation_xyz
x,y,z
-x,1/2+y,1/2-z
-x,-y,-z
x,1/2-y,1/2+z
loop_
_atom_site_type_symbol
_atom_site_label
_atom_site_fract_x
_atom_site_fract_y
_atom_site_fract_z
Si Si1 0.960083 0.693411 0.812321
Si Si2 0.310142 0.482248 0.967102
Si Si3 0.903929 0.540708 0.694920
Si Si4 0.689968 0.437965 0.320555
Si Si5 0.553840 0.207990 0.026719
Si Si6 0.196436 0.675874 0.479233
Si Si7 0.373979 0.647904 0.248259
O O1 0.018570 0.875168 0.807261
O O2 0.915748 0.673319 0.752139
O O3 0.118639 0.577710 0.753335
O O4 0.804398 0.638839 0.933369
O O5 0.416559 0.598824 0.969160
O O6 0.198809 0.622030 0.982420
O O7 0.435294 0.393586 0.853986
O O8 0.016830 0.601980 0.575902
O O9 0.729934 0.479591 0.750257
O O10 0.610468 0.621034 0.365140
O O11 0.588588 0.333453 0.429270
O O12 0.659746 0.335654 0.263707
O O13 0.700719 0.122136 0.001134
O O14 0.300406 0.627594 0.361144
#
# Coordination Sequence:
#
# PCOD9246179 Si02
#       7
#     4   4   4   4   4   4   4
#     4  11  22  40  66  95 125 159 212 261 309 362
#     4  10  24  38  60  94 120 165 203 255 309 369
#     4  11  23  42  65  93 125 167 207 260 313 364
#     4  10  21  40  64  93 118 170 203 262 307 370
#     4   9  21  40  62  91 126 157 216 250 314 362
#     4  10  23  44  60  91 129 165 203 256 319 372
#     4  11  25  40  65  92 129 163 213 253 314 377
#
# _framework density 22.668951
#
# number of rings (size 3 to 8) (size 9 to 14) (size 15 to 20)
#    0.857    0.857    1.429    3.000    4.000    4.571 
#    0.000    2.857    0.000    0.000    0.000    0.000 
#    0.000    0.000    0.000    0.000    0.000    0.000 
#
# Total GULP energy -156452.242692 kJ/mol
# GULP energy per Si atom -5587.580096 kJ/mol
# Density = 2.261736 g / cm^3
# Si number density = 22.668951 Si / 1000 Ang^3
#
#
#
# Elastic Constant Matrix: (Units=GPa)
#
#
# Indices 1 2 3 4 5 6 
#
# 1 16.1154 7.1996 4.6010 0.0000 -5.2570 0.0000
# 2 7.1996 36.5684 8.1246 0.0000 -10.5412 0.0000
# 3 4.6010 8.1246 120.2927 0.0000 -14.4841 0.0000
# 4 0.0000 0.0000 0.0000 32.3031 0.0000 -11.6656
# 5 -5.2570 -10.5412 -14.4841 0.0000 31.5671 0.0000
# 6 0.0000 0.0000 0.0000 -11.6656 0.0000 15.9648
#
#
#
# Elastic Compliance Matrix: (Units=1/GPa)
#
#
# Indices 1 2 3 4 5 6 
#
# 1 0.069836 -0.011403 -0.001015 0.000000 0.007356 0.000000
# 2 -0.011403 0.032208 -0.000712 0.000000 0.008529 0.000000
# 3 -0.001015 -0.000712 0.008839 0.000000 0.003649 0.000000
# 4 0.000000 0.000000 0.000000 0.042054 0.000000 0.030729
# 5 0.007356 0.008529 0.003649 0.000000 0.037426 0.000000
# 6 0.000000 0.000000 0.000000 0.030729 0.000000 0.085092
#
#
# Mechanical properties :
#
#
# Convention : Reuss Voigt Hill
#
# Bulk Modulus (GPa) = 11.81720 23.64745 17.73232
# Shear Modulus (GPa) = 15.15498 26.17042 20.66270
#
# Velocity S-wave (km/s) = 2.58841 3.40142 3.02238
# Velocity P-wave (km/s) = 3.76263 5.08729 4.47426
#
# Compressibility (1/GPa) = 0.08462240
#
# Stress axis : x y z
#
# Youngs Moduli (GPa) = 14.31916 31.04817 113.13060
#
# Poissons Ratio (x) = 0.35405 0.11485
# Poissons Ratio (y) = 0.16329 0.08057
# Poissons Ratio (z) = 0.01454 0.02211
#
# Static dielectric constant tensor:
#      x y z
#    x 1.839950 0.000000 -0.016160 
#    y 0.000000 1.859370 0.000000 
#    z -0.016160 0.000000 1.809600 
# 
# From -- ./inp_files/68321.got.cif
#   From: 2010.05.17/outbox.cif.g08.bks.cpg/sg14_35_cif.got.tgz:68321.got - 2010.06.03 17:49:19.
