data_PCOD9246429
_publ_section_title
;
Structure prediction by ZEFSAII (Michael W. Deem and Ramdas Pophale) SiO2 
 PCOD9246429
Probable space group: P 21/C
;
_chemical_formula_sum "Si O2"
_cell_formula_units_Z 32
_cell_length_a 12.713859
_cell_length_b 7.624485
_cell_length_c 25.209082
_cell_angle_alpha 90.000000
_cell_angle_beta 31.683526
_cell_angle_gamma 90.000000
_cell_volume 1283.488492
_symmetry_space_group_name_H-M "P 21/C"
_symmetry_group_IT_number 14
_symmetry_cell_setting 'monoclinic'
loop_
_space_group_symop_operation_xyz
x,y,z
-x,1/2+y,1/2-z
-x,-y,-z
x,1/2-y,1/2+z
loop_
_atom_site_type_symbol
_atom_site_label
_atom_site_fract_x
_atom_site_fract_y
_atom_site_fract_z
Si Si1 0.924412 0.266144 0.613154
Si Si2 0.554896 0.399731 0.321881
Si Si3 0.613942 0.939814 0.220486
Si Si4 0.689582 0.743567 0.797440
Si Si5 0.364161 0.537506 0.999564
Si Si6 0.284153 0.094348 0.431110
Si Si7 0.117709 0.689419 0.668103
Si Si8 0.858336 0.801794 0.873849
O O1 0.778647 0.410036 0.652903
O O2 0.077421 0.186068 0.505683
O O3 0.063778 0.340445 0.600250
O O4 0.778179 0.131044 0.704989
O O5 0.420142 0.407813 0.326392
O O6 0.571613 0.570518 0.350967
O O7 0.453008 0.221693 0.386629
O O8 0.398773 0.006915 0.333995
O O9 0.672766 0.803986 0.241765
O O10 0.916816 0.731530 0.719749
O O11 0.573005 0.603080 0.884495
O O12 0.307838 0.350499 0.050716
O O13 0.283277 0.678946 0.075680
O O14 0.232271 0.535898 0.001631
O O15 0.042777 0.726061 0.759850
O O16 0.189538 0.489527 0.630849
#
# Coordination Sequence:
#
# PCOD9246429 Si02
#       8
#     4   4   4   4   4   4   4   4
#     4  10  21  42  64  88 132 180 207 275 338 376
#     4  11  23  39  68  95 133 177 224 267 329 397
#     4  10  21  41  61  97 134 171 221 275 321 394
#     4  11  23  40  66 101 134 176 223 273 337 389
#     4  10  24  43  65 101 133 173 222 272 329 399
#     4   9  21  40  63  92 131 175 217 272 323 391
#     4  12  24  45  71  99 133 177 222 275 333 399
#     4  11  23  44  69  95 136 172 221 275 329 396
#
# _framework density 24.932051000000001
#
# number of rings (size 3 to 8) (size 9 to 14) (size 15 to 20)
#    0.000    1.500    2.500    3.000    3.500    1.500 
#    0.000    5.625    0.000    0.000    0.000    0.000 
#    0.000    0.000    0.000    0.000    0.000    0.000 
#
# Total GULP energy -178779.055019 kJ/mol
# GULP energy per Si atom -5586.845469 kJ/mol
# Density = 2.487530 g / cm^3
# Si number density = 24.932051 Si / 1000 Ang^3
#
#
#
# Elastic Constant Matrix: (Units=GPa)
#
#
# Indices 1 2 3 4 5 6 
#
# 1 79.9879 6.5410 17.1956 0.0000 4.3337 0.0000
# 2 6.5410 93.4047 10.4974 0.0000 10.2169 0.0000
# 3 17.1956 10.4974 86.1104 0.0000 -15.4141 0.0000
# 4 0.0000 0.0000 0.0000 20.7525 0.0000 10.3618
# 5 4.3337 10.2169 -15.4141 0.0000 22.8429 0.0000
# 6 0.0000 0.0000 0.0000 10.3618 0.0000 16.4291
#
#
#
# Elastic Compliance Matrix: (Units=1/GPa)
#
#
# Indices 1 2 3 4 5 6 
#
# 1 0.013547 0.000003 -0.003601 0.000000 -0.005001 0.000000
# 2 0.000003 0.011787 -0.002708 0.000000 -0.007100 0.000000
# 3 -0.003601 -0.002708 0.014788 0.000000 0.011873 0.000000
# 4 0.000000 0.000000 0.000000 0.070337 0.000000 -0.044361
# 5 -0.005001 -0.007100 0.011873 0.000000 0.055914 0.000000
# 6 0.000000 0.000000 0.000000 -0.044361 0.000000 0.088846
#
#
# Mechanical properties :
#
#
# Convention : Reuss Voigt Hill
#
# Bulk Modulus (GPa) = 36.35200 36.44121 36.39661
# Shear Modulus (GPa) = 18.05060 27.02283 22.53671
#
# Velocity S-wave (km/s) = 2.69363 3.29577 3.00980
# Velocity P-wave (km/s) = 4.92811 5.39729 5.16803
#
# Compressibility (1/GPa) = 0.02750880
#
# Stress axis : x y z
#
# Youngs Moduli (GPa) = 73.81876 84.83984 67.62447
#
# Poissons Ratio (x) = -0.00026 0.24350
# Poissons Ratio (y) = -0.00023 0.18316
# Poissons Ratio (z) = 0.26581 0.22979
#
# Static dielectric constant tensor:
#      x y z
#    x 1.966450 0.000000 0.021460 
#    y 0.000000 2.096250 0.000000 
#    z 0.021460 0.000000 1.966160 
# 
# From -- ./inp_files/77519.got.cif
#   From: 2010.05.17/outbox.cif.g08.bks.cpg/sg14_39_cif.got.tgz:77519.got - 2010.06.03 17:49:19.
