data_PCOD9246653
_publ_section_title
;
Structure prediction by ZEFSAII (Michael W. Deem and Ramdas Pophale) SiO2 
 PCOD9246653
Probable space group: P 21/C
;
_chemical_formula_sum "Si O2"
_cell_formula_units_Z 32
_cell_length_a 11.682066
_cell_length_b 13.167988
_cell_length_c 17.043184
_cell_angle_alpha 90.000000
_cell_angle_beta 32.615158
_cell_angle_gamma 90.000000
_cell_volume 1413.101812
_symmetry_space_group_name_H-M "P 21/C"
_symmetry_group_IT_number 14
_symmetry_cell_setting 'monoclinic'
loop_
_space_group_symop_operation_xyz
x,y,z
-x,1/2+y,1/2-z
-x,-y,-z
x,1/2-y,1/2+z
loop_
_atom_site_type_symbol
_atom_site_label
_atom_site_fract_x
_atom_site_fract_y
_atom_site_fract_z
Si Si1 0.318085 0.553172 0.925403
Si Si2 0.250075 0.221498 0.100859
Si Si3 0.841536 0.967523 0.736735
Si Si4 0.407285 0.665178 0.036526
Si Si5 0.466689 0.073389 0.855441
Si Si6 0.134423 0.660255 0.670976
Si Si7 0.910937 0.415599 0.469045
Si Si8 0.286506 0.931578 0.765777
O O1 0.418101 0.606444 0.791390
O O2 0.472262 0.455519 0.847487
O O3 0.353432 0.612400 0.986560
O O4 0.067622 0.533956 0.061733
O O5 0.198760 0.139367 0.197662
O O6 0.030815 0.263808 0.193147
O O7 0.350068 0.325205 0.078087
O O8 0.387147 0.166105 0.954788
O O9 0.641267 0.005450 0.801267
O O10 0.868599 0.049957 0.790540
O O11 0.354720 0.784096 0.058560
O O12 0.291819 0.613085 0.176110
O O13 0.261536 0.004058 0.952891
O O14 0.093683 0.657748 0.601987
O O15 0.829050 0.369491 0.598326
O O16 0.140916 0.466811 0.346877
#
# Coordination Sequence:
#
# PCOD9246653 Si02
#       8
#     4   4   4   4   4   4   4   4
#     4  11  24  43  68  97 134 175 228 279 336 396
#     4  12  24  42  70  99 134 181 226 273 341 402
#     4  12  23  46  69  96 140 180 221 277 339 413
#     4  12  23  40  62  99 132 172 223 276 329 399
#     4  11  23  43  68  98 134 179 222 279 334 402
#     4  12  23  40  68  98 130 176 221 273 332 397
#     4  10  21  41  68  97 130 175 225 279 338 393
#     4  10  22  42  67  96 132 174 225 284 337 394
#
# _framework density 22.645218
#
# number of rings (size 3 to 8) (size 9 to 14) (size 15 to 20)
#    0.000    0.750    3.750    4.875    0.000    1.000 
#    0.000    2.500    0.000    0.000    0.000    0.000 
#    0.000    0.000    0.000    0.000    0.000    0.000 
#
# Total GULP energy -178809.466312 kJ/mol
# GULP energy per Si atom -5587.795822 kJ/mol
# Density = 2.259368 g / cm^3
# Si number density = 22.645218 Si / 1000 Ang^3
#
#
#
# Elastic Constant Matrix: (Units=GPa)
#
#
# Indices 1 2 3 4 5 6 
#
# 1 87.8649 7.0270 34.6435 0.0000 15.1384 0.0000
# 2 7.0270 36.7303 16.0715 0.0000 10.8010 0.0000
# 3 34.6435 16.0715 117.2431 0.0000 14.4440 0.0000
# 4 0.0000 0.0000 0.0000 31.5323 0.0000 -6.6995
# 5 15.1384 10.8010 14.4440 0.0000 52.1773 0.0000
# 6 0.0000 0.0000 0.0000 -6.6995 0.0000 14.4798
#
#
#
# Elastic Compliance Matrix: (Units=1/GPa)
#
#
# Indices 1 2 3 4 5 6 
#
# 1 0.013284 -0.000151 -0.003555 0.000000 -0.002839 0.000000
# 2 -0.000151 0.030320 -0.003462 0.000000 -0.005274 0.000000
# 3 -0.003555 -0.003462 0.010186 0.000000 -0.001072 0.000000
# 4 0.000000 0.000000 0.000000 0.035171 0.000000 0.016273
# 5 -0.002839 -0.005274 -0.001072 0.000000 0.021378 0.000000
# 6 0.000000 0.000000 0.000000 0.016273 0.000000 0.076591
#
#
# Mechanical properties :
#
#
# Convention : Reuss Voigt Hill
#
# Bulk Modulus (GPa) = 25.34553 39.70250 32.52402
# Shear Modulus (GPa) = 23.31913 31.91096 27.61504
#
# Velocity S-wave (km/s) = 3.21247 3.75796 3.49587
# Velocity P-wave (km/s) = 4.99767 6.03326 5.53971
#
# Compressibility (1/GPa) = 0.03945468
#
# Stress axis : x y z
#
# Youngs Moduli (GPa) = 75.27931 32.98148 98.17165
#
# Poissons Ratio (x) = 0.00499 0.34897
# Poissons Ratio (y) = 0.01139 0.33985
# Poissons Ratio (z) = 0.26760 0.11417
#
# Static dielectric constant tensor:
#      x y z
#    x 1.868320 0.000000 -0.022780 
#    y 0.000000 1.812990 0.000000 
#    z -0.022780 0.000000 1.873900 
# 
# From -- ./inp_files/57978.got.cif
#   From: 2010.05.17/outbox.cif.g08.bks.cpg/sg14_29_cif.got.tgz:57978.got - 2010.06.03 17:49:19.
