data_PCOD9246992
_publ_section_title
;
Structure prediction by ZEFSAII (Michael W. Deem and Ramdas Pophale) SiO2 
 PCOD9246992
Probable space group: P 21/C
;
_chemical_formula_sum "Si O2"
_cell_formula_units_Z 32
_cell_length_a 7.399368
_cell_length_b 28.594918
_cell_length_c 11.127451
_cell_angle_alpha 90.000000
_cell_angle_beta 142.256414
_cell_angle_gamma 90.000000
_cell_volume 1441.192387
_symmetry_space_group_name_H-M "P 21/C"
_symmetry_group_IT_number 14
_symmetry_cell_setting 'monoclinic'
loop_
_space_group_symop_operation_xyz
x,y,z
-x,1/2+y,1/2-z
-x,-y,-z
x,1/2-y,1/2+z
loop_
_atom_site_type_symbol
_atom_site_label
_atom_site_fract_x
_atom_site_fract_y
_atom_site_fract_z
Si Si1 0.421622 0.318248 0.129904
Si Si2 0.819538 0.091756 0.777728
Si Si3 0.066626 0.551161 0.907800
Si Si4 0.405021 0.105460 0.219403
Si Si5 0.459120 0.301490 0.888022
Si Si6 0.846641 0.356627 0.762068
Si Si7 0.196899 0.053270 0.474060
Si Si8 0.838944 0.220588 0.046739
O O1 0.640443 0.360426 0.205903
O O2 0.590300 0.292576 0.321394
O O3 0.385474 0.290192 0.987734
O O4 0.091997 0.335711 0.982986
O O5 0.973575 0.083431 0.729765
O O6 0.546311 0.055385 0.635122
O O7 0.074624 0.090764 0.012370
O O8 0.389085 0.562732 0.132817
O O9 0.851485 0.559838 0.907394
O O10 0.060566 0.496765 0.870483
O O11 0.448229 0.144418 0.345699
O O12 0.555222 0.129476 0.180983
O O13 0.762141 0.274264 0.032533
O O14 0.166789 0.283264 0.666531
O O15 0.805125 0.318488 0.635127
O O16 0.015205 0.404855 0.813495
#
# Coordination Sequence:
#
# PCOD9246992 Si02
#       8
#     4   4   4   4   4   4   4   4
#     4  10  22  43  62  89 126 167 208 264 329 387
#     4  11  21  39  65  95 129 175 214 266 329 387
#     4  10  21  43  65  99 134 175 216 274 328 393
#     4  11  23  40  63  95 129 164 222 264 324 396
#     4  11  25  41  61  92 124 164 213 271 317 397
#     4   9  23  42  63  94 125 172 210 268 324 390
#     4   9  21  42  69  94 139 172 220 272 330 392
#     4  11  25  42  65  90 127 166 216 272 330 387
#
# _framework density 22.203837
#
# number of rings (size 3 to 8) (size 9 to 14) (size 15 to 20)
#    0.000    1.750    2.500    0.375    3.500    5.500 
#    0.000    8.125    0.000    0.000    0.000    0.000 
#    0.000    0.000    0.000    0.000    0.000    0.000 
#
# Total GULP energy -178407.117835 kJ/mol
# GULP energy per Si atom -5575.222432 kJ/mol
# Density = 2.215330 g / cm^3
# Si number density = 22.203837 Si / 1000 Ang^3
#
#
#
# Elastic Constant Matrix: (Units=GPa)
#
#
# Indices 1 2 3 4 5 6 
#
# 1 57.0673 14.1084 9.2934 0.0000 1.7212 0.0000
# 2 14.1084 42.7885 -3.9920 0.0000 -8.6351 0.0000
# 3 9.2934 -3.9920 76.5077 0.0000 -5.9749 0.0000
# 4 0.0000 0.0000 0.0000 9.9359 0.0000 7.3255
# 5 1.7212 -8.6351 -5.9749 0.0000 25.4907 0.0000
# 6 0.0000 0.0000 0.0000 7.3255 0.0000 23.2910
#
#
#
# Elastic Compliance Matrix: (Units=1/GPa)
#
#
# Indices 1 2 3 4 5 6 
#
# 1 0.020152 -0.007915 -0.003236 0.000000 -0.004800 0.000000
# 2 -0.007915 0.028502 0.003305 0.000000 0.010964 0.000000
# 3 -0.003236 0.003305 0.013997 0.000000 0.004619 0.000000
# 4 0.000000 0.000000 0.000000 0.131030 0.000000 -0.041212
# 5 -0.004800 0.010964 0.004619 0.000000 0.044351 0.000000
# 6 0.000000 0.000000 0.000000 -0.041212 0.000000 0.055897
#
#
# Mechanical properties :
#
#
# Convention : Reuss Voigt Hill
#
# Bulk Modulus (GPa) = 21.29562 23.90923 22.60242
# Shear Modulus (GPa) = 15.37172 22.20709 18.78941
#
# Velocity S-wave (km/s) = 2.63401 3.16594 2.91215
# Velocity P-wave (km/s) = 4.34310 4.91484 4.63779
#
# Compressibility (1/GPa) = 0.04695802
#
# Stress axis : x y z
#
# Youngs Moduli (GPa) = 49.62349 35.08571 71.44505
#
# Poissons Ratio (x) = 0.27771 0.23118
# Poissons Ratio (y) = 0.39278 -0.23612
# Poissons Ratio (z) = 0.16057 -0.11595
#
# Static dielectric constant tensor:
#      x y z
#    x 1.913940 0.000000 -0.016350 
#    y 0.000000 1.878810 0.000000 
#    z -0.016350 0.000000 1.794970 
# 
# From -- ./inp_files/27157.got.cif
#   From: 2010.05.17/outbox.cif.g08.bks.cpg/sg14_14_cif.got.tgz:27157.got - 2010.06.03 17:49:19.
