data_PCOD9246781
_publ_section_title
;
Structure prediction by ZEFSAII (Michael W. Deem and Ramdas Pophale) SiO2 
 PCOD9246781
Probable space group: P 21/C
;
_chemical_formula_sum "Si O2"
_cell_formula_units_Z 32
_cell_length_a 9.377565
_cell_length_b 17.861230
_cell_length_c 12.280524
_cell_angle_alpha 90.000000
_cell_angle_beta 127.477953
_cell_angle_gamma 90.000000
_cell_volume 1632.349605
_symmetry_space_group_name_H-M "P 21/C"
_symmetry_group_IT_number 14
_symmetry_cell_setting 'monoclinic'
loop_
_space_group_symop_operation_xyz
x,y,z
-x,1/2+y,1/2-z
-x,-y,-z
x,1/2-y,1/2+z
loop_
_atom_site_type_symbol
_atom_site_label
_atom_site_fract_x
_atom_site_fract_y
_atom_site_fract_z
Si Si1 0.218012 0.447086 0.828540
Si Si2 0.452268 0.067000 0.854643
Si Si3 0.632663 0.588945 0.449091
Si Si4 0.100248 0.534117 0.149197
Si Si5 0.037815 0.088211 0.025629
Si Si6 0.326551 0.674598 0.683556
Si Si7 0.401144 0.894622 0.433487
Si Si8 0.660923 0.348178 0.848120
O O1 0.154540 0.405642 0.690002
O O2 0.305941 0.528925 0.847196
O O3 0.041804 0.457781 0.820107
O O4 0.383282 0.405178 0.964083
O O5 0.510802 0.125172 0.790401
O O6 0.601180 0.000961 0.927646
O O7 0.267002 0.021244 0.752614
O O8 0.437419 0.108176 0.963657
O O9 0.837393 0.608183 0.519327
O O10 0.513907 0.625753 0.299977
O O11 0.180242 0.613217 0.146998
O O12 0.000000 0.500000 0.000000
O O13 0.857335 0.135598 0.940800
O O14 0.000000 0.000000 0.000000
O O15 0.343168 0.668530 0.821732
O O16 0.330719 0.759331 0.646476
O O17 0.343725 0.880491 0.531503
#
# Coordination Sequence:
#
# PCOD9246781 Si02
#       8
#     4   4   4   4   4   4   4   4
#     4  11  22  40  71  98 128 170 230 275 311 390
#     4  10  22  39  67  94 126 172 215 270 324 383
#     4  10  21  42  64  93 128 170 219 267 321 385
#     4  11  22  41  66  98 128 171 225 271 321 389
#     4  12  21  39  68 102 125 168 224 274 317 381
#     4  12  27  42  67  99 137 172 218 273 337 398
#     4  11  23  44  68  94 131 180 217 267 337 393
#     4  11  26  44  64  94 139 176 212 272 341 396
#
# _framework density 19.603645
#
# number of rings (size 3 to 8) (size 9 to 14) (size 15 to 20)
#    0.000    1.000    5.000    1.500    8.750    0.000 
#    4.500    0.000    0.000    0.000    0.000    0.000 
#    0.000    0.000    0.000    0.000    0.000    0.000 
#
# Total GULP energy -178759.387924 kJ/mol
# GULP energy per Si atom -5586.230873 kJ/mol
# Density = 1.955903 g / cm^3
# Si number density = 19.603645 Si / 1000 Ang^3
#
#
#
# Elastic Constant Matrix: (Units=GPa)
#
#
# Indices 1 2 3 4 5 6 
#
# 1 120.5611 24.6272 29.2708 0.0000 6.2100 0.0000
# 2 24.6272 63.4702 17.2568 0.0000 3.3794 0.0000
# 3 29.2708 17.2568 92.9982 0.0000 -5.6966 0.0000
# 4 0.0000 0.0000 0.0000 16.7565 0.0000 -3.0356
# 5 6.2100 3.3794 -5.6966 0.0000 27.4692 0.0000
# 6 0.0000 0.0000 0.0000 -3.0356 0.0000 12.0207
#
#
#
# Elastic Compliance Matrix: (Units=1/GPa)
#
#
# Indices 1 2 3 4 5 6 
#
# 1 0.009651 -0.002899 -0.002645 0.000000 -0.002374 0.000000
# 2 -0.002899 0.017666 -0.002490 0.000000 -0.002034 0.000000
# 3 -0.002645 -0.002490 0.012259 0.000000 0.003447 0.000000
# 4 0.000000 0.000000 0.000000 0.062540 0.000000 0.015793
# 5 -0.002374 -0.002034 0.003447 0.000000 0.037906 0.000000
# 6 0.000000 0.000000 0.000000 0.015793 0.000000 0.087178
#
#
# Mechanical properties :
#
#
# Convention : Reuss Voigt Hill
#
# Bulk Modulus (GPa) = 42.54124 46.59323 44.56724
# Shear Modulus (GPa) = 19.91208 24.97426 22.44317
#
# Velocity S-wave (km/s) = 3.19052 3.57313 3.38723
# Velocity P-wave (km/s) = 5.94309 6.39079 6.17100
#
# Compressibility (1/GPa) = 0.02350660
#
# Stress axis : x y z
#
# Youngs Moduli (GPa) = 103.61347 56.60676 81.57522
#
# Poissons Ratio (x) = 0.16412 0.21578
# Poissons Ratio (y) = 0.30040 0.20313
# Poissons Ratio (z) = 0.27407 0.14096
#
# Static dielectric constant tensor:
#      x y z
#    x 1.763830 0.000000 -0.010390 
#    y 0.000000 1.664440 0.000000 
#    z -0.010390 0.000000 1.713780 
# 
# From -- ./inp_files/26289.got.cif
#   From: 2010.05.17/outbox.cif.g08.bks.cpg/sg14_14_cif.got.tgz:26289.got - 2010.06.03 17:49:19.
