data_PCOD9246846
_publ_section_title
;
Structure prediction by ZEFSAII (Michael W. Deem and Ramdas Pophale) SiO2 
 PCOD9246846
Probable space group: P 21/C
;
_chemical_formula_sum "Si O2"
_cell_formula_units_Z 24
_cell_length_a 15.326281
_cell_length_b 5.317618
_cell_length_c 14.193064
_cell_angle_alpha 90.000000
_cell_angle_beta 114.994401
_cell_angle_gamma 90.000000
_cell_volume 1048.396542
_symmetry_space_group_name_H-M "P 21/C"
_symmetry_group_IT_number 14
_symmetry_cell_setting 'monoclinic'
loop_
_space_group_symop_operation_xyz
x,y,z
-x,1/2+y,1/2-z
-x,-y,-z
x,1/2-y,1/2+z
loop_
_atom_site_type_symbol
_atom_site_label
_atom_site_fract_x
_atom_site_fract_y
_atom_site_fract_z
Si Si1 0.357009 0.035495 0.373467
Si Si2 0.594140 0.594660 0.750374
Si Si3 0.782953 0.309133 0.766154
Si Si4 0.539892 0.734701 0.423290
Si Si5 0.941927 0.086996 0.205310
Si Si6 0.061540 0.754040 0.006012
O O1 0.378008 0.136470 0.278530
O O2 0.377946 0.251378 0.459948
O O3 0.253158 0.913927 0.318955
O O4 0.441923 0.833063 0.428710
O O5 0.685478 0.430618 0.761035
O O6 0.498988 0.507789 0.650073
O O7 0.576281 0.595346 0.852930
O O8 0.852108 0.474972 0.732077
O O9 0.846076 0.238180 0.884771
O O10 0.913457 0.207415 0.092178
O O11 0.999972 0.323896 0.278692
O O12 0.000000 0.500000 0.000000
O O13 0.000000 0.000000 0.000000
#
# Coordination Sequence:
#
# PCOD9246846 Si02
#       6
#     4   4   4   4   4   4
#     4  10  23  42  65  94 134 168 233 280 339 425
#     4  11  22  42  66  97 136 174 234 283 350 433
#     4  11  27  42  67 105 133 176 243 288 349 427
#     4  10  21  42  67  92 129 185 211 282 355 411
#     4  12  25  48  74 100 143 191 235 293 364 428
#     4  12  25  48  76 102 143 192 236 296 367 432
#
# _framework density 22.892099999999999
#
# number of rings (size 3 to 8) (size 9 to 14) (size 15 to 20)
#    0.000    1.000    5.000    0.500    7.000    0.000 
#    3.000    0.000    0.000    0.000    0.000    0.000 
#    0.000    0.000    0.000    0.000    0.000    0.000 
#
# Total GULP energy -133908.748536 kJ/mol
# GULP energy per Si atom -5579.531189 kJ/mol
# Density = 2.284000 g / cm^3
# Si number density = 22.892100 Si / 1000 Ang^3
#
#
#
# Elastic Constant Matrix: (Units=GPa)
#
#
# Indices 1 2 3 4 5 6 
#
# 1 80.8189 25.8747 31.9607 0.0000 -4.9423 0.0000
# 2 25.8747 83.6039 6.6912 0.0000 12.3986 0.0000
# 3 31.9607 6.6912 127.5937 0.0000 5.7224 0.0000
# 4 0.0000 0.0000 0.0000 23.0980 0.0000 -10.7979
# 5 -4.9423 12.3986 5.7224 0.0000 44.5335 0.0000
# 6 0.0000 0.0000 0.0000 -10.7979 0.0000 28.2093
#
#
#
# Elastic Compliance Matrix: (Units=1/GPa)
#
#
# Indices 1 2 3 4 5 6 
#
# 1 0.015754 -0.005112 -0.003842 0.000000 0.003665 0.000000
# 2 -0.005112 0.014167 0.000744 0.000000 -0.004607 0.000000
# 3 -0.003842 0.000744 0.008840 0.000000 -0.001770 0.000000
# 4 0.000000 0.000000 0.000000 0.052729 0.000000 0.020184
# 5 0.003665 -0.004607 -0.001770 0.000000 0.024372 0.000000
# 6 0.000000 0.000000 0.000000 0.020184 0.000000 0.043175
#
#
# Mechanical properties :
#
#
# Convention : Reuss Voigt Hill
#
# Bulk Modulus (GPa) = 44.76126 46.78552 45.77339
# Shear Modulus (GPa) = 27.33682 34.33416 30.83549
#
# Velocity S-wave (km/s) = 3.45941 3.87696 3.67412
# Velocity P-wave (km/s) = 5.96257 6.36576 6.16746
#
# Compressibility (1/GPa) = 0.02234075
#
# Stress axis : x y z
#
# Youngs Moduli (GPa) = 63.47786 70.58730 113.11969
#
# Poissons Ratio (x) = 0.36082 0.43465
# Poissons Ratio (y) = 0.32447 -0.08417
# Poissons Ratio (z) = 0.24391 -0.05252
#
# Static dielectric constant tensor:
#      x y z
#    x 1.784120 0.000000 -0.077530 
#    y 0.000000 1.950860 0.000000 
#    z -0.077530 0.000000 1.814260 
# 
# From -- ./inp_files/45782.got.cif
#   From: 2010.05.17/outbox.cif.g08.bks.cpg/sg14_23_cif.got.tgz:45782.got - 2010.06.03 17:49:19.
