data_PCOD9246310
_publ_section_title
;
Structure prediction by ZEFSAII (Michael W. Deem and Ramdas Pophale) SiO2 
 PCOD9246310
Probable space group: P 21/C
;
_chemical_formula_sum "Si O2"
_cell_formula_units_Z 30
_cell_length_a 5.383482
_cell_length_b 17.103380
_cell_length_c 15.049241
_cell_angle_alpha 90.000000
_cell_angle_beta 63.496704
_cell_angle_gamma 90.000000
_cell_volume 1240.048107
_symmetry_space_group_name_H-M "P 21/C"
_symmetry_group_IT_number 14
_symmetry_cell_setting 'monoclinic'
loop_
_space_group_symop_operation_xyz
x,y,z
-x,1/2+y,1/2-z
-x,-y,-z
x,1/2-y,1/2+z
loop_
_atom_site_type_symbol
_atom_site_label
_atom_site_fract_x
_atom_site_fract_y
_atom_site_fract_z
Si Si1 0.000000 0.500000 0.000000
Si Si2 0.057762 0.963241 0.293488
Si Si3 0.852744 0.519937 0.405799
Si Si4 0.009364 0.298403 0.131016
Si Si5 0.682140 0.356852 0.695631
Si Si6 0.451358 0.571485 0.111428
Si Si7 0.326465 0.701038 0.000138
Si Si8 0.366112 0.869965 0.995553
O O1 0.273760 0.451143 0.985082
O O2 0.148439 0.512012 0.877598
O O3 0.065037 0.869920 0.293019
O O4 0.749491 0.999743 0.332415
O O5 0.228337 0.997747 0.183442
O O6 0.863629 0.437458 0.454875
O O7 0.634555 0.580948 0.483067
O O8 0.132736 0.566986 0.350689
O O9 0.341587 0.297468 0.069328
O O10 0.882670 0.216313 0.183075
O O11 0.860302 0.310209 0.058112
O O12 0.497353 0.374172 0.810575
O O13 0.558701 0.345015 0.617738
O O14 0.273619 0.626326 0.071174
O O15 0.273928 0.787068 0.050192
#
# Coordination Sequence:
#
# PCOD9246310 Si02
#       8
#     2   4   4   4   4   4   4   4
#     4  12  22  40  64  92 138 178 226 288 346 420
#     4  11  24  38  64  99 133 182 225 291 339 427
#     4  10  21  40  67  96 130 173 238 285 350 409
#     4  11  24  43  68  94 143 177 233 278 352 405
#     4  10  22  43  65  97 137 184 223 294 344 420
#     4  11  25  40  68  99 139 180 236 278 358 415
#     4  11  24  44  68  99 135 190 221 287 345 416
#     4  10  21  41  68  93 133 177 233 287 348 411
#
# _framework density 24.192612
#
# number of rings (size 3 to 8) (size 9 to 14) (size 15 to 20)
#    0.000    1.333    2.667    2.400    3.733    0.000 
#    0.000    0.000    0.000    0.000    0.000    0.000 
#    0.000    0.000    0.000    0.000    0.000    0.000 
#
# Total GULP energy -167096.341997 kJ/mol
# GULP energy per Si atom -5569.878067 kJ/mol
# Density = 2.413755 g / cm^3
# Si number density = 24.192612 Si / 1000 Ang^3
#
#
#
# Elastic Constant Matrix: (Units=GPa)
#
#
# Indices 1 2 3 4 5 6 
#
# 1 83.2499 33.2655 9.9979 0.0000 -4.2201 0.0000
# 2 33.2655 144.3985 16.8092 0.0000 -12.5397 0.0000
# 3 9.9979 16.8092 89.6867 0.0000 9.1101 0.0000
# 4 0.0000 0.0000 0.0000 25.9955 0.0000 1.0388
# 5 -4.2201 -12.5397 9.1101 0.0000 28.7695 0.0000
# 6 0.0000 0.0000 0.0000 1.0388 0.0000 29.8421
#
#
#
# Elastic Compliance Matrix: (Units=1/GPa)
#
#
# Indices 1 2 3 4 5 6 
#
# 1 0.013334 -0.002858 -0.001057 0.000000 0.001045 0.000000
# 2 -0.002858 0.008078 -0.001561 0.000000 0.003596 0.000000
# 3 -0.001057 -0.001561 0.012032 0.000000 -0.004645 0.000000
# 4 0.000000 0.000000 0.000000 0.038522 0.000000 -0.001341
# 5 0.001045 0.003596 -0.004645 0.000000 0.037950 0.000000
# 6 0.000000 0.000000 0.000000 -0.001341 0.000000 0.033556
#
#
# Mechanical properties :
#
#
# Convention : Reuss Voigt Hill
#
# Bulk Modulus (GPa) = 44.45886 48.60892 46.53389
# Shear Modulus (GPa) = 30.87931 34.07227 32.47579
#
# Velocity S-wave (km/s) = 3.57654 3.75690 3.66783
# Velocity P-wave (km/s) = 5.95588 6.24141 6.10031
#
# Compressibility (1/GPa) = 0.02249270
#
# Stress axis : x y z
#
# Youngs Moduli (GPa) = 74.99660 123.79913 83.11116
#
# Poissons Ratio (x) = 0.35382 0.08784
# Poissons Ratio (y) = 0.21434 0.12970
# Poissons Ratio (z) = 0.07926 0.19320
#
# Static dielectric constant tensor:
#      x y z
#    x 2.055470 0.000000 0.156570 
#    y 0.000000 2.154580 0.000000 
#    z 0.156570 0.000000 2.015140 
# 
# From -- ./inp_files/37680.got.cif
#   From: 2010.05.17/outbox.cif.g08.bks.cpg/sg14_19_cif.got.tgz:37680.got - 2010.06.03 17:49:19.
