data_PCOD9246042
_publ_section_title
;
Structure prediction by ZEFSAII (Michael W. Deem and Ramdas Pophale) SiO2 
 PCOD9246042
Probable space group: P 21/C
;
_chemical_formula_sum "Si O2"
_cell_formula_units_Z 16
_cell_length_a 13.212049
_cell_length_b 10.993464
_cell_length_c 11.838314
_cell_angle_alpha 90.000000
_cell_angle_beta 156.574607
_cell_angle_gamma 90.000000
_cell_volume 683.583174
_symmetry_space_group_name_H-M "P 21/C"
_symmetry_group_IT_number 14
_symmetry_cell_setting 'monoclinic'
loop_
_space_group_symop_operation_xyz
x,y,z
-x,1/2+y,1/2-z
-x,-y,-z
x,1/2-y,1/2+z
loop_
_atom_site_type_symbol
_atom_site_label
_atom_site_fract_x
_atom_site_fract_y
_atom_site_fract_z
Si Si1 0.762183 0.358349 0.694677
Si Si2 0.553307 0.363031 0.096917
Si Si3 0.938905 0.924704 0.823688
Si Si4 0.753639 0.978288 0.402898
O O1 0.650146 0.224437 0.597653
O O2 0.537056 0.434309 0.404180
O O3 0.783975 0.414384 0.843746
O O4 0.038868 0.376230 0.923422
O O5 0.788024 0.367056 0.424025
O O6 0.500000 0.500000 0.000000
O O7 0.283209 0.328028 0.874961
O O8 0.833381 0.003806 0.612718
O O9 0.000000 0.000000 0.000000
#
# Coordination Sequence:
#
# PCOD9246042 Si02
#       4
#     4   4   4   4
#     4  10  21  40  65  92 126 166 214 264 322 379
#     4  10  21  40  60  90 131 165 211 259 319 388
#     4  10  21  40  60  91 128 165 211 260 320 383
#     4  10  21  40  65  93 125 165 215 266 316 382
#
# _framework density 23.406078000000001
#
# number of rings (size 3 to 8) (size 9 to 14) (size 15 to 20)
#    0.000    2.000    0.000    3.000    0.000    0.000 
#   27.000    0.000    0.000    0.000    0.000    0.000 
#    0.000    0.000    0.000    0.000    0.000    0.000 
#
# Total GULP energy -89246.510228 kJ/mol
# GULP energy per Si atom -5577.906889 kJ/mol
# Density = 2.335280 g / cm^3
# Si number density = 23.406078 Si / 1000 Ang^3
#
#
#
# Elastic Constant Matrix: (Units=GPa)
#
#
# Indices 1 2 3 4 5 6 
#
# 1 94.0506 11.9544 47.6728 0.0000 0.3367 0.0000
# 2 11.9544 62.6078 4.3109 0.0000 0.2673 0.0000
# 3 47.6728 4.3109 165.1564 0.0000 5.3989 0.0000
# 4 0.0000 0.0000 0.0000 20.0350 0.0000 3.7945
# 5 0.3367 0.2673 5.3989 0.0000 69.2870 0.0000
# 6 0.0000 0.0000 0.0000 3.7945 0.0000 17.6394
#
#
#
# Elastic Compliance Matrix: (Units=1/GPa)
#
#
# Indices 1 2 3 4 5 6 
#
# 1 0.012750 -0.002185 -0.003631 0.000000 0.000229 0.000000
# 2 -0.002185 0.016376 0.000206 0.000000 -0.000069 0.000000
# 3 -0.003631 0.000206 0.007115 0.000000 -0.000538 0.000000
# 4 0.000000 0.000000 0.000000 0.052032 0.000000 -0.011193
# 5 0.000229 -0.000069 -0.000538 0.000000 0.014474 0.000000
# 6 0.000000 0.000000 0.000000 -0.011193 0.000000 0.059099
#
#
# Mechanical properties :
#
#
# Convention : Reuss Voigt Hill
#
# Bulk Modulus (GPa) = 39.96845 49.96569 44.96707
# Shear Modulus (GPa) = 27.56228 38.58406 33.07317
#
# Velocity S-wave (km/s) = 3.43530 4.06453 3.76309
# Velocity P-wave (km/s) = 5.73133 6.58945 6.17532
#
# Compressibility (1/GPa) = 0.02501973
#
# Stress axis : x y z
#
# Youngs Moduli (GPa) = 78.43192 61.06542 140.54624
#
# Poissons Ratio (x) = 0.13346 0.51029
# Poissons Ratio (y) = 0.17141 -0.02890
# Poissons Ratio (z) = 0.28477 -0.01256
#
# Static dielectric constant tensor:
#      x y z
#    x 2.171330 0.000000 0.154180 
#    y 0.000000 1.997720 0.000000 
#    z 0.154180 0.000000 1.977920 
# 
# From -- ./inp_files/20301.got.cif
#   From: 2010.05.17/outbox.cif.g08.bks.cpg/sg14_11_cif.got.tgz:20301.got - 2010.06.03 17:49:19.
