data_PCOD9246105
_publ_section_title
;
Structure prediction by ZEFSAII (Michael W. Deem and Ramdas Pophale) SiO2 
 PCOD9246105
Probable space group: P 21/C
;
_chemical_formula_sum "Si O2"
_cell_formula_units_Z 28
_cell_length_a 7.129716
_cell_length_b 6.881998
_cell_length_c 28.722190
_cell_angle_alpha 90.000000
_cell_angle_beta 48.279781
_cell_angle_gamma 90.000000
_cell_volume 1051.908400
_symmetry_space_group_name_H-M "P 21/C"
_symmetry_group_IT_number 14
_symmetry_cell_setting 'monoclinic'
loop_
_space_group_symop_operation_xyz
x,y,z
-x,1/2+y,1/2-z
-x,-y,-z
x,1/2-y,1/2+z
loop_
_atom_site_type_symbol
_atom_site_label
_atom_site_fract_x
_atom_site_fract_y
_atom_site_fract_z
Si Si1 0.877020 0.644290 0.968787
Si Si2 0.717083 0.709608 0.398691
Si Si3 0.045068 0.827449 0.126343
Si Si4 0.686876 0.316511 0.333093
Si Si5 0.747190 0.755907 0.293855
Si Si6 0.167505 0.709611 0.498773
Si Si7 0.337510 0.468684 0.837847
O O1 0.141620 0.590068 0.900488
O O2 0.719164 0.705412 0.950160
O O3 0.782197 0.444934 0.007056
O O4 0.950426 0.801396 0.995661
O O5 0.951081 0.554599 0.358285
O O6 0.745518 0.837399 0.347568
O O7 0.436047 0.622176 0.441850
O O8 0.290594 0.771384 0.115557
O O9 0.085779 0.838867 0.064483
O O10 0.832418 0.662261 0.168828
O O11 0.659020 0.535932 0.318046
O O12 0.472220 0.193140 0.346006
O O13 0.967581 0.260542 0.269831
O O14 0.562713 0.879659 0.291092
#
# Coordination Sequence:
#
# PCOD9246105 Si02
#       7
#     4   4   4   4   4   4   4
#     4  10  23  38  66 101 134 177 231 272 348 401
#     4  11  23  42  68 102 136 182 224 284 336 415
#     4  10  26  42  67 104 134 178 235 271 351 404
#     4  11  25  48  68 100 134 180 226 288 339 413
#     4  11  24  46  73  97 136 177 230 278 352 400
#     4  10  21  40  63 100 138 182 222 279 339 408
#     4  11  24  44  66  98 136 176 221 290 330 408
#
# _framework density 26.618289000000001
#
# number of rings (size 3 to 8) (size 9 to 14) (size 15 to 20)
#    0.000    1.429    2.857    0.857    6.000    4.000 
#    5.143    0.000    0.000    0.000    0.000    0.000 
#    0.000    0.000    0.000    0.000    0.000    0.000 
#
# Total GULP energy -156409.416849 kJ/mol
# GULP energy per Si atom -5586.050602 kJ/mol
# Density = 2.655770 g / cm^3
# Si number density = 26.618289 Si / 1000 Ang^3
#
#
#
# Elastic Constant Matrix: (Units=GPa)
#
#
# Indices 1 2 3 4 5 6 
#
# 1 141.5831 44.5395 18.5840 0.0000 -18.6136 0.0000
# 2 44.5395 82.6284 1.1210 0.0000 -0.8584 0.0000
# 3 18.5840 1.1210 80.2435 0.0000 -5.9970 0.0000
# 4 0.0000 0.0000 0.0000 39.0689 0.0000 -12.9192
# 5 -18.6136 -0.8584 -5.9970 0.0000 32.6991 0.0000
# 6 0.0000 0.0000 0.0000 -12.9192 0.0000 56.0137
#
#
#
# Elastic Compliance Matrix: (Units=1/GPa)
#
#
# Indices 1 2 3 4 5 6 
#
# 1 0.009544 -0.005069 -0.001768 0.000000 0.004975 0.000000
# 2 -0.005069 0.014799 0.000791 0.000000 -0.002352 0.000000
# 3 -0.001768 0.000791 0.012964 0.000000 0.001392 0.000000
# 4 0.000000 0.000000 0.000000 0.027709 0.000000 0.006391
# 5 0.004975 -0.002352 0.001392 0.000000 0.033608 0.000000
# 6 0.000000 0.000000 0.000000 0.006391 0.000000 0.019327
#
#
# Mechanical properties :
#
#
# Convention : Reuss Voigt Hill
#
# Bulk Modulus (GPa) = 39.65475 48.10487 43.87981
# Shear Modulus (GPa) = 36.11497 41.57036 38.84267
#
# Velocity S-wave (km/s) = 3.68744 3.95615 3.82415
# Velocity P-wave (km/s) = 5.74974 6.24336 6.00162
#
# Compressibility (1/GPa) = 0.02521766
#
# Stress axis : x y z
#
# Youngs Moduli (GPa) = 104.78208 67.57033 77.13409
#
# Poissons Ratio (x) = 0.34249 0.13634
# Poissons Ratio (y) = 0.53111 -0.06104
# Poissons Ratio (z) = 0.18521 -0.05347
#
# Static dielectric constant tensor:
#      x y z
#    x 2.080400 0.000000 0.060430 
#    y 0.000000 2.233940 0.000000 
#    z 0.060430 0.000000 2.066670 
# 
# From -- ./inp_files/78650.got.cif
#   From: 2010.05.17/outbox.cif.g08.bks.cpg/sg14_40_cif.got.tgz:78650.got - 2010.06.03 17:49:19.
