data_PCOD9246573
_publ_section_title
;
Structure prediction by ZEFSAII (Michael W. Deem and Ramdas Pophale) SiO2 
 PCOD9246573
Probable space group: P 21/C
;
_chemical_formula_sum "Si O2"
_cell_formula_units_Z 24
_cell_length_a 13.786815
_cell_length_b 5.599158
_cell_length_c 16.445148
_cell_angle_alpha 90.000000
_cell_angle_beta 125.508093
_cell_angle_gamma 90.000000
_cell_volume 1033.395884
_symmetry_space_group_name_H-M "P 21/C"
_symmetry_group_IT_number 14
_symmetry_cell_setting 'monoclinic'
loop_
_space_group_symop_operation_xyz
x,y,z
-x,1/2+y,1/2-z
-x,-y,-z
x,1/2-y,1/2+z
loop_
_atom_site_type_symbol
_atom_site_label
_atom_site_fract_x
_atom_site_fract_y
_atom_site_fract_z
Si Si1 0.465272 0.284215 0.571169
Si Si2 0.138364 0.908096 0.386239
Si Si3 0.636635 0.277153 0.908388
Si Si4 0.305715 0.645115 0.743528
Si Si5 0.290806 0.247613 0.842264
Si Si6 0.089758 0.639759 0.208102
O O1 0.425167 0.529386 0.594419
O O2 0.607978 0.260342 0.645450
O O3 0.407912 0.294144 0.453721
O O4 0.418041 0.035577 0.590982
O O5 0.231100 0.771538 0.487694
O O6 0.067736 0.746744 0.287116
O O7 0.219234 0.071951 0.367320
O O8 0.036739 0.050522 0.384829
O O9 0.649218 0.252999 0.817915
O O10 0.324502 0.366934 0.772546
O O11 0.164878 0.685175 0.687105
O O12 0.190954 0.056128 0.773443
#
# Coordination Sequence:
#
# PCOD9246573 Si02
#       6
#     4   4   4   4   4   4
#     4  11  24  45  68  94 135 181 218 261 326 399
#     4  10  21  41  66  92 124 176 225 262 330 389
#     4  11  25  44  68  96 135 178 214 268 332 393
#     4  11  26  39  64 102 132 169 218 276 330 381
#     4  10  22  40  66  94 126 173 223 272 316 387
#     4  11  21  39  66  92 127 171 222 275 317 388
#
# _framework density 23.224399999999999
#
# number of rings (size 3 to 8) (size 9 to 14) (size 15 to 20)
#    0.000    1.333    3.333    1.500    4.667    1.333 
#    0.000    0.833    0.000    0.000    0.000    0.000 
#    0.000    0.000    0.000    0.000    0.000    0.000 
#
# Total GULP energy -133974.898748 kJ/mol
# GULP energy per Si atom -5582.287448 kJ/mol
# Density = 2.317154 g / cm^3
# Si number density = 23.224400 Si / 1000 Ang^3
#
#
#
# Elastic Constant Matrix: (Units=GPa)
#
#
# Indices 1 2 3 4 5 6 
#
# 1 107.0763 35.7968 24.3811 0.0000 23.4670 0.0000
# 2 35.7968 89.9703 16.4270 0.0000 -5.3351 0.0000
# 3 24.3811 16.4270 21.5541 0.0000 -3.7999 0.0000
# 4 0.0000 0.0000 0.0000 21.5299 0.0000 6.8332
# 5 23.4670 -5.3351 -3.7999 0.0000 39.2574 0.0000
# 6 0.0000 0.0000 0.0000 6.8332 0.0000 35.5390
#
#
#
# Elastic Compliance Matrix: (Units=1/GPa)
#
#
# Indices 1 2 3 4 5 6 
#
# 1 0.018227 -0.004473 -0.019570 0.000000 -0.013398 0.000000
# 2 -0.004473 0.014035 -0.004913 0.000000 0.004106 0.000000
# 3 -0.019570 -0.004913 0.075509 0.000000 0.018340 0.000000
# 4 0.000000 0.000000 0.000000 0.049466 0.000000 -0.009511
# 5 -0.013398 0.004106 0.018340 0.000000 0.035815 0.000000
# 6 0.000000 0.000000 0.000000 -0.009511 0.000000 0.029967
#
#
# Mechanical properties :
#
#
# Convention : Reuss Voigt Hill
#
# Bulk Modulus (GPa) = 20.05665 41.31226 30.68446
# Shear Modulus (GPa) = 16.80383 28.73164 22.76774
#
# Velocity S-wave (km/s) = 2.69279 3.52110 3.13443
# Velocity P-wave (km/s) = 4.28053 5.86155 5.13229
#
# Compressibility (1/GPa) = 0.04985877
#
# Stress axis : x y z
#
# Youngs Moduli (GPa) = 54.86346 71.25035 13.24339
#
# Poissons Ratio (x) = 0.31873 0.25918
# Poissons Ratio (y) = 0.24542 0.06506
# Poissons Ratio (z) = 1.07370 0.35002
#
# Static dielectric constant tensor:
#      x y z
#    x 1.879860 0.000000 -0.005880 
#    y 0.000000 2.058110 0.000000 
#    z -0.005880 0.000000 1.848230 
# 
# From -- ./inp_files/46006.got.cif
#   From: 2010.05.17/outbox.cif.g08.bks.cpg/sg14_24_cif.got.tgz:46006.got - 2010.06.03 17:49:19.
