data_PCOD9246656
_publ_section_title
;
Structure prediction by ZEFSAII (Michael W. Deem and Ramdas Pophale) SiO2 
 PCOD9246656
Probable space group: P 21/C
;
_chemical_formula_sum "Si O2"
_cell_formula_units_Z 32
_cell_length_a 11.241762
_cell_length_b 15.321528
_cell_length_c 8.774887
_cell_angle_alpha 90.000000
_cell_angle_beta 71.840975
_cell_angle_gamma 90.000000
_cell_volume 1436.120292
_symmetry_space_group_name_H-M "P 21/C"
_symmetry_group_IT_number 14
_symmetry_cell_setting 'monoclinic'
loop_
_space_group_symop_operation_xyz
x,y,z
-x,1/2+y,1/2-z
-x,-y,-z
x,1/2-y,1/2+z
loop_
_atom_site_type_symbol
_atom_site_label
_atom_site_fract_x
_atom_site_fract_y
_atom_site_fract_z
Si Si1 0.454527 0.061874 0.382753
Si Si2 0.367639 0.524616 0.623997
Si Si3 0.205934 0.131860 0.100610
Si Si4 0.253536 0.201094 0.421432
Si Si5 0.949704 0.064702 0.297755
Si Si6 0.280838 0.865829 0.759962
Si Si7 0.237685 0.799958 0.103477
Si Si8 0.986732 0.127893 0.620302
O O1 0.367566 0.146067 0.448721
O O2 0.583897 0.095707 0.257953
O O3 0.500000 0.000000 0.500000
O O4 0.374099 0.004863 0.296740
O O5 0.500000 0.500000 0.500000
O O6 0.267543 0.463497 0.578334
O O7 0.329226 0.624276 0.627518
O O8 0.245067 0.176426 0.246403
O O9 0.257069 0.195841 0.950867
O O10 0.057037 0.116995 0.163716
O O11 0.123362 0.169352 0.547750
O O12 0.820099 0.065215 0.259624
O O13 0.936347 0.110590 0.468814
O O14 0.997927 0.967484 0.311067
O O15 0.291624 0.793701 0.623724
O O16 0.227706 0.817102 0.928861
O O17 0.106110 0.815271 0.240839
#
# Coordination Sequence:
#
# PCOD9246656 Si02
#       8
#     4   4   4   4   4   4   4   4
#     4  11  26  44  67  99 129 172 219 267 334 398
#     4  11  24  47  67  91 135 175 218 264 337 395
#     4  10  22  42  65  96 125 172 212 268 323 384
#     4  10  23  40  65  94 130 164 218 263 322 384
#     4  10  21  41  68  99 132 170 220 267 334 397
#     4  12  27  42  67 102 134 175 227 274 331 395
#     4  12  26  45  67  99 133 178 221 279 331 393
#     4  10  21  42  70  96 132 175 213 276 335 382
#
# _framework density 22.282257999999999
#
# number of rings (size 3 to 8) (size 9 to 14) (size 15 to 20)
#    0.000    1.250    2.500    2.250    7.000    4.500 
#    2.250    0.000    0.000    0.000    0.000    0.000 
#    0.000    0.000    0.000    0.000    0.000    0.000 
#
# Total GULP energy -179078.516869 kJ/mol
# GULP energy per Si atom -5596.203652 kJ/mol
# Density = 2.223154 g / cm^3
# Si number density = 22.282258 Si / 1000 Ang^3
#
#
#
# Elastic Constant Matrix: (Units=GPa)
#
#
# Indices 1 2 3 4 5 6 
#
# 1 96.7766 4.2903 4.6517 0.0000 -6.9926 0.0000
# 2 4.2903 42.2119 -18.0045 0.0000 6.6394 0.0000
# 3 4.6517 -18.0045 30.2451 0.0000 -7.7220 0.0000
# 4 0.0000 0.0000 0.0000 33.2048 0.0000 0.4116
# 5 -6.9926 6.6394 -7.7220 0.0000 27.5628 0.0000
# 6 0.0000 0.0000 0.0000 0.4116 0.0000 34.0616
#
#
#
# Elastic Compliance Matrix: (Units=1/GPa)
#
#
# Indices 1 2 3 4 5 6 
#
# 1 0.010760 -0.002583 -0.002517 0.000000 0.002647 0.000000
# 2 -0.002583 0.032538 0.018954 0.000000 -0.003183 0.000000
# 3 -0.002517 0.018954 0.046748 0.000000 0.007893 0.000000
# 4 0.000000 0.000000 0.000000 0.030121 0.000000 -0.000364
# 5 0.002647 -0.003183 0.007893 0.000000 0.039930 0.000000
# 6 0.000000 0.000000 0.000000 -0.000364 0.000000 0.029363
#
#
# Mechanical properties :
#
#
# Convention : Reuss Voigt Hill
#
# Bulk Modulus (GPa) = 8.49239 16.78985 12.64112
# Shear Modulus (GPa) = 24.87514 30.85224 27.86369
#
# Velocity S-wave (km/s) = 3.34483 3.72507 3.54006
# Velocity P-wave (km/s) = 4.32860 5.10421 4.73232
#
# Compressibility (1/GPa) = 0.11775243
#
# Stress axis : x y z
#
# Youngs Moduli (GPa) = 92.93820 30.73373 21.39110
#
# Poissons Ratio (x) = 0.07940 0.05384
# Poissons Ratio (y) = 0.24010 -0.40544
# Poissons Ratio (z) = 0.23392 -0.58252
#
# Static dielectric constant tensor:
#      x y z
#    x 1.793770 0.000000 0.001980 
#    y 0.000000 1.803920 0.000000 
#    z 0.001980 0.000000 1.832750 
# 
# From -- ./inp_files/13281.got.cif
#   From: 2010.05.17/outbox.cif.g08.bks.cpg/sg14_7_cif.got.tgz:13281.got - 2010.06.03 17:49:19.
