data_PCOD9246776
_publ_section_title
;
Structure prediction by ZEFSAII (Michael W. Deem and Ramdas Pophale) SiO2 
 PCOD9246776
Probable space group: P 21/C
;
_chemical_formula_sum "Si O2"
_cell_formula_units_Z 32
_cell_length_a 26.884676
_cell_length_b 8.379748
_cell_length_c 11.814279
_cell_angle_alpha 90.000000
_cell_angle_beta 33.114721
_cell_angle_gamma 90.000000
_cell_volume 1454.078472
_symmetry_space_group_name_H-M "P 21/C"
_symmetry_group_IT_number 14
_symmetry_cell_setting 'monoclinic'
loop_
_space_group_symop_operation_xyz
x,y,z
-x,1/2+y,1/2-z
-x,-y,-z
x,1/2-y,1/2+z
loop_
_atom_site_type_symbol
_atom_site_label
_atom_site_fract_x
_atom_site_fract_y
_atom_site_fract_z
Si Si1 0.559428 0.473594 0.002575
Si Si2 0.581199 0.375660 0.573645
Si Si3 0.705503 0.425078 0.559575
Si Si4 0.971396 0.570913 0.220618
Si Si5 0.120528 0.711373 0.494038
Si Si6 0.123796 0.148586 0.315328
Si Si7 0.891823 0.509647 0.682473
Si Si8 0.742198 0.105301 0.625842
O O1 0.516295 0.567667 0.191054
O O2 0.565641 0.294102 0.041625
O O3 0.500000 0.500000 0.000000
O O4 0.657439 0.509212 0.760526
O O5 0.639993 0.392758 0.577052
O O6 0.646615 0.463506 0.355260
O O7 0.787198 0.540181 0.366244
O O8 0.726081 0.248973 0.568426
O O9 0.895229 0.450545 0.408116
O O10 0.923568 0.674798 0.216347
O O11 0.030369 0.683628 0.188478
O O12 0.050690 0.458516 0.019441
O O13 0.123645 0.651463 0.360316
O O14 0.207865 0.807197 0.364972
O O15 0.134202 0.329498 0.336982
O O16 0.000000 0.500000 0.500000
O O17 0.819892 0.504686 0.922698
#
# Coordination Sequence:
#
# PCOD9246776 Si02
#       8
#     4   4   4   4   4   4   4   4
#     4   9  21  42  69 101 132 166 214 272 329 410
#     4  10  21  42  70  96 126 172 207 264 341 396
#     4  10  21  42  64  91 132 167 214 271 331 391
#     4  11  22  36  59  85 121 175 219 272 323 374
#     4  12  23  38  61  87 125 175 226 271 328 383
#     4  11  22  39  58  86 128 167 218 277 319 377
#     4  12  24  39  56  88 127 172 226 277 323 378
#     4  11  22  39  61  90 125 168 220 269 318 393
#
# _framework density 22.007065000000001
#
# number of rings (size 3 to 8) (size 9 to 14) (size 15 to 20)
#    0.000    1.250    2.500    4.500    0.000    1.000 
#    2.250   13.125    0.000    0.000    0.000    0.000 
#    0.000    0.000    0.000    0.000    0.000    0.000 
#
# Total GULP energy -178201.443864 kJ/mol
# GULP energy per Si atom -5568.795121 kJ/mol
# Density = 2.195698 g / cm^3
# Si number density = 22.007065 Si / 1000 Ang^3
#
#
#
# Elastic Constant Matrix: (Units=GPa)
#
#
# Indices 1 2 3 4 5 6 
#
# 1 25.4844 5.8949 -1.1867 0.0000 -0.6363 0.0000
# 2 5.8949 67.5017 35.5254 0.0000 2.3808 0.0000
# 3 -1.1867 35.5254 171.2687 0.0000 9.4337 0.0000
# 4 0.0000 0.0000 0.0000 40.2748 0.0000 5.6928
# 5 -0.6363 2.3808 9.4337 0.0000 14.8001 0.0000
# 6 0.0000 0.0000 0.0000 5.6928 0.0000 26.0285
#
#
#
# Elastic Compliance Matrix: (Units=1/GPa)
#
#
# Indices 1 2 3 4 5 6 
#
# 1 0.040286 -0.004126 0.001040 0.000000 0.001733 0.000000
# 2 -0.004126 0.017056 -0.003529 0.000000 -0.000671 0.000000
# 3 0.001040 -0.003529 0.006782 0.000000 -0.003711 0.000000
# 4 0.000000 0.000000 0.000000 0.025622 0.000000 -0.005604
# 5 0.001733 -0.000671 -0.003711 0.000000 0.070115 0.000000
# 6 0.000000 0.000000 0.000000 -0.005604 0.000000 0.039645
#
#
# Mechanical properties :
#
#
# Convention : Reuss Voigt Hill
#
# Bulk Modulus (GPa) = 19.64953 38.30243 28.97598
# Shear Modulus (GPa) = 21.76733 31.15542 26.46137
#
# Velocity S-wave (km/s) = 3.14842 3.76666 3.47133
# Velocity P-wave (km/s) = 4.70795 6.02987 5.40945
#
# Compressibility (1/GPa) = 0.05089180
#
# Stress axis : x y z
#
# Youngs Moduli (GPa) = 24.82260 58.63040 147.43891
#
# Poissons Ratio (x) = 0.24193 -0.15328
# Poissons Ratio (y) = 0.10243 0.52038
# Poissons Ratio (z) = -0.02581 0.20693
#
# Static dielectric constant tensor:
#      x y z
#    x 1.833120 0.000000 0.035630 
#    y 0.000000 1.803020 0.000000 
#    z 0.035630 0.000000 1.898710 
# 
# From -- ./inp_files/36480.got.cif
#   From: 2010.05.17/outbox.cif.g08.bks.cpg/sg14_19_cif.got.tgz:36480.got - 2010.06.03 17:49:19.
