data_PCOD9246646
_publ_section_title
;
Structure prediction by ZEFSAII (Michael W. Deem and Ramdas Pophale) SiO2 
 PCOD9246646
Probable space group: P 21/C
;
_chemical_formula_sum "Si O2"
_cell_formula_units_Z 20
_cell_length_a 19.407576
_cell_length_b 5.190269
_cell_length_c 11.641028
_cell_angle_alpha 90.000000
_cell_angle_beta 133.332873
_cell_angle_gamma 90.000000
_cell_volume 852.929916
_symmetry_space_group_name_H-M "P 21/C"
_symmetry_group_IT_number 14
_symmetry_cell_setting 'monoclinic'
loop_
_space_group_symop_operation_xyz
x,y,z
-x,1/2+y,1/2-z
-x,-y,-z
x,1/2-y,1/2+z
loop_
_atom_site_type_symbol
_atom_site_label
_atom_site_fract_x
_atom_site_fract_y
_atom_site_fract_z
Si Si1 0.419937 0.453065 0.005814
Si Si2 0.877701 0.922918 0.644438
Si Si3 0.056423 0.931097 0.679432
Si Si4 0.600945 0.197231 0.824092
Si Si5 0.686454 0.689398 0.804672
O O1 0.379692 0.702995 0.024609
O O2 0.487572 0.326210 0.178592
O O3 0.500000 0.500000 0.000000
O O4 0.340035 0.284701 0.853287
O O5 0.875416 0.667831 0.717273
O O6 0.792221 0.897376 0.457234
O O7 0.974517 0.921919 0.682477
O O8 0.884922 0.168798 0.736371
O O9 0.000000 0.000000 0.500000
O O10 0.629325 0.432618 0.772473
O O11 0.656005 0.940040 0.846825
#
# Coordination Sequence:
#
# PCOD9246646 Si02
#       5
#     4   4   4   4   4
#     4  10  22  41  63  87 124 170 214 265 322 379
#     4  10  22  41  64  96 129 162 214 260 311 390
#     4  10  21  41  68  93 127 171 206 254 321 385
#     4  11  23  40  63  92 126 171 219 261 322 391
#     4  11  24  41  63  94 129 164 212 274 322 375
#
# _framework density 23.448585999999999
#
# number of rings (size 3 to 8) (size 9 to 14) (size 15 to 20)
#    0.000    1.600    0.000    4.800    0.000    6.400 
#    0.000   12.000    0.000    0.000    0.000    0.000 
#    0.000    0.000    0.000    0.000    0.000    0.000 
#
# Total GULP energy -111670.549712 kJ/mol
# GULP energy per Si atom -5583.527486 kJ/mol
# Density = 2.339522 g / cm^3
# Si number density = 23.448586 Si / 1000 Ang^3
#
#
#
# Elastic Constant Matrix: (Units=GPa)
#
#
# Indices 1 2 3 4 5 6 
#
# 1 22.5400 12.6227 -1.8736 0.0000 9.0081 0.0000
# 2 12.6227 246.6222 64.3817 0.0000 -32.4005 0.0000
# 3 -1.8736 64.3817 119.3953 0.0000 10.9795 0.0000
# 4 0.0000 0.0000 0.0000 44.9705 0.0000 -9.7274
# 5 9.0081 -32.4005 10.9795 0.0000 63.8328 0.0000
# 6 0.0000 0.0000 0.0000 -9.7274 0.0000 19.2474
#
#
#
# Elastic Compliance Matrix: (Units=1/GPa)
#
#
# Indices 1 2 3 4 5 6 
#
# 1 0.052064 -0.005311 0.004679 0.000000 -0.010848 0.000000
# 2 -0.005311 0.005846 -0.003635 0.000000 0.004342 0.000000
# 3 0.004679 -0.003635 0.010810 0.000000 -0.004365 0.000000
# 4 0.000000 0.000000 0.000000 0.024966 0.000000 0.012618
# 5 -0.010848 0.004342 -0.004365 0.000000 0.020152 0.000000
# 6 0.000000 0.000000 0.000000 0.012618 0.000000 0.058332
#
#
# Mechanical properties :
#
#
# Convention : Reuss Voigt Hill
#
# Bulk Modulus (GPa) = 16.61534 59.86879 38.24206
# Shear Modulus (GPa) = 24.90443 46.50524 35.70484
#
# Velocity S-wave (km/s) = 3.26250 4.45824 3.90639
# Velocity P-wave (km/s) = 4.61445 7.21724 6.05730
#
# Compressibility (1/GPa) = 0.06018536
#
# Stress axis : x y z
#
# Youngs Moduli (GPa) = 19.20701 171.05666 92.50315
#
# Poissons Ratio (x) = 0.90854 -0.43279
# Poissons Ratio (y) = 0.10201 0.33625
# Poissons Ratio (z) = -0.08986 0.62179
#
# Static dielectric constant tensor:
#      x y z
#    x 1.900810 0.000000 -0.030070 
#    y 0.000000 1.818280 0.000000 
#    z -0.030070 0.000000 1.961150 
# 
# From -- ./inp_files/35445.got.cif
#   From: 2010.05.17/outbox.cif.g08.bks.cpg/sg14_18_cif.got.tgz:35445.got - 2010.06.03 17:49:19.
