data_PCOD9246396
_publ_section_title
;
Structure prediction by ZEFSAII (Michael W. Deem and Ramdas Pophale) SiO2 
 PCOD9246396
Probable space group: P 21/C
;
_chemical_formula_sum "Si O2"
_cell_formula_units_Z 20
_cell_length_a 5.000134
_cell_length_b 17.337548
_cell_length_c 9.782788
_cell_angle_alpha 90.000000
_cell_angle_beta 89.075232
_cell_angle_gamma 90.000000
_cell_volume 847.960048
_symmetry_space_group_name_H-M "P 21/C"
_symmetry_group_IT_number 14
_symmetry_cell_setting 'monoclinic'
loop_
_space_group_symop_operation_xyz
x,y,z
-x,1/2+y,1/2-z
-x,-y,-z
x,1/2-y,1/2+z
loop_
_atom_site_type_symbol
_atom_site_label
_atom_site_fract_x
_atom_site_fract_y
_atom_site_fract_z
Si Si1 0.943393 0.731610 0.664037
Si Si2 0.765609 0.494018 0.687672
Si Si3 0.717518 0.416235 0.403876
Si Si4 0.163902 0.616470 0.074263
Si Si5 0.681321 0.675851 0.940911
O O1 0.153805 0.666390 0.621608
O O2 0.101934 0.687627 0.178795
O O3 0.741378 0.752991 0.543384
O O4 0.778932 0.706005 0.796016
O O5 0.693078 0.435283 0.565030
O O6 0.561542 0.564468 0.666322
O O7 0.744981 0.453627 0.833622
O O8 0.065491 0.523247 0.658473
O O9 0.385042 0.645642 0.965874
O O10 0.887263 0.610070 0.993774
#
# Coordination Sequence:
#
# PCOD9246396 Si02
#       5
#     4   4   4   4   4
#     4  10  24  41  63  95 119 164 206 259 292 374
#     4  10  21  41  58  93 120 164 195 256 303 356
#     4  10  22  36  66  86 124 158 210 241 304 368
#     4  10  23  40  62  88 123 163 195 260 298 364
#     4  10  24  36  66  86 125 155 213 240 320 340
#
# _framework density 23.586015
#
# number of rings (size 3 to 8) (size 9 to 14) (size 15 to 20)
#    1.200    0.800    0.000    2.400    5.600    0.000 
#    0.000    6.000    0.000    0.000    0.000    0.000 
#    0.000    0.000    0.000    0.000    0.000    0.000 
#
# Total GULP energy -111883.555316 kJ/mol
# GULP energy per Si atom -5594.177766 kJ/mol
# Density = 2.353233 g / cm^3
# Si number density = 23.586015 Si / 1000 Ang^3
#
#
#
# Elastic Constant Matrix: (Units=GPa)
#
#
# Indices 1 2 3 4 5 6 
#
# 1 92.8505 -0.9380 21.0075 0.0000 -16.6438 0.0000
# 2 -0.9380 63.0658 40.9598 0.0000 10.0762 0.0000
# 3 21.0075 40.9598 105.3008 0.0000 -10.1705 0.0000
# 4 0.0000 0.0000 0.0000 33.1552 0.0000 3.6558
# 5 -16.6438 10.0762 -10.1705 0.0000 21.6043 0.0000
# 6 0.0000 0.0000 0.0000 3.6558 0.0000 19.5107
#
#
#
# Elastic Compliance Matrix: (Units=1/GPa)
#
#
# Indices 1 2 3 4 5 6 
#
# 1 0.012774 -0.000284 -0.001545 0.000000 0.009246 0.000000
# 2 -0.000284 0.026613 -0.012064 0.000000 -0.018310 0.000000
# 3 -0.001545 -0.012064 0.015637 0.000000 0.011797 0.000000
# 4 0.000000 0.000000 0.000000 0.030798 0.000000 -0.005771
# 5 0.009246 -0.018310 0.011797 0.000000 0.067504 0.000000
# 6 0.000000 0.000000 0.000000 -0.005771 0.000000 0.052335
#
#
# Mechanical properties :
#
#
# Convention : Reuss Voigt Hill
#
# Bulk Modulus (GPa) = 36.71252 42.58619 39.64935
# Shear Modulus (GPa) = 20.61650 28.19989 24.40819
#
# Velocity S-wave (km/s) = 2.95972 3.46152 3.22041
# Velocity P-wave (km/s) = 5.22294 5.83704 5.53851
#
# Compressibility (1/GPa) = 0.02723866
#
# Stress axis : x y z
#
# Youngs Moduli (GPa) = 78.28344 37.57612 63.95193
#
# Poissons Ratio (x) = 0.01067 0.09880
# Poissons Ratio (y) = 0.02222 0.77149
# Poissons Ratio (z) = 0.12095 0.45330
#
# Static dielectric constant tensor:
#      x y z
#    x 1.855840 0.000000 0.032440 
#    y 0.000000 1.915310 0.000000 
#    z 0.032440 0.000000 1.866290 
# 
# From -- ./inp_files/5936.got.cif
#   From: 2010.05.17/outbox.cif.g08.bks.cpg/sg14_3_cif.got.tgz:5936.got - 2010.06.03 17:49:19.
