data_PCOD9246842
_publ_section_title
;
Structure prediction by ZEFSAII (Michael W. Deem and Ramdas Pophale) SiO2 
 PCOD9246842
Probable space group: P 21/C
;
_chemical_formula_sum "Si O2"
_cell_formula_units_Z 30
_cell_length_a 6.716350
_cell_length_b 13.081738
_cell_length_c 16.309519
_cell_angle_alpha 90.000000
_cell_angle_beta 119.238941
_cell_angle_gamma 90.000000
_cell_volume 1250.403849
_symmetry_space_group_name_H-M "P 21/C"
_symmetry_group_IT_number 14
_symmetry_cell_setting 'monoclinic'
loop_
_space_group_symop_operation_xyz
x,y,z
-x,1/2+y,1/2-z
-x,-y,-z
x,1/2-y,1/2+z
loop_
_atom_site_type_symbol
_atom_site_label
_atom_site_fract_x
_atom_site_fract_y
_atom_site_fract_z
Si Si1 0.553988 0.776086 0.595846
Si Si2 0.056927 0.192076 0.707609
Si Si3 0.323545 0.089857 0.622603
Si Si4 0.157704 0.627837 0.535233
Si Si5 0.195288 0.894603 0.870374
Si Si6 0.358950 0.185899 0.063870
Si Si7 0.500000 0.000000 0.500000
Si Si8 0.806543 0.455546 0.278841
O O1 0.729047 0.746738 0.704221
O O2 0.308771 0.730415 0.572694
O O3 0.628366 0.710073 0.530674
O O4 0.536993 0.891416 0.559104
O O5 0.133289 0.109723 0.653956
O O6 0.891826 0.278207 0.637631
O O7 0.908583 0.137287 0.747013
O O8 0.394554 0.207025 0.617071
O O9 0.543732 0.032800 0.703661
O O10 0.302922 0.037720 0.529403
O O11 0.240953 0.567130 0.471723
O O12 0.183427 0.568029 0.623917
O O13 0.892606 0.649453 0.467773
O O14 0.433486 0.889121 0.871656
O O15 0.983550 0.955296 0.792081
#
# Coordination Sequence:
#
# PCOD9246842 Si02
#       8
#     4   4   4   4   4   4   2   4
#     4  10  22  42  68 100 134 181 230 290 353 418
#     4  12  23  44  68 100 138 181 228 294 358 411
#     4  11  23  45  68  98 140 180 227 293 350 425
#     4  11  22  43  68  93 137 184 224 284 354 413
#     4  11  25  41  68  99 132 181 233 283 353 419
#     4  10  21  42  67  91 136 179 218 286 348 410
#     4  10  24  46  72 102 144 182 244 292 348 440
#     4  12  25  43  67 102 138 178 239 289 347 430
#
# _framework density 23.992249999999999
#
# number of rings (size 3 to 8) (size 9 to 14) (size 15 to 20)
#    0.000    1.067    5.333    1.200    0.000    1.600 
#    4.800    3.333    0.000    0.000    0.000    0.000 
#    0.000    0.000    0.000    0.000    0.000    0.000 
#
# Total GULP energy -167110.195715 kJ/mol
# GULP energy per Si atom -5570.339857 kJ/mol
# Density = 2.393764 g / cm^3
# Si number density = 23.992250 Si / 1000 Ang^3
#
#
#
# Elastic Constant Matrix: (Units=GPa)
#
#
# Indices 1 2 3 4 5 6 
#
# 1 93.7243 14.8330 18.4625 0.0000 -0.6825 0.0000
# 2 14.8330 47.5450 12.6700 0.0000 -16.0085 0.0000
# 3 18.4625 12.6700 57.4928 0.0000 -4.2986 0.0000
# 4 0.0000 0.0000 0.0000 30.9621 0.0000 -5.3747
# 5 -0.6825 -16.0085 -4.2986 0.0000 23.3792 0.0000
# 6 0.0000 0.0000 0.0000 -5.3747 0.0000 34.7555
#
#
#
# Elastic Compliance Matrix: (Units=1/GPa)
#
#
# Indices 1 2 3 4 5 6 
#
# 1 0.011881 -0.003818 -0.003187 0.000000 -0.002853 0.000000
# 2 -0.003818 0.029868 -0.003889 0.000000 0.019625 0.000000
# 3 -0.003187 -0.003889 0.019334 0.000000 0.000799 0.000000
# 4 0.000000 0.000000 0.000000 0.033188 0.000000 0.005132
# 5 -0.002853 0.019625 0.000799 0.000000 0.056275 0.000000
# 6 0.000000 0.000000 0.000000 0.005132 0.000000 0.029566
#
#
# Mechanical properties :
#
#
# Convention : Reuss Voigt Hill
#
# Bulk Modulus (GPa) = 25.44884 32.29923 28.87404
# Shear Modulus (GPa) = 23.25602 28.00580 25.63091
#
# Velocity S-wave (km/s) = 3.11676 3.42026 3.27203
# Velocity P-wave (km/s) = 4.85617 5.39344 5.13184
#
# Compressibility (1/GPa) = 0.03929452
#
# Stress axis : x y z
#
# Youngs Moduli (GPa) = 84.16870 33.48066 51.72305
#
# Poissons Ratio (x) = 0.12783 0.16485
# Poissons Ratio (y) = 0.32136 0.20114
# Poissons Ratio (z) = 0.26827 0.13020
#
# Static dielectric constant tensor:
#      x y z
#    x 1.921570 0.000000 -0.008540 
#    y 0.000000 1.938930 0.000000 
#    z -0.008540 0.000000 1.978600 
# 
# From -- ./inp_files/53342.got.cif
#   From: 2010.05.17/outbox.cif.g08.bks.cpg/sg14_27_cif.got.tgz:53342.got - 2010.06.03 17:49:19.
