data_PCOD9246216
_publ_section_title
;
Structure prediction by ZEFSAII (Michael W. Deem and Ramdas Pophale) SiO2 
 PCOD9246216
Probable space group: P 21/C
;
_chemical_formula_sum "Si O2"
_cell_formula_units_Z 24
_cell_length_a 14.605351
_cell_length_b 7.869051
_cell_length_c 18.188797
_cell_angle_alpha 90.000000
_cell_angle_beta 155.107219
_cell_angle_gamma 90.000000
_cell_volume 879.912468
_symmetry_space_group_name_H-M "P 21/C"
_symmetry_group_IT_number 14
_symmetry_cell_setting 'monoclinic'
loop_
_space_group_symop_operation_xyz
x,y,z
-x,1/2+y,1/2-z
-x,-y,-z
x,1/2-y,1/2+z
loop_
_atom_site_type_symbol
_atom_site_label
_atom_site_fract_x
_atom_site_fract_y
_atom_site_fract_z
Si Si1 0.514955 0.568030 0.731506
Si Si2 0.036738 0.612508 0.892252
Si Si3 0.537188 0.751334 0.392897
Si Si4 0.826434 0.138226 0.783079
Si Si5 0.768939 0.789476 0.815773
Si Si6 0.971599 0.939375 0.758721
O O1 0.394822 0.420762 0.599368
O O2 0.436530 0.633470 0.753328
O O3 0.567306 0.722441 0.715018
O O4 0.752096 0.481440 0.921779
O O5 0.943469 0.498619 0.758351
O O6 0.865157 0.649015 0.830907
O O7 0.090668 0.798367 0.895840
O O8 0.358322 0.730930 0.326219
O O9 0.743618 0.846513 0.574466
O O10 0.729377 0.955982 0.738505
O O11 0.903525 0.104450 0.756944
O O12 0.039205 0.172155 0.986614
#
# Coordination Sequence:
#
# PCOD9246216 Si02
#       6
#     4   4   4   4   4   4
#     4  11  23  39  64  90 124 164 216 257 308 375
#     4  10  22  40  59  93 119 166 210 252 308 376
#     4  11  23  39  60  94 129 161 207 265 319 363
#     4  10  21  40  65  92 125 164 207 259 318 373
#     4  10  21  40  68  92 117 167 219 252 301 385
#     4  10  24  38  61  90 133 162 206 264 320 366
#
# _framework density 27.275438999999999
#
# number of rings (size 3 to 8) (size 9 to 14) (size 15 to 20)
#    0.000    1.667    1.667    2.000    4.667    1.333 
#    0.000    3.333    0.000    0.000    0.000    0.000 
#    0.000    0.000    0.000    0.000    0.000    0.000 
#
# Total GULP energy -134694.489766 kJ/mol
# GULP energy per Si atom -5612.270407 kJ/mol
# Density = 2.721336 g / cm^3
# Si number density = 27.275439 Si / 1000 Ang^3
#
#
#
# Elastic Constant Matrix: (Units=GPa)
#
#
# Indices 1 2 3 4 5 6 
#
# 1 131.8381 27.6085 26.8720 0.0000 -4.2119 0.0000
# 2 27.6085 108.7104 1.6620 0.0000 -7.0783 0.0000
# 3 26.8720 1.6620 74.1901 0.0000 -17.7970 0.0000
# 4 0.0000 0.0000 0.0000 35.1235 0.0000 -6.3841
# 5 -4.2119 -7.0783 -17.7970 0.0000 35.7004 0.0000
# 6 0.0000 0.0000 0.0000 -6.3841 0.0000 56.3355
#
#
#
# Elastic Compliance Matrix: (Units=1/GPa)
#
#
# Indices 1 2 3 4 5 6 
#
# 1 0.008703 -0.002230 -0.003364 0.000000 -0.001093 0.000000
# 2 -0.002230 0.009895 0.001128 0.000000 0.002261 0.000000
# 3 -0.003364 0.001128 0.016618 0.000000 0.008111 0.000000
# 4 0.000000 0.000000 0.000000 0.029070 0.000000 0.003294
# 5 -0.001093 0.002261 0.008111 0.000000 0.032374 0.000000
# 6 0.000000 0.000000 0.000000 0.003294 0.000000 0.018124
#
#
# Mechanical properties :
#
#
# Convention : Reuss Voigt Hill
#
# Bulk Modulus (GPa) = 38.04555 47.44707 42.74631
# Shear Modulus (GPa) = 37.74254 42.67161 40.20708
#
# Velocity S-wave (km/s) = 3.72392 3.95963 3.84358
# Velocity P-wave (km/s) = 5.69816 6.19178 5.95009
#
# Compressibility (1/GPa) = 0.02628429
#
# Stress axis : x y z
#
# Youngs Moduli (GPa) = 114.90469 101.06054 60.17606
#
# Poissons Ratio (x) = 0.22536 0.20245
# Poissons Ratio (y) = 0.25623 -0.06791
# Poissons Ratio (z) = 0.38658 -0.11405
#
# Static dielectric constant tensor:
#      x y z
#    x 2.005730 0.000000 -0.000450 
#    y 0.000000 2.193390 0.000000 
#    z -0.000450 0.000000 2.132670 
# 
# From -- ./inp_files/59144.got.cif
#   From: 2010.05.17/outbox.cif.g08.bks.cpg/sg14_30_cif.got.tgz:59144.got - 2010.06.03 17:49:19.
