data_PCOD9246450
_publ_section_title
;
Structure prediction by ZEFSAII (Michael W. Deem and Ramdas Pophale) SiO2 
 PCOD9246450
Probable space group: P 21/C
;
_chemical_formula_sum "Si O2"
_cell_formula_units_Z 24
_cell_length_a 15.991105
_cell_length_b 8.586888
_cell_length_c 13.554615
_cell_angle_alpha 90.000000
_cell_angle_beta 37.713753
_cell_angle_gamma 90.000000
_cell_volume 1138.549639
_symmetry_space_group_name_H-M "P 21/C"
_symmetry_group_IT_number 14
_symmetry_cell_setting 'monoclinic'
loop_
_space_group_symop_operation_xyz
x,y,z
-x,1/2+y,1/2-z
-x,-y,-z
x,1/2-y,1/2+z
loop_
_atom_site_type_symbol
_atom_site_label
_atom_site_fract_x
_atom_site_fract_y
_atom_site_fract_z
Si Si1 0.142884 0.600350 0.654763
Si Si2 0.624911 0.272480 0.191140
Si Si3 0.266250 0.467737 0.217827
Si Si4 0.495532 0.044253 0.641913
Si Si5 0.850149 0.287909 0.127340
Si Si6 0.913113 0.736925 0.242347
O O1 0.266685 0.683134 0.481189
O O2 0.144312 0.651880 0.767219
O O3 0.149610 0.413406 0.645794
O O4 0.004153 0.661154 0.732473
O O5 0.535914 0.386930 0.208737
O O6 0.717335 0.346069 0.190920
O O7 0.530109 0.139475 0.324616
O O8 0.357374 0.392944 0.219867
O O9 0.164709 0.598595 0.355221
O O10 0.193078 0.345540 0.215891
O O11 0.376409 0.563983 0.050151
O O12 0.981842 0.325774 0.939150
#
# Coordination Sequence:
#
# PCOD9246450 Si02
#       6
#     4   4   4   4   4   4
#     4  11  23  41  61  93 126 157 207 255 304 362
#     4  10  23  40  63  90 123 163 206 252 303 358
#     4  10  21  41  63  86 122 165 203 247 307 360
#     4  10  22  40  62  88 123 165 202 250 301 361
#     4  10  21  42  62  88 123 159 202 259 303 356
#     4  11  24  38  65  91 121 163 201 253 310 362
#
# _framework density 21.079450000000001
#
# number of rings (size 3 to 8) (size 9 to 14) (size 15 to 20)
#    0.000    1.667    1.667    2.000    4.667    4.000 
#    0.000    1.667    0.000    0.000    0.000    0.000 
#    0.000    0.000    0.000    0.000    0.000    0.000 
#
# Total GULP energy -134115.979767 kJ/mol
# GULP energy per Si atom -5588.165824 kJ/mol
# Density = 2.103147 g / cm^3
# Si number density = 21.079450 Si / 1000 Ang^3
#
#
#
# Elastic Constant Matrix: (Units=GPa)
#
#
# Indices 1 2 3 4 5 6 
#
# 1 168.0631 34.4629 8.0146 0.0000 -1.2639 0.0000
# 2 34.4629 39.2664 -9.1535 0.0000 -14.6571 0.0000
# 3 8.0146 -9.1535 35.3912 0.0000 2.9247 0.0000
# 4 0.0000 0.0000 0.0000 18.6137 0.0000 9.1652
# 5 -1.2639 -14.6571 2.9247 0.0000 32.2055 0.0000
# 6 0.0000 0.0000 0.0000 9.1652 0.0000 42.8384
#
#
#
# Elastic Compliance Matrix: (Units=1/GPa)
#
#
# Indices 1 2 3 4 5 6 
#
# 1 0.008011 -0.009269 -0.003918 0.000000 -0.003548 0.000000
# 2 -0.009269 0.043135 0.011751 0.000000 0.018200 0.000000
# 3 -0.003918 0.011751 0.031993 0.000000 0.002289 0.000000
# 4 0.000000 0.000000 0.000000 0.060050 0.000000 -0.012847
# 5 -0.003548 0.018200 0.002289 0.000000 0.038987 0.000000
# 6 0.000000 0.000000 0.000000 -0.012847 0.000000 0.026092
#
#
# Mechanical properties :
#
#
# Convention : Reuss Voigt Hill
#
# Bulk Modulus (GPa) = 12.45830 34.37431 23.41631
# Shear Modulus (GPa) = 21.01768 32.69130 26.85449
#
# Velocity S-wave (km/s) = 3.16107 3.94237 3.57314
# Velocity P-wave (km/s) = 4.38704 6.08814 5.30620
#
# Compressibility (1/GPa) = 0.08026776
#
# Stress axis : x y z
#
# Youngs Moduli (GPa) = 124.82885 23.18301 31.25672
#
# Poissons Ratio (x) = 0.21488 0.12247
# Poissons Ratio (y) = 1.15701 -0.36731
# Poissons Ratio (z) = 0.48910 -0.27243
#
# Static dielectric constant tensor:
#      x y z
#    x 1.775350 0.000000 0.001190 
#    y 0.000000 1.750040 0.000000 
#    z 0.001190 0.000000 1.760700 
# 
# From -- ./inp_files/28038.got.cif
#   From: 2010.05.17/outbox.cif.g08.bks.cpg/sg14_15_cif.got.tgz:28038.got - 2010.06.03 17:49:19.
