data_PCOD9246248
_publ_section_title
;
Structure prediction by ZEFSAII (Michael W. Deem and Ramdas Pophale) SiO2 
 PCOD9246248
Probable space group: P 21/C
;
_chemical_formula_sum "Si O2"
_cell_formula_units_Z 28
_cell_length_a 13.430819
_cell_length_b 14.277369
_cell_length_c 9.131683
_cell_angle_alpha 90.000000
_cell_angle_beta 41.874681
_cell_angle_gamma 90.000000
_cell_volume 1168.840109
_symmetry_space_group_name_H-M "P 21/C"
_symmetry_group_IT_number 14
_symmetry_cell_setting 'monoclinic'
loop_
_space_group_symop_operation_xyz
x,y,z
-x,1/2+y,1/2-z
-x,-y,-z
x,1/2-y,1/2+z
loop_
_atom_site_type_symbol
_atom_site_label
_atom_site_fract_x
_atom_site_fract_y
_atom_site_fract_z
Si Si1 0.193267 0.349313 0.300152
Si Si2 0.518935 0.033141 0.145632
Si Si3 0.793189 0.561647 0.270962
Si Si4 0.346049 0.534992 0.096171
Si Si5 0.849493 0.200515 0.241667
Si Si6 0.334523 0.200117 0.333578
Si Si7 0.890493 0.374157 0.013724
O O1 0.219261 0.459887 0.270286
O O2 0.304302 0.302531 0.300181
O O3 0.019920 0.327108 0.513460
O O4 0.245285 0.312965 0.082348
O O5 0.491070 0.144933 0.191261
O O6 0.392477 0.981274 0.376796
O O7 0.500000 0.000000 0.000000
O O8 0.678882 0.988709 0.006600
O O9 0.727106 0.638873 0.234315
O O10 0.841330 0.477895 0.110272
O O11 0.932019 0.611223 0.194952
O O12 0.277717 0.637043 0.196168
O O13 0.500000 0.500000 0.000000
O O14 0.843692 0.307726 0.199396
O O15 0.834525 0.176163 0.429044
#
# Coordination Sequence:
#
# PCOD9246248 Si02
#       7
#     4   4   4   4   4   4   4
#     4  11  23  41  67  99 138 182 228 288 340 407
#     4   9  20  41  67  91 136 184 224 275 339 417
#     4  10  22  43  69  99 137 186 235 277 354 418
#     4  11  27  45  66 100 137 181 230 281 352 409
#     4  12  25  46  68 103 140 180 234 292 349 410
#     4  10  21  40  66 101 136 181 236 277 348 413
#     4  11  25  42  73 103 136 181 237 290 344 418
#
# _framework density 23.955371
#
# number of rings (size 3 to 8) (size 9 to 14) (size 15 to 20)
#    0.000    1.429    1.429    3.857    2.000    3.429 
#    0.000    5.714    0.000    0.000    0.000    0.000 
#    0.000    0.000    0.000    0.000    0.000    0.000 
#
# Total GULP energy -156363.199411 kJ/mol
# GULP energy per Si atom -5584.399979 kJ/mol
# Density = 2.390085 g / cm^3
# Si number density = 23.955371 Si / 1000 Ang^3
#
#
#
# Elastic Constant Matrix: (Units=GPa)
#
#
# Indices 1 2 3 4 5 6 
#
# 1 71.2364 13.3028 12.4500 0.0000 -6.3320 0.0000
# 2 13.3028 89.0032 13.1458 0.0000 -14.1205 0.0000
# 3 12.4500 13.1458 70.4997 0.0000 0.7072 0.0000
# 4 0.0000 0.0000 0.0000 36.1398 0.0000 -3.8784
# 5 -6.3320 -14.1205 0.7072 0.0000 28.8772 0.0000
# 6 0.0000 0.0000 0.0000 -3.8784 0.0000 26.0831
#
#
#
# Elastic Compliance Matrix: (Units=1/GPa)
#
#
# Indices 1 2 3 4 5 6 
#
# 1 0.014963 -0.001467 -0.002395 0.000000 0.002623 0.000000
# 2 -0.001467 0.012720 -0.002173 0.000000 0.005951 0.000000
# 3 -0.002395 -0.002173 0.015032 0.000000 -0.001956 0.000000
# 4 0.000000 0.000000 0.000000 0.028119 0.000000 0.004181
# 5 0.002623 0.005951 -0.001956 0.000000 0.038163 0.000000
# 6 0.000000 0.000000 0.000000 0.004181 0.000000 0.038961
#
#
# Mechanical properties :
#
#
# Convention : Reuss Voigt Hill
#
# Bulk Modulus (GPa) = 32.63017 34.28184 33.45600
# Shear Modulus (GPa) = 29.36995 31.00941 30.18968
#
# Velocity S-wave (km/s) = 3.50527 3.60177 3.55385
# Velocity P-wave (km/s) = 5.48027 5.62484 5.55302
#
# Compressibility (1/GPa) = 0.03064649
#
# Stress axis : x y z
#
# Youngs Moduli (GPa) = 66.82981 78.61741 66.52401
#
# Poissons Ratio (x) = 0.11530 0.15935
# Poissons Ratio (y) = 0.09801 0.14452
# Poissons Ratio (z) = 0.16008 0.17080
#
# Static dielectric constant tensor:
#      x y z
#    x 2.075790 0.000000 -0.024840 
#    y 0.000000 1.899250 0.000000 
#    z -0.024840 0.000000 1.915550 
# 
# From -- ./inp_files/16394.got.cif
#   From: 2010.05.17/outbox.cif.g08.bks.cpg/sg14_9_cif.got.tgz:16394.got - 2010.06.03 17:49:19.
