data_PCOD9246152
_publ_section_title
;
Structure prediction by ZEFSAII (Michael W. Deem and Ramdas Pophale) SiO2 
 PCOD9246152
Probable space group: P 21/C
;
_chemical_formula_sum "Si O2"
_cell_formula_units_Z 20
_cell_length_a 6.494865
_cell_length_b 18.092331
_cell_length_c 7.247128
_cell_angle_alpha 90.000000
_cell_angle_beta 113.269076
_cell_angle_gamma 90.000000
_cell_volume 782.321500
_symmetry_space_group_name_H-M "P 21/C"
_symmetry_group_IT_number 14
_symmetry_cell_setting 'monoclinic'
loop_
_space_group_symop_operation_xyz
x,y,z
-x,1/2+y,1/2-z
-x,-y,-z
x,1/2-y,1/2+z
loop_
_atom_site_type_symbol
_atom_site_label
_atom_site_fract_x
_atom_site_fract_y
_atom_site_fract_z
Si Si1 0.684514 0.291248 0.453576
Si Si2 0.090375 0.119729 0.235421
Si Si3 0.594735 0.362334 0.031357
Si Si4 0.344001 0.104088 0.960203
Si Si5 0.746935 0.476521 0.817576
O O1 0.904091 0.317053 0.641828
O O2 0.688955 0.203555 0.436027
O O3 0.446269 0.314837 0.462243
O O4 0.673052 0.337364 0.260235
O O5 0.976428 0.055954 0.317348
O O6 0.328070 0.140041 0.407840
O O7 0.154439 0.097701 0.047796
O O8 0.688021 0.440935 0.994520
O O9 0.276506 0.061487 0.750379
O O10 0.557003 0.062619 0.123831
#
# Coordination Sequence:
#
# PCOD9246152 Si02
#       5
#     4   4   4   4   4
#     4  11  24  40  60  88 119 153 197 243 288 346
#     4  10  21  40  64  84 117 158 190 238 297 342
#     4  11  24  40  60  88 119 153 197 243 288 346
#     4   9  19  37  61  89 119 153 195 239 287 347
#     4   9  19  37  61  89 119 153 195 239 287 347
#
# _framework density 25.564935999999999
#
# number of rings (size 3 to 8) (size 9 to 14) (size 15 to 20)
#    0.000    2.000    0.000    4.200    0.000   10.400 
#    0.000    2.000    0.000    0.000    0.000    0.000 
#    0.000    0.000    0.000    0.000    0.000    0.000 
#
# Total GULP energy -111863.564914 kJ/mol
# GULP energy per Si atom -5593.178246 kJ/mol
# Density = 2.550675 g / cm^3
# Si number density = 25.564936 Si / 1000 Ang^3
#
#
#
# Elastic Constant Matrix: (Units=GPa)
#
#
# Indices 1 2 3 4 5 6 
#
# 1 130.7576 34.2643 40.1550 0.0000 23.9904 0.0000
# 2 34.2643 71.7002 2.8474 0.0000 18.8245 0.0000
# 3 40.1550 2.8474 91.0418 0.0000 4.8578 0.0000
# 4 0.0000 0.0000 0.0000 25.2911 0.0000 -2.7550
# 5 23.9904 18.8245 4.8578 0.0000 41.2231 0.0000
# 6 0.0000 0.0000 0.0000 -2.7550 0.0000 21.4116
#
#
#
# Elastic Compliance Matrix: (Units=1/GPa)
#
#
# Indices 1 2 3 4 5 6 
#
# 1 0.010756 -0.003929 -0.004410 0.000000 -0.003946 0.000000
# 2 -0.003929 0.017283 0.001501 0.000000 -0.005783 0.000000
# 3 -0.004410 0.001501 0.012863 0.000000 0.000366 0.000000
# 4 0.000000 0.000000 0.000000 0.040102 0.000000 0.005160
# 5 -0.003946 -0.005783 0.000366 0.000000 0.029152 0.000000
# 6 0.000000 0.000000 0.000000 0.005160 0.000000 0.047368
#
#
# Mechanical properties :
#
#
# Convention : Reuss Voigt Hill
#
# Bulk Modulus (GPa) = 36.73146 49.78142 43.25644
# Shear Modulus (GPa) = 27.73544 32.00067 29.86806
#
# Velocity S-wave (km/s) = 3.29736 3.54183 3.42178
# Velocity P-wave (km/s) = 5.37549 6.02004 5.70687
#
# Compressibility (1/GPa) = 0.02722462
#
# Stress axis : x y z
#
# Youngs Moduli (GPa) = 92.97466 57.85984 77.74351
#
# Poissons Ratio (x) = 0.22732 0.34289
# Poissons Ratio (y) = 0.36529 -0.11668
# Poissons Ratio (z) = 0.41006 -0.08684
#
# Static dielectric constant tensor:
#      x y z
#    x 2.038480 0.000000 -0.043910 
#    y 0.000000 1.989270 0.000000 
#    z -0.043910 0.000000 2.035500 
# 
# From -- ./inp_files/5729.got.cif
#   From: 2010.05.17/outbox.cif.g08.bks.cpg/sg14_3_cif.got.tgz:5729.got - 2010.06.03 17:49:19.
