data_PCOD9246513
_publ_section_title
;
Structure prediction by ZEFSAII (Michael W. Deem and Ramdas Pophale) SiO2 
 PCOD9246513
Probable space group: P 21/C
;
_chemical_formula_sum "Si O2"
_cell_formula_units_Z 28
_cell_length_a 8.329895
_cell_length_b 14.141983
_cell_length_c 17.748606
_cell_angle_alpha 90.000000
_cell_angle_beta 36.605671
_cell_angle_gamma 90.000000
_cell_volume 1246.757679
_symmetry_space_group_name_H-M "P 21/C"
_symmetry_group_IT_number 14
_symmetry_cell_setting 'monoclinic'
loop_
_space_group_symop_operation_xyz
x,y,z
-x,1/2+y,1/2-z
-x,-y,-z
x,1/2-y,1/2+z
loop_
_atom_site_type_symbol
_atom_site_label
_atom_site_fract_x
_atom_site_fract_y
_atom_site_fract_z
Si Si1 0.755953 0.536164 0.853668
Si Si2 0.337512 0.653747 0.825173
Si Si3 0.621290 0.519794 0.372626
Si Si4 0.646233 0.151888 0.126852
Si Si5 0.239203 0.131361 0.942261
Si Si6 0.163491 0.190018 0.571429
Si Si7 0.578941 0.953501 0.646355
O O1 0.769243 0.647336 0.872033
O O2 0.679522 0.499439 0.799336
O O3 0.058159 0.496844 0.755744
O O4 0.500000 0.500000 0.000000
O O5 0.288320 0.737111 0.902204
O O6 0.638767 0.666877 0.682343
O O7 0.279477 0.549433 0.877611
O O8 0.154806 0.683161 0.822676
O O9 0.500000 0.500000 0.500000
O O10 0.522556 0.621283 0.381664
O O11 0.443780 0.451822 0.386011
O O12 0.479392 0.115006 0.261981
O O13 0.935338 0.105881 0.036996
O O14 0.246457 0.208049 0.007634
O O15 0.276163 0.112483 0.469445
#
# Coordination Sequence:
#
# PCOD9246513 Si02
#       7
#     4   4   4   4   4   4   4
#     4  10  23  42  65  95 130 172 216 266 324 383
#     4  11  22  39  65  93 124 167 215 269 318 381
#     4  12  25  43  68  96 134 177 214 272 335 390
#     4  11  24  41  64  97 128 166 220 268 323 392
#     4  11  22  39  67  93 129 169 213 263 333 392
#     4  10  21  41  64  94 125 167 213 266 326 387
#     4  11  21  39  67  92 124 168 215 266 315 390
#
# _framework density 22.458255000000001
#
# number of rings (size 3 to 8) (size 9 to 14) (size 15 to 20)
#    0.000    1.143    4.286    1.714    2.000    2.286 
#    0.000    2.857    0.000    0.000    0.000    0.000 
#    0.000    0.000    0.000    0.000    0.000    0.000 
#
# Total GULP energy -156004.597884 kJ/mol
# GULP energy per Si atom -5571.592782 kJ/mol
# Density = 2.240714 g / cm^3
# Si number density = 22.458255 Si / 1000 Ang^3
#
#
#
# Elastic Constant Matrix: (Units=GPa)
#
#
# Indices 1 2 3 4 5 6 
#
# 1 70.3452 -1.8607 16.3935 0.0000 -11.3397 0.0000
# 2 -1.8607 72.2076 5.1179 0.0000 -10.4014 0.0000
# 3 16.3935 5.1179 76.7716 0.0000 -11.1042 0.0000
# 4 0.0000 0.0000 0.0000 23.3787 0.0000 -3.1337
# 5 -11.3397 -10.4014 -11.1042 0.0000 31.9476 0.0000
# 6 0.0000 0.0000 0.0000 -3.1337 0.0000 30.1608
#
#
#
# Elastic Compliance Matrix: (Units=1/GPa)
#
#
# Indices 1 2 3 4 5 6 
#
# 1 0.015698 0.001326 -0.002708 0.000000 0.005062 0.000000
# 2 0.001326 0.014649 -0.000528 0.000000 0.005056 0.000000
# 3 -0.002708 -0.000528 0.014189 0.000000 0.003798 0.000000
# 4 0.000000 0.000000 0.000000 0.043378 0.000000 0.004507
# 5 0.005062 0.005056 0.003798 0.000000 0.036064 0.000000
# 6 0.000000 0.000000 0.000000 0.004507 0.000000 0.033624
#
#
# Mechanical properties :
#
#
# Convention : Reuss Voigt Hill
#
# Bulk Modulus (GPa) = 24.56184 28.73620 26.64902
# Shear Modulus (GPa) = 28.57232 30.40903 29.49068
#
# Velocity S-wave (km/s) = 3.57072 3.68370 3.62765
# Velocity P-wave (km/s) = 5.28776 5.56022 5.42570
#
# Compressibility (1/GPa) = 0.04071357
#
# Stress axis : x y z
#
# Youngs Moduli (GPa) = 63.70310 68.26452 70.47934
#
# Poissons Ratio (x) = -0.09050 0.19087
# Poissons Ratio (y) = -0.08445 0.03723
# Poissons Ratio (z) = 0.17252 0.03606
#
# Static dielectric constant tensor:
#      x y z
#    x 1.877900 0.000000 0.054190 
#    y 0.000000 1.940980 0.000000 
#    z 0.054190 0.000000 1.938660 
# 
# From -- ./inp_files/55928.got.cif
#   From: 2010.05.17/outbox.cif.g08.bks.cpg/sg14_28_cif.got.tgz:55928.got - 2010.06.03 17:49:19.
