data_PCOD9246407
_publ_section_title
;
Structure prediction by ZEFSAII (Michael W. Deem and Ramdas Pophale) SiO2 
 PCOD9246407
Probable space group: P 21/C
;
_chemical_formula_sum "Si O2"
_cell_formula_units_Z 32
_cell_length_a 17.896546
_cell_length_b 8.444236
_cell_length_c 29.142010
_cell_angle_alpha 90.000000
_cell_angle_beta 158.661709
_cell_angle_gamma 90.000000
_cell_volume 1602.506779
_symmetry_space_group_name_H-M "P 21/C"
_symmetry_group_IT_number 14
_symmetry_cell_setting 'monoclinic'
loop_
_space_group_symop_operation_xyz
x,y,z
-x,1/2+y,1/2-z
-x,-y,-z
x,1/2-y,1/2+z
loop_
_atom_site_type_symbol
_atom_site_label
_atom_site_fract_x
_atom_site_fract_y
_atom_site_fract_z
Si Si1 0.484540 0.652854 0.804179
Si Si2 0.388151 0.727945 0.917990
Si Si3 0.402643 0.114270 0.319417
Si Si4 0.487916 0.897241 0.880010
Si Si5 0.733473 0.401233 0.887848
Si Si6 0.811131 0.605967 0.843717
Si Si7 0.797356 0.603556 0.198660
Si Si8 0.254725 0.806946 0.940806
O O1 0.357649 0.553695 0.770094
O O2 0.580824 0.783890 0.893452
O O3 0.612761 0.507295 0.855857
O O4 0.378735 0.755275 0.702830
O O5 0.429658 0.817397 0.894617
O O6 0.224926 0.586163 0.817683
O O7 0.310447 0.817802 0.918812
O O8 0.612105 0.662906 0.060642
O O9 0.339357 0.246371 0.246898
O O10 0.260611 0.143343 0.282318
O O11 0.630093 0.154132 0.470255
O O12 0.276748 0.971434 0.739904
O O13 0.641841 0.041443 0.976468
O O14 0.786081 0.531112 0.879206
O O15 0.955321 0.346709 0.032807
O O16 0.012394 0.680552 0.308701
#
# Coordination Sequence:
#
# PCOD9246407 Si02
#       8
#     4   4   4   4   4   4   4   4
#     4  11  22  40  64  88 125 159 207 257 319 382
#     4  10  21  41  60  91 132 160 211 259 304 371
#     4  10  21  41  62  91 126 162 208 265 303 379
#     4  10  21  41  62  92 122 165 206 262 308 372
#     4  10  22  40  62  91 120 162 200 260 323 376
#     4   9  21  41  60  88 123 154 209 257 318 369
#     4  10  22  39  60  93 126 166 208 256 310 366
#     4  10  23  39  63  91 127 168 212 255 316 369
#
# _framework density 19.968715
#
# number of rings (size 3 to 8) (size 9 to 14) (size 15 to 20)
#    0.000    2.000    1.250    1.125    3.500    1.500 
#    2.250    0.000    0.000    0.000    0.000    0.000 
#    0.000    0.000    0.000    0.000    0.000    0.000 
#
# Total GULP energy -178226.222868 kJ/mol
# GULP energy per Si atom -5569.569465 kJ/mol
# Density = 1.992327 g / cm^3
# Si number density = 19.968715 Si / 1000 Ang^3
#
#
#
# Elastic Constant Matrix: (Units=GPa)
#
#
# Indices 1 2 3 4 5 6 
#
# 1 63.6783 24.0009 34.0605 0.0000 -2.9561 0.0000
# 2 24.0009 58.7294 10.8404 0.0000 -2.8200 0.0000
# 3 34.0605 10.8404 73.8643 0.0000 12.2714 0.0000
# 4 0.0000 0.0000 0.0000 5.9206 0.0000 -4.1839
# 5 -2.9561 -2.8200 12.2714 0.0000 25.3988 0.0000
# 6 0.0000 0.0000 0.0000 -4.1839 0.0000 33.3415
#
#
#
# Elastic Compliance Matrix: (Units=1/GPa)
#
#
# Indices 1 2 3 4 5 6 
#
# 1 0.025333 -0.007794 -0.011834 0.000000 0.007801 0.000000
# 2 -0.007794 0.020184 0.000446 0.000000 0.001118 0.000000
# 3 -0.011834 0.000446 0.020822 0.000000 -0.011388 0.000000
# 4 0.000000 0.000000 0.000000 0.185335 0.000000 0.023257
# 5 0.007801 0.001118 -0.011388 0.000000 0.045906 0.000000
# 6 0.000000 0.000000 0.000000 0.023257 0.000000 0.032911
#
#
# Mechanical properties :
#
#
# Convention : Reuss Voigt Hill
#
# Bulk Modulus (GPa) = 35.74622 37.11950 36.43286
# Shear Modulus (GPa) = 13.22121 21.42355 17.32238
#
# Velocity S-wave (km/s) = 2.57591 3.27900 2.94849
# Velocity P-wave (km/s) = 5.17562 5.74151 5.46590
#
# Compressibility (1/GPa) = 0.02797499
#
# Stress axis : x y z
#
# Youngs Moduli (GPa) = 39.47346 49.54464 48.02693
#
# Poissons Ratio (x) = 0.38616 0.56835
# Poissons Ratio (y) = 0.30766 -0.02142
# Poissons Ratio (z) = 0.46713 -0.02210
#
# Static dielectric constant tensor:
#      x y z
#    x 1.751550 0.000000 -0.009930 
#    y 0.000000 1.761290 0.000000 
#    z -0.009930 0.000000 1.708150 
# 
# From -- ./inp_files/80420.got.cif
#   From: 2010.05.17/outbox.cif.g08.bks.cpg/sg14_41_cif.got.tgz:80420.got - 2010.06.03 17:49:19.
