data_PCOD9246338
_publ_section_title
;
Structure prediction by ZEFSAII (Michael W. Deem and Ramdas Pophale) SiO2 
 PCOD9246338
Probable space group: P 21/C
;
_chemical_formula_sum "Si O2"
_cell_formula_units_Z 20
_cell_length_a 7.970676
_cell_length_b 19.173457
_cell_length_c 9.356169
_cell_angle_alpha 90.000000
_cell_angle_beta 145.977072
_cell_angle_gamma 90.000000
_cell_volume 800.042086
_symmetry_space_group_name_H-M "P 21/C"
_symmetry_group_IT_number 14
_symmetry_cell_setting 'monoclinic'
loop_
_space_group_symop_operation_xyz
x,y,z
-x,1/2+y,1/2-z
-x,-y,-z
x,1/2-y,1/2+z
loop_
_atom_site_type_symbol
_atom_site_label
_atom_site_fract_x
_atom_site_fract_y
_atom_site_fract_z
Si Si1 0.318864 0.538234 0.086314
Si Si2 0.704952 0.305821 0.897921
Si Si3 0.472809 0.103836 0.754709
Si Si4 0.356368 0.234912 0.876020
Si Si5 0.142377 0.434743 0.746615
O O1 0.358410 0.473387 0.221556
O O2 0.634935 0.548357 0.225488
O O3 0.233694 0.612736 0.086753
O O4 0.106244 0.507541 0.810849
O O5 0.005566 0.267989 0.162724
O O6 0.568815 0.270848 0.661934
O O7 0.456600 0.297259 0.844796
O O8 0.408611 0.165440 0.817187
O O9 0.827416 0.096963 0.981767
O O10 0.305039 0.388320 0.984256
#
# Coordination Sequence:
#
# PCOD9246338 Si02
#       5
#     4   4   4   4   4
#     4   9  23  38  71 100 141 173 232 271 360 399
#     4  12  29  47  72 100 142 187 234 285 349 415
#     4  10  21  40  68  97 136 171 229 276 344 398
#     4  12  29  48  70 102 139 189 231 291 350 409
#     4   9  20  37  68 104 131 180 210 284 336 424
#
# _framework density 24.998684000000001
#
# number of rings (size 3 to 8) (size 9 to 14) (size 15 to 20)
#    1.200    0.400    0.000    3.000    8.400    1.600 
#    0.000    0.000    0.000    0.000    0.000    0.000 
#    0.000    0.000    0.000    0.000    0.000    0.000 
#
# Total GULP energy -111938.480490 kJ/mol
# GULP energy per Si atom -5596.924024 kJ/mol
# Density = 2.494179 g / cm^3
# Si number density = 24.998684 Si / 1000 Ang^3
#
#
#
# Elastic Constant Matrix: (Units=GPa)
#
#
# Indices 1 2 3 4 5 6 
#
# 1 49.3819 0.0457 7.8692 0.0000 -9.0507 0.0000
# 2 0.0457 110.7171 -1.2995 0.0000 -3.1904 0.0000
# 3 7.8692 -1.2995 120.2391 0.0000 -1.6226 0.0000
# 4 0.0000 0.0000 0.0000 17.0843 0.0000 0.4468
# 5 -9.0507 -3.1904 -1.6226 0.0000 31.8496 0.0000
# 6 0.0000 0.0000 0.0000 0.4468 0.0000 50.2302
#
#
#
# Elastic Compliance Matrix: (Units=1/GPa)
#
#
# Indices 1 2 3 4 5 6 
#
# 1 0.021576 0.000151 -0.001328 0.000000 0.006079 0.000000
# 2 0.000151 0.009061 0.000101 0.000000 0.000956 0.000000
# 3 -0.001328 0.000101 0.008406 0.000000 0.000061 0.000000
# 4 0.000000 0.000000 0.000000 0.058547 0.000000 -0.000521
# 5 0.006079 0.000956 0.000061 0.000000 0.033224 0.000000
# 6 0.000000 0.000000 0.000000 -0.000521 0.000000 0.019913
#
#
# Mechanical properties :
#
#
# Convention : Reuss Voigt Hill
#
# Bulk Modulus (GPa) = 27.10854 32.61874 29.86364
# Shear Modulus (GPa) = 30.27082 38.08101 34.17591
#
# Velocity S-wave (km/s) = 3.48357 3.90721 3.70145
# Velocity P-wave (km/s) = 5.20076 5.78200 5.49906
#
# Compressibility (1/GPa) = 0.03688874
#
# Stress axis : x y z
#
# Youngs Moduli (GPa) = 46.34786 110.36686 118.96813
#
# Poissons Ratio (x) = -0.01663 0.15804
# Poissons Ratio (y) = -0.00698 -0.01201
# Poissons Ratio (z) = 0.06157 -0.01114
#
# Static dielectric constant tensor:
#      x y z
#    x 1.924350 0.000000 0.028100 
#    y 0.000000 2.074410 0.000000 
#    z 0.028100 0.000000 1.921180 
# 
# From -- ./inp_files/24665.got.cif
#   From: 2010.05.17/outbox.cif.g08.bks.cpg/sg14_13_cif.got.tgz:24665.got - 2010.06.03 17:49:19.
