data_PCOD9246518
_publ_section_title
;
Structure prediction by ZEFSAII (Michael W. Deem and Ramdas Pophale) SiO2 
 PCOD9246518
Probable space group: P 21/C
;
_chemical_formula_sum "Si O2"
_cell_formula_units_Z 20
_cell_length_a 11.538636
_cell_length_b 7.742648
_cell_length_c 18.189293
_cell_angle_alpha 90.000000
_cell_angle_beta 32.959508
_cell_angle_gamma 90.000000
_cell_volume 884.088181
_symmetry_space_group_name_H-M "P 21/C"
_symmetry_group_IT_number 14
_symmetry_cell_setting 'monoclinic'
loop_
_space_group_symop_operation_xyz
x,y,z
-x,1/2+y,1/2-z
-x,-y,-z
x,1/2-y,1/2+z
loop_
_atom_site_type_symbol
_atom_site_label
_atom_site_fract_x
_atom_site_fract_y
_atom_site_fract_z
Si Si1 0.683874 0.112221 0.439310
Si Si2 0.298872 0.339664 0.413673
Si Si3 0.389271 0.896329 0.124226
Si Si4 0.662710 0.239443 0.106075
Si Si5 0.972293 0.973254 0.405855
O O1 0.747288 0.246160 0.342539
O O2 0.600647 0.221010 0.554242
O O3 0.500000 0.000000 0.500000
O O4 0.872397 0.004889 0.376884
O O5 0.429688 0.320221 0.420077
O O6 0.462992 0.277636 0.263921
O O7 0.257989 0.543732 0.426892
O O8 0.100291 0.212378 0.525998
O O9 0.222865 0.996096 0.264181
O O10 0.500000 0.000000 0.000000
O O11 0.850284 0.380008 0.017695
#
# Coordination Sequence:
#
# PCOD9246518 Si02
#       5
#     4   4   4   4   4
#     4  10  21  41  64  96 130 169 216 274 319 389
#     4  12  22  45  68  96 133 176 216 272 332 385
#     4  12  24  42  69  95 131 175 219 271 327 396
#     4  10  22  43  68  93 137 171 214 275 324 392
#     4  10  25  41  67  98 133 170 221 271 326 389
#
# _framework density 22.622177000000001
#
# number of rings (size 3 to 8) (size 9 to 14) (size 15 to 20)
#    1.200    0.000    6.000    0.000    2.800    0.800 
#    3.600    1.000    0.000    0.000    0.000    0.000 
#    0.000    0.000    0.000    0.000    0.000    0.000 
#
# Total GULP energy -111679.315679 kJ/mol
# GULP energy per Si atom -5583.965784 kJ/mol
# Density = 2.257069 g / cm^3
# Si number density = 22.622177 Si / 1000 Ang^3
#
#
#
# Elastic Constant Matrix: (Units=GPa)
#
#
# Indices 1 2 3 4 5 6 
#
# 1 74.2626 5.8023 6.8650 0.0000 10.5001 0.0000
# 2 5.8023 149.4383 47.6381 0.0000 0.4168 0.0000
# 3 6.8650 47.6381 127.4220 0.0000 5.4538 0.0000
# 4 0.0000 0.0000 0.0000 39.9286 0.0000 7.8252
# 5 10.5001 0.4168 5.4538 0.0000 31.8651 0.0000
# 6 0.0000 0.0000 0.0000 7.8252 0.0000 29.8920
#
#
#
# Elastic Compliance Matrix: (Units=1/GPa)
#
#
# Indices 1 2 3 4 5 6 
#
# 1 0.014186 -0.000405 -0.000416 0.000000 -0.004598 0.000000
# 2 -0.000405 0.007614 -0.002847 0.000000 0.000521 0.000000
# 3 -0.000416 -0.002847 0.008993 0.000000 -0.001365 0.000000
# 4 0.000000 0.000000 0.000000 0.026399 0.000000 -0.006911
# 5 -0.004598 0.000521 -0.001365 0.000000 0.033124 0.000000
# 6 0.000000 0.000000 0.000000 -0.006911 0.000000 0.035263
#
#
# Mechanical properties :
#
#
# Convention : Reuss Voigt Hill
#
# Bulk Modulus (GPa) = 42.63259 52.41486 47.52372
# Shear Modulus (GPa) = 35.52804 39.72498 37.62651
#
# Velocity S-wave (km/s) = 3.96725 4.19503 4.08273
# Velocity P-wave (km/s) = 6.31441 6.83260 6.57861
#
# Compressibility (1/GPa) = 0.02345623
#
# Stress axis : x y z
#
# Youngs Moduli (GPa) = 70.49220 131.34494 111.19631
#
# Poissons Ratio (x) = 0.05325 0.04625
# Poissons Ratio (y) = 0.02858 0.31656
# Poissons Ratio (z) = 0.02932 0.37392
#
# Static dielectric constant tensor:
#      x y z
#    x 1.918650 0.000000 0.045320 
#    y 0.000000 1.856960 0.000000 
#    z 0.045320 0.000000 1.789510 
# 
# From -- ./inp_files/57217.got.cif
#   From: 2010.05.17/outbox.cif.g08.bks.cpg/sg14_29_cif.got.tgz:57217.got - 2010.06.03 17:49:19.
