data_PCOD9246385
_publ_section_title
;
Structure prediction by ZEFSAII (Michael W. Deem and Ramdas Pophale) SiO2 
 PCOD9246385
Probable space group: P 21/C
;
_chemical_formula_sum "Si O2"
_cell_formula_units_Z 28
_cell_length_a 5.545077
_cell_length_b 18.708802
_cell_length_c 14.602725
_cell_angle_alpha 90.000000
_cell_angle_beta 58.438713
_cell_angle_gamma 90.000000
_cell_volume 1290.827581
_symmetry_space_group_name_H-M "P 21/C"
_symmetry_group_IT_number 14
_symmetry_cell_setting 'monoclinic'
loop_
_space_group_symop_operation_xyz
x,y,z
-x,1/2+y,1/2-z
-x,-y,-z
x,1/2-y,1/2+z
loop_
_atom_site_type_symbol
_atom_site_label
_atom_site_fract_x
_atom_site_fract_y
_atom_site_fract_z
Si Si1 0.522703 0.750809 0.205131
Si Si2 0.053779 0.281927 0.156528
Si Si3 0.456651 0.691164 0.424285
Si Si4 0.298679 0.537874 0.965285
Si Si5 0.942706 0.184723 0.478305
Si Si6 0.721722 0.605514 0.746744
Si Si7 0.789517 0.458691 0.471533
O O1 0.500765 0.715007 0.310347
O O2 0.621839 0.833996 0.193058
O O3 0.737387 0.700810 0.110123
O O4 0.204845 0.753250 0.232181
O O5 0.245443 0.214343 0.090592
O O6 0.209614 0.343147 0.180972
O O7 0.932931 0.318664 0.090315
O O8 0.233453 0.745594 0.512048
O O9 0.337457 0.612998 0.458192
O O10 0.483257 0.552931 0.835935
O O11 0.500000 0.500000 0.000000
O O12 0.200006 0.613421 0.028112
O O13 0.000000 0.500000 0.000000
O O14 0.999045 0.565352 0.653153
O O15 0.500000 0.500000 0.500000
O O16 0.000000 0.500000 0.500000
#
# Coordination Sequence:
#
# PCOD9246385 Si02
#       7
#     4   4   4   4   4   4   4
#     4  10  22  39  75 100 142 182 252 302 359 424
#     4  10  21  40  73 105 136 188 249 303 355 434
#     4  10  23  43  68 103 138 184 253 291 359 434
#     4  12  27  46  71 106 150 189 239 304 366 447
#     4  11  22  41  72 105 136 186 251 300 354 435
#     4  11  24  47  70 101 143 203 236 298 390 430
#     4  12  31  48  75 107 152 195 241 306 369 450
#
# _framework density 21.691510000000001
#
# number of rings (size 3 to 8) (size 9 to 14) (size 15 to 20)
#    0.000    1.143    5.714    0.857    8.000    2.286 
#    0.000    0.000    0.000    0.000    0.000    0.000 
#    0.000    0.000    0.000    0.000    0.000    0.000 
#
# Total GULP energy -156226.933742 kJ/mol
# GULP energy per Si atom -5579.533348 kJ/mol
# Density = 2.164214 g / cm^3
# Si number density = 21.691510 Si / 1000 Ang^3
#
#
#
# Elastic Constant Matrix: (Units=GPa)
#
#
# Indices 1 2 3 4 5 6 
#
# 1 124.3186 69.1933 27.9982 0.0000 -30.0452 0.0000
# 2 69.1933 145.3723 35.8681 0.0000 -18.0299 0.0000
# 3 27.9982 35.8681 96.1011 0.0000 -30.1335 0.0000
# 4 0.0000 0.0000 0.0000 35.0415 0.0000 -19.0326
# 5 -30.0452 -18.0299 -30.1335 0.0000 42.7084 0.0000
# 6 0.0000 0.0000 0.0000 -19.0326 0.0000 45.1416
#
#
#
# Elastic Compliance Matrix: (Units=1/GPa)
#
#
# Indices 1 2 3 4 5 6 
#
# 1 0.012516 -0.005214 0.000475 0.000000 0.006939 0.000000
# 2 -0.005214 0.009829 -0.002566 0.000000 -0.001329 0.000000
# 3 0.000475 -0.002566 0.014112 0.000000 0.009208 0.000000
# 4 0.000000 0.000000 0.000000 0.037014 0.000000 0.015606
# 5 0.006939 -0.001329 0.009208 0.000000 0.034232 0.000000
# 6 0.000000 0.000000 0.000000 0.015606 0.000000 0.028732
#
#
# Mechanical properties :
#
#
# Convention : Reuss Voigt Hill
#
# Bulk Modulus (GPa) = 45.77130 70.21234 57.99182
# Shear Modulus (GPa) = 31.58025 40.09378 35.83702
#
# Velocity S-wave (km/s) = 3.81974 4.30392 4.06904
# Velocity P-wave (km/s) = 6.37187 7.55891 6.99063
#
# Compressibility (1/GPa) = 0.02184775
#
# Stress axis : x y z
#
# Youngs Moduli (GPa) = 79.89941 101.74126 70.85999
#
# Poissons Ratio (x) = 0.53046 -0.03369
# Poissons Ratio (y) = 0.41658 0.18184
# Poissons Ratio (z) = -0.03799 0.26109
#
# Static dielectric constant tensor:
#      x y z
#    x 1.935350 0.000000 0.010030 
#    y 0.000000 1.789330 0.000000 
#    z 0.010030 0.000000 1.881320 
# 
# From -- ./inp_files/37622.got.cif
#   From: 2010.05.17/outbox.cif.g08.bks.cpg/sg14_19_cif.got.tgz:37622.got - 2010.06.03 17:49:19.
