data_PCOD9246734
_publ_section_title
;
Structure prediction by ZEFSAII (Michael W. Deem and Ramdas Pophale) SiO2 
 PCOD9246734
Probable space group: P 21/C
;
_chemical_formula_sum "Si O2"
_cell_formula_units_Z 20
_cell_length_a 12.831648
_cell_length_b 13.289374
_cell_length_c 10.180088
_cell_angle_alpha 90.000000
_cell_angle_beta 34.311037
_cell_angle_gamma 90.000000
_cell_volume 978.532160
_symmetry_space_group_name_H-M "P 21/C"
_symmetry_group_IT_number 14
_symmetry_cell_setting 'monoclinic'
loop_
_space_group_symop_operation_xyz
x,y,z
-x,1/2+y,1/2-z
-x,-y,-z
x,1/2-y,1/2+z
loop_
_atom_site_type_symbol
_atom_site_label
_atom_site_fract_x
_atom_site_fract_y
_atom_site_fract_z
Si Si1 0.346034 0.355571 0.590521
Si Si2 0.817131 0.490616 0.600051
Si Si3 0.464775 0.130539 0.486119
Si Si4 0.982883 0.548157 0.163158
Si Si5 0.630474 0.987385 0.679198
O O1 0.439939 0.247983 0.491963
O O2 0.144858 0.355397 0.731722
O O3 0.337460 0.399582 0.746898
O O4 0.463504 0.441263 0.394767
O O5 0.676966 0.401880 0.789767
O O6 0.882367 0.482316 0.380941
O O7 0.000000 0.500000 0.500000
O O8 0.684660 0.588978 0.753444
O O9 0.406880 0.067942 0.417258
O O10 0.000000 0.500000 0.000000
O O11 0.188503 0.557655 0.004174
#
# Coordination Sequence:
#
# PCOD9246734 Si02
#       5
#     4   4   4   4   4
#     4  10  23  40  65  93 129 171 218 262 319 392
#     4  11  23  42  64  94 134 164 211 276 321 375
#     4  11  24  39  68  96 127 170 218 268 325 380
#     4  10  21  42  65  88 127 170 208 260 323 380
#     4  10  21  42  62  91 132 172 212 269 323 382
#
# _framework density 20.438777000000002
#
# number of rings (size 3 to 8) (size 9 to 14) (size 15 to 20)
#    0.000    1.600    4.000    0.000    2.800    1.600 
#    0.000    0.000    0.000    0.000    0.000    0.000 
#    0.000    0.000    0.000    0.000    0.000    0.000 
#
# Total GULP energy -111512.092295 kJ/mol
# GULP energy per Si atom -5575.604615 kJ/mol
# Density = 2.039226 g / cm^3
# Si number density = 20.438777 Si / 1000 Ang^3
#
#
#
# Elastic Constant Matrix: (Units=GPa)
#
#
# Indices 1 2 3 4 5 6 
#
# 1 117.8394 41.6225 59.5113 0.0000 -17.7300 0.0000
# 2 41.6225 79.9662 2.6242 0.0000 -3.6994 0.0000
# 3 59.5113 2.6242 96.3182 0.0000 0.3826 0.0000
# 4 0.0000 0.0000 0.0000 15.5625 0.0000 -5.9418
# 5 -17.7300 -3.6994 0.3826 0.0000 52.0643 0.0000
# 6 0.0000 0.0000 0.0000 -5.9418 0.0000 17.5783
#
#
#
# Elastic Compliance Matrix: (Units=1/GPa)
#
#
# Indices 1 2 3 4 5 6 
#
# 1 0.017844 -0.008677 -0.010811 0.000000 0.005540 0.000000
# 2 -0.008677 0.016777 0.004911 0.000000 -0.001799 0.000000
# 3 -0.010811 0.004911 0.016942 0.000000 -0.003457 0.000000
# 4 0.000000 0.000000 0.000000 0.073779 0.000000 0.024939
# 5 0.005540 -0.001799 -0.003457 0.000000 0.020991 0.000000
# 6 0.000000 0.000000 0.000000 0.024939 0.000000 0.065318
#
#
# Mechanical properties :
#
#
# Convention : Reuss Voigt Hill
#
# Bulk Modulus (GPa) = 44.62278 55.73776 50.18027
# Shear Modulus (GPa) = 20.13907 29.73207 24.93557
#
# Velocity S-wave (km/s) = 3.14241 3.81818 3.49666
# Velocity P-wave (km/s) = 5.91998 6.83870 6.39585
#
# Compressibility (1/GPa) = 0.02241008
#
# Stress axis : x y z
#
# Youngs Moduli (GPa) = 56.04135 59.60479 59.02594
#
# Poissons Ratio (x) = 0.51718 0.63811
# Poissons Ratio (y) = 0.48626 -0.28988
# Poissons Ratio (z) = 0.60585 -0.29272
#
# Static dielectric constant tensor:
#      x y z
#    x 1.779860 0.000000 0.013030 
#    y 0.000000 1.674720 0.000000 
#    z 0.013030 0.000000 1.794980 
# 
# From -- ./inp_files/32107.got.cif
#   From: 2010.05.17/outbox.cif.g08.bks.cpg/sg14_17_cif.got.tgz:32107.got - 2010.06.03 17:49:19.
