data_PCOD9246087
_publ_section_title
;
Structure prediction by ZEFSAII (Michael W. Deem and Ramdas Pophale) SiO2 
 PCOD9246087
Probable space group: P 21/C
;
_chemical_formula_sum "Si O2"
_cell_formula_units_Z 28
_cell_length_a 8.332223
_cell_length_b 17.184474
_cell_length_c 9.610647
_cell_angle_alpha 90.000000
_cell_angle_beta 86.586710
_cell_angle_gamma 90.000000
_cell_volume 1373.658098
_symmetry_space_group_name_H-M "P 21/C"
_symmetry_group_IT_number 14
_symmetry_cell_setting 'monoclinic'
loop_
_space_group_symop_operation_xyz
x,y,z
-x,1/2+y,1/2-z
-x,-y,-z
x,1/2-y,1/2+z
loop_
_atom_site_type_symbol
_atom_site_label
_atom_site_fract_x
_atom_site_fract_y
_atom_site_fract_z
Si Si1 0.567579 0.928952 0.676656
Si Si2 0.869634 0.176510 0.447742
Si Si3 0.267285 0.372582 0.246367
Si Si4 0.671479 0.868477 0.948080
Si Si5 0.950497 0.766409 0.820036
Si Si6 0.766343 0.490269 0.937162
Si Si7 0.496507 0.202647 0.517983
O O1 0.594333 0.925058 0.838616
O O2 0.394149 0.959899 0.636368
O O3 0.575456 0.841119 0.613862
O O4 0.700884 0.978384 0.587647
O O5 0.881642 0.082923 0.448779
O O6 0.687148 0.197057 0.498159
O O7 0.983128 0.219884 0.550918
O O8 0.912158 0.204966 0.291013
O O9 0.306141 0.400590 0.398550
O O10 0.160485 0.295005 0.256897
O O11 0.178427 0.438044 0.159996
O O12 0.425406 0.347267 0.150500
O O13 0.840381 0.837461 0.877311
O O14 0.564533 0.790220 0.968238
#
# Coordination Sequence:
#
# PCOD9246087 Si02
#       7
#     4   4   4   4   4   4   4
#     4   9  19  38  62  91 122 158 212 245 301 364
#     4  11  24  41  63  90 125 156 209 255 306 354
#     4  10  21  40  62  90 124 162 209 244 308 370
#     4  11  21  37  63  92 121 163 204 257 298 356
#     4  11  24  41  60  93 126 161 203 255 303 367
#     4   9  21  41  62  87 120 167 200 249 302 372
#     4   9  20  36  64  89 120 163 210 255 300 358
#
# _framework density 20.38353
#
# number of rings (size 3 to 8) (size 9 to 14) (size 15 to 20)
#    0.000    2.000    1.429    2.571   10.000    1.143 
#    0.000    2.143    0.000    0.000    0.000    0.000 
#    0.000    0.000    0.000    0.000    0.000    0.000 
#
# Total GULP energy -156461.221588 kJ/mol
# GULP energy per Si atom -5587.900771 kJ/mol
# Density = 2.033714 g / cm^3
# Si number density = 20.383530 Si / 1000 Ang^3
#
#
#
# Elastic Constant Matrix: (Units=GPa)
#
#
# Indices 1 2 3 4 5 6 
#
# 1 54.7427 7.5463 18.3133 0.0000 -8.2509 0.0000
# 2 7.5463 49.1931 1.1848 0.0000 -6.3601 0.0000
# 3 18.3133 1.1848 99.2603 0.0000 2.3432 0.0000
# 4 0.0000 0.0000 0.0000 18.9270 0.0000 0.4452
# 5 -8.2509 -6.3601 2.3432 0.0000 20.6883 0.0000
# 6 0.0000 0.0000 0.0000 0.4452 0.0000 14.8163
#
#
#
# Elastic Compliance Matrix: (Units=1/GPa)
#
#
# Indices 1 2 3 4 5 6 
#
# 1 0.021162 -0.002080 -0.004075 0.000000 0.008262 0.000000
# 2 -0.002080 0.021390 -0.000007 0.000000 0.005747 0.000000
# 3 -0.004075 -0.000007 0.010894 0.000000 -0.002861 0.000000
# 4 0.000000 0.000000 0.000000 0.052872 0.000000 -0.001589
# 5 0.008262 0.005747 -0.002861 0.000000 0.053722 0.000000
# 6 0.000000 0.000000 0.000000 -0.001589 0.000000 0.067541
#
#
# Mechanical properties :
#
#
# Convention : Reuss Voigt Hill
#
# Bulk Modulus (GPa) = 24.31738 28.58721 26.45230
# Shear Modulus (GPa) = 19.71508 22.62979 21.17243
#
# Velocity S-wave (km/s) = 3.11337 3.33558 3.22639
# Velocity P-wave (km/s) = 4.98798 5.37493 5.18506
#
# Compressibility (1/GPa) = 0.04112284
#
# Stress axis : x y z
#
# Youngs Moduli (GPa) = 47.25370 46.75011 91.79446
#
# Poissons Ratio (x) = 0.09724 0.37403
# Poissons Ratio (y) = 0.09829 0.00066
# Poissons Ratio (z) = 0.19254 0.00034
#
# Static dielectric constant tensor:
#      x y z
#    x 1.724440 0.000000 0.013080 
#    y 0.000000 1.743250 0.000000 
#    z 0.013080 0.000000 1.710830 
# 
# From -- ./inp_files/9937.got.cif
#   From: 2010.05.17/outbox.cif.g08.bks.cpg/sg14_5_cif.got.tgz:9937.got - 2010.06.03 17:49:19.
