data_PCOD9246181
_publ_section_title
;
Structure prediction by ZEFSAII (Michael W. Deem and Ramdas Pophale) SiO2 
 PCOD9246181
Probable space group: P 21/C
;
_chemical_formula_sum "Si O2"
_cell_formula_units_Z 32
_cell_length_a 8.208646
_cell_length_b 25.587408
_cell_length_c 14.899045
_cell_angle_alpha 90.000000
_cell_angle_beta 151.735593
_cell_angle_gamma 90.000000
_cell_volume 1481.883216
_symmetry_space_group_name_H-M "P 21/C"
_symmetry_group_IT_number 14
_symmetry_cell_setting 'monoclinic'
loop_
_space_group_symop_operation_xyz
x,y,z
-x,1/2+y,1/2-z
-x,-y,-z
x,1/2-y,1/2+z
loop_
_atom_site_type_symbol
_atom_site_label
_atom_site_fract_x
_atom_site_fract_y
_atom_site_fract_z
Si Si1 0.773709 0.050173 0.418376
Si Si2 0.819962 0.393056 0.274303
Si Si3 0.772583 0.508057 0.214303
Si Si4 0.989392 0.827803 0.968985
Si Si5 0.967943 0.630945 0.088029
Si Si6 0.946312 0.633330 0.801051
Si Si7 0.150939 0.887516 0.874286
Si Si8 0.229934 0.213774 0.645573
O O1 0.426951 0.028066 0.293969
O O2 0.778361 0.089781 0.336701
O O3 0.932039 0.086933 0.573952
O O4 0.000000 0.000000 0.500000
O O5 0.935754 0.452326 0.315401
O O6 0.032366 0.362821 0.452818
O O7 0.844922 0.365864 0.189669
O O8 0.417625 0.393495 0.106990
O O9 0.040951 0.552158 0.316536
O O10 0.500000 0.500000 0.000000
O O11 0.380887 0.806527 0.160230
O O12 0.948717 0.861422 0.859301
O O13 0.767919 0.775654 0.859913
O O14 0.055169 0.637882 0.233516
O O15 0.947393 0.685299 0.024964
O O16 0.552273 0.620353 0.586362
O O17 0.956073 0.688170 0.858488
#
# Coordination Sequence:
#
# PCOD9246181 Si02
#       8
#     4   4   4   4   4   4   4   4
#     4  11  20  38  64  87 123 169 208 243 308 366
#     4  11  22  42  63  93 128 164 210 250 308 373
#     4  12  22  40  65  92 126 174 204 247 309 375
#     4  10  24  43  64  90 124 161 207 265 306 371
#     4  10  21  40  64  93 123 163 209 254 303 378
#     4  10  23  40  62  93 126 158 207 263 302 373
#     4  11  24  41  61  96 130 160 211 256 308 363
#     4   9  22  43  65  87 122 160 207 258 319 360
#
# _framework density 21.594144
#
# number of rings (size 3 to 8) (size 9 to 14) (size 15 to 20)
#    0.000    1.500    3.750    0.750    0.000    7.000 
#    0.000    5.000    0.000    0.000    0.000    0.000 
#    0.000    0.000    0.000    0.000    0.000    0.000 
#
# Total GULP energy -178977.899974 kJ/mol
# GULP energy per Si atom -5593.059374 kJ/mol
# Density = 2.154499 g / cm^3
# Si number density = 21.594144 Si / 1000 Ang^3
#
#
#
# Elastic Constant Matrix: (Units=GPa)
#
#
# Indices 1 2 3 4 5 6 
#
# 1 101.4686 25.0021 27.3523 0.0000 -26.7713 0.0000
# 2 25.0021 113.5530 46.3982 0.0000 -21.8747 0.0000
# 3 27.3523 46.3982 56.8073 0.0000 -25.9623 0.0000
# 4 0.0000 0.0000 0.0000 29.0146 0.0000 3.9567
# 5 -26.7713 -21.8747 -25.9623 0.0000 38.2717 0.0000
# 6 0.0000 0.0000 0.0000 3.9567 0.0000 22.2532
#
#
#
# Elastic Compliance Matrix: (Units=1/GPa)
#
#
# Indices 1 2 3 4 5 6 
#
# 1 0.012420 -0.000378 -0.002608 0.000000 0.006702 0.000000
# 2 -0.000378 0.013232 -0.010566 0.000000 0.000131 0.000000
# 3 -0.002608 -0.010566 0.034632 0.000000 0.015630 0.000000
# 4 0.000000 0.000000 0.000000 0.035322 0.000000 -0.006280
# 5 0.006702 0.000131 0.015630 0.000000 0.041495 0.000000
# 6 0.000000 0.000000 0.000000 -0.006280 0.000000 0.046054
#
#
# Mechanical properties :
#
#
# Convention : Reuss Voigt Hill
#
# Bulk Modulus (GPa) = 30.13802 52.14823 41.14313
# Shear Modulus (GPa) = 22.59186 29.44632 26.01909
#
# Velocity S-wave (km/s) = 3.23802 3.69674 3.47495
# Velocity P-wave (km/s) = 5.28834 6.51328 5.93251
#
# Compressibility (1/GPa) = 0.03318068
#
# Stress axis : x y z
#
# Youngs Moduli (GPa) = 80.51645 75.57395 28.87496
#
# Poissons Ratio (x) = 0.02854 0.07532
# Poissons Ratio (y) = 0.03041 0.30508
# Poissons Ratio (z) = 0.21002 0.79848
#
# Static dielectric constant tensor:
#      x y z
#    x 1.807980 0.000000 0.024640 
#    y 0.000000 1.765580 0.000000 
#    z 0.024640 0.000000 1.802980 
# 
# From -- ./inp_files/42240.got.cif
#   From: 2010.05.17/outbox.cif.g08.bks.cpg/sg14_22_cif.got.tgz:42240.got - 2010.06.03 17:49:19.
