data_PCOD9246728
_publ_section_title
;
Structure prediction by ZEFSAII (Michael W. Deem and Ramdas Pophale) SiO2 
 PCOD9246728
Probable space group: P 21/C
;
_chemical_formula_sum "Si O2"
_cell_formula_units_Z 20
_cell_length_a 6.188605
_cell_length_b 11.529608
_cell_length_c 21.444195
_cell_angle_alpha 90.000000
_cell_angle_beta 37.445220
_cell_angle_gamma 90.000000
_cell_volume 930.298912
_symmetry_space_group_name_H-M "P 21/C"
_symmetry_group_IT_number 14
_symmetry_cell_setting 'monoclinic'
loop_
_space_group_symop_operation_xyz
x,y,z
-x,1/2+y,1/2-z
-x,-y,-z
x,1/2-y,1/2+z
loop_
_atom_site_type_symbol
_atom_site_label
_atom_site_fract_x
_atom_site_fract_y
_atom_site_fract_z
Si Si1 0.504613 0.864405 0.984586
Si Si2 0.464869 0.706271 0.111387
Si Si3 0.708650 0.220255 0.579198
Si Si4 0.237584 0.771870 0.298574
Si Si5 0.250198 0.472662 0.115814
O O1 0.295709 0.824155 0.970312
O O2 0.899022 0.814461 0.880851
O O3 0.377586 0.796339 0.075928
O O4 0.500000 0.000000 0.000000
O O5 0.426397 0.750289 0.190274
O O6 0.222240 0.593145 0.157961
O O7 0.884217 0.678454 0.006976
O O8 0.569032 0.249078 0.680263
O O9 0.463963 0.119506 0.608236
O O10 0.097120 0.904722 0.327139
O O11 0.500000 0.500000 0.000000
#
# Coordination Sequence:
#
# PCOD9246728 Si02
#       5
#     4   4   4   4   4
#     4  10  23  43  62  83 129 165 193 247 310 359
#     4  11  23  39  64  93 119 162 205 248 307 360
#     4  10  21  42  62  87 125 155 206 251 302 360
#     4  10  24  39  59  97 118 157 210 248 302 361
#     4  11  20  42  65  86 123 161 201 256 309 361
#
# _framework density 21.498469
#
# number of rings (size 3 to 8) (size 9 to 14) (size 15 to 20)
#    0.000    1.600    6.000    0.600    2.800    6.400 
#    3.600    0.000    0.000    0.000    0.000    0.000 
#    0.000    0.000    0.000    0.000    0.000    0.000 
#
# Total GULP energy -111675.409338 kJ/mol
# GULP energy per Si atom -5583.770467 kJ/mol
# Density = 2.144954 g / cm^3
# Si number density = 21.498469 Si / 1000 Ang^3
#
#
#
# Elastic Constant Matrix: (Units=GPa)
#
#
# Indices 1 2 3 4 5 6 
#
# 1 91.0524 43.1378 31.5841 0.0000 43.6386 0.0000
# 2 43.1378 144.5963 22.2636 0.0000 26.1183 0.0000
# 3 31.5841 22.2636 113.7379 0.0000 51.0263 0.0000
# 4 0.0000 0.0000 0.0000 23.3847 0.0000 5.8640
# 5 43.6386 26.1183 51.0263 0.0000 49.4631 0.0000
# 6 0.0000 0.0000 0.0000 5.8640 0.0000 24.5293
#
#
#
# Elastic Compliance Matrix: (Units=1/GPa)
#
#
# Indices 1 2 3 4 5 6 
#
# 1 0.021362 -0.003122 0.004458 0.000000 -0.021796 0.000000
# 2 -0.003122 0.008122 -0.000064 0.000000 -0.001468 0.000000
# 3 0.004458 -0.000064 0.017342 0.000000 -0.021789 0.000000
# 4 0.000000 0.000000 0.000000 0.045490 0.000000 -0.010875
# 5 -0.021796 -0.001468 -0.021789 0.000000 0.062699 0.000000
# 6 0.000000 0.000000 0.000000 -0.010875 0.000000 0.043367
#
#
# Mechanical properties :
#
#
# Convention : Reuss Voigt Hill
#
# Bulk Modulus (GPa) = 20.25587 60.37307 40.31447
# Shear Modulus (GPa) = 23.55188 36.30216 29.92702
#
# Velocity S-wave (km/s) = 3.31345 4.11371 3.73507
# Velocity P-wave (km/s) = 4.90724 7.12088 6.11506
#
# Compressibility (1/GPa) = 0.04936841
#
# Stress axis : x y z
#
# Youngs Moduli (GPa) = 46.81215 123.11733 57.66332
#
# Poissons Ratio (x) = 0.38441 -0.25704
# Poissons Ratio (y) = 0.14616 0.00371
# Poissons Ratio (z) = -0.20867 0.00792
#
# Static dielectric constant tensor:
#      x y z
#    x 1.848600 0.000000 0.010040 
#    y 0.000000 1.846810 0.000000 
#    z 0.010040 0.000000 1.805710 
# 
# From -- ./inp_files/36813.got.cif
#   From: 2010.05.17/outbox.cif.g08.bks.cpg/sg14_19_cif.got.tgz:36813.got - 2010.06.03 17:49:19.
