data_PCOD9246448
_publ_section_title
;
Structure prediction by ZEFSAII (Michael W. Deem and Ramdas Pophale) SiO2 
 PCOD9246448
Probable space group: P 21/C
;
_chemical_formula_sum "Si O2"
_cell_formula_units_Z 24
_cell_length_a 13.020383
_cell_length_b 5.733247
_cell_length_c 18.038736
_cell_angle_alpha 90.000000
_cell_angle_beta 136.000816
_cell_angle_gamma 90.000000
_cell_volume 935.395729
_symmetry_space_group_name_H-M "P 21/C"
_symmetry_group_IT_number 14
_symmetry_cell_setting 'monoclinic'
loop_
_space_group_symop_operation_xyz
x,y,z
-x,1/2+y,1/2-z
-x,-y,-z
x,1/2-y,1/2+z
loop_
_atom_site_type_symbol
_atom_site_label
_atom_site_fract_x
_atom_site_fract_y
_atom_site_fract_z
Si Si1 0.043683 0.265928 0.806514
Si Si2 0.892406 0.224760 0.010679
Si Si3 0.679384 0.507720 0.996885
Si Si4 0.561341 0.706294 0.665100
Si Si5 0.846355 0.040172 0.329027
Si Si6 0.329999 0.381080 0.629145
O O1 0.221636 0.313795 0.903916
O O2 0.014021 0.000866 0.765824
O O3 0.946934 0.295448 0.830985
O O4 0.836159 0.352988 0.906126
O O5 0.837543 0.963557 0.971713
O O6 0.802891 0.323950 0.034490
O O7 0.057863 0.303593 0.111442
O O8 0.531710 0.363983 0.940604
O O9 0.640843 0.648611 0.901973
O O10 0.689585 0.523905 0.710856
O O11 0.438195 0.567315 0.647978
O O12 0.639272 0.861849 0.768506
#
# Coordination Sequence:
#
# PCOD9246448 Si02
#       6
#     4   4   4   4   4   4
#     4  11  28  51  70  90 127 187 243 283 326 382
#     4   9  20  36  59  99 134 166 211 270 342 402
#     4  10  22  40  64  95 136 174 209 267 341 410
#     4  11  20  34  59 102 135 167 204 263 348 418
#     4  10  21  41  62  97 130 170 228 278 334 395
#     4  11  19  34  61  97 145 168 195 256 350 426
#
# _framework density 25.657592000000001
#
# number of rings (size 3 to 8) (size 9 to 14) (size 15 to 20)
#    0.000    1.667    3.333    1.000    7.000    2.000 
#    0.000    1.667    0.000    0.000    0.000    0.000 
#    0.000    0.000    0.000    0.000    0.000    0.000 
#
# Total GULP energy -134033.896411 kJ/mol
# GULP energy per Si atom -5584.745684 kJ/mol
# Density = 2.559919 g / cm^3
# Si number density = 25.657592 Si / 1000 Ang^3
#
#
#
# Elastic Constant Matrix: (Units=GPa)
#
#
# Indices 1 2 3 4 5 6 
#
# 1 51.4561 22.4193 27.7204 0.0000 15.3944 0.0000
# 2 22.4193 83.2476 37.4512 0.0000 4.6305 0.0000
# 3 27.7204 37.4512 101.0810 0.0000 26.7974 0.0000
# 4 0.0000 0.0000 0.0000 55.9540 0.0000 -9.3680
# 5 15.3944 4.6305 26.7974 0.0000 33.2517 0.0000
# 6 0.0000 0.0000 0.0000 -9.3680 0.0000 24.9646
#
#
#
# Elastic Compliance Matrix: (Units=1/GPa)
#
#
# Indices 1 2 3 4 5 6 
#
# 1 0.025908 -0.005227 -0.002774 0.000000 -0.009031 0.000000
# 2 -0.005227 0.015696 -0.005652 0.000000 0.004789 0.000000
# 3 -0.002774 -0.005652 0.015513 0.000000 -0.010431 0.000000
# 4 0.000000 0.000000 0.000000 0.019070 0.000000 0.007156
# 5 -0.009031 0.004789 -0.010431 0.000000 0.041994 0.000000
# 6 0.000000 0.000000 0.000000 0.007156 0.000000 0.042742
#
#
# Mechanical properties :
#
#
# Convention : Reuss Voigt Hill
#
# Bulk Modulus (GPa) = 33.54401 45.66292 39.60347
# Shear Modulus (GPa) = 25.23149 32.71363 28.97256
#
# Velocity S-wave (km/s) = 3.13931 3.57460 3.36400
# Velocity P-wave (km/s) = 5.12274 5.90531 5.52789
#
# Compressibility (1/GPa) = 0.02981158
#
# Stress axis : x y z
#
# Youngs Moduli (GPa) = 38.59865 63.70976 64.46179
#
# Poissons Ratio (x) = 0.33300 0.17883
# Poissons Ratio (y) = 0.20175 0.36432
# Poissons Ratio (z) = 0.10708 0.36007
#
# Static dielectric constant tensor:
#      x y z
#    x 2.054500 0.000000 -0.043760 
#    y 0.000000 2.034690 0.000000 
#    z -0.043760 0.000000 2.098700 
# 
# From -- ./inp_files/67908.got.cif
#   From: 2010.05.17/outbox.cif.g08.bks.cpg/sg14_34_cif.got.tgz:67908.got - 2010.06.03 17:49:19.
