data_PCOD9246715
_publ_section_title
;
Structure prediction by ZEFSAII (Michael W. Deem and Ramdas Pophale) SiO2 
 PCOD9246715
Probable space group: P 21/C
;
_chemical_formula_sum "Si O2"
_cell_formula_units_Z 24
_cell_length_a 8.760038
_cell_length_b 14.737062
_cell_length_c 14.276529
_cell_angle_alpha 90.000000
_cell_angle_beta 136.912323
_cell_angle_gamma 90.000000
_cell_volume 1259.025267
_symmetry_space_group_name_H-M "P 21/C"
_symmetry_group_IT_number 14
_symmetry_cell_setting 'monoclinic'
loop_
_space_group_symop_operation_xyz
x,y,z
-x,1/2+y,1/2-z
-x,-y,-z
x,1/2-y,1/2+z
loop_
_atom_site_type_symbol
_atom_site_label
_atom_site_fract_x
_atom_site_fract_y
_atom_site_fract_z
Si Si1 0.165113 0.917363 0.589989
Si Si2 0.912647 0.139014 0.933205
Si Si3 0.014589 0.199763 0.337442
Si Si4 0.314765 0.459705 0.709175
Si Si5 0.819469 0.268916 0.055971
Si Si6 0.582848 0.604055 0.054456
O O1 0.142641 0.875029 0.683549
O O2 0.424166 0.942910 0.692030
O O3 0.090701 0.844779 0.476760
O O4 0.000000 0.000000 0.500000
O O5 0.980930 0.214296 0.889153
O O6 0.743194 0.065588 0.815037
O O7 0.799329 0.184464 0.974560
O O8 0.142112 0.087188 0.061459
O O9 0.955548 0.234328 0.206946
O O10 0.257205 0.151793 0.448767
O O11 0.267295 0.412609 0.786713
O O12 0.606460 0.322665 0.003497
O O13 0.500000 0.500000 0.000000
#
# Coordination Sequence:
#
# PCOD9246715 Si02
#       6
#     4   4   4   4   4   4
#     4  10  23  41  62  89 122 164 205 250 308 371
#     4  10  22  40  62  90 121 165 198 257 306 361
#     4  11  22  38  64  89 121 156 210 249 306 364
#     4  10  21  42  60  85 129 157 203 250 311 363
#     4  10  22  40  59  92 119 155 210 250 302 360
#     4  11  22  39  64  90 124 161 201 253 308 365
#
# _framework density 19.062366000000001
#
# number of rings (size 3 to 8) (size 9 to 14) (size 15 to 20)
#    0.000    1.667    1.667    3.000    2.333    1.333 
#    9.000    0.833    0.000    0.000    0.000    0.000 
#    0.000    0.000    0.000    0.000    0.000    0.000 
#
# Total GULP energy -133611.421542 kJ/mol
# GULP energy per Si atom -5567.142564 kJ/mol
# Density = 1.901898 g / cm^3
# Si number density = 19.062366 Si / 1000 Ang^3
#
#
#
# Elastic Constant Matrix: (Units=GPa)
#
#
# Indices 1 2 3 4 5 6 
#
# 1 91.7895 55.2168 23.9702 0.0000 2.3814 0.0000
# 2 55.2168 126.3646 42.4721 0.0000 15.6701 0.0000
# 3 23.9702 42.4721 65.5254 0.0000 -1.2918 0.0000
# 4 0.0000 0.0000 0.0000 34.2948 0.0000 3.3100
# 5 2.3814 15.6701 -1.2918 0.0000 20.9542 0.0000
# 6 0.0000 0.0000 0.0000 3.3100 0.0000 22.4461
#
#
#
# Elastic Compliance Matrix: (Units=1/GPa)
#
#
# Indices 1 2 3 4 5 6 
#
# 1 0.015081 -0.006578 -0.001192 0.000000 0.003132 0.000000
# 2 -0.006578 0.014522 -0.007215 0.000000 -0.010557 0.000000
# 3 -0.001192 -0.007215 0.020508 0.000000 0.006795 0.000000
# 4 0.000000 0.000000 0.000000 0.029580 0.000000 -0.004362
# 5 0.003132 -0.010557 0.006795 0.000000 0.055681 0.000000
# 6 0.000000 0.000000 0.000000 -0.004362 0.000000 0.045194
#
#
# Mechanical properties :
#
#
# Convention : Reuss Voigt Hill
#
# Bulk Modulus (GPa) = 49.64614 58.55532 54.10073
# Shear Modulus (GPa) = 23.01509 26.34038 24.67774
#
# Velocity S-wave (km/s) = 3.47847 3.72129 3.60193
# Velocity P-wave (km/s) = 6.49874 7.01772 6.76321
#
# Compressibility (1/GPa) = 0.02014255
#
# Stress axis : x y z
#
# Youngs Moduli (GPa) = 66.30684 68.86132 48.76258
#
# Poissons Ratio (x) = 0.45296 0.05811
# Poissons Ratio (y) = 0.43616 0.35181
# Poissons Ratio (z) = 0.07901 0.49681
#
# Static dielectric constant tensor:
#      x y z
#    x 1.692090 0.000000 -0.024310 
#    y 0.000000 1.677310 0.000000 
#    z -0.024310 0.000000 1.669490 
# 
# From -- ./inp_files/35360.got.cif
#   From: 2010.05.17/outbox.cif.g08.bks.cpg/sg14_18_cif.got.tgz:35360.got - 2010.06.03 17:49:19.
