data_PCOD9246657
_publ_section_title
;
Structure prediction by ZEFSAII (Michael W. Deem and Ramdas Pophale) SiO2 
 PCOD9246657
Probable space group: P 21/C
;
_chemical_formula_sum "Si O2"
_cell_formula_units_Z 16
_cell_length_a 8.321948
_cell_length_b 9.806121
_cell_length_c 7.757382
_cell_angle_alpha 90.000000
_cell_angle_beta 78.928522
_cell_angle_gamma 90.000000
_cell_volume 621.267071
_symmetry_space_group_name_H-M "P 21/C"
_symmetry_group_IT_number 14
_symmetry_cell_setting 'monoclinic'
loop_
_space_group_symop_operation_xyz
x,y,z
-x,1/2+y,1/2-z
-x,-y,-z
x,1/2-y,1/2+z
loop_
_atom_site_type_symbol
_atom_site_label
_atom_site_fract_x
_atom_site_fract_y
_atom_site_fract_z
Si Si1 0.372774 0.996009 0.687023
Si Si2 0.186790 0.300547 0.006282
Si Si3 0.682176 0.959411 0.850834
Si Si4 0.878159 0.130521 0.043115
O O1 0.501988 0.988544 0.817044
O O2 0.500000 0.000000 0.500000
O O3 0.245967 0.114501 0.659847
O O4 0.243449 0.879740 0.768426
O O5 0.291289 0.161417 0.013361
O O6 0.225391 0.393093 0.833136
O O7 0.997881 0.257738 0.034277
O O8 0.763867 0.097565 0.903014
O O9 0.000000 0.000000 0.000000
#
# Coordination Sequence:
#
# PCOD9246657 Si02
#       4
#     4   4   4   4
#     4  10  22  44  72 104 140 185 240 290 352 433
#     4  10  21  42  67 101 143 179 225 298 357 413
#     4  10  21  41  70 101 137 184 236 285 347 427
#     4  10  21  41  69 102 141 182 229 293 354 421
#
# _framework density 25.753820999999999
#
# number of rings (size 3 to 8) (size 9 to 14) (size 15 to 20)
#    0.000    2.000    0.000    3.750    0.000    0.000 
#    0.000   61.250    0.000    0.000    0.000    0.000 
#    0.000    0.000    0.000    0.000    0.000    0.000 
#
# Total GULP energy -89248.311326 kJ/mol
# GULP energy per Si atom -5578.019458 kJ/mol
# Density = 2.569520 g / cm^3
# Si number density = 25.753821 Si / 1000 Ang^3
#
#
#
# Elastic Constant Matrix: (Units=GPa)
#
#
# Indices 1 2 3 4 5 6 
#
# 1 214.9397 86.2100 73.0826 0.0000 -2.1019 0.0000
# 2 86.2100 119.3399 63.8549 0.0000 3.2776 0.0000
# 3 73.0826 63.8549 154.9736 0.0000 1.8358 0.0000
# 4 0.0000 0.0000 0.0000 33.1941 0.0000 3.0614
# 5 -2.1019 3.2776 1.8358 0.0000 51.1961 0.0000
# 6 0.0000 0.0000 0.0000 3.0614 0.0000 67.0834
#
#
#
# Elastic Compliance Matrix: (Units=1/GPa)
#
#
# Indices 1 2 3 4 5 6 
#
# 1 0.006837 -0.004139 -0.001526 0.000000 0.000600 0.000000
# 2 -0.004139 0.013270 -0.003505 0.000000 -0.000894 0.000000
# 3 -0.001526 -0.003505 0.008618 0.000000 -0.000147 0.000000
# 4 0.000000 0.000000 0.000000 0.030253 0.000000 -0.001381
# 5 0.000600 -0.000894 -0.000147 0.000000 0.019620 0.000000
# 6 0.000000 0.000000 0.000000 -0.001381 0.000000 0.014970
#
#
# Mechanical properties :
#
#
# Convention : Reuss Voigt Hill
#
# Bulk Modulus (GPa) = 96.29463 103.94982 100.12222
# Shear Modulus (GPa) = 43.33881 48.03511 45.68696
#
# Velocity S-wave (km/s) = 4.10666 4.32344 4.21644
# Velocity P-wave (km/s) = 7.74324 8.08538 7.91616
#
# Compressibility (1/GPa) = 0.01038480
#
# Stress axis : x y z
#
# Youngs Moduli (GPa) = 146.25426 75.36066 116.03285
#
# Poissons Ratio (x) = 0.31194 0.17706
# Poissons Ratio (y) = 0.60539 0.40669
# Poissons Ratio (z) = 0.22318 0.26414
#
# Static dielectric constant tensor:
#      x y z
#    x 2.022330 0.000000 -0.042300 
#    y 0.000000 2.079460 0.000000 
#    z -0.042300 0.000000 2.220030 
# 
# From -- ./inp_files/7451.got.cif
#   From: 2010.05.17/outbox.cif.g08.bks.cpg/sg14_4_cif.got.tgz:7451.got - 2010.06.03 17:49:19.
