data_PCOD9246356
_publ_section_title
;
Structure prediction by ZEFSAII (Michael W. Deem and Ramdas Pophale) SiO2 
 PCOD9246356
Probable space group: P 21/C
;
_chemical_formula_sum "Si O2"
_cell_formula_units_Z 32
_cell_length_a 5.561345
_cell_length_b 14.613261
_cell_length_c 17.393943
_cell_angle_alpha 90.000000
_cell_angle_beta 102.133087
_cell_angle_gamma 90.000000
_cell_volume 1382.018215
_symmetry_space_group_name_H-M "P 21/C"
_symmetry_group_IT_number 14
_symmetry_cell_setting 'monoclinic'
loop_
_space_group_symop_operation_xyz
x,y,z
-x,1/2+y,1/2-z
-x,-y,-z
x,1/2-y,1/2+z
loop_
_atom_site_type_symbol
_atom_site_label
_atom_site_fract_x
_atom_site_fract_y
_atom_site_fract_z
Si Si1 0.216569 0.123169 0.194556
Si Si2 0.973083 0.582267 0.893054
Si Si3 0.297444 0.076184 0.474501
Si Si4 0.611631 0.712397 0.151219
Si Si5 0.795714 0.240984 0.129096
Si Si6 0.169837 0.794887 0.198591
Si Si7 0.534765 0.451615 0.584182
Si Si8 0.905454 0.965676 0.220813
O O1 0.403151 0.145596 0.275217
O O2 0.308332 0.069967 0.125866
O O3 0.083895 0.212934 0.153517
O O4 0.010516 0.067642 0.227906
O O5 0.847483 0.573168 0.801000
O O6 0.076051 0.480978 0.919147
O O7 0.190840 0.658133 0.906282
O O8 0.795414 0.609974 0.949710
O O9 0.393171 0.154917 0.426210
O O10 0.500000 0.000000 0.500000
O O11 0.368681 0.773495 0.146546
O O12 0.886563 0.757753 0.170884
O O13 0.725098 0.258221 0.213037
O O14 0.660651 0.150914 0.086268
O O15 0.124871 0.902167 0.205443
O O16 0.500000 0.500000 0.500000
O O17 0.693389 0.523704 0.644717
#
# Coordination Sequence:
#
# PCOD9246356 Si02
#       8
#     4   4   4   4   4   4   4   4
#     4  10  21  40  69  95 134 188 233 293 361 425
#     4  10  23  45  66  98 142 187 242 286 373 432
#     4  11  26  40  65 103 139 187 235 299 363 431
#     4  11  23  44  70 100 144 185 235 297 360 421
#     4   9  21  43  67  96 137 188 233 295 353 433
#     4  10  23  43  71 105 136 187 247 290 356 432
#     4  11  24  43  68 102 139 186 244 302 368 431
#     4  10  23  43  71 100 138 193 240 302 358 446
#
# _framework density 23.154544999999999
#
# number of rings (size 3 to 8) (size 9 to 14) (size 15 to 20)
#    0.000    1.750    2.500    0.000    7.000    3.000 
#   11.250    0.000    0.000    0.000    0.000    0.000 
#    0.000    0.000    0.000    0.000    0.000    0.000 
#
# Total GULP energy -178519.884348 kJ/mol
# GULP energy per Si atom -5578.746386 kJ/mol
# Density = 2.310184 g / cm^3
# Si number density = 23.154545 Si / 1000 Ang^3
#
#
#
# Elastic Constant Matrix: (Units=GPa)
#
#
# Indices 1 2 3 4 5 6 
#
# 1 65.1443 11.9236 47.0759 0.0000 -23.5537 0.0000
# 2 11.9236 86.2030 47.9958 0.0000 -11.6319 0.0000
# 3 47.0759 47.9958 132.0393 0.0000 -16.9067 0.0000
# 4 0.0000 0.0000 0.0000 32.6562 0.0000 -8.4315
# 5 -23.5537 -11.6319 -16.9067 0.0000 37.7360 0.0000
# 6 0.0000 0.0000 0.0000 -8.4315 0.0000 31.5960
#
#
#
# Elastic Compliance Matrix: (Units=1/GPa)
#
#
# Indices 1 2 3 4 5 6 
#
# 1 0.025768 0.002994 -0.008591 0.000000 0.013158 0.000000
# 2 0.002994 0.015073 -0.006060 0.000000 0.003800 0.000000
# 3 -0.008591 -0.006060 0.012638 0.000000 -0.001568 0.000000
# 4 0.000000 0.000000 0.000000 0.032888 0.000000 0.008776
# 5 0.013158 0.003800 -0.001568 0.000000 0.035181 0.000000
# 6 0.000000 0.000000 0.000000 0.008776 0.000000 0.033992
#
#
# Mechanical properties :
#
#
# Convention : Reuss Voigt Hill
#
# Bulk Modulus (GPa) = 33.14928 55.26413 44.20671
# Shear Modulus (GPa) = 26.46785 32.15707 29.31246
#
# Velocity S-wave (km/s) = 3.38464 3.73071 3.56188
# Velocity P-wave (km/s) = 5.44261 6.51743 6.00412
#
# Compressibility (1/GPa) = 0.03016657
#
# Stress axis : x y z
#
# Youngs Moduli (GPa) = 38.80831 66.34287 79.12405
#
# Poissons Ratio (x) = -0.19865 0.67972
# Poissons Ratio (y) = -0.11620 0.47949
# Poissons Ratio (z) = 0.33339 0.40204
#
# Static dielectric constant tensor:
#      x y z
#    x 1.874020 0.000000 -0.023510 
#    y 0.000000 1.904800 0.000000 
#    z -0.023510 0.000000 1.801340 
# 
# From -- ./inp_files/53318.got.cif
#   From: 2010.05.17/outbox.cif.g08.bks.cpg/sg14_27_cif.got.tgz:53318.got - 2010.06.03 17:49:19.
