data_PCOD9246946
_publ_section_title
;
Structure prediction by ZEFSAII (Michael W. Deem and Ramdas Pophale) SiO2 
 PCOD9246946
Probable space group: P 21/C
;
_chemical_formula_sum "Si O2"
_cell_formula_units_Z 24
_cell_length_a 8.004873
_cell_length_b 17.218490
_cell_length_c 11.239583
_cell_angle_alpha 90.000000
_cell_angle_beta 143.207573
_cell_angle_gamma 90.000000
_cell_volume 927.826767
_symmetry_space_group_name_H-M "P 21/C"
_symmetry_group_IT_number 14
_symmetry_cell_setting 'monoclinic'
loop_
_space_group_symop_operation_xyz
x,y,z
-x,1/2+y,1/2-z
-x,-y,-z
x,1/2-y,1/2+z
loop_
_atom_site_type_symbol
_atom_site_label
_atom_site_fract_x
_atom_site_fract_y
_atom_site_fract_z
Si Si1 0.588452 0.080381 0.484966
Si Si2 0.726920 0.406854 0.662854
Si Si3 0.823152 0.561179 0.799333
Si Si4 0.443792 0.754534 0.439514
Si Si5 0.997715 0.581819 0.428765
Si Si6 0.532707 0.689942 0.752075
O O1 0.632849 0.155288 0.593215
O O2 0.325535 0.103007 0.253359
O O3 0.500000 0.000000 0.500000
O O4 0.876490 0.074368 0.581649
O O5 0.770876 0.470095 0.788967
O O6 0.408073 0.416616 0.434370
O O7 0.770374 0.315860 0.706780
O O8 0.917979 0.432777 0.661070
O O9 0.733143 0.615376 0.856463
O O10 0.553046 0.732008 0.634520
O O11 0.605678 0.757049 0.406032
O O12 0.220465 0.650697 0.583725
O O13 0.000000 0.500000 0.500000
#
# Coordination Sequence:
#
# PCOD9246946 Si02
#       6
#     4   4   4   4   4   4
#     4  12  23  42  73 113 157 196 255 317 386 466
#     4   9  20  43  74 103 150 201 255 311 386 458
#     4   9  20  43  72 107 144 199 251 316 370 470
#     4  10  24  48  73 114 149 204 251 324 384 464
#     4  10  21  42  73 109 145 205 252 314 382 463
#     4  10  24  49  78 105 158 200 263 312 397 463
#
# _framework density 25.866897000000002
#
# number of rings (size 3 to 8) (size 9 to 14) (size 15 to 20)
#    0.000    2.333    1.667    1.000    0.000    5.333 
#   15.000   17.500    3.667    0.000    0.000    0.000 
#    0.000    0.000    0.000    0.000    0.000    0.000 
#
# Total GULP energy -133960.628413 kJ/mol
# GULP energy per Si atom -5581.692851 kJ/mol
# Density = 2.580802 g / cm^3
# Si number density = 25.866897 Si / 1000 Ang^3
#
#
#
# Elastic Constant Matrix: (Units=GPa)
#
#
# Indices 1 2 3 4 5 6 
#
# 1 128.4990 44.0199 65.6139 0.0000 11.2790 0.0000
# 2 44.0199 178.1799 34.3492 0.0000 -22.4515 0.0000
# 3 65.6139 34.3492 92.6352 0.0000 6.9477 0.0000
# 4 0.0000 0.0000 0.0000 21.4533 0.0000 -21.3856
# 5 11.2790 -22.4515 6.9477 0.0000 71.1203 0.0000
# 6 0.0000 0.0000 0.0000 -21.3856 0.0000 50.8540
#
#
#
# Elastic Compliance Matrix: (Units=1/GPa)
#
#
# Indices 1 2 3 4 5 6 
#
# 1 0.012759 -0.001788 -0.008240 0.000000 -0.001783 0.000000
# 2 -0.001788 0.006638 -0.001383 0.000000 0.002514 0.000000
# 3 -0.008240 -0.001383 0.017205 0.000000 -0.000811 0.000000
# 4 0.000000 0.000000 0.000000 0.080257 0.000000 0.033750
# 5 -0.001783 0.002514 -0.000811 0.000000 0.015216 0.000000
# 6 0.000000 0.000000 0.000000 0.033750 0.000000 0.033857
#
#
# Mechanical properties :
#
#
# Convention : Reuss Voigt Hill
#
# Bulk Modulus (GPa) = 72.57784 76.36445 74.47115
# Shear Modulus (GPa) = 25.86009 45.70760 35.78384
#
# Velocity S-wave (km/s) = 3.16529 4.20817 3.72342
# Velocity P-wave (km/s) = 6.44033 7.29368 6.88025
#
# Compressibility (1/GPa) = 0.01377831
#
# Stress axis : x y z
#
# Youngs Moduli (GPa) = 78.37630 150.65876 58.12127
#
# Poissons Ratio (x) = 0.26941 0.47894
# Poissons Ratio (y) = 0.14016 0.08039
# Poissons Ratio (z) = 0.64585 0.20838
#
# Static dielectric constant tensor:
#      x y z
#    x 1.937560 0.000000 -0.223370 
#    y 0.000000 2.103770 0.000000 
#    z -0.223370 0.000000 1.932860 
# 
# From -- ./inp_files/26143.got.cif
#   From: 2010.05.17/outbox.cif.g08.bks.cpg/sg14_14_cif.got.tgz:26143.got - 2010.06.03 17:49:19.
