data_PCOD9246478
_publ_section_title
;
Structure prediction by ZEFSAII (Michael W. Deem and Ramdas Pophale) SiO2 
 PCOD9246478
Probable space group: P 21/C
;
_chemical_formula_sum "Si O2"
_cell_formula_units_Z 26
_cell_length_a 9.500505
_cell_length_b 6.623073
_cell_length_c 19.687836
_cell_angle_alpha 90.000000
_cell_angle_beta 121.429482
_cell_angle_gamma 90.000000
_cell_volume 1057.053827
_symmetry_space_group_name_H-M "P 21/C"
_symmetry_group_IT_number 14
_symmetry_cell_setting 'monoclinic'
loop_
_space_group_symop_operation_xyz
x,y,z
-x,1/2+y,1/2-z
-x,-y,-z
x,1/2-y,1/2+z
loop_
_atom_site_type_symbol
_atom_site_label
_atom_site_fract_x
_atom_site_fract_y
_atom_site_fract_z
Si Si1 0.375653 0.529834 0.612595
Si Si2 0.789469 0.401429 0.888283
Si Si3 0.638659 0.236307 0.653539
Si Si4 0.881665 0.980281 0.276056
Si Si5 0.500000 0.000000 0.000000
Si Si6 0.834702 0.775812 0.509942
Si Si7 0.762856 0.848238 0.638682
O O1 0.337669 0.718361 0.649464
O O2 0.497676 0.347332 0.662740
O O3 0.452702 0.606853 0.561300
O O4 0.210476 0.415831 0.546718
O O5 0.796885 0.554884 0.827326
O O6 0.971516 0.298860 0.930956
O O7 0.777980 0.525300 0.955162
O O8 0.807521 0.308348 0.730562
O O9 0.612870 0.335474 0.573143
O O10 0.634234 0.998635 0.640906
O O11 0.822506 0.818532 0.206604
O O12 0.076702 0.007662 0.333833
O O13 0.732671 0.751392 0.555761
#
# Coordination Sequence:
#
# PCOD9246478 Si02
#       7
#     4   4   4   4   2   4   4
#     4  10  21  41  63  96 136 175 222 278 344 416
#     4  10  23  42  64  99 137 179 233 282 355 414
#     4  10  22  40  61 101 134 180 226 290 350 424
#     4  11  23  42  66  98 135 185 234 300 353 421
#     4   8  20  38  64  98 132 172 224 278 340 416
#     4  10  22  40  67  99 131 184 227 291 339 414
#     4  11  22  40  70  99 138 175 245 294 352 421
#
# _framework density 24.596665000000002
#
# number of rings (size 3 to 8) (size 9 to 14) (size 15 to 20)
#    0.923    0.923    1.538    2.308    0.000    3.077 
#    5.538    0.000    0.000    0.000    0.000    0.000 
#    0.000    0.000    0.000    0.000    0.000    0.000 
#
# Total GULP energy -144754.853595 kJ/mol
# GULP energy per Si atom -5567.494369 kJ/mol
# Density = 2.454068 g / cm^3
# Si number density = 24.596665 Si / 1000 Ang^3
#
#
#
# Elastic Constant Matrix: (Units=GPa)
#
#
# Indices 1 2 3 4 5 6 
#
# 1 71.1431 27.0165 13.8388 0.0000 -11.4064 0.0000
# 2 27.0165 84.6996 9.7004 0.0000 -24.3727 0.0000
# 3 13.8388 9.7004 75.7936 0.0000 -11.0432 0.0000
# 4 0.0000 0.0000 0.0000 30.1925 0.0000 -3.1643
# 5 -11.4064 -24.3727 -11.0432 0.0000 31.4793 0.0000
# 6 0.0000 0.0000 0.0000 -3.1643 0.0000 39.4829
#
#
#
# Elastic Compliance Matrix: (Units=1/GPa)
#
#
# Indices 1 2 3 4 5 6 
#
# 1 0.016467 -0.004511 -0.002180 0.000000 0.001709 0.000000
# 2 -0.004511 0.016431 0.000354 0.000000 0.011211 0.000000
# 3 -0.002180 0.000354 0.014197 0.000000 0.004465 0.000000
# 4 0.000000 0.000000 0.000000 0.033401 0.000000 0.002677
# 5 0.001709 0.011211 0.004465 0.000000 0.042633 0.000000
# 6 0.000000 0.000000 0.000000 0.002677 0.000000 0.025542
#
#
# Mechanical properties :
#
#
# Convention : Reuss Voigt Hill
#
# Bulk Modulus (GPa) = 29.05201 36.97197 33.01199
# Shear Modulus (GPa) = 28.93198 32.30296 30.61747
#
# Velocity S-wave (km/s) = 3.43338 3.62789 3.53197
# Velocity P-wave (km/s) = 5.24923 5.71075 5.48485
#
# Compressibility (1/GPa) = 0.03442103
#
# Stress axis : x y z
#
# Youngs Moduli (GPa) = 60.72605 60.86132 70.43749
#
# Poissons Ratio (x) = 0.27454 0.15358
# Poissons Ratio (y) = 0.27393 -0.02495
# Poissons Ratio (z) = 0.13240 -0.02156
#
# Static dielectric constant tensor:
#      x y z
#    x 3.073480 0.000000 0.448900 
#    y 0.000000 1.836280 0.000000 
#    z 0.448900 0.000000 2.127520 
# 
# From -- ./inp_files/66554.got.cif
#   From: 2010.05.17/outbox.cif.g08.bks.cpg/sg14_34_cif.got.tgz:66554.got - 2010.06.03 17:49:19.
