data_PCOD9246141
_publ_section_title
;
Structure prediction by ZEFSAII (Michael W. Deem and Ramdas Pophale) SiO2 
 PCOD9246141
Probable space group: P 21/C
;
_chemical_formula_sum "Si O2"
_cell_formula_units_Z 30
_cell_length_a 10.140997
_cell_length_b 11.643184
_cell_length_c 11.481709
_cell_angle_alpha 90.000000
_cell_angle_beta 106.945709
_cell_angle_gamma 90.000000
_cell_volume 1296.823486
_symmetry_space_group_name_H-M "P 21/C"
_symmetry_group_IT_number 14
_symmetry_cell_setting 'monoclinic'
loop_
_space_group_symop_operation_xyz
x,y,z
-x,1/2+y,1/2-z
-x,-y,-z
x,1/2-y,1/2+z
loop_
_atom_site_type_symbol
_atom_site_label
_atom_site_fract_x
_atom_site_fract_y
_atom_site_fract_z
Si Si1 0.001602 0.214495 0.939789
Si Si2 0.000000 0.000000 0.000000
Si Si3 0.036282 0.601284 0.258421
Si Si4 0.738734 0.641082 0.588626
Si Si5 0.873070 0.908930 0.368231
Si Si6 0.637325 0.086409 0.111494
Si Si7 0.486067 0.186099 0.518278
Si Si8 0.408711 0.509440 0.146938
O O1 0.125462 0.117891 0.955826
O O2 0.997712 0.280843 0.816909
O O3 0.048562 0.308640 0.044139
O O4 0.893666 0.117608 0.942963
O O5 0.967640 0.936770 0.860203
O O6 0.020213 0.499182 0.159385
O O7 0.200514 0.605020 0.320318
O O8 0.785724 0.639358 0.734984
O O9 0.639508 0.533745 0.542685
O O10 0.666462 0.759861 0.539603
O O11 0.754932 0.979235 0.407661
O O12 0.580459 0.202704 0.046178
O O13 0.569941 0.057456 0.219024
O O14 0.536172 0.102694 0.429489
O O15 0.482908 0.110285 0.634324
#
# Coordination Sequence:
#
# PCOD9246141 Si02
#       8
#     4   2   4   4   4   4   4   4
#     4  12  22  43  69  91 131 171 213 277 320 386
#     4  12  24  42  66  96 130 164 232 266 306 412
#     4  10  24  43  64  96 130 173 214 269 326 379
#     4  10  21  40  63  95 123 167 213 259 323 382
#     4  10  21  44  64  95 131 167 215 266 325 382
#     4  10  23  43  59  93 134 161 209 266 317 380
#     4  11  21  40  65  94 127 168 208 259 323 377
#     4   9  22  38  64  93 124 163 215 259 302 395
#
# _framework density 23.133448999999999
#
# number of rings (size 3 to 8) (size 9 to 14) (size 15 to 20)
#    0.000    1.867    4.000    1.600    3.733    2.133 
#    2.400    1.333    0.000    0.000    0.000    0.000 
#    0.000    0.000    0.000    0.000    0.000    0.000 
#
# Total GULP energy -167003.778040 kJ/mol
# GULP energy per Si atom -5566.792601 kJ/mol
# Density = 2.308080 g / cm^3
# Si number density = 23.133449 Si / 1000 Ang^3
#
#
#
# Elastic Constant Matrix: (Units=GPa)
#
#
# Indices 1 2 3 4 5 6 
#
# 1 33.1060 9.6723 13.9257 0.0000 -15.1955 0.0000
# 2 9.6723 169.0732 47.5601 0.0000 -2.2540 0.0000
# 3 13.9257 47.5601 65.6091 0.0000 -10.0699 0.0000
# 4 0.0000 0.0000 0.0000 33.3812 0.0000 -3.1169
# 5 -15.1955 -2.2540 -10.0699 0.0000 28.6320 0.0000
# 6 0.0000 0.0000 0.0000 -3.1169 0.0000 33.8393
#
#
#
# Elastic Compliance Matrix: (Units=1/GPa)
#
#
# Indices 1 2 3 4 5 6 
#
# 1 0.041973 -0.000631 -0.005328 0.000000 0.020353 0.000000
# 2 -0.000631 0.007491 -0.005557 0.000000 -0.001700 0.000000
# 3 -0.005328 -0.005557 0.021036 0.000000 0.004133 0.000000
# 4 0.000000 0.000000 0.000000 0.030217 0.000000 0.002783
# 5 0.020353 -0.001700 0.004133 0.000000 0.047047 0.000000
# 6 0.000000 0.000000 0.000000 0.002783 0.000000 0.029808
#
#
# Mechanical properties :
#
#
# Convention : Reuss Voigt Hill
#
# Bulk Modulus (GPa) = 21.06699 45.56717 33.31708
# Shear Modulus (GPa) = 23.10250 32.27919 27.69085
#
# Velocity S-wave (km/s) = 3.16359 3.73949 3.46353
# Velocity P-wave (km/s) = 4.74035 6.19559 5.51617
#
# Compressibility (1/GPa) = 0.04746764
#
# Stress axis : x y z
#
# Youngs Moduli (GPa) = 23.82477 133.48763 47.53867
#
# Poissons Ratio (x) = 0.08426 0.25327
# Poissons Ratio (y) = 0.01504 0.26419
# Poissons Ratio (z) = 0.12693 0.74184
#
# Static dielectric constant tensor:
#      x y z
#    x 3.037100 0.000000 -0.333830 
#    y 0.000000 3.046200 0.000000 
#    z -0.333830 0.000000 2.055600 
# 
# From -- ./inp_files/29134.got.cif
#   From: 2010.05.17/outbox.cif.g08.bks.cpg/sg14_15_cif.got.tgz:29134.got - 2010.06.03 17:49:19.
