data_PCOD9246881
_publ_section_title
;
Structure prediction by ZEFSAII (Michael W. Deem and Ramdas Pophale) SiO2 
 PCOD9246881
Probable space group: P 21/C
;
_chemical_formula_sum "Si O2"
_cell_formula_units_Z 16
_cell_length_a 8.146236
_cell_length_b 12.464443
_cell_length_c 15.286075
_cell_angle_alpha 90.000000
_cell_angle_beta 31.855912
_cell_angle_gamma 90.000000
_cell_volume 819.186562
_symmetry_space_group_name_H-M "P 21/C"
_symmetry_group_IT_number 14
_symmetry_cell_setting 'monoclinic'
loop_
_space_group_symop_operation_xyz
x,y,z
-x,1/2+y,1/2-z
-x,-y,-z
x,1/2-y,1/2+z
loop_
_atom_site_type_symbol
_atom_site_label
_atom_site_fract_x
_atom_site_fract_y
_atom_site_fract_z
Si Si1 0.237448 0.274211 0.470312
Si Si2 0.583003 0.484066 0.361929
Si Si3 0.407457 0.884084 0.784568
Si Si4 0.708117 0.953868 0.483434
O O1 0.488150 0.363698 0.379691
O O2 0.339872 0.211496 0.336101
O O3 0.249605 0.176505 0.534841
O O4 0.911385 0.333394 0.605979
O O5 0.500000 0.500000 0.500000
O O6 0.390174 0.562622 0.386114
O O7 0.947121 0.501410 0.177979
O O8 0.536651 0.969714 0.654593
O O9 0.500000 0.000000 0.500000
#
# Coordination Sequence:
#
# PCOD9246881 Si02
#       4
#     4   4   4   4
#     4  10  21  44  64  94 132 172 225 267 332 399
#     4  12  24  42  65 103 134 171 226 274 333 398
#     4  10  22  43  69  90 137 173 222 274 326 401
#     4  10  21  42  68  94 133 173 217 275 329 393
#
# _framework density 19.531569999999999
#
# number of rings (size 3 to 8) (size 9 to 14) (size 15 to 20)
#    1.500    0.000    2.500    3.000    0.000    0.000 
#   13.500    0.000    0.000    0.000    0.000    0.000 
#    0.000    0.000    0.000    0.000    0.000    0.000 
#
# Total GULP energy -89135.868876 kJ/mol
# GULP energy per Si atom -5570.991805 kJ/mol
# Density = 1.948712 g / cm^3
# Si number density = 19.531570 Si / 1000 Ang^3
#
#
#
# Elastic Constant Matrix: (Units=GPa)
#
#
# Indices 1 2 3 4 5 6 
#
# 1 114.7280 49.9285 45.9721 0.0000 11.4198 0.0000
# 2 49.9285 78.0025 12.1588 0.0000 4.4746 0.0000
# 3 45.9721 12.1588 77.6961 0.0000 -5.4861 0.0000
# 4 0.0000 0.0000 0.0000 30.4705 0.0000 -4.5437
# 5 11.4198 4.4746 -5.4861 0.0000 43.4556 0.0000
# 6 0.0000 0.0000 0.0000 -4.5437 0.0000 29.6694
#
#
#
# Elastic Compliance Matrix: (Units=1/GPa)
#
#
# Indices 1 2 3 4 5 6 
#
# 1 0.016573 -0.008989 -0.008719 0.000000 -0.004530 0.000000
# 2 -0.008989 0.018131 0.002539 0.000000 0.000816 0.000000
# 3 -0.008719 0.002539 0.017936 0.000000 0.004294 0.000000
# 4 0.000000 0.000000 0.000000 0.033586 0.000000 0.005143
# 5 -0.004530 0.000816 0.004294 0.000000 0.024661 0.000000
# 6 0.000000 0.000000 0.000000 0.005143 0.000000 0.034492
#
#
# Mechanical properties :
#
#
# Convention : Reuss Voigt Hill
#
# Bulk Modulus (GPa) = 44.84065 54.06060 49.45062
# Shear Modulus (GPa) = 27.29979 31.54360 29.42169
#
# Velocity S-wave (km/s) = 3.74267 4.02307 3.88540
# Velocity P-wave (km/s) = 6.45637 7.02274 6.74550
#
# Compressibility (1/GPa) = 0.02230119
#
# Stress axis : x y z
#
# Youngs Moduli (GPa) = 60.33868 55.15288 55.75480
#
# Poissons Ratio (x) = 0.49578 0.48614
# Poissons Ratio (y) = 0.54240 -0.14156
# Poissons Ratio (z) = 0.52611 -0.14004
#
# Static dielectric constant tensor:
#      x y z
#    x 1.661490 0.000000 -0.004450 
#    y 0.000000 1.703660 0.000000 
#    z -0.004450 0.000000 1.743260 
# 
# From -- ./inp_files/5033.got.cif
#   From: 2010.05.17/outbox.cif.g08.bks.cpg/sg14_3_cif.got.tgz:5033.got - 2010.06.03 17:49:19.
