data_PCOD9246500
_publ_section_title
;
Structure prediction by ZEFSAII (Michael W. Deem and Ramdas Pophale) SiO2 
 PCOD9246500
Probable space group: P 21/C
;
_chemical_formula_sum "Si O2"
_cell_formula_units_Z 24
_cell_length_a 13.995780
_cell_length_b 9.769490
_cell_length_c 13.058198
_cell_angle_alpha 90.000000
_cell_angle_beta 142.379801
_cell_angle_gamma 90.000000
_cell_volume 1089.893750
_symmetry_space_group_name_H-M "P 21/C"
_symmetry_group_IT_number 14
_symmetry_cell_setting 'monoclinic'
loop_
_space_group_symop_operation_xyz
x,y,z
-x,1/2+y,1/2-z
-x,-y,-z
x,1/2-y,1/2+z
loop_
_atom_site_type_symbol
_atom_site_label
_atom_site_fract_x
_atom_site_fract_y
_atom_site_fract_z
Si Si1 0.816212 0.511817 0.863595
Si Si2 0.408298 0.871994 0.377674
Si Si3 0.386375 0.695807 0.190563
Si Si4 0.838062 0.144199 0.676245
Si Si5 0.117723 0.351119 0.879132
Si Si6 0.648603 0.840837 0.043866
O O1 0.746531 0.373924 0.851254
O O2 0.729018 0.550918 0.685392
O O3 0.797745 0.622502 0.939763
O O4 0.000000 0.500000 0.000000
O O5 0.407495 0.848130 0.254088
O O6 0.233197 0.874504 0.272077
O O7 0.517367 0.740950 0.497909
O O8 0.500000 0.000000 0.500000
O O9 0.545573 0.617561 0.357348
O O10 0.318304 0.679674 0.021444
O O11 0.961566 0.265076 0.767802
O O12 0.906388 0.002091 0.689581
O O13 0.223618 0.264949 0.890833
#
# Coordination Sequence:
#
# PCOD9246500 Si02
#       6
#     4   4   4   4   4   4
#     4  11  22  42  63  93 130 165 211 258 317 392
#     4  10  21  41  64  92 126 162 212 267 317 372
#     4   9  22  38  66  89 124 167 213 258 314 382
#     4  11  22  45  63  93 130 169 214 266 320 389
#     4  11  24  41  64  93 129 168 208 267 322 383
#     4  10  22  39  65  93 121 164 214 261 320 369
#
# _framework density 22.020495
#
# number of rings (size 3 to 8) (size 9 to 14) (size 15 to 20)
#    1.000    0.667    1.667    3.500    2.333    0.000 
#    3.000    1.667    0.000    0.000    0.000    0.000 
#    0.000    0.000    0.000    0.000    0.000    0.000 
#
# Total GULP energy -133776.970861 kJ/mol
# GULP energy per Si atom -5574.040453 kJ/mol
# Density = 2.197038 g / cm^3
# Si number density = 22.020495 Si / 1000 Ang^3
#
#
#
# Elastic Constant Matrix: (Units=GPa)
#
#
# Indices 1 2 3 4 5 6 
#
# 1 63.1893 21.1188 -1.9081 0.0000 11.6581 0.0000
# 2 21.1188 50.3252 13.0808 0.0000 4.9235 0.0000
# 3 -1.9081 13.0808 59.8760 0.0000 6.8779 0.0000
# 4 0.0000 0.0000 0.0000 42.4010 0.0000 2.2109
# 5 11.6581 4.9235 6.8779 0.0000 33.8982 0.0000
# 6 0.0000 0.0000 0.0000 2.2109 0.0000 32.9867
#
#
#
# Elastic Compliance Matrix: (Units=1/GPa)
#
#
# Indices 1 2 3 4 5 6 
#
# 1 0.019955 -0.008601 0.003235 0.000000 -0.006270 0.000000
# 2 -0.008601 0.024933 -0.005780 0.000000 0.000509 0.000000
# 3 0.003235 -0.005780 0.018530 0.000000 -0.004033 0.000000
# 4 0.000000 0.000000 0.000000 0.023667 0.000000 -0.001586
# 5 -0.006270 0.000509 -0.004033 0.000000 0.032401 0.000000
# 6 0.000000 0.000000 0.000000 -0.001586 0.000000 0.030422
#
#
# Mechanical properties :
#
#
# Convention : Reuss Voigt Hill
#
# Bulk Modulus (GPa) = 24.31551 26.44150 25.37851
# Shear Modulus (GPa) = 26.89517 31.26378 29.07948
#
# Velocity S-wave (km/s) = 3.49860 3.77206 3.63790
# Velocity P-wave (km/s) = 5.23321 5.56821 5.40331
#
# Compressibility (1/GPa) = 0.04112602
#
# Stress axis : x y z
#
# Youngs Moduli (GPa) = 50.11369 40.10789 53.96606
#
# Poissons Ratio (x) = 0.34498 -0.17459
# Poissons Ratio (y) = 0.43105 0.31190
# Poissons Ratio (z) = -0.16213 0.23181
#
# Static dielectric constant tensor:
#      x y z
#    x 1.827980 0.000000 -0.023390 
#    y 0.000000 1.842990 0.000000 
#    z -0.023390 0.000000 1.846170 
# 
# From -- ./inp_files/47192.got.cif
#   From: 2010.05.17/outbox.cif.g08.bks.cpg/sg14_24_cif.got.tgz:47192.got - 2010.06.03 17:49:19.
