data_PCOD9246285
_publ_section_title
;
Structure prediction by ZEFSAII (Michael W. Deem and Ramdas Pophale) SiO2 
 PCOD9246285
Probable space group: P 21/C
;
_chemical_formula_sum "Si O2"
_cell_formula_units_Z 20
_cell_length_a 4.972150
_cell_length_b 20.066680
_cell_length_c 8.941657
_cell_angle_alpha 90.000000
_cell_angle_beta 117.373158
_cell_angle_gamma 90.000000
_cell_volume 792.256522
_symmetry_space_group_name_H-M "P 21/C"
_symmetry_group_IT_number 14
_symmetry_cell_setting 'monoclinic'
loop_
_space_group_symop_operation_xyz
x,y,z
-x,1/2+y,1/2-z
-x,-y,-z
x,1/2-y,1/2+z
loop_
_atom_site_type_symbol
_atom_site_label
_atom_site_fract_x
_atom_site_fract_y
_atom_site_fract_z
Si Si1 0.771769 0.192008 0.466917
Si Si2 0.935202 0.472651 0.646353
Si Si3 0.395678 0.269896 0.164048
Si Si4 0.464171 0.404166 0.343501
Si Si5 0.816818 0.935569 0.501195
O O1 0.557088 0.206518 0.273758
O O2 0.579898 0.201588 0.569034
O O3 0.049145 0.244599 0.536116
O O4 0.960965 0.124703 0.489487
O O5 0.703618 0.414008 0.537312
O O6 0.779720 0.539068 0.675031
O O7 0.000000 0.500000 0.500000
O O8 0.187862 0.441886 0.820517
O O9 0.395803 0.326369 0.297441
O O10 0.491431 0.427512 0.173619
O O11 0.000000 0.000000 0.500000
#
# Coordination Sequence:
#
# PCOD9246285 Si02
#       5
#     4   4   4   4   4
#     4  11  25  48  70 107 137 197 233 302 367 428
#     4  10  21  40  67 101 132 184 233 287 358 418
#     4  11  25  46  72  99 146 181 245 293 365 433
#     4   9  22  41  60  99 133 181 227 295 347 429
#     4   9  21  43  65  97 139 180 233 289 359 425
#
# _framework density 25.244347999999999
#
# number of rings (size 3 to 8) (size 9 to 14) (size 15 to 20)
#    0.000    2.000    0.000    1.200   11.200    0.800 
#   18.000    0.000    0.000    0.000    0.000    0.000 
#    0.000    0.000    0.000    0.000    0.000    0.000 
#
# Total GULP energy -111415.193207 kJ/mol
# GULP energy per Si atom -5570.759660 kJ/mol
# Density = 2.518689 g / cm^3
# Si number density = 25.244348 Si / 1000 Ang^3
#
#
#
# Elastic Constant Matrix: (Units=GPa)
#
#
# Indices 1 2 3 4 5 6 
#
# 1 82.8971 -5.8350 33.9787 0.0000 -13.8541 0.0000
# 2 -5.8350 48.2621 24.6818 0.0000 -5.8071 0.0000
# 3 33.9787 24.6818 97.0872 0.0000 -22.8205 0.0000
# 4 0.0000 0.0000 0.0000 12.4063 0.0000 9.0409
# 5 -13.8541 -5.8071 -22.8205 0.0000 39.3072 0.0000
# 6 0.0000 0.0000 0.0000 9.0409 0.0000 21.0812
#
#
#
# Elastic Compliance Matrix: (Units=1/GPa)
#
#
# Indices 1 2 3 4 5 6 
#
# 1 0.015384 0.005303 -0.006107 0.000000 0.002660 0.000000
# 2 0.005303 0.025645 -0.008159 0.000000 0.000921 0.000000
# 3 -0.006107 -0.008159 0.015891 0.000000 0.005868 0.000000
# 4 0.000000 0.000000 0.000000 0.117247 0.000000 -0.050282
# 5 0.002660 0.000921 0.005868 0.000000 0.029921 0.000000
# 6 0.000000 0.000000 0.000000 -0.050282 0.000000 0.069000
#
#
# Mechanical properties :
#
#
# Convention : Reuss Voigt Hill
#
# Bulk Modulus (GPa) = 25.64486 37.09972 31.37229
# Shear Modulus (GPa) = 16.44675 26.25367 21.35021
#
# Velocity S-wave (km/s) = 2.55522 3.22837 2.91132
# Velocity P-wave (km/s) = 4.34583 5.35020 4.87396
#
# Compressibility (1/GPa) = 0.03899417
#
# Stress axis : x y z
#
# Youngs Moduli (GPa) = 65.00136 38.99417 62.92920
#
# Poissons Ratio (x) = -0.20680 0.38432
# Poissons Ratio (y) = -0.34472 0.51345
# Poissons Ratio (z) = 0.39697 0.31816
#
# Static dielectric constant tensor:
#      x y z
#    x 2.496110 0.000000 0.273620 
#    y 0.000000 2.500520 0.000000 
#    z 0.273620 0.000000 2.495670 
# 
# From -- ./inp_files/6193.got.cif
#   From: 2010.05.17/outbox.cif.g08.bks.cpg/sg14_4_cif.got.tgz:6193.got - 2010.06.03 17:49:19.
