data_PCOD9246333
_publ_section_title
;
Structure prediction by ZEFSAII (Michael W. Deem and Ramdas Pophale) SiO2 
 PCOD9246333
Probable space group: P 21/C
;
_chemical_formula_sum "Si O2"
_cell_formula_units_Z 32
_cell_length_a 23.320214
_cell_length_b 13.288333
_cell_length_c 15.829997
_cell_angle_alpha 90.000000
_cell_angle_beta 15.596500
_cell_angle_gamma 90.000000
_cell_volume 1318.899338
_symmetry_space_group_name_H-M "P 21/C"
_symmetry_group_IT_number 14
_symmetry_cell_setting 'monoclinic'
loop_
_space_group_symop_operation_xyz
x,y,z
-x,1/2+y,1/2-z
-x,-y,-z
x,1/2-y,1/2+z
loop_
_atom_site_type_symbol
_atom_site_label
_atom_site_fract_x
_atom_site_fract_y
_atom_site_fract_z
Si Si1 0.664925 0.494154 0.037279
Si Si2 0.872635 0.110622 0.578247
Si Si3 0.218243 0.401998 0.717655
Si Si4 0.402626 0.307074 0.780800
Si Si5 0.853067 0.715653 0.027974
Si Si6 0.536650 0.088993 0.565102
Si Si7 0.042177 0.914423 0.735715
Si Si8 0.238472 0.909218 0.924611
O O1 0.416749 0.460327 0.396185
O O2 0.687486 0.613119 0.022977
O O3 0.722077 0.452859 0.863657
O O4 0.775101 0.432544 0.956040
O O5 0.900724 0.125912 0.438892
O O6 0.052807 0.148030 0.387262
O O7 0.890141 0.991326 0.572796
O O8 0.642905 0.153380 0.926312
O O9 0.274648 0.323818 0.710274
O O10 0.427875 0.188023 0.759918
O O11 0.266454 0.315071 0.888118
O O12 0.871833 0.834738 0.009510
O O13 0.099310 0.672834 0.673217
O O14 0.621929 0.127261 0.353106
O O15 0.383204 0.992170 0.767815
O O16 0.938776 0.021326 0.866887
#
# Coordination Sequence:
#
# PCOD9246333 Si02
#       8
#     4   4   4   4   4   4   4   4
#     4  11  25  44  70 102 139 177 231 292 333 411
#     4  10  21  40  68  95 135 173 224 283 341 395
#     4  10  22  39  68  99 128 171 227 289 333 401
#     4  11  23  43  69 100 135 188 225 285 338 410
#     4  12  24  42  70 102 135 182 237 277 351 407
#     4  11  26  46  67  99 145 185 231 274 358 406
#     4  12  23  42  67 101 139 179 227 281 350 409
#     4  11  24  46  69  94 139 188 223 291 340 415
#
# _framework density 24.262656
#
# number of rings (size 3 to 8) (size 9 to 14) (size 15 to 20)
#    0.000    1.000    3.750    2.250    5.250    2.500 
#    2.250    0.000    0.000    0.000    0.000    0.000 
#    0.000    0.000    0.000    0.000    0.000    0.000 
#
# Total GULP energy -178771.834764 kJ/mol
# GULP energy per Si atom -5586.619836 kJ/mol
# Density = 2.420743 g / cm^3
# Si number density = 24.262656 Si / 1000 Ang^3
#
#
#
# Elastic Constant Matrix: (Units=GPa)
#
#
# Indices 1 2 3 4 5 6 
#
# 1 126.4443 38.6572 6.5159 0.0000 -21.6383 0.0000
# 2 38.6572 91.5527 5.1055 0.0000 -1.4392 0.0000
# 3 6.5159 5.1055 36.8675 0.0000 -11.5903 0.0000
# 4 0.0000 0.0000 0.0000 27.0903 0.0000 7.3479
# 5 -21.6383 -1.4392 -11.5903 0.0000 35.4610 0.0000
# 6 0.0000 0.0000 0.0000 7.3479 0.0000 24.0668
#
#
#
# Elastic Compliance Matrix: (Units=1/GPa)
#
#
# Indices 1 2 3 4 5 6 
#
# 1 0.010261 -0.004276 0.000772 0.000000 0.006340 0.000000
# 2 -0.004276 0.012790 -0.001864 0.000000 -0.002699 0.000000
# 3 0.000772 -0.001864 0.030505 0.000000 0.010366 0.000000
# 4 0.000000 0.000000 0.000000 0.040246 0.000000 -0.012288
# 5 0.006340 -0.002699 0.010366 0.000000 0.035347 0.000000
# 6 0.000000 0.000000 0.000000 -0.012288 0.000000 0.045303
#
#
# Mechanical properties :
#
#
# Convention : Reuss Voigt Hill
#
# Bulk Modulus (GPa) = 23.35423 39.49131 31.42277
# Shear Modulus (GPa) = 25.06756 30.96269 28.01512
#
# Velocity S-wave (km/s) = 3.21779 3.57619 3.40172
# Velocity P-wave (km/s) = 4.84273 5.77617 5.32992
#
# Compressibility (1/GPa) = 0.04281880
#
# Stress axis : x y z
#
# Youngs Moduli (GPa) = 97.45539 78.18793 32.78197
#
# Poissons Ratio (x) = 0.33433 -0.02530
# Poissons Ratio (y) = 0.41672 0.06111
# Poissons Ratio (z) = -0.07521 0.14575
#
# Static dielectric constant tensor:
#      x y z
#    x 2.026170 0.000000 0.074690 
#    y 0.000000 1.972400 0.000000 
#    z 0.074690 0.000000 2.003930 
# 
# From -- ./inp_files/50610.got.cif
#   From: 2010.05.17/outbox.cif.g08.bks.cpg/sg14_26_cif.got.tgz:50610.got - 2010.06.03 17:49:19.
