data_PCOD9246267
_publ_section_title
;
Structure prediction by ZEFSAII (Michael W. Deem and Ramdas Pophale) SiO2 
 PCOD9246267
Probable space group: P 21/C
;
_chemical_formula_sum "Si O2"
_cell_formula_units_Z 32
_cell_length_a 12.321901
_cell_length_b 7.021014
_cell_length_c 17.908614
_cell_angle_alpha 90.000000
_cell_angle_beta 54.464165
_cell_angle_gamma 90.000000
_cell_volume 1260.757868
_symmetry_space_group_name_H-M "P 21/C"
_symmetry_group_IT_number 14
_symmetry_cell_setting 'monoclinic'
loop_
_space_group_symop_operation_xyz
x,y,z
-x,1/2+y,1/2-z
-x,-y,-z
x,1/2-y,1/2+z
loop_
_atom_site_type_symbol
_atom_site_label
_atom_site_fract_x
_atom_site_fract_y
_atom_site_fract_z
Si Si1 0.475197 0.306834 0.132200
Si Si2 0.424667 0.308476 0.499646
Si Si3 0.969091 0.730233 0.509458
Si Si4 0.367835 0.622363 0.692215
Si Si5 0.755928 0.921909 0.178444
Si Si6 0.737730 0.278261 0.101189
Si Si7 0.863129 0.358484 0.779513
Si Si8 0.870379 0.799685 0.383609
O O1 0.442033 0.339878 0.059932
O O2 0.389120 0.411845 0.228257
O O3 0.630729 0.331409 0.083039
O O4 0.416030 0.094258 0.170031
O O5 0.500000 0.500000 0.500000
O O6 0.503472 0.264360 0.391953
O O7 0.266139 0.320373 0.556015
O O8 0.844468 0.754741 0.615218
O O9 0.932662 0.791266 0.440870
O O10 0.000000 0.500000 0.500000
O O11 0.109114 0.826963 0.474228
O O12 0.317695 0.658119 0.795936
O O13 0.244661 0.688471 0.688268
O O14 0.735893 0.050136 0.113242
O O15 0.838486 0.018337 0.213358
O O16 0.841500 0.493381 0.859332
O O17 0.014779 0.286401 0.715897
#
# Coordination Sequence:
#
# PCOD9246267 Si02
#       8
#     4   4   4   4   4   4   4   4
#     4  11  22  40  65  97 135 178 233 274 352 412
#     4  10  25  38  66 100 138 177 230 275 343 418
#     4  10  21  40  69  95 136 177 235 270 343 411
#     4  10  23  45  63  96 139 179 225 292 341 410
#     4  10  21  42  63  97 129 178 223 283 337 406
#     4  10  21  40  66  95 130 183 223 282 344 407
#     4  11  25  44  71  95 141 179 231 289 345 410
#     4  12  24  44  71 103 132 190 232 282 350 415
#
# _framework density 25.38156
#
# number of rings (size 3 to 8) (size 9 to 14) (size 15 to 20)
#    0.000    1.500    5.000    0.750   12.250    0.500 
#    0.000    1.875    0.000    0.000    0.000    0.000 
#    0.000    0.000    0.000    0.000    0.000    0.000 
#
# Total GULP energy -178819.119103 kJ/mol
# GULP energy per Si atom -5588.097472 kJ/mol
# Density = 2.532379 g / cm^3
# Si number density = 25.381560 Si / 1000 Ang^3
#
#
#
# Elastic Constant Matrix: (Units=GPa)
#
#
# Indices 1 2 3 4 5 6 
#
# 1 130.8923 30.1011 39.3352 0.0000 -33.1809 0.0000
# 2 30.1011 58.3458 23.3740 0.0000 -4.2528 0.0000
# 3 39.3352 23.3740 118.2700 0.0000 -35.5997 0.0000
# 4 0.0000 0.0000 0.0000 34.5181 0.0000 11.0506
# 5 -33.1809 -4.2528 -35.5997 0.0000 54.4150 0.0000
# 6 0.0000 0.0000 0.0000 11.0506 0.0000 10.9157
#
#
#
# Elastic Compliance Matrix: (Units=1/GPa)
#
#
# Indices 1 2 3 4 5 6 
#
# 1 0.010319 -0.004564 -0.000926 0.000000 0.005330 0.000000
# 2 -0.004564 0.020693 -0.003639 0.000000 -0.003547 0.000000
# 3 -0.000926 -0.003639 0.011489 0.000000 0.006668 0.000000
# 4 0.000000 0.000000 0.000000 0.042861 0.000000 -0.043391
# 5 0.005330 -0.003547 0.006668 0.000000 0.025712 0.000000
# 6 0.000000 0.000000 0.000000 -0.043391 0.000000 0.135538
#
#
# Mechanical properties :
#
#
# Convention : Reuss Voigt Hill
#
# Bulk Modulus (GPa) = 41.24847 54.79209 48.02028
# Shear Modulus (GPa) = 18.31818 34.28294 26.30056
#
# Velocity S-wave (km/s) = 2.68938 3.67918 3.22251
# Velocity P-wave (km/s) = 5.09219 6.29942 5.72770
#
# Compressibility (1/GPa) = 0.02424332
#
# Stress axis : x y z
#
# Youngs Moduli (GPa) = 96.91091 48.32476 87.03733
#
# Poissons Ratio (x) = 0.22057 0.08056
# Poissons Ratio (y) = 0.44233 0.31675
# Poissons Ratio (z) = 0.08969 0.17587
#
# Static dielectric constant tensor:
#      x y z
#    x 1.992300 0.000000 -0.104430 
#    y 0.000000 2.257810 0.000000 
#    z -0.104430 0.000000 2.403530 
# 
# From -- ./inp_files/67033.got.cif
#   From: 2010.05.17/outbox.cif.g08.bks.cpg/sg14_34_cif.got.tgz:67033.got - 2010.06.03 17:49:19.
