data_PCOD9246747
_publ_section_title
;
Structure prediction by ZEFSAII (Michael W. Deem and Ramdas Pophale) SiO2 
 PCOD9246747
Probable space group: P 21/C
;
_chemical_formula_sum "Si O2"
_cell_formula_units_Z 24
_cell_length_a 14.461722
_cell_length_b 5.206356
_cell_length_c 13.839696
_cell_angle_alpha 90.000000
_cell_angle_beta 107.961409
_cell_angle_gamma 90.000000
_cell_volume 991.246532
_symmetry_space_group_name_H-M "P 21/C"
_symmetry_group_IT_number 14
_symmetry_cell_setting 'monoclinic'
loop_
_space_group_symop_operation_xyz
x,y,z
-x,1/2+y,1/2-z
-x,-y,-z
x,1/2-y,1/2+z
loop_
_atom_site_type_symbol
_atom_site_label
_atom_site_fract_x
_atom_site_fract_y
_atom_site_fract_z
Si Si1 0.567725 0.526948 0.881851
Si Si2 0.965771 0.738278 0.390629
Si Si3 0.147140 0.111850 0.982494
Si Si4 0.886511 0.996824 0.687910
Si Si5 0.561196 0.526146 0.656063
Si Si6 0.707086 0.200685 0.049174
O O1 0.597747 0.506133 0.778692
O O2 0.522393 0.808010 0.882060
O O3 0.484058 0.309206 0.870247
O O4 0.651026 0.436997 0.981642
O O5 0.892808 0.816273 0.452287
O O6 0.904684 0.540850 0.305920
O O7 0.063772 0.604667 0.460911
O O8 0.009827 0.938268 0.328778
O O9 0.145380 0.240437 0.877383
O O10 0.251077 0.979737 0.023254
O O11 0.801451 0.194397 0.636021
O O12 0.640338 0.452335 0.602253
#
# Coordination Sequence:
#
# PCOD9246747 Si02
#       6
#     4   4   4   4   4   4
#     4  10  23  44  68  95 132 177 214 270 336 402
#     4  10  21  42  63  85 128 167 215 258 330 395
#     4  10  23  40  62  91 124 167 213 270 321 389
#     4  11  22  40  63  93 124 172 215 268 334 388
#     4  10  23  44  70  93 133 176 215 266 340 401
#     4  11  25  38  63  99 123 165 220 275 324 395
#
# _framework density 24.211938
#
# number of rings (size 3 to 8) (size 9 to 14) (size 15 to 20)
#    0.000    1.667    1.667    1.500    7.000    0.000 
#    3.000    0.000    0.000    0.000    0.000    0.000 
#    0.000    0.000    0.000    0.000    0.000    0.000 
#
# Total GULP energy -134203.716779 kJ/mol
# GULP energy per Si atom -5591.821532 kJ/mol
# Density = 2.415683 g / cm^3
# Si number density = 24.211938 Si / 1000 Ang^3
#
#
#
# Elastic Constant Matrix: (Units=GPa)
#
#
# Indices 1 2 3 4 5 6 
#
# 1 106.7054 12.8231 45.5292 0.0000 -11.8484 0.0000
# 2 12.8231 68.1955 -3.0282 0.0000 0.4515 0.0000
# 3 45.5292 -3.0282 88.4653 0.0000 -4.3936 0.0000
# 4 0.0000 0.0000 0.0000 31.2185 0.0000 2.5137
# 5 -11.8484 0.4515 -4.3936 0.0000 29.6004 0.0000
# 6 0.0000 0.0000 0.0000 2.5137 0.0000 23.2796
#
#
#
# Elastic Compliance Matrix: (Units=1/GPa)
#
#
# Indices 1 2 3 4 5 6 
#
# 1 0.012976 -0.002759 -0.006561 0.000000 0.004262 0.000000
# 2 -0.002759 0.015274 0.001890 0.000000 -0.001057 0.000000
# 3 -0.006561 0.001890 0.014722 0.000000 -0.000470 0.000000
# 4 0.000000 0.000000 0.000000 0.032313 0.000000 -0.003489
# 5 0.004262 -0.001057 -0.000470 0.000000 0.035436 0.000000
# 6 0.000000 0.000000 0.000000 -0.003489 0.000000 0.043333
#
#
# Mechanical properties :
#
#
# Convention : Reuss Voigt Hill
#
# Bulk Modulus (GPa) = 35.57256 41.55718 38.56487
# Shear Modulus (GPa) = 28.04526 30.68918 29.36722
#
# Velocity S-wave (km/s) = 3.40711 3.56409 3.48648
# Velocity P-wave (km/s) = 5.49563 5.84279 5.67186
#
# Compressibility (1/GPa) = 0.02811155
#
# Stress axis : x y z
#
# Youngs Moduli (GPa) = 77.06605 65.47270 67.92627
#
# Poissons Ratio (x) = 0.18067 0.44566
# Poissons Ratio (y) = 0.21266 -0.12841
# Poissons Ratio (z) = 0.50562 -0.12378
#
# Static dielectric constant tensor:
#      x y z
#    x 1.921530 0.000000 -0.006780 
#    y 0.000000 1.997170 0.000000 
#    z -0.006780 0.000000 1.976560 
# 
# From -- ./inp_files/45790.got.cif
#   From: 2010.05.17/outbox.cif.g08.bks.cpg/sg14_23_cif.got.tgz:45790.got - 2010.06.03 17:49:19.
