data_PCOD9246036
_publ_section_title
;
Structure prediction by ZEFSAII (Michael W. Deem and Ramdas Pophale) SiO2 
 PCOD9246036
Probable space group: P 21/C
;
_chemical_formula_sum "Si O2"
_cell_formula_units_Z 32
_cell_length_a 9.921440
_cell_length_b 27.102746
_cell_length_c 5.143438
_cell_angle_alpha 90.000000
_cell_angle_beta 105.351923
_cell_angle_gamma 90.000000
_cell_volume 1333.711021
_symmetry_space_group_name_H-M "P 21/C"
_symmetry_group_IT_number 14
_symmetry_cell_setting 'monoclinic'
loop_
_space_group_symop_operation_xyz
x,y,z
-x,1/2+y,1/2-z
-x,-y,-z
x,1/2-y,1/2+z
loop_
_atom_site_type_symbol
_atom_site_label
_atom_site_fract_x
_atom_site_fract_y
_atom_site_fract_z
Si Si1 0.656890 0.036991 0.813806
Si Si2 0.369935 0.424497 0.109451
Si Si3 0.141153 0.474871 0.280281
Si Si4 0.185928 0.219026 0.147120
Si Si5 0.276770 0.862143 0.853419
Si Si6 0.871356 0.216444 0.896817
Si Si7 0.118810 0.929416 0.466345
Si Si8 0.578182 0.858970 0.862216
O O1 0.490789 0.034536 0.708917
O O2 0.738238 0.054209 0.598696
O O3 0.682122 0.083907 0.015923
O O4 0.736430 0.988749 0.956288
O O5 0.219951 0.448083 0.083684
O O6 0.388433 0.383576 0.343693
O O7 0.399888 0.398560 0.853802
O O8 0.012468 0.439687 0.290178
O O9 0.088919 0.529335 0.171333
O O10 0.194208 0.234931 0.451629
O O11 0.312117 0.183724 0.138895
O O12 0.031218 0.198133 0.011661
O O13 0.230168 0.826866 0.061848
O O14 0.147365 0.875724 0.597548
O O15 0.416047 0.842519 0.786101
O O16 0.852443 0.259956 0.103589
#
# Coordination Sequence:
#
# PCOD9246036 Si02
#       8
#     4   4   4   4   4   4   4   4
#     4  10  21  40  60  87 126 165 208 264 305 364
#     4  11  24  40  61  94 124 166 211 258 306 369
#     4  10  23  37  60  90 120 170 216 254 315 363
#     4  10  22  43  65  92 125 159 200 257 308 372
#     4  10  23  40  61  92 125 163 203 259 310 366
#     4  10  24  41  65  95 125 159 204 249 310 379
#     4  10  21  40  60  87 127 161 214 261 309 365
#     4  11  24  41  63  94 125 161 211 251 313 374
#
# _framework density 23.993205
#
# number of rings (size 3 to 8) (size 9 to 14) (size 15 to 20)
#    0.000    1.750    1.250    1.500    5.250    2.500 
#    0.000    0.000    0.000    0.000    0.000    0.000 
#    0.000    0.000    0.000    0.000    0.000    0.000 
#
# Total GULP energy -178942.181603 kJ/mol
# GULP energy per Si atom -5591.943175 kJ/mol
# Density = 2.393859 g / cm^3
# Si number density = 23.993205 Si / 1000 Ang^3
#
#
#
# Elastic Constant Matrix: (Units=GPa)
#
#
# Indices 1 2 3 4 5 6 
#
# 1 134.1926 36.2709 3.8418 0.0000 -11.0677 0.0000
# 2 36.2709 28.5068 -1.0135 0.0000 1.7571 0.0000
# 3 3.8418 -1.0135 55.8772 0.0000 -18.0609 0.0000
# 4 0.0000 0.0000 0.0000 28.1906 0.0000 -18.1721
# 5 -11.0677 1.7571 -18.0609 0.0000 25.2681 0.0000
# 6 0.0000 0.0000 0.0000 -18.1721 0.0000 40.1424
#
#
#
# Elastic Compliance Matrix: (Units=1/GPa)
#
#
# Indices 1 2 3 4 5 6 
#
# 1 0.012413 -0.016209 0.001267 0.000000 0.007470 0.000000
# 2 -0.016209 0.056398 -0.001853 0.000000 -0.012346 0.000000
# 3 0.001267 -0.001853 0.023404 0.000000 0.017412 0.000000
# 4 0.000000 0.000000 0.000000 0.050089 0.000000 0.022675
# 5 0.007470 -0.012346 0.017412 0.000000 0.056152 0.000000
# 6 0.000000 0.000000 0.000000 0.022675 0.000000 0.035176
#
#
# Mechanical properties :
#
#
# Convention : Reuss Voigt Hill
#
# Bulk Modulus (GPa) = 17.05781 32.97500 25.01640
# Shear Modulus (GPa) = 17.43595 30.68541 24.06068
#
# Velocity S-wave (km/s) = 2.69867 3.58008 3.17016
# Velocity P-wave (km/s) = 4.10308 5.55541 4.88354
#
# Compressibility (1/GPa) = 0.05862416
#
# Stress axis : x y z
#
# Youngs Moduli (GPa) = 80.56110 17.73106 42.72831
#
# Poissons Ratio (x) = 0.28740 -0.05414
# Poissons Ratio (y) = 1.30582 0.07918
# Poissons Ratio (z) = -0.10207 0.03286
#
# Static dielectric constant tensor:
#      x y z
#    x 1.933770 0.000000 0.082960 
#    y 0.000000 1.907650 0.000000 
#    z 0.082960 0.000000 2.029980 
# 
# From -- ./inp_files/2244.got.cif
#   From: 2010.05.17/outbox.cif.g08.bks.cpg/sg14_2_cif.got.tgz:2244.got - 2010.06.03 17:49:19.
