data_PCOD9246330
_publ_section_title
;
Structure prediction by ZEFSAII (Michael W. Deem and Ramdas Pophale) SiO2 
 PCOD9246330
Probable space group: P 21/C
;
_chemical_formula_sum "Si O2"
_cell_formula_units_Z 32
_cell_length_a 12.642749
_cell_length_b 14.269184
_cell_length_c 21.524562
_cell_angle_alpha 90.000000
_cell_angle_beta 21.622848
_cell_angle_gamma 90.000000
_cell_volume 1430.892218
_symmetry_space_group_name_H-M "P 21/C"
_symmetry_group_IT_number 14
_symmetry_cell_setting 'monoclinic'
loop_
_space_group_symop_operation_xyz
x,y,z
-x,1/2+y,1/2-z
-x,-y,-z
x,1/2-y,1/2+z
loop_
_atom_site_type_symbol
_atom_site_label
_atom_site_fract_x
_atom_site_fract_y
_atom_site_fract_z
Si Si1 0.604171 0.541741 0.537803
Si Si2 0.954763 0.966757 0.729061
Si Si3 0.934117 0.647315 0.035707
Si Si4 0.515273 0.216861 0.818789
Si Si5 0.289824 0.616300 0.425115
Si Si6 0.200692 0.807608 0.523324
Si Si7 0.693280 0.895100 0.190519
Si Si8 0.317323 0.068798 0.433075
O O1 0.332303 0.498010 0.650530
O O2 0.876874 0.528743 0.343688
O O3 0.543143 0.648454 0.591177
O O4 0.651570 0.480219 0.572940
O O5 0.199985 0.029482 0.562269
O O6 0.044686 0.860877 0.663284
O O7 0.590944 0.653997 0.233432
O O8 0.057938 0.650473 0.037613
O O9 0.932201 0.565681 0.984281
O O10 0.147323 0.719201 0.883965
O O11 0.382473 0.158376 0.832295
O O12 0.404374 0.321997 0.891676
O O13 0.190362 0.696577 0.527543
O O14 0.027566 0.605419 0.521561
O O15 0.531095 0.837373 0.333869
O O16 0.555733 0.997935 0.275694
#
# Coordination Sequence:
#
# PCOD9246330 Si02
#       8
#     4   4   4   4   4   4   4   4
#     4  11  24  42  69  93 127 176 240 270 328 399
#     4  10  23  45  66  95 124 179 235 281 316 403
#     4  11  21  38  65  97 128 172 213 261 328 410
#     4  11  24  41  70 100 135 181 220 274 342 412
#     4  12  23  40  67 102 137 173 218 282 344 399
#     4  10  21  40  68  94 134 173 220 274 340 403
#     4  10  25  40  64 104 141 170 214 278 343 412
#     4  11  23  42  69  96 144 173 224 281 345 392
#
# _framework density 22.363671
#
# number of rings (size 3 to 8) (size 9 to 14) (size 15 to 20)
#    0.000    1.250    2.500    3.750    0.000    6.000 
#    0.000    3.750    0.000    0.000    0.000    0.000 
#    0.000    0.000    0.000    0.000    0.000    0.000 
#
# Total GULP energy -178528.417481 kJ/mol
# GULP energy per Si atom -5579.013046 kJ/mol
# Density = 2.231277 g / cm^3
# Si number density = 22.363671 Si / 1000 Ang^3
#
#
#
# Elastic Constant Matrix: (Units=GPa)
#
#
# Indices 1 2 3 4 5 6 
#
# 1 30.8391 9.7614 36.5692 0.0000 -10.9457 0.0000
# 2 9.7614 158.5732 51.7137 0.0000 4.1700 0.0000
# 3 36.5692 51.7137 146.4167 0.0000 2.0677 0.0000
# 4 0.0000 0.0000 0.0000 26.4657 0.0000 -5.7783
# 5 -10.9457 4.1700 2.0677 0.0000 38.2534 0.0000
# 6 0.0000 0.0000 0.0000 -5.7783 0.0000 5.7049
#
#
#
# Elastic Compliance Matrix: (Units=1/GPa)
#
#
# Indices 1 2 3 4 5 6 
#
# 1 0.054836 0.000832 -0.014221 0.000000 0.016369 0.000000
# 2 0.000832 0.007156 -0.002729 0.000000 -0.000395 0.000000
# 3 -0.014221 -0.002729 0.011408 0.000000 -0.004388 0.000000
# 4 0.000000 0.000000 0.000000 0.048513 0.000000 0.049136
# 5 0.016369 -0.000395 -0.004388 0.000000 0.031105 0.000000
# 6 0.000000 0.000000 0.000000 0.049136 0.000000 0.225056
#
#
# Mechanical properties :
#
#
# Convention : Reuss Voigt Hill
#
# Bulk Modulus (GPa) = 24.29430 59.10196 41.69813
# Shear Modulus (GPa) = 11.79160 29.93713 20.86436
#
# Velocity S-wave (km/s) = 2.29872 3.66273 3.05775
# Velocity P-wave (km/s) = 4.23466 6.66127 5.58143
#
# Compressibility (1/GPa) = 0.04116191
#
# Stress axis : x y z
#
# Youngs Moduli (GPa) = 18.23624 139.75183 87.66083
#
# Poissons Ratio (x) = -0.11622 1.24660
# Poissons Ratio (y) = -0.01517 0.23927
# Poissons Ratio (z) = 0.25933 0.38144
#
# Static dielectric constant tensor:
#      x y z
#    x 1.855070 0.000000 -0.031230 
#    y 0.000000 1.897600 0.000000 
#    z -0.031230 0.000000 1.841190 
# 
# From -- ./inp_files/77812.got.cif
#   From: 2010.05.17/outbox.cif.g08.bks.cpg/sg14_39_cif.got.tgz:77812.got - 2010.06.03 17:49:19.
