data_PCOD9246593
_publ_section_title
;
Structure prediction by ZEFSAII (Michael W. Deem and Ramdas Pophale) SiO2 
 PCOD9246593
Probable space group: P 21/C
;
_chemical_formula_sum "Si O2"
_cell_formula_units_Z 26
_cell_length_a 8.342052
_cell_length_b 8.897801
_cell_length_c 19.925030
_cell_angle_alpha 90.000000
_cell_angle_beta 56.662593
_cell_angle_gamma 90.000000
_cell_volume 1235.589968
_symmetry_space_group_name_H-M "P 21/C"
_symmetry_group_IT_number 14
_symmetry_cell_setting 'monoclinic'
loop_
_space_group_symop_operation_xyz
x,y,z
-x,1/2+y,1/2-z
-x,-y,-z
x,1/2-y,1/2+z
loop_
_atom_site_type_symbol
_atom_site_label
_atom_site_fract_x
_atom_site_fract_y
_atom_site_fract_z
Si Si1 0.982725 0.909273 0.325844
Si Si2 0.548520 0.808375 0.453702
Si Si3 0.849535 0.080704 0.228167
Si Si4 0.465264 0.402355 0.897741
Si Si5 0.500000 0.500000 0.500000
Si Si6 0.939439 0.440240 0.441316
Si Si7 0.071362 0.386343 0.926602
O O1 0.766298 0.869738 0.400568
O O2 0.088311 0.752446 0.293444
O O3 0.966381 0.996340 0.259806
O O4 0.080625 0.016908 0.357130
O O5 0.433955 0.931878 0.437469
O O6 0.531542 0.637056 0.437152
O O7 0.483788 0.804430 0.547442
O O8 0.633350 0.081334 0.305505
O O9 0.899740 0.995232 0.148515
O O10 0.279198 0.336574 0.905378
O O11 0.733738 0.500733 0.464025
O O12 0.000000 0.500000 0.500000
O O13 0.942781 0.259433 0.443778
O O14 0.000000 0.500000 0.000000
#
# Coordination Sequence:
#
# PCOD9246593 Si02
#       7
#     4   4   4   4   2   4   4
#     4  11  23  43  67  97 143 175 234 286 351 418
#     4  10  21  41  66  99 130 184 232 281 345 438
#     4  11  25  44  65 103 140 182 232 300 347 424
#     4  10  23  41  69  96 138 184 233 284 359 420
#     4  12  24  42  74  98 136 188 232 292 362 410
#     4  12  27  48  69 105 144 182 242 293 352 429
#     4  12  23  43  71 101 135 190 233 288 353 424
#
# _framework density 21.042577999999999
#
# number of rings (size 3 to 8) (size 9 to 14) (size 15 to 20)
#    0.000    0.923    3.077    3.692    6.462    1.231 
#    2.769    0.000    0.000    0.000    0.000    0.000 
#    0.000    0.000    0.000    0.000    0.000    0.000 
#
# Total GULP energy -144836.597538 kJ/mol
# GULP energy per Si atom -5570.638367 kJ/mol
# Density = 2.099468 g / cm^3
# Si number density = 21.042578 Si / 1000 Ang^3
#
#
#
# Elastic Constant Matrix: (Units=GPa)
#
#
# Indices 1 2 3 4 5 6 
#
# 1 59.4972 -0.6585 33.1577 0.0000 -0.9227 0.0000
# 2 -0.6585 79.9337 13.9479 0.0000 8.1455 0.0000
# 3 33.1577 13.9479 131.5529 0.0000 14.5572 0.0000
# 4 0.0000 0.0000 0.0000 34.4691 0.0000 0.2913
# 5 -0.9227 8.1455 14.5572 0.0000 34.7442 0.0000
# 6 0.0000 0.0000 0.0000 0.2913 0.0000 27.4320
#
#
#
# Elastic Compliance Matrix: (Units=1/GPa)
#
#
# Indices 1 2 3 4 5 6 
#
# 1 0.019855 0.000839 -0.005379 0.000000 0.002584 0.000000
# 2 0.000839 0.012999 -0.001316 0.000000 -0.002474 0.000000
# 3 -0.005379 -0.001316 0.009520 0.000000 -0.003823 0.000000
# 4 0.000000 0.000000 0.000000 0.029014 0.000000 -0.000308
# 5 0.002584 -0.002474 -0.003823 0.000000 0.031032 0.000000
# 6 0.000000 0.000000 0.000000 -0.000308 0.000000 0.036457
#
#
# Mechanical properties :
#
#
# Convention : Reuss Voigt Hill
#
# Bulk Modulus (GPa) = 32.61472 40.43087 36.52280
# Shear Modulus (GPa) = 31.09262 34.29819 32.69540
#
# Velocity S-wave (km/s) = 3.84813 4.04163 3.94607
# Velocity P-wave (km/s) = 5.93946 6.40588 6.17707
#
# Compressibility (1/GPa) = 0.03066100
#
# Stress axis : x y z
#
# Youngs Moduli (GPa) = 50.36580 76.92905 105.04310
#
# Poissons Ratio (x) = -0.06453 0.56506
# Poissons Ratio (y) = -0.04225 0.13823
# Poissons Ratio (z) = 0.27093 0.10123
#
# Static dielectric constant tensor:
#      x y z
#    x 1.727370 0.000000 -0.029700 
#    y 0.000000 1.860870 0.000000 
#    z -0.029700 0.000000 1.733780 
# 
# From -- ./inp_files/64762.got.cif
#   From: 2010.05.17/outbox.cif.g08.bks.cpg/sg14_33_cif.got.tgz:64762.got - 2010.06.03 17:49:19.
