data_PCOD9246584
_publ_section_title
;
Structure prediction by ZEFSAII (Michael W. Deem and Ramdas Pophale) SiO2 
 PCOD9246584
Probable space group: P 21/C
;
_chemical_formula_sum "Si O2"
_cell_formula_units_Z 32
_cell_length_a 12.569835
_cell_length_b 15.459450
_cell_length_c 10.866596
_cell_angle_alpha 90.000000
_cell_angle_beta 35.185483
_cell_angle_gamma 90.000000
_cell_volume 1216.772619
_symmetry_space_group_name_H-M "P 21/C"
_symmetry_group_IT_number 14
_symmetry_cell_setting 'monoclinic'
loop_
_space_group_symop_operation_xyz
x,y,z
-x,1/2+y,1/2-z
-x,-y,-z
x,1/2-y,1/2+z
loop_
_atom_site_type_symbol
_atom_site_label
_atom_site_fract_x
_atom_site_fract_y
_atom_site_fract_z
Si Si1 0.238886 0.684346 0.710941
Si Si2 0.068170 0.862416 0.967748
Si Si3 0.517600 0.418313 0.152035
Si Si4 0.616125 0.647160 0.242896
Si Si5 0.058530 0.218274 0.692778
Si Si6 0.465027 0.604381 0.130017
Si Si7 0.889580 0.911034 0.878460
Si Si8 0.801219 0.460981 0.068286
O O1 0.166163 0.769013 0.851122
O O2 0.458191 0.672729 0.487253
O O3 0.169879 0.596304 0.839112
O O4 0.142406 0.698122 0.670661
O O5 0.245625 0.916562 0.841869
O O6 0.979892 0.900495 0.928366
O O7 0.918261 0.846040 0.214788
O O8 0.567626 0.513526 0.054584
O O9 0.327310 0.423887 0.404497
O O10 0.680506 0.398318 0.091695
O O11 0.498906 0.364662 0.043830
O O12 0.525158 0.657585 0.192226
O O13 0.686430 0.548733 0.198089
O O14 0.800311 0.703162 0.053310
O O15 0.082772 0.316682 0.708994
O O16 0.009239 0.976293 0.684251
#
# Coordination Sequence:
#
# PCOD9246584 Si02
#       8
#     4   4   4   4   4   4   4   4
#     4  11  25  44  64  91 131 172 209 266 316 375
#     4  11  22  42  65  89 134 164 206 270 321 371
#     4  10  23  40  65  98 128 163 214 259 324 378
#     4  11  25  42  70  94 126 170 221 257 317 383
#     4  11  25  43  63  96 126 167 216 262 318 381
#     4  10  21  41  66  96 126 166 209 266 319 379
#     4  11  24  40  65  93 129 168 208 265 323 378
#     4  11  24  44  64  96 130 171 213 263 316 378
#
# _framework density 26.299078999999999
#
# number of rings (size 3 to 8) (size 9 to 14) (size 15 to 20)
#    0.000    1.250    3.750    1.125    3.500    3.000 
#    0.000    0.000    0.000    0.000    0.000    0.000 
#    0.000    0.000    0.000    0.000    0.000    0.000 
#
# Total GULP energy -179177.658210 kJ/mol
# GULP energy per Si atom -5599.301819 kJ/mol
# Density = 2.623922 g / cm^3
# Si number density = 26.299079 Si / 1000 Ang^3
#
#
#
# Elastic Constant Matrix: (Units=GPa)
#
#
# Indices 1 2 3 4 5 6 
#
# 1 57.0926 23.5376 4.9115 0.0000 -3.6166 0.0000
# 2 23.5376 79.6646 19.1750 0.0000 5.4796 0.0000
# 3 4.9115 19.1750 151.5271 0.0000 -10.9564 0.0000
# 4 0.0000 0.0000 0.0000 33.6363 0.0000 -4.4369
# 5 -3.6166 5.4796 -10.9564 0.0000 33.5505 0.0000
# 6 0.0000 0.0000 0.0000 -4.4369 0.0000 14.8027
#
#
#
# Elastic Compliance Matrix: (Units=1/GPa)
#
#
# Indices 1 2 3 4 5 6 
#
# 1 0.020300 -0.006320 0.000384 0.000000 0.003346 0.000000
# 2 -0.006320 0.015161 -0.001989 0.000000 -0.003807 0.000000
# 3 0.000384 -0.001989 0.007031 0.000000 0.002662 0.000000
# 4 0.000000 0.000000 0.000000 0.030954 0.000000 0.009278
# 5 0.003346 -0.003807 0.002662 0.000000 0.031658 0.000000
# 6 0.000000 0.000000 0.000000 0.009278 0.000000 0.070336
#
#
# Mechanical properties :
#
#
# Convention : Reuss Voigt Hill
#
# Bulk Modulus (GPa) = 37.53628 42.61472 40.07550
# Shear Modulus (GPa) = 24.97871 32.44191 28.71031
#
# Velocity S-wave (km/s) = 3.08522 3.51604 3.30765
# Velocity P-wave (km/s) = 5.19570 5.72035 5.46432
#
# Compressibility (1/GPa) = 0.02664089
#
# Stress axis : x y z
#
# Youngs Moduli (GPa) = 49.26098 65.96051 142.22262
#
# Poissons Ratio (x) = 0.41689 -0.05458
# Poissons Ratio (y) = 0.31135 0.28287
# Poissons Ratio (z) = -0.01890 0.13119
#
# Static dielectric constant tensor:
#      x y z
#    x 2.065510 0.000000 0.032270 
#    y 0.000000 2.065550 0.000000 
#    z 0.032270 0.000000 2.045340 
# 
# From -- ./inp_files/33022.got.cif
#   From: 2010.05.17/outbox.cif.g08.bks.cpg/sg14_17_cif.got.tgz:33022.got - 2010.06.03 17:49:19.
