data_PCOD9246965
_publ_section_title
;
Structure prediction by ZEFSAII (Michael W. Deem and Ramdas Pophale) SiO2 
 PCOD9246965
Probable space group: P 21/C
;
_chemical_formula_sum "Si O2"
_cell_formula_units_Z 28
_cell_length_a 7.636210
_cell_length_b 9.338756
_cell_length_c 21.822816
_cell_angle_alpha 90.000000
_cell_angle_beta 133.630143
_cell_angle_gamma 90.000000
_cell_volume 1126.423326
_symmetry_space_group_name_H-M "P 21/C"
_symmetry_group_IT_number 14
_symmetry_cell_setting 'monoclinic'
loop_
_space_group_symop_operation_xyz
x,y,z
-x,1/2+y,1/2-z
-x,-y,-z
x,1/2-y,1/2+z
loop_
_atom_site_type_symbol
_atom_site_label
_atom_site_fract_x
_atom_site_fract_y
_atom_site_fract_z
Si Si1 0.020648 0.627335 0.197263
Si Si2 0.405258 0.341834 0.437943
Si Si3 0.730146 0.395705 0.056354
Si Si4 0.153902 0.291222 0.106933
Si Si5 0.348233 0.868007 0.231052
Si Si6 0.961025 0.428462 0.662531
Si Si7 0.720840 0.512488 0.417022
O O1 0.780939 0.727338 0.136179
O O2 0.922446 0.474743 0.147993
O O3 0.122129 0.622329 0.290821
O O4 0.226580 0.710166 0.207206
O O5 0.585037 0.256255 0.526839
O O6 0.556963 0.423816 0.423397
O O7 0.223219 0.465019 0.417169
O O8 0.899867 0.374082 0.036163
O O9 0.500000 0.500000 0.000000
O O10 0.376764 0.382565 0.183157
O O11 0.067778 0.190767 0.143317
O O12 0.283562 0.185147 0.090101
O O13 0.323400 0.934846 0.158133
O O14 0.184909 0.968335 0.234051
O O15 0.000000 0.500000 0.500000
#
# Coordination Sequence:
#
# PCOD9246965 Si02
#       7
#     4   4   4   4   4   4   4
#     4  10  22  42  66  95 129 172 217 270 329 394
#     4  10  21  43  62  92 130 167 221 262 325 397
#     4  10  23  41  63  90 136 174 211 265 329 394
#     4  11  23  41  66  97 135 171 218 276 329 388
#     4  10  24  40  65 101 128 170 217 275 330 385
#     4  10  23  39  68  96 121 173 220 269 318 387
#     4  11  22  43  66  96 134 169 217 274 329 391
#
# _framework density 24.85744
#
# number of rings (size 3 to 8) (size 9 to 14) (size 15 to 20)
#    0.000    1.714    1.429    1.714   10.000    0.571 
#    5.143    2.143    0.000    0.000    0.000    0.000 
#    0.000    0.000    0.000    0.000    0.000    0.000 
#
# Total GULP energy -156171.678890 kJ/mol
# GULP energy per Si atom -5577.559960 kJ/mol
# Density = 2.480086 g / cm^3
# Si number density = 24.857440 Si / 1000 Ang^3
#
#
#
# Elastic Constant Matrix: (Units=GPa)
#
#
# Indices 1 2 3 4 5 6 
#
# 1 93.7482 31.2777 14.1047 0.0000 25.9249 0.0000
# 2 31.2777 100.8997 2.8338 0.0000 11.7208 0.0000
# 3 14.1047 2.8338 60.0198 0.0000 26.0574 0.0000
# 4 0.0000 0.0000 0.0000 31.5443 0.0000 -4.5964
# 5 25.9249 11.7208 26.0574 0.0000 48.6546 0.0000
# 6 0.0000 0.0000 0.0000 -4.5964 0.0000 21.8474
#
#
#
# Elastic Compliance Matrix: (Units=1/GPa)
#
#
# Indices 1 2 3 4 5 6 
#
# 1 0.013602 -0.003483 -0.000325 0.000000 -0.006234 0.000000
# 2 -0.003483 0.011115 0.000848 0.000000 -0.001276 0.000000
# 3 -0.000325 0.000848 0.021774 0.000000 -0.011692 0.000000
# 4 0.000000 0.000000 0.000000 0.032704 0.000000 0.006880
# 5 -0.006234 -0.001276 -0.011692 0.000000 0.030444 0.000000
# 6 0.000000 0.000000 0.000000 0.006880 0.000000 0.047219
#
#
# Mechanical properties :
#
#
# Convention : Reuss Voigt Hill
#
# Bulk Modulus (GPa) = 24.64975 39.01112 31.83043
# Shear Modulus (GPa) = 28.36032 34.17269 31.26651
#
# Velocity S-wave (km/s) = 3.38141 3.71178 3.55044
# Velocity P-wave (km/s) = 5.01829 5.83933 5.44431
#
# Compressibility (1/GPa) = 0.04056837
#
# Stress axis : x y z
#
# Youngs Moduli (GPa) = 73.51902 89.96918 45.92718
#
# Poissons Ratio (x) = 0.31337 0.01495
# Poissons Ratio (y) = 0.25607 -0.03892
# Poissons Ratio (z) = 0.02393 -0.07625
#
# Static dielectric constant tensor:
#      x y z
#    x 2.036440 0.000000 0.001000 
#    y 0.000000 2.083810 0.000000 
#    z 0.001000 0.000000 2.075160 
# 
# From -- ./inp_files/76501.got.cif
#   From: 2010.05.17/outbox.cif.g08.bks.cpg/sg14_39_cif.got.tgz:76501.got - 2010.06.03 17:49:19.
