data_PCOD9246720
_publ_section_title
;
Structure prediction by ZEFSAII (Michael W. Deem and Ramdas Pophale) SiO2 
 PCOD9246720
Probable space group: P 21/C
;
_chemical_formula_sum "Si O2"
_cell_formula_units_Z 32
_cell_length_a 10.603375
_cell_length_b 11.298678
_cell_length_c 13.611967
_cell_angle_alpha 90.000000
_cell_angle_beta 71.665946
_cell_angle_gamma 90.000000
_cell_volume 1547.989713
_symmetry_space_group_name_H-M "P 21/C"
_symmetry_group_IT_number 14
_symmetry_cell_setting 'monoclinic'
loop_
_space_group_symop_operation_xyz
x,y,z
-x,1/2+y,1/2-z
-x,-y,-z
x,1/2-y,1/2+z
loop_
_atom_site_type_symbol
_atom_site_label
_atom_site_fract_x
_atom_site_fract_y
_atom_site_fract_z
Si Si1 0.753196 0.453454 0.216400
Si Si2 0.440056 0.168765 0.291489
Si Si3 0.176444 0.682605 0.612882
Si Si4 0.749385 0.846896 0.261212
Si Si5 0.340123 0.752409 0.895935
Si Si6 0.031373 0.358478 0.779403
Si Si7 0.043085 0.502607 0.377523
Si Si8 0.558101 0.630244 0.979796
O O1 0.639491 0.553757 0.229882
O O2 0.738260 0.371563 0.318098
O O3 0.735991 0.359928 0.132372
O O4 0.892271 0.528419 0.190239
O O5 0.368587 0.287722 0.271384
O O6 0.586210 0.175669 0.208287
O O7 0.431287 0.170476 0.410792
O O8 0.244407 0.674878 0.490471
O O9 0.108370 0.811880 0.642025
O O10 0.052266 0.596166 0.644579
O O11 0.858551 0.743518 0.242197
O O12 0.811783 0.957660 0.188754
O O13 0.692740 0.873659 0.383107
O O14 0.454138 0.708051 0.943329
O O15 0.995874 0.382071 0.674104
O O16 0.000000 0.500000 0.500000
O O17 0.500000 0.500000 0.000000
#
# Coordination Sequence:
#
# PCOD9246720 Si02
#       8
#     4   4   4   4   4   4   4   4
#     4  10  21  42  61  87 128 164 205 252 314 369
#     4  10  22  41  62  88 127 165 206 255 310 370
#     4  10  23  40  60  93 122 158 211 256 307 373
#     4   9  22  40  60  89 123 163 202 252 308 367
#     4  11  23  39  62  93 123 163 209 259 308 370
#     4   9  21  41  61  84 126 159 199 256 303 371
#     4  10  22  38  60  93 118 162 207 247 315 364
#     4  11  22  38  61  89 119 158 208 251 305 364
#
# _framework density 20.671972
#
# number of rings (size 3 to 8) (size 9 to 14) (size 15 to 20)
#    0.000    2.000    1.250    0.750    5.250    2.000 
#    0.000    0.000    0.000    0.000    0.000    0.000 
#    0.000    0.000    0.000    0.000    0.000    0.000 
#
# Total GULP energy -178299.683871 kJ/mol
# GULP energy per Si atom -5571.865121 kJ/mol
# Density = 2.062492 g / cm^3
# Si number density = 20.671972 Si / 1000 Ang^3
#
#
#
# Elastic Constant Matrix: (Units=GPa)
#
#
# Indices 1 2 3 4 5 6 
#
# 1 51.8391 26.4913 46.3680 0.0000 2.0885 0.0000
# 2 26.4913 39.1654 25.4729 0.0000 1.9338 0.0000
# 3 46.3680 25.4729 159.0546 0.0000 -0.7661 0.0000
# 4 0.0000 0.0000 0.0000 31.1535 0.0000 0.5018
# 5 2.0885 1.9338 -0.7661 0.0000 31.0076 0.0000
# 6 0.0000 0.0000 0.0000 0.5018 0.0000 16.8892
#
#
#
# Elastic Compliance Matrix: (Units=1/GPa)
#
#
# Indices 1 2 3 4 5 6 
#
# 1 0.035822 -0.019384 -0.007345 0.000000 -0.001385 0.000000
# 2 -0.019384 0.039102 -0.000617 0.000000 -0.001148 0.000000
# 3 -0.007345 -0.000617 0.008531 0.000000 0.000744 0.000000
# 4 0.000000 0.000000 0.000000 0.032114 0.000000 -0.000954
# 5 -0.001385 -0.001148 0.000744 0.000000 0.032433 0.000000
# 6 0.000000 0.000000 0.000000 -0.000954 0.000000 0.059238
#
#
# Mechanical properties :
#
#
# Convention : Reuss Voigt Hill
#
# Bulk Modulus (GPa) = 34.76765 49.63594 42.20180
# Shear Modulus (GPa) = 18.41478 25.92520 22.16999
#
# Velocity S-wave (km/s) = 2.98788 3.54520 3.27841
# Velocity P-wave (km/s) = 5.36269 6.38915 5.89830
#
# Compressibility (1/GPa) = 0.02876237
#
# Stress axis : x y z
#
# Youngs Moduli (GPa) = 27.91558 25.57408 117.22193
#
# Poissons Ratio (x) = 0.49574 0.86102
# Poissons Ratio (y) = 0.54113 0.07231
# Poissons Ratio (z) = 0.20505 0.01577
#
# Static dielectric constant tensor:
#      x y z
#    x 1.842120 0.000000 0.032410 
#    y 0.000000 1.794540 0.000000 
#    z 0.032410 0.000000 1.788200 
# 
# From -- ./inp_files/29356.got.cif
#   From: 2010.05.17/outbox.cif.g08.bks.cpg/sg14_15_cif.got.tgz:29356.got - 2010.06.03 17:49:19.
