data_PCOD9246620
_publ_section_title
;
Structure prediction by ZEFSAII (Michael W. Deem and Ramdas Pophale) SiO2 
 PCOD9246620
Probable space group: P 21/C
;
_chemical_formula_sum "Si O2"
_cell_formula_units_Z 28
_cell_length_a 20.284154
_cell_length_b 9.357884
_cell_length_c 13.553820
_cell_angle_alpha 90.000000
_cell_angle_beta 152.445030
_cell_angle_gamma 90.000000
_cell_volume 1190.149012
_symmetry_space_group_name_H-M "P 21/C"
_symmetry_group_IT_number 14
_symmetry_cell_setting 'monoclinic'
loop_
_space_group_symop_operation_xyz
x,y,z
-x,1/2+y,1/2-z
-x,-y,-z
x,1/2-y,1/2+z
loop_
_atom_site_type_symbol
_atom_site_label
_atom_site_fract_x
_atom_site_fract_y
_atom_site_fract_z
Si Si1 0.540648 0.038096 0.708674
Si Si2 0.506392 0.578758 0.639749
Si Si3 0.080779 0.224697 0.059186
Si Si4 0.683273 0.305637 0.080708
Si Si5 0.399034 0.287809 0.421636
Si Si6 0.840057 0.350808 0.631005
Si Si7 0.061364 0.917696 0.953209
O O1 0.470678 0.105452 0.715000
O O2 0.489253 0.142242 0.553570
O O3 0.464787 0.887262 0.607899
O O4 0.710906 0.034591 0.947904
O O5 0.350659 0.651872 0.416557
O O6 0.486103 0.412638 0.591842
O O7 0.612160 0.651287 0.703940
O O8 0.242680 0.265887 0.256714
O O9 0.041446 0.088598 0.935610
O O10 0.969751 0.349547 0.881464
O O11 0.054254 0.166323 0.134414
O O12 0.746012 0.278906 0.054609
O O13 0.795113 0.390560 0.293649
O O14 0.913566 0.354729 0.621737
#
# Coordination Sequence:
#
# PCOD9246620 Si02
#       7
#     4   4   4   4   4   4   4
#     4  11  22  42  70  95 130 178 230 274 335 412
#     4  10  23  39  63 101 137 164 222 290 333 386
#     4  10  23  44  66  99 136 181 233 268 338 409
#     4  10  21  41  67  96 128 171 227 279 332 409
#     4  11  23  43  66 100 134 180 218 280 347 388
#     4  10  23  41  63 103 131 172 225 283 336 390
#     4  10  21  44  68  94 136 181 225 277 329 412
#
# _framework density 23.526465999999999
#
# number of rings (size 3 to 8) (size 9 to 14) (size 15 to 20)
#    0.000    1.714    1.429    2.571    2.000    3.429 
#   12.857    3.571    0.000    0.000    0.000    0.000 
#    0.000    0.000    0.000    0.000    0.000    0.000 
#
# Total GULP energy -156201.593555 kJ/mol
# GULP energy per Si atom -5578.628341 kJ/mol
# Density = 2.347292 g / cm^3
# Si number density = 23.526466 Si / 1000 Ang^3
#
#
#
# Elastic Constant Matrix: (Units=GPa)
#
#
# Indices 1 2 3 4 5 6 
#
# 1 149.6618 32.4993 3.4344 0.0000 -0.6368 0.0000
# 2 32.4993 72.8032 6.0394 0.0000 4.5566 0.0000
# 3 3.4344 6.0394 37.0892 0.0000 16.6460 0.0000
# 4 0.0000 0.0000 0.0000 24.6356 0.0000 9.6863
# 5 -0.6368 4.5566 16.6460 0.0000 31.0417 0.0000
# 6 0.0000 0.0000 0.0000 9.6863 0.0000 30.7565
#
#
#
# Elastic Compliance Matrix: (Units=1/GPa)
#
#
# Indices 1 2 3 4 5 6 
#
# 1 0.007421 -0.003325 -0.000570 0.000000 0.000946 0.000000
# 2 -0.003325 0.015441 -0.001526 0.000000 -0.001517 0.000000
# 3 -0.000570 -0.001526 0.035779 0.000000 -0.018974 0.000000
# 4 0.000000 0.000000 0.000000 0.046328 0.000000 -0.014590
# 5 0.000946 -0.001517 -0.018974 0.000000 0.042632 0.000000
# 6 0.000000 0.000000 0.000000 -0.014590 0.000000 0.037108
#
#
# Mechanical properties :
#
#
# Convention : Reuss Voigt Hill
#
# Bulk Modulus (GPa) = 20.92075 38.16670 29.54372
# Shear Modulus (GPa) = 23.64241 31.79218 27.71729
#
# Velocity S-wave (km/s) = 3.17350 3.68004 3.43612
# Velocity P-wave (km/s) = 4.72651 5.85790 5.32235
#
# Compressibility (1/GPa) = 0.04779944
#
# Stress axis : x y z
#
# Youngs Moduli (GPa) = 134.75688 64.76178 27.94928
#
# Poissons Ratio (x) = 0.21530 0.01594
# Poissons Ratio (y) = 0.44800 0.04265
# Poissons Ratio (z) = 0.07687 0.09882
#
# Static dielectric constant tensor:
#      x y z
#    x 1.931500 0.000000 -0.023770 
#    y 0.000000 1.976020 0.000000 
#    z -0.023770 0.000000 1.898850 
# 
# From -- ./inp_files/50259.got.cif
#   From: 2010.05.17/outbox.cif.g08.bks.cpg/sg14_26_cif.got.tgz:50259.got - 2010.06.03 17:49:19.
