data_PCOD9246585
_publ_section_title
;
Structure prediction by ZEFSAII (Michael W. Deem and Ramdas Pophale) SiO2 
 PCOD9246585
Probable space group: P 21/C
;
_chemical_formula_sum "Si O2"
_cell_formula_units_Z 32
_cell_length_a 12.025378
_cell_length_b 14.187785
_cell_length_c 8.679908
_cell_angle_alpha 90.000000
_cell_angle_beta 71.787989
_cell_angle_gamma 90.000000
_cell_volume 1406.725442
_symmetry_space_group_name_H-M "P 21/C"
_symmetry_group_IT_number 14
_symmetry_cell_setting 'monoclinic'
loop_
_space_group_symop_operation_xyz
x,y,z
-x,1/2+y,1/2-z
-x,-y,-z
x,1/2-y,1/2+z
loop_
_atom_site_type_symbol
_atom_site_label
_atom_site_fract_x
_atom_site_fract_y
_atom_site_fract_z
Si Si1 0.000155 0.916809 0.776806
Si Si2 0.627161 0.297436 0.826607
Si Si3 0.999246 0.636484 0.619899
Si Si4 0.750972 0.650065 0.847949
Si Si5 0.370661 0.209056 0.297829
Si Si6 0.741253 0.140850 0.962493
Si Si7 0.754827 0.057132 0.464465
Si Si8 0.253160 0.043502 0.205966
O O1 0.115151 0.901929 0.623919
O O2 0.875219 0.909491 0.748429
O O3 0.001372 0.858513 0.934122
O O4 0.005740 0.026465 0.827997
O O5 0.496185 0.299684 0.820962
O O6 0.659424 0.195819 0.879331
O O7 0.707762 0.329111 0.648913
O O8 0.658061 0.368932 0.951755
O O9 0.124306 0.670251 0.626703
O O10 0.880517 0.678513 0.737612
O O11 0.656861 0.693200 0.772261
O O12 0.742065 0.537586 0.867688
O O13 0.723406 0.691301 0.027329
O O14 0.348086 0.125376 0.184497
O O15 0.731689 0.028419 0.942080
O O16 0.744262 0.021993 0.643349
#
# Coordination Sequence:
#
# PCOD9246585 Si02
#       8
#     4   4   4   4   4   4   4   4
#     4   9  17  36  65  95 127 157 202 262 318 387
#     4  12  25  42  66  89 131 173 222 262 317 375
#     4   9  19  37  64  96 124 159 204 258 327 378
#     4  10  24  41  65  92 130 164 213 266 326 377
#     4  11  26  43  61  95 126 177 218 266 310 384
#     4  11  24  42  64  97 124 169 213 271 323 384
#     4  10  21  41  66  96 127 172 207 267 325 382
#     4  10  23  39  66  96 131 165 215 261 329 383
#
# _framework density 22.747865000000001
#
# number of rings (size 3 to 8) (size 9 to 14) (size 15 to 20)
#    0.000    1.750    1.250    1.875    3.500    6.500 
#    0.000    0.000    0.000    0.000    0.000    0.000 
#    0.000    0.000    0.000    0.000    0.000    0.000 
#
# Total GULP energy -179036.108468 kJ/mol
# GULP energy per Si atom -5594.878390 kJ/mol
# Density = 2.269609 g / cm^3
# Si number density = 22.747865 Si / 1000 Ang^3
#
#
#
# Elastic Constant Matrix: (Units=GPa)
#
#
# Indices 1 2 3 4 5 6 
#
# 1 117.3581 26.5229 -4.3498 0.0000 22.2066 0.0000
# 2 26.5229 63.6946 -0.5804 0.0000 3.9179 0.0000
# 3 -4.3498 -0.5804 35.6687 0.0000 -5.3078 0.0000
# 4 0.0000 0.0000 0.0000 11.9568 0.0000 17.5743
# 5 22.2066 3.9179 -5.3078 0.0000 23.7773 0.0000
# 6 0.0000 0.0000 0.0000 17.5743 0.0000 37.8418
#
#
#
# Elastic Compliance Matrix: (Units=1/GPa)
#
#
# Indices 1 2 3 4 5 6 
#
# 1 0.011322 -0.004105 -0.000164 0.000000 -0.009935 0.000000
# 2 -0.004105 0.017350 -0.000076 0.000000 0.000958 0.000000
# 3 -0.000164 -0.000076 0.029003 0.000000 0.006640 0.000000
# 4 0.000000 0.000000 0.000000 0.263503 0.000000 -0.122375
# 5 -0.009935 0.000958 0.006640 0.000000 0.052660 0.000000
# 6 0.000000 0.000000 0.000000 -0.122375 0.000000 0.083258
#
#
# Mechanical properties :
#
#
# Convention : Reuss Voigt Hill
#
# Bulk Modulus (GPa) = 20.41472 28.87853 24.64662
# Shear Modulus (GPa) = 10.37097 27.72376 19.04737
#
# Velocity S-wave (km/s) = 2.13752 3.49483 2.89680
# Velocity P-wave (km/s) = 3.88405 5.38589 4.69540
#
# Compressibility (1/GPa) = 0.04898426
#
# Stress axis : x y z
#
# Youngs Moduli (GPa) = 88.31996 57.63792 34.47966
#
# Poissons Ratio (x) = 0.23661 0.00567
# Poissons Ratio (y) = 0.36257 0.00261
# Poissons Ratio (z) = 0.01452 0.00436
#
# Static dielectric constant tensor:
#      x y z
#    x 1.818420 0.000000 -0.010160 
#    y 0.000000 1.864480 0.000000 
#    z -0.010160 0.000000 1.853920 
# 
# From -- ./inp_files/13306.got.cif
#   From: 2010.05.17/outbox.cif.g08.bks.cpg/sg14_7_cif.got.tgz:13306.got - 2010.06.03 17:49:19.
