data_PCOD9246041
_publ_section_title
;
Structure prediction by ZEFSAII (Michael W. Deem and Ramdas Pophale) SiO2 
 PCOD9246041
Probable space group: P 21/C
;
_chemical_formula_sum "Si O2"
_cell_formula_units_Z 16
_cell_length_a 11.532286
_cell_length_b 11.705818
_cell_length_c 13.183789
_cell_angle_alpha 90.000000
_cell_angle_beta 156.397906
_cell_angle_gamma 90.000000
_cell_volume 712.578193
_symmetry_space_group_name_H-M "P 21/C"
_symmetry_group_IT_number 14
_symmetry_cell_setting 'monoclinic'
loop_
_space_group_symop_operation_xyz
x,y,z
-x,1/2+y,1/2-z
-x,-y,-z
x,1/2-y,1/2+z
loop_
_atom_site_type_symbol
_atom_site_label
_atom_site_fract_x
_atom_site_fract_y
_atom_site_fract_z
Si Si1 0.234273 0.350692 0.753175
Si Si2 0.788930 0.046747 0.419315
Si Si3 0.357254 0.384067 0.428852
Si Si4 0.409982 0.561689 0.768009
O O1 0.333973 0.219374 0.830974
O O2 0.330663 0.431424 0.738162
O O3 0.889743 0.370638 0.484486
O O4 0.391335 0.393695 0.981368
O O5 0.021802 0.093089 0.687283
O O6 0.596194 0.949574 0.315919
O O7 0.567447 0.137231 0.192517
O O8 0.000000 0.000000 0.500000
O O9 0.500000 0.500000 0.500000
#
# Coordination Sequence:
#
# PCOD9246041 Si02
#       4
#     4   4   4   4
#     4  10  21  40  65  93 124 165 214 262 318 378
#     4  10  21  40  60  90 129 165 208 259 315 383
#     4  10  21  40  60  91 130 164 212 257 318 384
#     4  10  21  40  65  92 127 165 213 265 316 377
#
# _framework density 22.453676999999999
#
# number of rings (size 3 to 8) (size 9 to 14) (size 15 to 20)
#    0.000    2.000    0.000    3.000    0.000    0.000 
#   27.000    0.000    0.000    0.000    0.000    0.000 
#    0.000    0.000    0.000    0.000    0.000    0.000 
#
# Total GULP energy -89191.326777 kJ/mol
# GULP energy per Si atom -5574.457924 kJ/mol
# Density = 2.240257 g / cm^3
# Si number density = 22.453677 Si / 1000 Ang^3
#
#
#
# Elastic Constant Matrix: (Units=GPa)
#
#
# Indices 1 2 3 4 5 6 
#
# 1 85.7671 30.2499 38.0910 0.0000 18.6455 0.0000
# 2 30.2499 130.5948 39.2509 0.0000 -5.5151 0.0000
# 3 38.0910 39.2509 222.4701 0.0000 -22.6980 0.0000
# 4 0.0000 0.0000 0.0000 36.1008 0.0000 -10.4235
# 5 18.6455 -5.5151 -22.6980 0.0000 20.2896 0.0000
# 6 0.0000 0.0000 0.0000 -10.4235 0.0000 16.5584
#
#
#
# Elastic Compliance Matrix: (Units=1/GPa)
#
#
# Indices 1 2 3 4 5 6 
#
# 1 0.021849 -0.004496 -0.005781 0.000000 -0.027768 0.000000
# 2 -0.004496 0.009020 -0.000169 0.000000 0.006394 0.000000
# 3 -0.005781 -0.000169 0.006832 0.000000 0.012909 0.000000
# 4 0.000000 0.000000 0.000000 0.033853 0.000000 0.021311
# 5 -0.027768 0.006394 0.012909 0.000000 0.090984 0.000000
# 6 0.000000 0.000000 0.000000 0.021311 0.000000 0.073808
#
#
# Mechanical properties :
#
#
# Convention : Reuss Voigt Hill
#
# Bulk Modulus (GPa) = 59.49428 72.66840 66.08134
# Shear Modulus (GPa) = 19.02291 36.67242 27.84767
#
# Velocity S-wave (km/s) = 2.91384 4.04573 3.52551
# Velocity P-wave (km/s) = 6.15423 7.36599 6.78721
#
# Compressibility (1/GPa) = 0.01680834
#
# Stress axis : x y z
#
# Youngs Moduli (GPa) = 45.76777 110.86946 146.37667
#
# Poissons Ratio (x) = 0.49850 0.84618
# Poissons Ratio (y) = 0.20578 0.02475
# Poissons Ratio (z) = 0.26458 0.01875
#
# Static dielectric constant tensor:
#      x y z
#    x 1.883970 0.000000 -0.107720 
#    y 0.000000 2.002630 0.000000 
#    z -0.107720 0.000000 1.985600 
# 
# From -- ./inp_files/20300.got.cif
#   From: 2010.05.17/outbox.cif.g08.bks.cpg/sg14_11_cif.got.tgz:20300.got - 2010.06.03 17:49:19.
