data_PCOD9246552
_publ_section_title
;
Structure prediction by ZEFSAII (Michael W. Deem and Ramdas Pophale) SiO2 
 PCOD9246552
Probable space group: P 21/C
;
_chemical_formula_sum "Si O2"
_cell_formula_units_Z 20
_cell_length_a 12.543558
_cell_length_b 7.086965
_cell_length_c 14.060622
_cell_angle_alpha 90.000000
_cell_angle_beta 39.078573
_cell_angle_gamma 90.000000
_cell_volume 787.937570
_symmetry_space_group_name_H-M "P 21/C"
_symmetry_group_IT_number 14
_symmetry_cell_setting 'monoclinic'
loop_
_space_group_symop_operation_xyz
x,y,z
-x,1/2+y,1/2-z
-x,-y,-z
x,1/2-y,1/2+z
loop_
_atom_site_type_symbol
_atom_site_label
_atom_site_fract_x
_atom_site_fract_y
_atom_site_fract_z
Si Si1 0.309085 0.259612 0.170669
Si Si2 0.944249 0.405886 0.442535
Si Si3 0.431640 0.890241 0.382661
Si Si4 0.188643 0.977929 0.413517
Si Si5 0.349648 0.457754 0.456350
O O1 0.422065 0.424518 0.140193
O O2 0.117364 0.323934 0.280601
O O3 0.289785 0.099392 0.266476
O O4 0.382732 0.163196 0.026414
O O5 0.812933 0.247020 0.570721
O O6 0.845005 0.547926 0.443816
O O7 0.000000 0.500000 0.500000
O O8 0.270641 0.019927 0.462330
O O9 0.370909 0.683423 0.459600
O O10 0.533948 0.893502 0.212069
O O11 0.000000 0.000000 0.500000
#
# Coordination Sequence:
#
# PCOD9246552 Si02
#       5
#     4   4   4   4   4
#     4  11  22  42  68  95 134 180 226 277 342 416
#     4  10  21  41  65  94 133 176 229 283 336 396
#     4  11  21  40  67  94 137 174 220 288 335 401
#     4   9  21  39  64  92 132 178 215 277 350 390
#     4  11  24  41  66  98 134 181 226 277 343 406
#
# _framework density 25.382721
#
# number of rings (size 3 to 8) (size 9 to 14) (size 15 to 20)
#    0.000    1.600    4.000    0.600    0.000    1.600 
#    3.600    3.000    0.000    0.000    0.000    0.000 
#    0.000    0.000    0.000    0.000    0.000    0.000 
#
# Total GULP energy -111419.345791 kJ/mol
# GULP energy per Si atom -5570.967290 kJ/mol
# Density = 2.532495 g / cm^3
# Si number density = 25.382721 Si / 1000 Ang^3
#
#
#
# Elastic Constant Matrix: (Units=GPa)
#
#
# Indices 1 2 3 4 5 6 
#
# 1 190.8966 37.9856 41.9980 0.0000 -13.7704 0.0000
# 2 37.9856 69.5359 28.7193 0.0000 8.6811 0.0000
# 3 41.9980 28.7193 87.8075 0.0000 14.4025 0.0000
# 4 0.0000 0.0000 0.0000 41.4743 0.0000 3.1039
# 5 -13.7704 8.6811 14.4025 0.0000 34.0508 0.0000
# 6 0.0000 0.0000 0.0000 3.1039 0.0000 63.4733
#
#
#
# Elastic Compliance Matrix: (Units=1/GPa)
#
#
# Indices 1 2 3 4 5 6 
#
# 1 0.006884 -0.003097 -0.003079 0.000000 0.004876 0.000000
# 2 -0.003097 0.018160 -0.003754 0.000000 -0.004295 0.000000
# 3 -0.003079 -0.003754 0.015190 0.000000 -0.006713 0.000000
# 4 0.000000 0.000000 0.000000 0.024200 0.000000 -0.001183
# 5 0.004876 -0.004295 -0.006713 0.000000 0.035274 0.000000
# 6 0.000000 0.000000 0.000000 -0.001183 0.000000 0.015813
#
#
# Mechanical properties :
#
#
# Convention : Reuss Voigt Hill
#
# Bulk Modulus (GPa) = 49.08422 62.84953 55.96688
# Shear Modulus (GPa) = 35.16864 43.76882 39.46873
#
# Velocity S-wave (km/s) = 3.72632 4.15704 3.94756
# Velocity P-wave (km/s) = 6.15577 6.91779 6.54788
#
# Compressibility (1/GPa) = 0.02037315
#
# Stress axis : x y z
#
# Youngs Moduli (GPa) = 145.26464 55.06736 65.83197
#
# Poissons Ratio (x) = 0.17057 0.20272
# Poissons Ratio (y) = 0.44996 0.24710
# Poissons Ratio (z) = 0.44731 0.20670
#
# Static dielectric constant tensor:
#      x y z
#    x 2.335360 0.000000 -0.141900 
#    y 0.000000 1.973700 0.000000 
#    z -0.141900 0.000000 2.009470 
# 
# From -- ./inp_files/27955.got.cif
#   From: 2010.05.17/outbox.cif.g08.bks.cpg/sg14_14_cif.got.tgz:27955.got - 2010.06.03 17:49:19.
