data_PCOD9246795
_publ_section_title
;
Structure prediction by ZEFSAII (Michael W. Deem and Ramdas Pophale) SiO2 
 PCOD9246795
Probable space group: P 21/C
;
_chemical_formula_sum "Si O2"
_cell_formula_units_Z 32
_cell_length_a 11.057930
_cell_length_b 9.835178
_cell_length_c 18.874473
_cell_angle_alpha 90.000000
_cell_angle_beta 52.775067
_cell_angle_gamma 90.000000
_cell_volume 1634.517116
_symmetry_space_group_name_H-M "P 21/C"
_symmetry_group_IT_number 14
_symmetry_cell_setting 'monoclinic'
loop_
_space_group_symop_operation_xyz
x,y,z
-x,1/2+y,1/2-z
-x,-y,-z
x,1/2-y,1/2+z
loop_
_atom_site_type_symbol
_atom_site_label
_atom_site_fract_x
_atom_site_fract_y
_atom_site_fract_z
Si Si1 0.117297 0.846937 0.882534
Si Si2 0.360686 0.405751 0.529372
Si Si3 0.517111 0.134208 0.449956
Si Si4 0.125115 0.970781 0.220155
Si Si5 0.416909 0.160334 0.327386
Si Si6 0.211842 0.106774 0.932585
Si Si7 0.679573 0.385267 0.212487
Si Si8 0.128583 0.670813 0.207478
O O1 0.188930 0.699305 0.875294
O O2 0.119312 0.854779 0.796013
O O3 0.205962 0.975435 0.884389
O O4 0.950438 0.862823 0.974296
O O5 0.500000 0.500000 0.500000
O O6 0.421207 0.254284 0.519838
O O7 0.218323 0.448727 0.627250
O O8 0.322487 0.420289 0.459923
O O9 0.445459 0.117236 0.397968
O O10 0.695618 0.166953 0.377748
O O11 0.500000 0.000000 0.500000
O O12 0.241167 0.933589 0.242434
O O13 0.071464 0.823236 0.212421
O O14 0.979672 0.061009 0.291186
O O15 0.270539 0.257887 0.373248
O O16 0.554417 0.265511 0.263278
O O17 0.393947 0.021167 0.293138
#
# Coordination Sequence:
#
# PCOD9246795 Si02
#       8
#     4   4   4   4   4   4   4   4
#     4  10  21  42  65  90 131 167 209 262 314 379
#     4  11  21  42  63  92 128 168 213 260 323 376
#     4  11  25  41  64  94 131 162 211 272 316 377
#     4  11  23  41  67  93 129 171 210 266 315 390
#     4  11  23  42  64  92 128 165 210 264 319 369
#     4  10  22  39  67  93 126 168 209 264 315 380
#     4  11  24  43  65  94 129 168 213 268 311 386
#     4  11  23  43  62  95 129 167 214 260 322 380
#
# _framework density 19.577646999999999
#
# number of rings (size 3 to 8) (size 9 to 14) (size 15 to 20)
#    0.000    1.250    5.000    1.500    1.750    4.500 
#    0.000    0.000    0.000    0.000    0.000    0.000 
#    0.000    0.000    0.000    0.000    0.000    0.000 
#
# Total GULP energy -178585.286013 kJ/mol
# GULP energy per Si atom -5580.790188 kJ/mol
# Density = 1.953309 g / cm^3
# Si number density = 19.577647 Si / 1000 Ang^3
#
#
#
# Elastic Constant Matrix: (Units=GPa)
#
#
# Indices 1 2 3 4 5 6 
#
# 1 63.9324 65.3385 13.1939 0.0000 -8.5190 0.0000
# 2 65.3385 171.5925 42.5486 0.0000 6.6566 0.0000
# 3 13.1939 42.5486 53.1288 0.0000 -3.6965 0.0000
# 4 0.0000 0.0000 0.0000 41.4632 0.0000 -5.2773
# 5 -8.5190 6.6566 -3.6965 0.0000 18.4353 0.0000
# 6 0.0000 0.0000 0.0000 -5.2773 0.0000 42.4911
#
#
#
# Elastic Compliance Matrix: (Units=1/GPa)
#
#
# Indices 1 2 3 4 5 6 
#
# 1 0.031872 -0.014150 0.004865 0.000000 0.020813 0.000000
# 2 -0.014150 0.013833 -0.008485 0.000000 -0.013235 0.000000
# 3 0.004865 -0.008485 0.025130 0.000000 0.010351 0.000000
# 4 0.000000 0.000000 0.000000 0.024505 0.000000 0.003043
# 5 0.020813 -0.013235 0.010351 0.000000 0.070716 0.000000
# 6 0.000000 0.000000 0.000000 0.003043 0.000000 0.023912
#
#
# Mechanical properties :
#
#
# Convention : Reuss Voigt Hill
#
# Bulk Modulus (GPa) = 28.33299 58.97954 43.65627
# Shear Modulus (GPa) = 21.07279 31.64943 26.36111
#
# Velocity S-wave (km/s) = 3.28437 4.02507 3.67344
# Velocity P-wave (km/s) = 5.37460 7.19673 6.35135
#
# Compressibility (1/GPa) = 0.03529455
#
# Stress axis : x y z
#
# Youngs Moduli (GPa) = 31.37565 72.29016 39.79366
#
# Poissons Ratio (x) = 1.02289 -0.19360
# Poissons Ratio (y) = 0.44396 0.33766
# Poissons Ratio (z) = -0.15264 0.61340
#
# Static dielectric constant tensor:
#      x y z
#    x 1.694800 0.000000 -0.008080 
#    y 0.000000 2.077450 0.000000 
#    z -0.008080 0.000000 1.667110 
# 
# From -- ./inp_files/67015.got.cif
#   From: 2010.05.17/outbox.cif.g08.bks.cpg/sg14_34_cif.got.tgz:67015.got - 2010.06.03 17:49:19.
