data_PCOD9246197
_publ_section_title
;
Structure prediction by ZEFSAII (Michael W. Deem and Ramdas Pophale) SiO2 
 PCOD9246197
Probable space group: P 21/C
;
_chemical_formula_sum "Si O2"
_cell_formula_units_Z 20
_cell_length_a 12.127772
_cell_length_b 15.165220
_cell_length_c 8.745714
_cell_angle_alpha 90.000000
_cell_angle_beta 148.990161
_cell_angle_gamma 90.000000
_cell_volume 828.683021
_symmetry_space_group_name_H-M "P 21/C"
_symmetry_group_IT_number 14
_symmetry_cell_setting 'monoclinic'
loop_
_space_group_symop_operation_xyz
x,y,z
-x,1/2+y,1/2-z
-x,-y,-z
x,1/2-y,1/2+z
loop_
_atom_site_type_symbol
_atom_site_label
_atom_site_fract_x
_atom_site_fract_y
_atom_site_fract_z
Si Si1 0.582293 0.869941 0.272582
Si Si2 0.680084 0.995401 0.842830
Si Si3 0.188349 0.765336 0.837590
Si Si4 0.030577 0.636196 0.444907
Si Si5 0.129977 0.407805 0.175074
O O1 0.422397 0.944274 0.145163
O O2 0.690960 0.896751 0.243139
O O3 0.777584 0.858022 0.623061
O O4 0.433641 0.784127 0.087885
O O5 0.500000 0.000000 0.500000
O O6 0.884794 0.042051 0.009915
O O7 0.759155 0.909798 0.027181
O O8 0.118017 0.667223 0.711284
O O9 0.141154 0.797725 0.952671
O O10 0.035049 0.829453 0.555102
O O11 0.000000 0.500000 0.000000
#
# Coordination Sequence:
#
# PCOD9246197 Si02
#       5
#     4   4   4   4   4
#     4  10  21  40  65  81 125 165 201 252 305 364
#     4  11  24  38  61  96 125 155 208 260 305 359
#     4  10  23  38  63  87 122 164 207 250 309 368
#     4  10  23  41  56  92 123 158 208 250 305 374
#     4  11  20  41  64  90 115 164 215 242 298 386
#
# _framework density 24.134678999999998
#
# number of rings (size 3 to 8) (size 9 to 14) (size 15 to 20)
#    0.000    1.600    6.000    0.600    0.000   12.000 
#    0.000    0.000    0.000    0.000    0.000    0.000 
#    0.000    0.000    0.000    0.000    0.000    0.000 
#
# Total GULP energy -111860.403251 kJ/mol
# GULP energy per Si atom -5593.020163 kJ/mol
# Density = 2.407975 g / cm^3
# Si number density = 24.134679 Si / 1000 Ang^3
#
#
#
# Elastic Constant Matrix: (Units=GPa)
#
#
# Indices 1 2 3 4 5 6 
#
# 1 86.2755 22.2232 30.8421 0.0000 21.4401 0.0000
# 2 22.2232 24.8367 -3.2721 0.0000 11.7617 0.0000
# 3 30.8421 -3.2721 128.3766 0.0000 15.8857 0.0000
# 4 0.0000 0.0000 0.0000 39.3158 0.0000 -12.2384
# 5 21.4401 11.7617 15.8857 0.0000 46.9734 0.0000
# 6 0.0000 0.0000 0.0000 -12.2384 0.0000 23.1508
#
#
#
# Elastic Compliance Matrix: (Units=1/GPa)
#
#
# Indices 1 2 3 4 5 6 
#
# 1 0.017713 -0.015056 -0.004285 0.000000 -0.002866 0.000000
# 2 -0.015056 0.059387 0.006388 0.000000 -0.010158 0.000000
# 3 -0.004285 0.006388 0.009328 0.000000 -0.002798 0.000000
# 4 0.000000 0.000000 0.000000 0.030445 0.000000 0.016094
# 5 -0.002866 -0.010158 -0.002798 0.000000 0.026087 0.000000
# 6 0.000000 0.000000 0.000000 0.016094 0.000000 0.051703
#
#
# Mechanical properties :
#
#
# Convention : Reuss Voigt Hill
#
# Bulk Modulus (GPa) = 16.52293 37.67502 27.09898
# Shear Modulus (GPa) = 20.76902 34.53435 27.65169
#
# Velocity S-wave (km/s) = 2.93669 3.78683 3.38853
# Velocity P-wave (km/s) = 4.28484 5.89613 5.15384
#
# Compressibility (1/GPa) = 0.06052195
#
# Stress axis : x y z
#
# Youngs Moduli (GPa) = 56.45605 16.83865 107.20354
#
# Poissons Ratio (x) = 0.25353 0.45933
# Poissons Ratio (y) = 0.85003 -0.68481
# Poissons Ratio (z) = 0.24189 -0.10756
#
# Static dielectric constant tensor:
#      x y z
#    x 1.915870 0.000000 -0.052220 
#    y 0.000000 1.940980 0.000000 
#    z -0.052220 0.000000 1.930660 
# 
# From -- ./inp_files/5445.got.cif
#   From: 2010.05.17/outbox.cif.g08.bks.cpg/sg14_3_cif.got.tgz:5445.got - 2010.06.03 17:49:19.
