data_PCOD9246237
_publ_section_title
;
Structure prediction by ZEFSAII (Michael W. Deem and Ramdas Pophale) SiO2 
 PCOD9246237
Probable space group: P 21/C
;
_chemical_formula_sum "Si O2"
_cell_formula_units_Z 12
_cell_length_a 13.359447
_cell_length_b 5.358880
_cell_length_c 9.202138
_cell_angle_alpha 90.000000
_cell_angle_beta 42.928970
_cell_angle_gamma 90.000000
_cell_volume 448.700451
_symmetry_space_group_name_H-M "P 21/C"
_symmetry_group_IT_number 14
_symmetry_cell_setting 'monoclinic'
loop_
_space_group_symop_operation_xyz
x,y,z
-x,1/2+y,1/2-z
-x,-y,-z
x,1/2-y,1/2+z
loop_
_atom_site_type_symbol
_atom_site_label
_atom_site_fract_x
_atom_site_fract_y
_atom_site_fract_z
Si Si1 0.671561 0.407593 0.528466
Si Si2 0.048780 0.469349 0.614572
Si Si3 0.386160 0.093168 0.502414
O O1 0.775066 0.488846 0.550844
O O2 0.683354 0.634826 0.402311
O O3 0.499284 0.367998 0.746321
O O4 0.718904 0.134707 0.425882
O O5 0.983896 0.696895 0.781801
O O6 0.000000 0.500000 0.500000
O O7 0.500000 0.000000 0.500000
#
# Coordination Sequence:
#
# PCOD9246237 Si02
#       3
#     4   4   4
#     4  10  23  39  65  96 130 173 229 281 347 411
#     4  12  28  49  73 106 143 194 238 291 350 424
#     4  10  21  40  65  96 127 171 221 290 347 404
#
# _framework density 26.743903
#
# number of rings (size 3 to 8) (size 9 to 14) (size 15 to 20)
#    0.000    1.333    0.000    4.000    9.333    0.000 
#    0.000    0.000    0.000    0.000    0.000    0.000 
#    0.000    0.000    0.000    0.000    0.000    0.000 
#
# Total GULP energy -67112.229975 kJ/mol
# GULP energy per Si atom -5592.685831 kJ/mol
# Density = 2.668303 g / cm^3
# Si number density = 26.743903 Si / 1000 Ang^3
#
#
#
# Elastic Constant Matrix: (Units=GPa)
#
#
# Indices 1 2 3 4 5 6 
#
# 1 143.8963 9.5699 36.4808 0.0000 20.5047 0.0000
# 2 9.5699 194.4678 52.3197 0.0000 8.3229 0.0000
# 3 36.4808 52.3197 57.8979 0.0000 7.6661 0.0000
# 4 0.0000 0.0000 0.0000 30.8855 0.0000 2.8537
# 5 20.5047 8.3229 7.6661 0.0000 52.7597 0.0000
# 6 0.0000 0.0000 0.0000 2.8537 0.0000 53.0769
#
#
#
# Elastic Compliance Matrix: (Units=1/GPa)
#
#
# Indices 1 2 3 4 5 6 
#
# 1 0.008904 0.001441 -0.006551 0.000000 -0.002736 0.000000
# 2 0.001441 0.007029 -0.007177 0.000000 -0.000626 0.000000
# 3 -0.006551 -0.007177 0.027935 0.000000 -0.000381 0.000000
# 4 0.000000 0.000000 0.000000 0.032539 0.000000 -0.001749
# 5 -0.002736 -0.000626 -0.000381 0.000000 0.020171 0.000000
# 6 0.000000 0.000000 0.000000 -0.001749 0.000000 0.018935
#
#
# Mechanical properties :
#
#
# Convention : Reuss Voigt Hill
#
# Bulk Modulus (GPa) = 51.82474 65.88920 58.85697
# Shear Modulus (GPa) = 34.12539 47.20385 40.66462
#
# Velocity S-wave (km/s) = 3.57600 4.20579 3.90361
# Velocity P-wave (km/s) = 6.03909 6.94805 6.50945
#
# Compressibility (1/GPa) = 0.01929580
#
# Stress axis : x y z
#
# Youngs Moduli (GPa) = 112.30656 142.26704 35.79699
#
# Poissons Ratio (x) = -0.20505 0.23449
# Poissons Ratio (y) = -0.16187 0.25692
# Poissons Ratio (z) = 0.73568 1.02106
#
# Static dielectric constant tensor:
#      x y z
#    x 2.040430 0.000000 -0.048320 
#    y 0.000000 2.141380 0.000000 
#    z -0.048320 0.000000 2.224360 
# 
# From -- ./inp_files/11403.got.cif
#   From: 2010.05.17/outbox.cif.g08.bks.cpg/sg14_6_cif.got.tgz:11403.got - 2010.06.03 17:49:19.
