data_PCOD9246713
_publ_section_title
;
Structure prediction by ZEFSAII (Michael W. Deem and Ramdas Pophale) SiO2 
 PCOD9246713
Probable space group: P 21/C
;
_chemical_formula_sum "Si O2"
_cell_formula_units_Z 32
_cell_length_a 5.144946
_cell_length_b 28.212789
_cell_length_c 8.732642
_cell_angle_alpha 90.000000
_cell_angle_beta 112.426576
_cell_angle_gamma 90.000000
_cell_volume 1171.704113
_symmetry_space_group_name_H-M "P 21/C"
_symmetry_group_IT_number 14
_symmetry_cell_setting 'monoclinic'
loop_
_space_group_symop_operation_xyz
x,y,z
-x,1/2+y,1/2-z
-x,-y,-z
x,1/2-y,1/2+z
loop_
_atom_site_type_symbol
_atom_site_label
_atom_site_fract_x
_atom_site_fract_y
_atom_site_fract_z
Si Si1 0.971450 0.963295 0.296304
Si Si2 0.131541 0.627339 0.241315
Si Si3 0.190399 0.685347 0.831212
Si Si4 0.106823 0.420546 0.552144
Si Si5 0.623492 0.684443 0.424402
Si Si6 0.468758 0.749986 0.150946
Si Si7 0.390337 0.955098 0.641158
Si Si8 0.718070 0.627243 0.899300
O O1 0.790270 0.924030 0.348914
O O2 0.283066 0.965377 0.443631
O O3 0.809052 0.011254 0.301902
O O4 0.962223 0.947941 0.117972
O O5 0.147508 0.595051 0.396233
O O6 0.293888 0.674368 0.316415
O O7 0.290768 0.598869 0.145574
O O8 0.825511 0.631775 0.099467
O O9 0.238164 0.721456 0.699502
O O10 0.395699 0.642313 0.823369
O O11 0.916569 0.661898 0.845022
O O12 0.331180 0.713363 0.003250
O O13 0.235241 0.367486 0.544714
O O14 0.306957 0.452278 0.708625
O O15 0.691416 0.721764 0.306834
O O16 0.628216 0.712406 0.581460
#
# Coordination Sequence:
#
# PCOD9246713 Si02
#       8
#     4   4   4   4   4   4   4   4
#     4  10  22  43  68 103 133 188 237 288 354 441
#     4  10  22  39  65  93 135 182 223 291 360 419
#     4  11  24  43  64  97 132 183 229 298 357 428
#     4  11  22  41  70  97 135 184 231 294 362 428
#     4  10  21  42  59  94 131 174 230 293 349 427
#     4  10  22  42  64  91 131 179 235 290 358 425
#     4   9  22  45  64  98 146 172 240 293 357 423
#     4  11  24  43  67  96 142 182 233 291 366 428
#
# _framework density 27.310651
#
# number of rings (size 3 to 8) (size 9 to 14) (size 15 to 20)
#    0.000    1.750    1.250    1.875    5.250    1.500 
#   11.250    1.875    0.000    0.000    0.000    0.000 
#    0.000    0.000    0.000    0.000    0.000    0.000 
#
# Total GULP energy -179193.634278 kJ/mol
# GULP energy per Si atom -5599.801071 kJ/mol
# Density = 2.724849 g / cm^3
# Si number density = 27.310651 Si / 1000 Ang^3
#
#
#
# Elastic Constant Matrix: (Units=GPa)
#
#
# Indices 1 2 3 4 5 6 
#
# 1 66.1670 26.3345 39.7655 0.0000 -14.5948 0.0000
# 2 26.3345 135.6083 66.8296 0.0000 -2.5296 0.0000
# 3 39.7655 66.8296 166.2800 0.0000 -12.4362 0.0000
# 4 0.0000 0.0000 0.0000 60.3970 0.0000 -13.1110
# 5 -14.5948 -2.5296 -12.4362 0.0000 26.2098 0.0000
# 6 0.0000 0.0000 0.0000 -13.1110 0.0000 24.3496
#
#
#
# Elastic Compliance Matrix: (Units=1/GPa)
#
#
# Indices 1 2 3 4 5 6 
#
# 1 0.019960 -0.002113 -0.003223 0.000000 0.009382 0.000000
# 2 -0.002113 0.009440 -0.003430 0.000000 -0.001893 0.000000
# 3 -0.003223 -0.003430 0.008299 0.000000 0.001812 0.000000
# 4 0.000000 0.000000 0.000000 0.018749 0.000000 0.010095
# 5 0.009382 -0.001893 0.001812 0.000000 0.044055 0.000000
# 6 0.000000 0.000000 0.000000 0.010095 0.000000 0.046504
#
#
# Mechanical properties :
#
#
# Convention : Reuss Voigt Hill
#
# Bulk Modulus (GPa) = 49.58538 70.43496 60.01017
# Shear Modulus (GPa) = 29.19528 37.86632 33.53080
#
# Velocity S-wave (km/s) = 3.27311 3.72762 3.50774
# Velocity P-wave (km/s) = 5.69911 6.66132 6.19891
#
# Compressibility (1/GPa) = 0.02016724
#
# Stress axis : x y z
#
# Youngs Moduli (GPa) = 50.09922 105.93620 120.50004
#
# Poissons Ratio (x) = 0.22385 0.38831
# Poissons Ratio (y) = 0.10587 0.41333
# Poissons Ratio (z) = 0.16145 0.36338
#
# Static dielectric constant tensor:
#      x y z
#    x 2.191940 0.000000 0.088580 
#    y 0.000000 2.143890 0.000000 
#    z 0.088580 0.000000 2.206370 
# 
# From -- ./inp_files/6998.got.cif
#   From: 2010.05.17/outbox.cif.g08.bks.cpg/sg14_4_cif.got.tgz:6998.got - 2010.06.03 17:49:19.
