data_PCOD9246289
_publ_section_title
;
Structure prediction by ZEFSAII (Michael W. Deem and Ramdas Pophale) SiO2 
 PCOD9246289
Probable space group: P 21/C
;
_chemical_formula_sum "Si O2"
_cell_formula_units_Z 26
_cell_length_a 5.467217
_cell_length_b 17.529328
_cell_length_c 12.148812
_cell_angle_alpha 90.000000
_cell_angle_beta 55.897056
_cell_angle_gamma 90.000000
_cell_volume 964.078201
_symmetry_space_group_name_H-M "P 21/C"
_symmetry_group_IT_number 14
_symmetry_cell_setting 'monoclinic'
loop_
_space_group_symop_operation_xyz
x,y,z
-x,1/2+y,1/2-z
-x,-y,-z
x,1/2-y,1/2+z
loop_
_atom_site_type_symbol
_atom_site_label
_atom_site_fract_x
_atom_site_fract_y
_atom_site_fract_z
Si Si1 0.544660 0.202267 0.133050
Si Si2 0.851582 0.936297 0.717631
Si Si3 0.500000 0.500000 0.500000
Si Si4 0.896082 0.893581 0.026751
Si Si5 0.199995 0.151698 0.711926
Si Si6 0.473769 0.098152 0.418031
Si Si7 0.615994 0.270328 0.367442
O O1 0.262373 0.146083 0.206000
O O2 0.426678 0.284213 0.203365
O O3 0.802664 0.141912 0.095719
O O4 0.679075 0.231895 0.982607
O O5 0.737006 0.939947 0.620085
O O6 0.202592 0.937271 0.645194
O O7 0.668979 0.996163 0.835637
O O8 0.209364 0.465441 0.514071
O O9 0.903279 0.897172 0.157519
O O10 0.641400 0.831891 0.067178
O O11 0.331106 0.107968 0.574905
O O12 0.917191 0.199162 0.739046
O O13 0.516855 0.185600 0.362239
#
# Coordination Sequence:
#
# PCOD9246289 Si02
#       7
#     4   4   2   4   4   4   4
#     4  10  21  40  67 107 142 180 239 306 368 436
#     4  12  25  47  68 105 142 196 246 297 361 422
#     4  12  28  50  72 102 144 204 262 304 340 458
#     4  11  24  43  72 103 143 197 247 298 369 432
#     4  10  23  42  69 108 148 184 234 308 388 442
#     4  11  26  41  72 107 148 184 236 313 373 442
#     4  10  21  40  69 106 143 185 233 305 377 440
#
# _framework density 26.968765999999999
#
# number of rings (size 3 to 8) (size 9 to 14) (size 15 to 20)
#    0.000    1.231    3.077    1.846    6.462    3.692 
#    0.000    1.538    0.000    0.000    0.000    0.000 
#    0.000    0.000    0.000    0.000    0.000    0.000 
#
# Total GULP energy -145066.552564 kJ/mol
# GULP energy per Si atom -5579.482791 kJ/mol
# Density = 2.690738 g / cm^3
# Si number density = 26.968766 Si / 1000 Ang^3
#
#
#
# Elastic Constant Matrix: (Units=GPa)
#
#
# Indices 1 2 3 4 5 6 
#
# 1 156.2578 67.2068 34.3886 0.0000 3.4601 0.0000
# 2 67.2068 75.3987 59.3720 0.0000 -9.9321 0.0000
# 3 34.3886 59.3720 156.7309 0.0000 -1.8406 0.0000
# 4 0.0000 0.0000 0.0000 40.5718 0.0000 -9.8034
# 5 3.4601 -9.9321 -1.8406 0.0000 39.0862 0.0000
# 6 0.0000 0.0000 0.0000 -9.8034 0.0000 38.1731
#
#
#
# Elastic Compliance Matrix: (Units=1/GPa)
#
#
# Indices 1 2 3 4 5 6 
#
# 1 0.011300 -0.012274 0.002123 0.000000 -0.004019 0.000000
# 2 -0.012274 0.033045 -0.009719 0.000000 0.009026 0.000000
# 3 0.002123 -0.009719 0.009570 0.000000 -0.002207 0.000000
# 4 0.000000 0.000000 0.000000 0.026278 0.000000 0.006749
# 5 -0.004019 0.009026 -0.002207 0.000000 0.028130 0.000000
# 6 0.000000 0.000000 0.000000 0.006749 0.000000 0.027930
#
#
# Mechanical properties :
#
#
# Convention : Reuss Voigt Hill
#
# Bulk Modulus (GPa) = 70.54098 78.92468 74.73283
# Shear Modulus (GPa) = 27.66728 38.72757 33.19742
#
# Velocity S-wave (km/s) = 3.20644 3.79359 3.51231
# Velocity P-wave (km/s) = 6.31836 6.96543 6.64977
#
# Compressibility (1/GPa) = 0.01417616
#
# Stress axis : x y z
#
# Youngs Moduli (GPa) = 88.49202 30.26165 104.48912
#
# Poissons Ratio (x) = 0.37142 -0.22181
# Poissons Ratio (y) = 1.08613 1.01553
# Poissons Ratio (z) = -0.18785 0.29411
#
# Static dielectric constant tensor:
#      x y z
#    x 2.193400 0.000000 0.127160 
#    y 0.000000 2.188830 0.000000 
#    z 0.127160 0.000000 2.123380 
# 
# From -- ./inp_files/21482.got.cif
#   From: 2010.05.17/outbox.cif.g08.bks.cpg/sg14_11_cif.got.tgz:21482.got - 2010.06.03 17:49:19.
