data_PCOD9246360
_publ_section_title
;
Structure prediction by ZEFSAII (Michael W. Deem and Ramdas Pophale) SiO2 
 PCOD9246360
Probable space group: P 21/C
;
_chemical_formula_sum "Si O2"
_cell_formula_units_Z 30
_cell_length_a 8.323733
_cell_length_b 13.811483
_cell_length_c 14.655381
_cell_angle_alpha 90.000000
_cell_angle_beta 48.314009
_cell_angle_gamma 90.000000
_cell_volume 1258.230905
_symmetry_space_group_name_H-M "P 21/C"
_symmetry_group_IT_number 14
_symmetry_cell_setting 'monoclinic'
loop_
_space_group_symop_operation_xyz
x,y,z
-x,1/2+y,1/2-z
-x,-y,-z
x,1/2-y,1/2+z
loop_
_atom_site_type_symbol
_atom_site_label
_atom_site_fract_x
_atom_site_fract_y
_atom_site_fract_z
Si Si1 0.664468 0.333546 0.724964
Si Si2 0.152333 0.352659 0.195646
Si Si3 0.457011 0.731570 0.420952
Si Si4 0.242102 0.403697 0.959826
Si Si5 0.345108 0.848182 0.148251
Si Si6 0.015117 0.446300 0.687423
Si Si7 0.500000 0.000000 0.000000
Si Si8 0.076988 0.615607 0.077544
O O1 0.633576 0.324635 0.630127
O O2 0.483589 0.402872 0.834156
O O3 0.608205 0.228983 0.792205
O O4 0.897077 0.370249 0.666830
O O5 0.316765 0.282858 0.184284
O O6 0.141607 0.460722 0.239703
O O7 0.901284 0.328297 0.284570
O O8 0.232066 0.350475 0.060793
O O9 0.471874 0.659439 0.502276
O O10 0.281001 0.813818 0.509714
O O11 0.088804 0.356715 0.940443
O O12 0.163101 0.511163 0.012672
O O13 0.403093 0.959188 0.140351
O O14 0.026065 0.398418 0.784108
O O15 0.244880 0.482039 0.566301
#
# Coordination Sequence:
#
# PCOD9246360 Si02
#       8
#     4   4   4   4   4   4   2   4
#     4  12  25  40  70 102 136 183 229 286 337 414
#     4  10  22  45  67  95 138 176 228 289 348 410
#     4  12  25  40  68 102 134 183 231 283 342 408
#     4  10  21  40  70 101 129 177 226 287 348 403
#     4  11  25  45  65  97 136 180 228 281 348 410
#     4  10  22  46  72  97 139 182 233 288 356 418
#     4  10  26  46  70  96 138 194 212 288 364 410
#     4  10  21  40  70  99 132 170 235 286 341 413
#
# _framework density 23.843001000000001
#
# number of rings (size 3 to 8) (size 9 to 14) (size 15 to 20)
#    0.000    1.333    2.667    1.600    5.600    4.267 
#    2.400    1.333    0.000    0.000    0.000    0.000 
#    0.000    0.000    0.000    0.000    0.000    0.000 
#
# Total GULP energy -167376.256634 kJ/mol
# GULP energy per Si atom -5579.208554 kJ/mol
# Density = 2.378873 g / cm^3
# Si number density = 23.843001 Si / 1000 Ang^3
#
#
#
# Elastic Constant Matrix: (Units=GPa)
#
#
# Indices 1 2 3 4 5 6 
#
# 1 70.1570 29.8639 20.6579 0.0000 -7.2614 0.0000
# 2 29.8639 36.4627 19.8771 0.0000 3.4601 0.0000
# 3 20.6579 19.8771 78.8276 0.0000 -22.8455 0.0000
# 4 0.0000 0.0000 0.0000 24.5071 0.0000 -24.5841
# 5 -7.2614 3.4601 -22.8455 0.0000 37.7636 0.0000
# 6 0.0000 0.0000 0.0000 -24.5841 0.0000 30.3249
#
#
#
# Elastic Compliance Matrix: (Units=1/GPa)
#
#
# Indices 1 2 3 4 5 6 
#
# 1 0.023324 -0.020329 0.001035 0.000000 0.006974 0.000000
# 2 -0.020329 0.052537 -0.012669 0.000000 -0.016387 0.000000
# 3 0.001035 -0.012669 0.019406 0.000000 0.013100 0.000000
# 4 0.000000 0.000000 0.000000 0.218488 0.000000 0.177126
# 5 0.006974 -0.016387 0.013100 0.000000 0.037248 0.000000
# 6 0.000000 0.000000 0.000000 0.177126 0.000000 0.176571
#
#
# Mechanical properties :
#
#
# Convention : Reuss Voigt Hill
#
# Bulk Modulus (GPa) = 31.90842 36.24946 34.07894
# Shear Modulus (GPa) = 8.30637 26.18901 17.24769
#
# Velocity S-wave (km/s) = 1.86851 3.31780 2.69250
# Velocity P-wave (km/s) = 4.25052 5.46932 4.89798
#
# Compressibility (1/GPa) = 0.03133969
#
# Stress axis : x y z
#
# Youngs Moduli (GPa) = 42.87358 19.03424 51.53069
#
# Poissons Ratio (x) = 0.38695 -0.05332
# Poissons Ratio (y) = 0.87158 0.65286
# Poissons Ratio (z) = -0.04436 0.24115
#
# Static dielectric constant tensor:
#      x y z
#    x 1.859350 0.000000 0.001060 
#    y 0.000000 1.568560 0.000000 
#    z 0.001060 0.000000 1.891260 
# 
# From -- ./inp_files/55947.got.cif
#   From: 2010.05.17/outbox.cif.g08.bks.cpg/sg14_28_cif.got.tgz:55947.got - 2010.06.03 17:49:19.
