data_PCOD9246567
_publ_section_title
;
Structure prediction by ZEFSAII (Michael W. Deem and Ramdas Pophale) SiO2 
 PCOD9246567
Probable space group: P 21/C
;
_chemical_formula_sum "Si O2"
_cell_formula_units_Z 26
_cell_length_a 14.862678
_cell_length_b 12.124459
_cell_length_c 14.512373
_cell_angle_alpha 90.000000
_cell_angle_beta 152.500837
_cell_angle_gamma 90.000000
_cell_volume 1207.511519
_symmetry_space_group_name_H-M "P 21/C"
_symmetry_group_IT_number 14
_symmetry_cell_setting 'monoclinic'
loop_
_space_group_symop_operation_xyz
x,y,z
-x,1/2+y,1/2-z
-x,-y,-z
x,1/2-y,1/2+z
loop_
_atom_site_type_symbol
_atom_site_label
_atom_site_fract_x
_atom_site_fract_y
_atom_site_fract_z
Si Si1 0.052180 0.009813 0.339968
Si Si2 0.209887 0.339646 0.644573
Si Si3 0.913851 0.801390 0.305619
Si Si4 0.500000 0.500000 0.000000
Si Si5 0.241159 0.664349 0.509369
Si Si6 0.326763 0.211698 0.584912
Si Si7 0.790908 0.148660 0.668899
O O1 0.176687 0.116531 0.480236
O O2 0.979747 0.927283 0.353008
O O3 0.864646 0.051094 0.112120
O O4 0.189046 0.941660 0.394591
O O5 0.187558 0.237451 0.694290
O O6 0.340288 0.302911 0.676327
O O7 0.994635 0.354913 0.407289
O O8 0.293739 0.444454 0.774385
O O9 0.106036 0.727327 0.460328
O O10 0.769120 0.767845 0.091007
O O11 0.614695 0.387223 0.072890
O O12 0.463055 0.659001 0.743466
O O13 0.232458 0.736633 0.407172
#
# Coordination Sequence:
#
# PCOD9246567 Si02
#       7
#     4   4   4   2   4   4   4
#     4  10  21  41  66  89 126 181 219 257 350 387
#     4  12  24  43  66  98 136 164 223 283 321 400
#     4  10  24  42  64  97 129 179 224 263 345 401
#     4  12  24  36  68 100 122 170 216 266 346 380
#     4  10  21  43  64  90 134 172 216 274 328 395
#     4  11  22  43  64  92 136 168 215 285 318 400
#     4  11  23  42  65  98 131 170 217 283 327 396
#
# _framework density 21.531886
#
# number of rings (size 3 to 8) (size 9 to 14) (size 15 to 20)
#    0.000    1.231    6.154    2.308    0.000    8.000 
#    0.000    0.769    0.000    0.000    0.000    0.000 
#    0.000    0.000    0.000    0.000    0.000    0.000 
#
# Total GULP energy -144822.673212 kJ/mol
# GULP energy per Si atom -5570.102816 kJ/mol
# Density = 2.148288 g / cm^3
# Si number density = 21.531886 Si / 1000 Ang^3
#
#
#
# Elastic Constant Matrix: (Units=GPa)
#
#
# Indices 1 2 3 4 5 6 
#
# 1 29.2279 -11.4920 7.6920 0.0000 3.2245 0.0000
# 2 -11.4920 52.5942 1.6551 0.0000 -9.1625 0.0000
# 3 7.6920 1.6551 97.3781 0.0000 12.3170 0.0000
# 4 0.0000 0.0000 0.0000 28.0800 0.0000 4.8995
# 5 3.2245 -9.1625 12.3170 0.0000 27.7863 0.0000
# 6 0.0000 0.0000 0.0000 4.8995 0.0000 17.9985
#
#
#
# Elastic Compliance Matrix: (Units=1/GPa)
#
#
# Indices 1 2 3 4 5 6 
#
# 1 0.038389 0.008438 -0.003140 0.000000 -0.000280 0.000000
# 2 0.008438 0.022173 -0.001954 0.000000 0.007198 0.000000
# 3 -0.003140 -0.001954 0.011215 0.000000 -0.005251 0.000000
# 4 0.000000 0.000000 0.000000 0.037388 0.000000 -0.010178
# 5 -0.000280 0.007198 -0.005251 0.000000 0.040723 0.000000
# 6 0.000000 0.000000 0.000000 -0.010178 0.000000 0.058331
#
#
# Mechanical properties :
#
#
# Convention : Reuss Voigt Hill
#
# Bulk Modulus (GPa) = 12.74467 19.43449 16.08958
# Shear Modulus (GPa) = 21.96010 26.86262 24.41136
#
# Velocity S-wave (km/s) = 3.19703 3.53593 3.37074
# Velocity P-wave (km/s) = 4.42265 5.07109 4.75793
#
# Compressibility (1/GPa) = 0.07846419
#
# Stress axis : x y z
#
# Youngs Moduli (GPa) = 26.04917 45.10035 89.16868
#
# Poissons Ratio (x) = -0.38056 0.28002
# Poissons Ratio (y) = -0.21981 0.17423
# Poissons Ratio (z) = 0.08180 0.08812
#
# Static dielectric constant tensor:
#      x y z
#    x 1.810180 0.000000 0.003450 
#    y 0.000000 1.778570 0.000000 
#    z 0.003450 0.000000 1.745810 
# 
# From -- ./inp_files/47092.got.cif
#   From: 2010.05.17/outbox.cif.g08.bks.cpg/sg14_24_cif.got.tgz:47092.got - 2010.06.03 17:49:19.
