data_PCOD9246391
_publ_section_title
;
Structure prediction by ZEFSAII (Michael W. Deem and Ramdas Pophale) SiO2 
 PCOD9246391
Probable space group: P 21/C
;
_chemical_formula_sum "Si O2"
_cell_formula_units_Z 30
_cell_length_a 15.519908
_cell_length_b 7.870307
_cell_length_c 9.450094
_cell_angle_alpha 90.000000
_cell_angle_beta 97.953693
_cell_angle_gamma 90.000000
_cell_volume 1143.191285
_symmetry_space_group_name_H-M "P 21/C"
_symmetry_group_IT_number 14
_symmetry_cell_setting 'monoclinic'
loop_
_space_group_symop_operation_xyz
x,y,z
-x,1/2+y,1/2-z
-x,-y,-z
x,1/2-y,1/2+z
loop_
_atom_site_type_symbol
_atom_site_label
_atom_site_fract_x
_atom_site_fract_y
_atom_site_fract_z
Si Si1 0.500207 0.859339 0.319276
Si Si2 0.874104 0.477130 0.697781
Si Si3 0.643982 0.006438 0.524435
Si Si4 0.639914 0.119570 0.929617
Si Si5 0.500000 0.500000 0.500000
Si Si6 0.938456 0.632287 0.189913
Si Si7 0.193183 0.103298 0.558908
Si Si8 0.807654 0.994582 0.875486
O O1 0.431526 0.991709 0.375681
O O2 0.463823 0.863590 0.149008
O O3 0.489103 0.674907 0.385051
O O4 0.595117 0.926219 0.376780
O O5 0.905143 0.674457 0.700114
O O6 0.803596 0.475819 0.807818
O O7 0.837774 0.434011 0.535437
O O8 0.960232 0.375187 0.756418
O O9 0.662637 0.203007 0.499747
O O10 0.738349 0.925429 0.551223
O O11 0.713011 0.076925 0.832870
O O12 0.611627 0.972533 0.028127
O O13 0.887193 0.505645 0.284887
O O14 0.903643 0.585530 0.026845
O O15 0.209145 0.294834 0.608618
#
# Coordination Sequence:
#
# PCOD9246391 Si02
#       8
#     4   4   4   4   2   4   4   4
#     4   9  23  40  58  87 124 160 191 256 298 342
#     4  10  22  37  63  83 117 153 196 239 298 359
#     4  11  23  39  62  92 118 156 212 247 292 357
#     4  10  23  37  63  88 119 155 204 248 290 359
#     4   8  22  40  58  86 120 158 190 248 298 346
#     4  10  21  41  57  87 116 153 196 241 298 358
#     4  10  23  38  58  87 123 152 189 248 301 355
#     4  10  22  40  58  86 119 159 191 239 307 360
#
# _framework density 26.242328000000001
#
# number of rings (size 3 to 8) (size 9 to 14) (size 15 to 20)
#    0.800    1.333    0.000    1.600    3.733    5.333 
#    0.000    0.000    0.000    0.000    0.000    0.000 
#    0.000    0.000    0.000    0.000    0.000    0.000 
#
# Total GULP energy -167308.416753 kJ/mol
# GULP energy per Si atom -5576.947225 kJ/mol
# Density = 2.618260 g / cm^3
# Si number density = 26.242328 Si / 1000 Ang^3
#
#
#
# Elastic Constant Matrix: (Units=GPa)
#
#
# Indices 1 2 3 4 5 6 
#
# 1 89.6388 29.1311 2.0030 0.0000 1.7577 0.0000
# 2 29.1311 49.1184 10.5469 0.0000 1.0094 0.0000
# 3 2.0030 10.5469 94.6188 0.0000 -2.4729 0.0000
# 4 0.0000 0.0000 0.0000 22.3174 0.0000 -1.2397
# 5 1.7577 1.0094 -2.4729 0.0000 43.5976 0.0000
# 6 0.0000 0.0000 0.0000 -1.2397 0.0000 40.4256
#
#
#
# Elastic Compliance Matrix: (Units=1/GPa)
#
#
# Indices 1 2 3 4 5 6 
#
# 1 0.013862 -0.008349 0.000629 0.000000 -0.000330 0.000000
# 2 -0.008349 0.025904 -0.002722 0.000000 -0.000418 0.000000
# 3 0.000629 -0.002722 0.010876 0.000000 0.000655 0.000000
# 4 0.000000 0.000000 0.000000 0.044885 0.000000 0.001376
# 5 -0.000330 -0.000418 0.000655 0.000000 0.022997 0.000000
# 6 0.000000 0.000000 0.000000 0.001376 0.000000 0.024779
#
#
# Mechanical properties :
#
#
# Convention : Reuss Voigt Hill
#
# Bulk Modulus (GPa) = 33.60577 35.19312 34.39945
# Shear Modulus (GPa) = 28.71823 34.04779 31.38301
#
# Velocity S-wave (km/s) = 3.31168 3.60590 3.46192
# Velocity P-wave (km/s) = 5.23992 5.54767 5.39599
#
# Compressibility (1/GPa) = 0.02975679
#
# Stress axis : x y z
#
# Youngs Moduli (GPa) = 72.14133 38.60449 91.94650
#
# Poissons Ratio (x) = 0.32232 -0.05780
# Poissons Ratio (y) = 0.60233 0.25024
# Poissons Ratio (z) = -0.04535 0.10507
#
# Static dielectric constant tensor:
#      x y z
#    x 2.096200 0.000000 -0.112370 
#    y 0.000000 2.017300 0.000000 
#    z -0.112370 0.000000 2.303800 
# 
# From -- ./inp_files/31875.got.cif
#   From: 2010.05.17/outbox.cif.g08.bks.cpg/sg14_16_cif.got.tgz:31875.got - 2010.06.03 17:49:19.
