data_PCOD9246708
_publ_section_title
;
Structure prediction by ZEFSAII (Michael W. Deem and Ramdas Pophale) SiO2 
 PCOD9246708
Probable space group: P 21/C
;
_chemical_formula_sum "Si O2"
_cell_formula_units_Z 32
_cell_length_a 12.022998
_cell_length_b 19.611369
_cell_length_c 11.888753
_cell_angle_alpha 90.000000
_cell_angle_beta 146.513561
_cell_angle_gamma 90.000000
_cell_volume 1546.646802
_symmetry_space_group_name_H-M "P 21/C"
_symmetry_group_IT_number 14
_symmetry_cell_setting 'monoclinic'
loop_
_space_group_symop_operation_xyz
x,y,z
-x,1/2+y,1/2-z
-x,-y,-z
x,1/2-y,1/2+z
loop_
_atom_site_type_symbol
_atom_site_label
_atom_site_fract_x
_atom_site_fract_y
_atom_site_fract_z
Si Si1 0.234654 0.990467 0.184278
Si Si2 0.976959 0.315479 0.007805
Si Si3 0.499426 0.115898 0.480970
Si Si4 0.303525 0.685440 0.428702
Si Si5 0.622722 0.029018 0.948447
Si Si6 0.801152 0.543594 0.811537
Si Si7 0.402305 0.694857 0.164425
Si Si8 0.343748 0.255295 0.429046
O O1 0.342266 0.054725 0.333497
O O2 0.307385 0.920143 0.302134
O O3 0.303926 0.988212 0.113462
O O4 0.000000 0.000000 0.000000
O O5 0.885674 0.294917 0.810121
O O6 0.777187 0.334959 0.910474
O O7 0.122757 0.379682 0.117321
O O8 0.117619 0.262409 0.192809
O O9 0.550029 0.148726 0.402693
O O10 0.413032 0.176800 0.484139
O O11 0.306009 0.605225 0.456393
O O12 0.317337 0.732605 0.549292
O O13 0.503551 0.706201 0.527654
O O14 0.380397 0.028708 0.755546
O O15 0.710779 0.976144 0.113686
O O16 0.000000 0.500000 0.000000
O O17 0.601365 0.710387 0.405758
#
# Coordination Sequence:
#
# PCOD9246708 Si02
#       8
#     4   4   4   4   4   4   4   4
#     4  11  27  45  67  93 134 186 227 269 333 412
#     4  11  23  40  67 101 129 167 224 271 350 399
#     4  10  25  46  63  96 134 171 227 276 331 405
#     4  10  21  42  58  98 128 169 215 276 328 404
#     4  11  24  41  68  94 135 174 225 279 338 400
#     4  11  24  40  68 102 131 171 223 285 340 402
#     4  10  24  39  70  93 133 169 220 277 332 402
#     4  10  22  42  65  94 131 169 215 281 337 396
#
# _framework density 20.689920000000001
#
# number of rings (size 3 to 8) (size 9 to 14) (size 15 to 20)
#    0.000    1.500    2.500    0.750    5.250    7.000 
#    2.250    0.000    0.000    0.000    0.000    0.000 
#    0.000    0.000    0.000    0.000    0.000    0.000 
#
# Total GULP energy -178833.587587 kJ/mol
# GULP energy per Si atom -5588.549612 kJ/mol
# Density = 2.064283 g / cm^3
# Si number density = 20.689920 Si / 1000 Ang^3
#
#
#
# Elastic Constant Matrix: (Units=GPa)
#
#
# Indices 1 2 3 4 5 6 
#
# 1 69.5693 -0.5778 28.0108 0.0000 1.6372 0.0000
# 2 -0.5778 48.3168 23.0126 0.0000 8.7494 0.0000
# 3 28.0108 23.0126 132.2121 0.0000 18.0490 0.0000
# 4 0.0000 0.0000 0.0000 26.2537 0.0000 -2.3741
# 5 1.6372 8.7494 18.0490 0.0000 24.4049 0.0000
# 6 0.0000 0.0000 0.0000 -2.3741 0.0000 20.7938
#
#
#
# Elastic Compliance Matrix: (Units=1/GPa)
#
#
# Indices 1 2 3 4 5 6 
#
# 1 0.015909 0.001816 -0.003840 0.000000 0.001121 0.000000
# 2 0.001816 0.023529 -0.003684 0.000000 -0.005833 0.000000
# 3 -0.003840 -0.003684 0.009791 0.000000 -0.005663 0.000000
# 4 0.000000 0.000000 0.000000 0.038487 0.000000 0.004394
# 5 0.001121 -0.005833 -0.005663 0.000000 0.047179 0.000000
# 6 0.000000 0.000000 0.000000 0.004394 0.000000 0.048593
#
#
# Mechanical properties :
#
#
# Convention : Reuss Voigt Hill
#
# Bulk Modulus (GPa) = 26.44505 38.99883 32.72194
# Shear Modulus (GPa) = 24.09530 27.60064 25.84797
#
# Velocity S-wave (km/s) = 3.41631 3.65638 3.53838
# Velocity P-wave (km/s) = 5.32644 6.05934 5.70467
#
# Compressibility (1/GPa) = 0.03781426
#
# Stress axis : x y z
#
# Youngs Moduli (GPa) = 62.85824 42.50021 102.13049
#
# Poissons Ratio (x) = -0.07718 0.39215
# Poissons Ratio (y) = -0.11415 0.37624
# Poissons Ratio (z) = 0.24135 0.15657
#
# Static dielectric constant tensor:
#      x y z
#    x 1.563100 0.000000 -0.295320 
#    y 0.000000 1.773480 0.000000 
#    z -0.295320 0.000000 1.258880 
# 
# From -- ./inp_files/30756.got.cif
#   From: 2010.05.17/outbox.cif.g08.bks.cpg/sg14_16_cif.got.tgz:30756.got - 2010.06.03 17:49:19.
