data_PCOD9246605
_publ_section_title
;
Structure prediction by ZEFSAII (Michael W. Deem and Ramdas Pophale) SiO2 
 PCOD9246605
Probable space group: P 21/C
;
_chemical_formula_sum "Si O2"
_cell_formula_units_Z 24
_cell_length_a 11.369508
_cell_length_b 20.570745
_cell_length_c 14.773177
_cell_angle_alpha 90.000000
_cell_angle_beta 159.865324
_cell_angle_gamma 90.000000
_cell_volume 1189.355714
_symmetry_space_group_name_H-M "P 21/C"
_symmetry_group_IT_number 14
_symmetry_cell_setting 'monoclinic'
loop_
_space_group_symop_operation_xyz
x,y,z
-x,1/2+y,1/2-z
-x,-y,-z
x,1/2-y,1/2+z
loop_
_atom_site_type_symbol
_atom_site_label
_atom_site_fract_x
_atom_site_fract_y
_atom_site_fract_z
Si Si1 0.304955 0.863483 0.829312
Si Si2 0.941764 0.592350 0.703896
Si Si3 0.529645 0.174530 0.345914
Si Si4 0.206868 0.032075 0.070409
Si Si5 0.874639 0.794567 0.369475
Si Si6 0.068259 0.491122 0.943513
O O1 0.001501 0.827596 0.555360
O O2 0.143172 0.930626 0.747656
O O3 0.558603 0.882869 0.930544
O O4 0.551323 0.827283 0.080441
O O5 0.010206 0.539894 0.677326
O O6 0.970134 0.556723 0.820702
O O7 0.198932 0.651383 0.882182
O O8 0.334457 0.106365 0.182252
O O9 0.267852 0.225445 0.199185
O O10 0.792802 0.202709 0.458371
O O11 0.530153 0.987023 0.282482
O O12 0.000000 0.000000 0.000000
O O13 0.000000 0.500000 0.000000
#
# Coordination Sequence:
#
# PCOD9246605 Si02
#       6
#     4   4   4   4   4   4
#     4  11  22  40  67 103 126 171 220 279 334 392
#     4  10  21  41  67  90 139 170 216 277 342 391
#     4  10  24  45  62  96 127 179 223 275 333 399
#     4  11  24  42  66  96 138 178 216 280 346 402
#     4  11  25  42  69  92 135 175 223 277 329 401
#     4  11  21  38  67 100 130 173 224 274 336 405
#
# _framework density 20.178992000000001
#
# number of rings (size 3 to 8) (size 9 to 14) (size 15 to 20)
#    0.000    1.333    3.333    2.500    4.667    4.000 
#    3.000    0.000    0.000    0.000    0.000    0.000 
#    0.000    0.000    0.000    0.000    0.000    0.000 
#
# Total GULP energy -133613.682555 kJ/mol
# GULP energy per Si atom -5567.236773 kJ/mol
# Density = 2.013306 g / cm^3
# Si number density = 20.178992 Si / 1000 Ang^3
#
#
#
# Elastic Constant Matrix: (Units=GPa)
#
#
# Indices 1 2 3 4 5 6 
#
# 1 90.8048 44.0025 51.0494 0.0000 12.0070 0.0000
# 2 44.0025 89.3394 38.6903 0.0000 7.6154 0.0000
# 3 51.0494 38.6903 73.5776 0.0000 -0.0449 0.0000
# 4 0.0000 0.0000 0.0000 35.6771 0.0000 9.9401
# 5 12.0070 7.6154 -0.0449 0.0000 30.6949 0.0000
# 6 0.0000 0.0000 0.0000 9.9401 0.0000 31.7034
#
#
#
# Elastic Compliance Matrix: (Units=1/GPa)
#
#
# Indices 1 2 3 4 5 6 
#
# 1 0.020975 -0.004428 -0.012229 0.000000 -0.007124 0.000000
# 2 -0.004428 0.015839 -0.005258 0.000000 -0.002205 0.000000
# 3 -0.012229 -0.005258 0.024845 0.000000 0.006125 0.000000
# 4 0.000000 0.000000 0.000000 0.030712 0.000000 -0.009629
# 5 -0.007124 -0.002205 0.006125 0.000000 0.035922 0.000000
# 6 0.000000 0.000000 0.000000 -0.009629 0.000000 0.034561
#
#
# Mechanical properties :
#
#
# Convention : Reuss Voigt Hill
#
# Bulk Modulus (GPa) = 56.08834 57.91180 57.00007
# Shear Modulus (GPa) = 23.51528 27.61371 25.56449
#
# Velocity S-wave (km/s) = 3.41740 3.70325 3.56320
# Velocity P-wave (km/s) = 6.58994 6.85907 6.72585
#
# Compressibility (1/GPa) = 0.01782902
#
# Stress axis : x y z
#
# Youngs Moduli (GPa) = 47.67505 63.13427 40.25005
#
# Poissons Ratio (x) = 0.27954 0.49222
# Poissons Ratio (y) = 0.21109 0.21165
# Poissons Ratio (z) = 0.58303 0.33198
#
# Static dielectric constant tensor:
#      x y z
#    x 1.712930 0.000000 -0.059580 
#    y 0.000000 1.729120 0.000000 
#    z -0.059580 0.000000 1.851350 
# 
# From -- ./inp_files/14566.got.cif
#   From: 2010.05.17/outbox.cif.g08.bks.cpg/sg14_8_cif.got.tgz:14566.got - 2010.06.03 17:49:19.
