data_PCOD9246812
_publ_section_title
;
Structure prediction by ZEFSAII (Michael W. Deem and Ramdas Pophale) SiO2 
 PCOD9246812
Probable space group: P 21/C
;
_chemical_formula_sum "Si O2"
_cell_formula_units_Z 32
_cell_length_a 10.527272
_cell_length_b 11.959785
_cell_length_c 13.250377
_cell_angle_alpha 90.000000
_cell_angle_beta 115.760866
_cell_angle_gamma 90.000000
_cell_volume 1502.474219
_symmetry_space_group_name_H-M "P 21/C"
_symmetry_group_IT_number 14
_symmetry_cell_setting 'monoclinic'
loop_
_space_group_symop_operation_xyz
x,y,z
-x,1/2+y,1/2-z
-x,-y,-z
x,1/2-y,1/2+z
loop_
_atom_site_type_symbol
_atom_site_label
_atom_site_fract_x
_atom_site_fract_y
_atom_site_fract_z
Si Si1 0.412947 0.751119 0.259947
Si Si2 0.428907 0.545134 0.374113
Si Si3 0.132156 0.439506 0.958582
Si Si4 0.085735 0.907179 0.965733
Si Si5 0.286827 0.352746 0.212797
Si Si6 0.855157 0.338855 0.946901
Si Si7 0.859027 0.645238 0.252089
Si Si8 0.678879 0.016505 0.828171
O O1 0.406202 0.678504 0.360728
O O2 0.566258 0.785259 0.264146
O O3 0.301237 0.684398 0.149812
O O4 0.343771 0.873539 0.245961
O O5 0.500000 0.500000 0.500000
O O6 0.313021 0.456263 0.297663
O O7 0.535232 0.535994 0.315268
O O8 0.219894 0.395986 0.085285
O O9 0.149471 0.573589 0.962379
O O10 0.183394 0.381534 0.875248
O O11 0.968710 0.402714 0.915591
O O12 0.018917 0.892854 0.832870
O O13 0.078594 0.782627 0.009073
O O14 0.244184 0.945672 0.041164
O O15 0.000000 0.000000 0.000000
O O16 0.177524 0.270291 0.229214
O O17 0.768519 0.570863 0.297599
#
# Coordination Sequence:
#
# PCOD9246812 Si02
#       8
#     4   4   4   4   4   4   4   4
#     4  10  21  42  66  85 132 169 210 275 328 386
#     4  11  23  40  63  95 123 173 217 264 336 388
#     4  11  24  41  69  94 135 173 217 274 340 391
#     4   9  19  40  65  91 127 166 207 266 321 380
#     4  11  23  43  64  93 133 167 218 282 320 391
#     4  10  21  45  63  94 132 170 211 277 327 395
#     4  11  22  41  66  97 125 176 219 261 339 396
#     4   9  21  42  61  90 132 163 212 273 313 392
#
# _framework density 21.298203000000001
#
# number of rings (size 3 to 8) (size 9 to 14) (size 15 to 20)
#    0.000    1.750    3.750    0.000    1.750    1.000 
#   13.500    3.125    0.000    0.000    0.000    0.000 
#    0.000    0.000    0.000    0.000    0.000    0.000 
#
# Total GULP energy -178254.347987 kJ/mol
# GULP energy per Si atom -5570.448375 kJ/mol
# Density = 2.124973 g / cm^3
# Si number density = 21.298203 Si / 1000 Ang^3
#
#
#
# Elastic Constant Matrix: (Units=GPa)
#
#
# Indices 1 2 3 4 5 6 
#
# 1 47.4846 14.6982 7.5856 0.0000 19.1808 0.0000
# 2 14.6982 108.6949 31.3603 0.0000 7.7651 0.0000
# 3 7.5856 31.3603 104.5274 0.0000 8.0199 0.0000
# 4 0.0000 0.0000 0.0000 21.8508 0.0000 10.0361
# 5 19.1808 7.7651 8.0199 0.0000 22.9495 0.0000
# 6 0.0000 0.0000 0.0000 10.0361 0.0000 14.6172
#
#
#
# Elastic Compliance Matrix: (Units=1/GPa)
#
#
# Indices 1 2 3 4 5 6 
#
# 1 0.032468 -0.002637 0.000461 0.000000 -0.026405 0.000000
# 2 -0.002637 0.010418 -0.002911 0.000000 -0.000304 0.000000
# 3 0.000461 -0.002911 0.010646 0.000000 -0.003121 0.000000
# 4 0.000000 0.000000 0.000000 0.066845 0.000000 -0.045896
# 5 -0.026405 -0.000304 -0.003121 0.000000 0.066836 0.000000
# 6 0.000000 0.000000 0.000000 -0.045896 0.000000 0.099924
#
#
# Mechanical properties :
#
#
# Convention : Reuss Voigt Hill
#
# Bulk Modulus (GPa) = 23.06372 40.88836 31.97604
# Shear Modulus (GPa) = 16.03772 25.68768 20.86270
#
# Velocity S-wave (km/s) = 2.74708 3.47666 3.13318
# Velocity P-wave (km/s) = 4.57322 5.94608 5.30426
#
# Compressibility (1/GPa) = 0.04335814
#
# Stress axis : x y z
#
# Youngs Moduli (GPa) = 30.79944 95.98555 93.93006
#
# Poissons Ratio (x) = 0.25312 -0.04329
# Poissons Ratio (y) = 0.08122 0.27343
# Poissons Ratio (z) = -0.01420 0.27941
#
# Static dielectric constant tensor:
#      x y z
#    x 1.808400 0.000000 0.050700 
#    y 0.000000 1.811880 0.000000 
#    z 0.050700 0.000000 1.788360 
# 
# From -- ./inp_files/29386.got.cif
#   From: 2010.05.17/outbox.cif.g08.bks.cpg/sg14_15_cif.got.tgz:29386.got - 2010.06.03 17:49:19.
