data_PCOD9246600
_publ_section_title
;
Structure prediction by ZEFSAII (Michael W. Deem and Ramdas Pophale) SiO2 
 PCOD9246600
Probable space group: P 21/C
;
_chemical_formula_sum "Si O2"
_cell_formula_units_Z 28
_cell_length_a 5.902136
_cell_length_b 11.393762
_cell_length_c 17.965064
_cell_angle_alpha 90.000000
_cell_angle_beta 109.659594
_cell_angle_gamma 90.000000
_cell_volume 1137.683347
_symmetry_space_group_name_H-M "P 21/C"
_symmetry_group_IT_number 14
_symmetry_cell_setting 'monoclinic'
loop_
_space_group_symop_operation_xyz
x,y,z
-x,1/2+y,1/2-z
-x,-y,-z
x,1/2-y,1/2+z
loop_
_atom_site_type_symbol
_atom_site_label
_atom_site_fract_x
_atom_site_fract_y
_atom_site_fract_z
Si Si1 0.016099 0.102312 0.604194
Si Si2 0.814698 0.664904 0.717226
Si Si3 0.412009 0.789472 0.963135
Si Si4 0.572721 0.062758 0.179766
Si Si5 0.725572 0.233026 0.320083
Si Si6 0.193180 0.920343 0.063187
Si Si7 0.277513 0.411114 0.976945
O O1 0.149001 0.143956 0.691125
O O2 0.176169 0.089623 0.548941
O O3 0.810113 0.198501 0.565708
O O4 0.905640 0.970925 0.600112
O O5 0.768665 0.535247 0.678006
O O6 0.551991 0.727251 0.688484
O O7 0.063218 0.719997 0.713858
O O8 0.449998 0.835019 0.883879
O O9 0.367200 0.894447 0.013646
O O10 0.627490 0.717598 0.024089
O O11 0.647420 0.113605 0.268057
O O12 0.318929 0.993878 0.143607
O O13 0.852289 0.288935 0.408683
O O14 0.000000 0.000000 0.000000
O O15 0.500000 0.500000 0.000000
#
# Coordination Sequence:
#
# PCOD9246600 Si02
#       7
#     4   4   4   4   4   4   4
#     4  10  21  41  67 102 140 191 236 312 362 456
#     4  11  25  46  73 105 145 193 256 298 382 454
#     4  11  22  43  70 103 142 193 242 312 382 445
#     4  11  25  48  74 107 151 201 249 320 382 470
#     4  11  26  49  75 108 150 206 246 315 390 455
#     4  11  27  47  75 113 150 198 261 320 388 461
#     4   9  21  38  65 101 141 184 248 299 375 445
#
# _framework density 24.611415000000001
#
# number of rings (size 3 to 8) (size 9 to 14) (size 15 to 20)
#    0.000    1.429    1.429    2.143    6.000    6.857 
#    7.714    0.000    0.000    0.000    0.000    0.000 
#    0.000    0.000    0.000    0.000    0.000    0.000 
#
# Total GULP energy -155953.291740 kJ/mol
# GULP energy per Si atom -5569.760419 kJ/mol
# Density = 2.455540 g / cm^3
# Si number density = 24.611415 Si / 1000 Ang^3
#
#
#
# Elastic Constant Matrix: (Units=GPa)
#
#
# Indices 1 2 3 4 5 6 
#
# 1 102.6251 32.6176 18.2948 0.0000 10.2657 0.0000
# 2 32.6176 83.6711 15.7246 0.0000 9.6675 0.0000
# 3 18.2948 15.7246 99.5383 0.0000 22.5301 0.0000
# 4 0.0000 0.0000 0.0000 34.9410 0.0000 -11.1181
# 5 10.2657 9.6675 22.5301 0.0000 34.1426 0.0000
# 6 0.0000 0.0000 0.0000 -11.1181 0.0000 30.4364
#
#
#
# Elastic Compliance Matrix: (Units=1/GPa)
#
#
# Indices 1 2 3 4 5 6 
#
# 1 0.011383 -0.004052 -0.001102 0.000000 -0.001548 0.000000
# 2 -0.004052 0.013957 -0.000989 0.000000 -0.002081 0.000000
# 3 -0.001102 -0.000989 0.012069 0.000000 -0.007353 0.000000
# 4 0.000000 0.000000 0.000000 0.032384 0.000000 0.011829
# 5 -0.001548 -0.002081 -0.007353 0.000000 0.035196 0.000000
# 6 0.000000 0.000000 0.000000 0.011829 0.000000 0.037177
#
#
# Mechanical properties :
#
#
# Convention : Reuss Voigt Hill
#
# Bulk Modulus (GPa) = 39.80079 46.56762 43.18421
# Shear Modulus (GPa) = 30.70756 34.51716 32.61236
#
# Velocity S-wave (km/s) = 3.53611 3.74904 3.64413
# Velocity P-wave (km/s) = 5.73401 6.14025 5.94060
#
# Compressibility (1/GPa) = 0.02512513
#
# Stress axis : x y z
#
# Youngs Moduli (GPa) = 87.84861 71.64681 82.85351
#
# Poissons Ratio (x) = 0.29028 0.09128
# Poissons Ratio (y) = 0.35593 0.08196
# Poissons Ratio (z) = 0.09678 0.07087
#
# Static dielectric constant tensor:
#      x y z
#    x 2.005050 0.000000 0.072460 
#    y 0.000000 2.094950 0.000000 
#    z 0.072460 0.000000 1.981340 
# 
# From -- ./inp_files/63564.got.cif
#   From: 2010.05.17/outbox.cif.g08.bks.cpg/sg14_32_cif.got.tgz:63564.got - 2010.06.03 17:49:19.
