data_PCOD9246619
_publ_section_title
;
Structure prediction by ZEFSAII (Michael W. Deem and Ramdas Pophale) SiO2 
 PCOD9246619
Probable space group: P 21/C
;
_chemical_formula_sum "Si O2"
_cell_formula_units_Z 20
_cell_length_a 6.548378
_cell_length_b 8.094697
_cell_length_c 16.349630
_cell_angle_alpha 90.000000
_cell_angle_beta 69.383789
_cell_angle_gamma 90.000000
_cell_volume 811.146936
_symmetry_space_group_name_H-M "P 21/C"
_symmetry_group_IT_number 14
_symmetry_cell_setting 'monoclinic'
loop_
_space_group_symop_operation_xyz
x,y,z
-x,1/2+y,1/2-z
-x,-y,-z
x,1/2-y,1/2+z
loop_
_atom_site_type_symbol
_atom_site_label
_atom_site_fract_x
_atom_site_fract_y
_atom_site_fract_z
Si Si1 0.427878 0.425694 0.097895
Si Si2 0.552793 0.247250 0.826575
Si Si3 0.087095 0.115594 0.858699
Si Si4 0.335344 0.850027 0.007849
Si Si5 0.002793 0.748342 0.300556
O O1 0.475786 0.553371 0.164314
O O2 0.175901 0.365547 0.131654
O O3 0.500000 0.500000 0.000000
O O4 0.569120 0.258165 0.078807
O O5 0.335097 0.141313 0.850871
O O6 0.647908 0.226589 0.903905
O O7 0.745244 0.197172 0.738484
O O8 0.925740 0.139745 0.958487
O O9 0.070661 0.242581 0.784375
O O10 0.012873 0.937387 0.833677
O O11 0.500000 0.000000 0.000000
#
# Coordination Sequence:
#
# PCOD9246619 Si02
#       5
#     4   4   4   4   4
#     4  10  21  44  66  96 143 184 219 291 353 405
#     4  10  24  42  66 101 134 181 240 275 351 421
#     4  11  24  43  68 101 133 184 234 288 346 418
#     4  10  21  41  67  95 141 178 225 289 350 409
#     4  11  22  45  68  95 143 179 228 294 346 404
#
# _framework density 24.656447
#
# number of rings (size 3 to 8) (size 9 to 14) (size 15 to 20)
#    0.000    1.600    4.000    0.000    0.000    4.800 
#    0.000    0.000    0.000    0.000    0.000    0.000 
#    0.000    0.000    0.000    0.000    0.000    0.000 
#
# Total GULP energy -111513.847635 kJ/mol
# GULP energy per Si atom -5575.692382 kJ/mol
# Density = 2.460033 g / cm^3
# Si number density = 24.656447 Si / 1000 Ang^3
#
#
#
# Elastic Constant Matrix: (Units=GPa)
#
#
# Indices 1 2 3 4 5 6 
#
# 1 92.2562 26.0813 59.6123 0.0000 -30.9130 0.0000
# 2 26.0813 93.9824 44.3319 0.0000 -22.1805 0.0000
# 3 59.6123 44.3319 128.3564 0.0000 -60.8116 0.0000
# 4 0.0000 0.0000 0.0000 40.6462 0.0000 -1.3556
# 5 -30.9130 -22.1805 -60.8116 0.0000 64.1273 0.0000
# 6 0.0000 0.0000 0.0000 -1.3556 0.0000 36.5389
#
#
#
# Elastic Compliance Matrix: (Units=1/GPa)
#
#
# Indices 1 2 3 4 5 6 
#
# 1 0.015626 -0.001074 -0.006343 0.000000 0.001146 0.000000
# 2 -0.001074 0.012791 -0.003756 0.000000 0.000345 0.000000
# 3 -0.006343 -0.003756 0.018103 0.000000 0.012810 0.000000
# 4 0.000000 0.000000 0.000000 0.024633 0.000000 0.000914
# 5 0.001146 0.000345 0.012810 0.000000 0.028414 0.000000
# 6 0.000000 0.000000 0.000000 0.000914 0.000000 0.027402
#
#
# Mechanical properties :
#
#
# Convention : Reuss Voigt Hill
#
# Bulk Modulus (GPa) = 41.36579 63.84956 52.60768
# Shear Modulus (GPa) = 31.77184 40.56711 36.16947
#
# Velocity S-wave (km/s) = 3.59358 4.06062 3.83422
# Velocity P-wave (km/s) = 5.83367 6.92364 6.40189
#
# Compressibility (1/GPa) = 0.02417457
#
# Stress axis : x y z
#
# Youngs Moduli (GPa) = 63.99740 78.17813 55.23939
#
# Poissons Ratio (x) = 0.08394 0.35040
# Poissons Ratio (y) = 0.06872 0.20746
# Poissons Ratio (z) = 0.40595 0.29361
#
# Static dielectric constant tensor:
#      x y z
#    x 2.019710 0.000000 -0.041410 
#    y 0.000000 2.643810 0.000000 
#    z -0.041410 0.000000 1.989040 
# 
# From -- ./inp_files/62981.got.cif
#   From: 2010.05.17/outbox.cif.g08.bks.cpg/sg14_32_cif.got.tgz:62981.got - 2010.06.03 17:49:19.
