data_PCOD9246386
_publ_section_title
;
Structure prediction by ZEFSAII (Michael W. Deem and Ramdas Pophale) SiO2 
 PCOD9246386
Probable space group: P 21/C
;
_chemical_formula_sum "Si O2"
_cell_formula_units_Z 22
_cell_length_a 4.877447
_cell_length_b 14.581681
_cell_length_c 12.523242
_cell_angle_alpha 90.000000
_cell_angle_beta 102.796472
_cell_angle_gamma 90.000000
_cell_volume 868.548625
_symmetry_space_group_name_H-M "P 21/C"
_symmetry_group_IT_number 14
_symmetry_cell_setting 'monoclinic'
loop_
_space_group_symop_operation_xyz
x,y,z
-x,1/2+y,1/2-z
-x,-y,-z
x,1/2-y,1/2+z
loop_
_atom_site_type_symbol
_atom_site_label
_atom_site_fract_x
_atom_site_fract_y
_atom_site_fract_z
Si Si1 0.051754 0.433982 0.152546
Si Si2 0.000000 0.500000 0.500000
Si Si3 0.218389 0.382963 0.945665
Si Si4 0.643961 0.303936 0.831618
Si Si5 0.567422 0.052704 0.160532
Si Si6 0.816691 0.114958 0.850417
O O1 0.840736 0.510721 0.087995
O O2 0.903406 0.382231 0.235943
O O3 0.291036 0.492970 0.232153
O O4 0.177461 0.375293 0.068089
O O5 0.771117 0.451173 0.578272
O O6 0.070914 0.392930 0.454483
O O7 0.510760 0.354379 0.921352
O O8 0.977483 0.324205 0.864714
O O9 0.524103 0.349715 0.713571
O O10 0.602741 0.196311 0.844847
O O11 0.283018 0.990610 0.121180
#
# Coordination Sequence:
#
# PCOD9246386 Si02
#       6
#     4   2   4   4   4   4
#     4  10  21  40  73  98 141 191 233 306 375 421
#     4   8  20  42  64  94 140 186 234 288 364 424
#     4  10  23  41  69 106 143 176 240 305 365 431
#     4  11  23  42  68 107 143 187 242 299 361 434
#     4   9  21  42  67  98 144 181 239 298 354 435
#     4  10  22  42  67 101 141 190 237 291 361 435
#
# _framework density 25.329611
#
# number of rings (size 3 to 8) (size 9 to 14) (size 15 to 20)
#    1.091    1.091    1.818    0.000    5.091    2.909 
#    3.273    3.636    0.000    0.000    0.000    0.000 
#    0.000    0.000    0.000    0.000    0.000    0.000 
#
# Total GULP energy -122724.846763 kJ/mol
# GULP energy per Si atom -5578.402126 kJ/mol
# Density = 2.527196 g / cm^3
# Si number density = 25.329611 Si / 1000 Ang^3
#
#
#
# Elastic Constant Matrix: (Units=GPa)
#
#
# Indices 1 2 3 4 5 6 
#
# 1 74.3443 35.6307 25.3674 0.0000 -8.1730 0.0000
# 2 35.6307 107.2986 51.2260 0.0000 -6.4852 0.0000
# 3 25.3674 51.2260 176.6177 0.0000 -25.5093 0.0000
# 4 0.0000 0.0000 0.0000 20.1684 0.0000 0.2181
# 5 -8.1730 -6.4852 -25.5093 0.0000 44.4253 0.0000
# 6 0.0000 0.0000 0.0000 0.2181 0.0000 33.7350
#
#
#
# Elastic Compliance Matrix: (Units=1/GPa)
#
#
# Indices 1 2 3 4 5 6 
#
# 1 0.016263 -0.004993 -0.000612 0.000000 0.001912 0.000000
# 2 -0.004993 0.012353 -0.002986 0.000000 -0.000830 0.000000
# 3 -0.000612 -0.002986 0.007128 0.000000 0.003544 0.000000
# 4 0.000000 0.000000 0.000000 0.049586 0.000000 -0.000321
# 5 0.001912 -0.000830 0.003544 0.000000 0.024776 0.000000
# 6 0.000000 0.000000 0.000000 -0.000321 0.000000 0.029645
#
#
# Mechanical properties :
#
#
# Convention : Reuss Voigt Hill
#
# Bulk Modulus (GPa) = 53.86936 64.74544 59.30740
# Shear Modulus (GPa) = 30.65277 36.06817 33.36047
#
# Velocity S-wave (km/s) = 3.48250 3.77762 3.63306
# Velocity P-wave (km/s) = 6.12241 6.68161 6.40811
#
# Compressibility (1/GPa) = 0.01856343
#
# Stress axis : x y z
#
# Youngs Moduli (GPa) = 61.49052 80.95228 140.29910
#
# Poissons Ratio (x) = 0.40418 0.08580
# Poissons Ratio (y) = 0.30701 0.41887
# Poissons Ratio (z) = 0.03760 0.24169
#
# Static dielectric constant tensor:
#      x y z
#    x 2.063530 0.000000 0.056680 
#    y 0.000000 2.130530 0.000000 
#    z 0.056680 0.000000 1.972470 
# 
# From -- ./inp_files/20801.got.cif
#   From: 2010.05.17/outbox.cif.g08.bks.cpg/sg14_11_cif.got.tgz:20801.got - 2010.06.03 17:49:19.
