data_PCOD9246287
_publ_section_title
;
Structure prediction by ZEFSAII (Michael W. Deem and Ramdas Pophale) SiO2 
 PCOD9246287
Probable space group: P 21/C
;
_chemical_formula_sum "Si O2"
_cell_formula_units_Z 20
_cell_length_a 17.890344
_cell_length_b 6.338611
_cell_length_c 18.194704
_cell_angle_alpha 90.000000
_cell_angle_beta 154.632348
_cell_angle_gamma 90.000000
_cell_volume 883.960081
_symmetry_space_group_name_H-M "P 21/C"
_symmetry_group_IT_number 14
_symmetry_cell_setting 'monoclinic'
loop_
_space_group_symop_operation_xyz
x,y,z
-x,1/2+y,1/2-z
-x,-y,-z
x,1/2-y,1/2+z
loop_
_atom_site_type_symbol
_atom_site_label
_atom_site_fract_x
_atom_site_fract_y
_atom_site_fract_z
Si Si1 0.408277 0.940702 0.613720
Si Si2 0.770247 0.821932 0.000964
Si Si3 0.252859 0.563262 0.377325
Si Si4 0.398460 0.344820 0.964455
Si Si5 0.046140 0.580787 0.622657
O O1 0.569830 0.887991 0.808159
O O2 0.346081 0.742565 0.509898
O O3 0.249991 0.067428 0.511434
O O4 0.477537 0.101730 0.613566
O O5 0.832410 0.920732 0.133491
O O6 0.885642 0.907806 0.036745
O O7 0.380322 0.406140 0.446865
O O8 0.132275 0.686871 0.212000
O O9 0.198729 0.424105 0.783903
O O10 0.500000 0.500000 0.000000
O O11 0.000000 0.500000 0.500000
#
# Coordination Sequence:
#
# PCOD9246287 Si02
#       5
#     4   4   4   4   4
#     4  10  21  40  67 102 131 183 236 291 354 436
#     4  11  22  41  69 101 140 185 243 294 371 434
#     4  10  24  42  70 103 139 190 236 302 356 439
#     4  10  23  45  69 101 140 184 237 293 369 434
#     4  11  26  43  68 106 146 189 243 306 365 435
#
# _framework density 22.625456
#
# number of rings (size 3 to 8) (size 9 to 14) (size 15 to 20)
#    0.000    1.600    2.000    1.200    8.400    4.000 
#    0.000    4.000    0.000    0.000    0.000    0.000 
#    0.000    0.000    0.000    0.000    0.000    0.000 
#
# Total GULP energy -111427.122680 kJ/mol
# GULP energy per Si atom -5571.356134 kJ/mol
# Density = 2.257396 g / cm^3
# Si number density = 22.625456 Si / 1000 Ang^3
#
#
#
# Elastic Constant Matrix: (Units=GPa)
#
#
# Indices 1 2 3 4 5 6 
#
# 1 174.3608 79.2757 56.5587 0.0000 -5.5400 0.0000
# 2 79.2757 148.4854 63.5329 0.0000 -3.3099 0.0000
# 3 56.5587 63.5329 89.5763 0.0000 -14.7971 0.0000
# 4 0.0000 0.0000 0.0000 37.6462 0.0000 -3.4063
# 5 -5.5400 -3.3099 -14.7971 0.0000 34.1744 0.0000
# 6 0.0000 0.0000 0.0000 -3.4063 0.0000 44.2032
#
#
#
# Elastic Compliance Matrix: (Units=1/GPa)
#
#
# Indices 1 2 3 4 5 6 
#
# 1 0.008079 -0.003039 -0.002991 0.000000 -0.000280 0.000000
# 2 -0.003039 0.010967 -0.006209 0.000000 -0.002119 0.000000
# 3 -0.002991 -0.006209 0.018608 0.000000 0.006971 0.000000
# 4 0.000000 0.000000 0.000000 0.026750 0.000000 0.002061
# 5 -0.000280 -0.002119 0.006971 0.000000 0.032029 0.000000
# 6 0.000000 0.000000 0.000000 0.002061 0.000000 0.022782
#
#
# Mechanical properties :
#
#
# Convention : Reuss Voigt Hill
#
# Bulk Modulus (GPa) = 75.91167 90.12856 83.02011
# Shear Modulus (GPa) = 33.76428 37.40846 35.58637
#
# Velocity S-wave (km/s) = 3.86724 4.07059 3.97022
# Velocity P-wave (km/s) = 7.31881 7.87492 7.60195
#
# Compressibility (1/GPa) = 0.01317320
#
# Stress axis : x y z
#
# Youngs Moduli (GPa) = 123.78395 91.18246 53.74043
#
# Poissons Ratio (x) = 0.27715 0.16075
# Poissons Ratio (y) = 0.37624 0.33370
# Poissons Ratio (z) = 0.37028 0.56619
#
# Static dielectric constant tensor:
#      x y z
#    x 1.902160 0.000000 0.023690 
#    y 0.000000 1.997840 0.000000 
#    z 0.023690 0.000000 1.846880 
# 
# From -- ./inp_files/59995.got.cif
#   From: 2010.05.17/outbox.cif.g08.bks.cpg/sg14_30_cif.got.tgz:59995.got - 2010.06.03 17:49:19.
