data_PCOD9246826
_publ_section_title
;
Structure prediction by ZEFSAII (Michael W. Deem and Ramdas Pophale) SiO2 
 PCOD9246826
Probable space group: P 21/C
;
_chemical_formula_sum "Si O2"
_cell_formula_units_Z 16
_cell_length_a 5.414822
_cell_length_b 5.426148
_cell_length_c 20.046272
_cell_angle_alpha 90.000000
_cell_angle_beta 111.730533
_cell_angle_gamma 90.000000
_cell_volume 547.135574
_symmetry_space_group_name_H-M "P 21/C"
_symmetry_group_IT_number 14
_symmetry_cell_setting 'monoclinic'
loop_
_space_group_symop_operation_xyz
x,y,z
-x,1/2+y,1/2-z
-x,-y,-z
x,1/2-y,1/2+z
loop_
_atom_site_type_symbol
_atom_site_label
_atom_site_fract_x
_atom_site_fract_y
_atom_site_fract_z
Si Si1 0.334566 0.751563 0.471616
Si Si2 0.209014 0.798193 0.596943
Si Si3 0.209606 0.043820 0.846174
Si Si4 0.338781 0.109121 0.722336
O O1 0.500000 0.500000 0.500000
O O2 0.125934 0.767494 0.511748
O O3 0.247702 0.718815 0.386414
O O4 0.500000 0.000000 0.500000
O O5 0.501762 0.675109 0.626635
O O6 0.251953 0.059158 0.637805
O O7 0.997755 0.672461 0.624904
O O8 0.128743 0.059388 0.760876
O O9 0.542948 0.881800 0.758039
#
# Coordination Sequence:
#
# PCOD9246826 Si02
#       4
#     4   4   4   4
#     4  10  21  42  66  96 130 170 214 266 322 384
#     4  10  22  41  65  94 129 169 215 266 322 384
#     4  10  22  41  65  94 129 169 215 266 322 384
#     4  10  22  42  64  94 128 170 216 268 324 386
#
# _framework density 29.243207000000002
#
# number of rings (size 3 to 8) (size 9 to 14) (size 15 to 20)
#    0.000    2.000    0.000    2.250    0.000    8.000 
#    0.000   40.000    0.000    0.000    0.000    0.000 
#    0.000    0.000    0.000    0.000    0.000    0.000 
#
# Total GULP energy -89548.746505 kJ/mol
# GULP energy per Si atom -5596.796657 kJ/mol
# Density = 2.917665 g / cm^3
# Si number density = 29.243207 Si / 1000 Ang^3
#
#
#
# Elastic Constant Matrix: (Units=GPa)
#
#
# Indices 1 2 3 4 5 6 
#
# 1 153.6145 69.6296 51.1777 0.0000 -46.1358 0.0000
# 2 69.6296 168.1993 24.9651 0.0000 -4.6535 0.0000
# 3 51.1777 24.9651 228.0357 0.0000 -40.4614 0.0000
# 4 0.0000 0.0000 0.0000 53.2105 0.0000 4.6745
# 5 -46.1358 -4.6535 -40.4614 0.0000 65.9823 0.0000
# 6 0.0000 0.0000 0.0000 4.6745 0.0000 83.4427
#
#
#
# Elastic Compliance Matrix: (Units=1/GPa)
#
#
# Indices 1 2 3 4 5 6 
#
# 1 0.010626 -0.004103 -0.000750 0.000000 0.006680 0.000000
# 2 -0.004103 0.007628 -0.000368 0.000000 -0.002556 0.000000
# 3 -0.000750 -0.000368 0.005045 0.000000 0.002543 0.000000
# 4 0.000000 0.000000 0.000000 0.018886 0.000000 -0.001058
# 5 0.006680 -0.002556 0.002543 0.000000 0.021206 0.000000
# 6 0.000000 0.000000 0.000000 -0.001058 0.000000 0.012044
#
#
# Mechanical properties :
#
#
# Convention : Reuss Voigt Hill
#
# Bulk Modulus (GPa) = 77.77854 93.48826 85.63340
# Shear Modulus (GPa) = 55.45644 67.46559 61.46102
#
# Velocity S-wave (km/s) = 4.35948 4.80839 4.58942
# Velocity P-wave (km/s) = 7.21075 7.92881 7.57829
#
# Compressibility (1/GPa) = 0.01285702
#
# Stress axis : x y z
#
# Youngs Moduli (GPa) = 94.11217 131.10396 198.20839
#
# Poissons Ratio (x) = 0.53786 0.14871
# Poissons Ratio (y) = 0.38610 0.07292
# Poissons Ratio (z) = 0.07061 0.04823
#
# Static dielectric constant tensor:
#      x y z
#    x 2.428080 0.000000 0.251160 
#    y 0.000000 2.287670 0.000000 
#    z 0.251160 0.000000 2.613180 
# 
# From -- ./inp_files/62795.got.cif
#   From: 2010.05.17/outbox.cif.g08.bks.cpg/sg14_32_cif.got.tgz:62795.got - 2010.06.03 17:49:19.
