data_PCOD9246457
_publ_section_title
;
Structure prediction by ZEFSAII (Michael W. Deem and Ramdas Pophale) SiO2 
 PCOD9246457
Probable space group: P 21/C
;
_chemical_formula_sum "Si O2"
_cell_formula_units_Z 20
_cell_length_a 5.934729
_cell_length_b 16.643742
_cell_length_c 8.511840
_cell_angle_alpha 90.000000
_cell_angle_beta 85.745949
_cell_angle_gamma 90.000000
_cell_volume 838.449985
_symmetry_space_group_name_H-M "P 21/C"
_symmetry_group_IT_number 14
_symmetry_cell_setting 'monoclinic'
loop_
_space_group_symop_operation_xyz
x,y,z
-x,1/2+y,1/2-z
-x,-y,-z
x,1/2-y,1/2+z
loop_
_atom_site_type_symbol
_atom_site_label
_atom_site_fract_x
_atom_site_fract_y
_atom_site_fract_z
Si Si1 0.177987 0.472636 0.856786
Si Si2 0.521557 0.836378 0.544749
Si Si3 0.768606 0.794388 0.238397
Si Si4 0.110451 0.666077 0.289982
Si Si5 0.098242 0.922735 0.084243
O O1 0.388490 0.425730 0.920377
O O2 0.227254 0.544334 0.731434
O O3 0.057879 0.403566 0.759477
O O4 0.000000 0.500000 0.000000
O O5 0.563853 0.819656 0.361026
O O6 0.676799 0.769778 0.620696
O O7 0.282459 0.824956 0.638068
O O8 0.968730 0.747116 0.320148
O O9 0.886820 0.870504 0.154822
O O10 0.219870 0.632971 0.446598
O O11 0.000000 0.000000 0.000000
#
# Coordination Sequence:
#
# PCOD9246457 Si02
#       5
#     4   4   4   4   4
#     4  10  21  41  63  88 128 163 200 259 311 366
#     4  11  24  39  64  93 120 166 210 253 314 371
#     4  11  22  42  62  89 128 158 206 263 304 366
#     4  10  24  41  63  92 122 163 210 251 310 374
#     4  10  21  42  63  86 131 165 195 261 312 358
#
# _framework density 23.853539000000001
#
# number of rings (size 3 to 8) (size 9 to 14) (size 15 to 20)
#    0.000    1.600    4.000    0.000    2.800    1.600 
#    0.000    0.000    0.000    0.000    0.000    0.000 
#    0.000    0.000    0.000    0.000    0.000    0.000 
#
# Total GULP energy -111816.178305 kJ/mol
# GULP energy per Si atom -5590.808915 kJ/mol
# Density = 2.379925 g / cm^3
# Si number density = 23.853539 Si / 1000 Ang^3
#
#
#
# Elastic Constant Matrix: (Units=GPa)
#
#
# Indices 1 2 3 4 5 6 
#
# 1 36.4910 27.7040 11.5922 0.0000 -23.8415 0.0000
# 2 27.7040 120.7705 58.1173 0.0000 -0.7814 0.0000
# 3 11.5922 58.1173 122.4937 0.0000 -27.9632 0.0000
# 4 0.0000 0.0000 0.0000 46.1627 0.0000 -7.0727
# 5 -23.8415 -0.7814 -27.9632 0.0000 38.0164 0.0000
# 6 0.0000 0.0000 0.0000 -7.0727 0.0000 29.2280
#
#
#
# Elastic Compliance Matrix: (Units=1/GPa)
#
#
# Indices 1 2 3 4 5 6 
#
# 1 0.094294 -0.032657 0.023936 0.000000 0.076070 0.000000
# 2 -0.032657 0.022639 -0.014686 0.000000 -0.030817 0.000000
# 3 0.023936 -0.014686 0.019498 0.000000 0.029051 0.000000
# 4 0.000000 0.000000 0.000000 0.022497 0.000000 0.005444
# 5 0.076070 -0.030817 0.029051 0.000000 0.094746 0.000000
# 6 0.000000 0.000000 0.000000 0.005444 0.000000 0.035531
#
#
# Mechanical properties :
#
#
# Convention : Reuss Voigt Hill
#
# Bulk Modulus (GPa) = 11.15844 52.73136 31.94490
# Shear Modulus (GPa) = 13.66528 34.83754 24.25141
#
# Velocity S-wave (km/s) = 2.39609 3.82576 3.19200
# Velocity P-wave (km/s) = 3.51327 6.45520 5.19676
#
# Compressibility (1/GPa) = 0.08961824
#
# Stress axis : x y z
#
# Youngs Moduli (GPa) = 10.60513 44.17131 51.28721
#
# Poissons Ratio (x) = 1.44250 -1.22761
# Poissons Ratio (y) = 0.34633 0.75319
# Poissons Ratio (z) = -0.25385 0.64869
#
# Static dielectric constant tensor:
#      x y z
#    x 1.872400 0.000000 0.043670 
#    y 0.000000 1.894410 0.000000 
#    z 0.043670 0.000000 1.907210 
# 
# From -- ./inp_files/5426.got.cif
#   From: 2010.05.17/outbox.cif.g08.bks.cpg/sg14_3_cif.got.tgz:5426.got - 2010.06.03 17:49:19.
