data_PCOD9246589
_publ_section_title
;
Structure prediction by ZEFSAII (Michael W. Deem and Ramdas Pophale) SiO2 
 PCOD9246589
Probable space group: P 21/C
;
_chemical_formula_sum "Si O2"
_cell_formula_units_Z 30
_cell_length_a 13.426647
_cell_length_b 20.890877
_cell_length_c 4.966172
_cell_angle_alpha 90.000000
_cell_angle_beta 78.364587
_cell_angle_gamma 90.000000
_cell_volume 1364.358865
_symmetry_space_group_name_H-M "P 21/C"
_symmetry_group_IT_number 14
_symmetry_cell_setting 'monoclinic'
loop_
_space_group_symop_operation_xyz
x,y,z
-x,1/2+y,1/2-z
-x,-y,-z
x,1/2-y,1/2+z
loop_
_atom_site_type_symbol
_atom_site_label
_atom_site_fract_x
_atom_site_fract_y
_atom_site_fract_z
Si Si1 0.830725 0.293368 0.589015
Si Si2 0.485742 0.579591 0.210879
Si Si3 0.627666 0.032159 0.717019
Si Si4 0.835590 0.083126 0.766587
Si Si5 0.999334 0.863144 0.743685
Si Si6 0.820164 0.708426 0.056578
Si Si7 0.411074 0.206863 0.295176
Si Si8 0.000000 0.000000 0.000000
O O1 0.802847 0.260180 0.884619
O O2 0.793206 0.361551 0.491480
O O3 0.950286 0.310998 0.581263
O O4 0.412886 0.543691 0.460015
O O5 0.589082 0.537451 0.144024
O O6 0.512791 0.649501 0.295916
O O7 0.431871 0.579125 0.952447
O O8 0.745931 0.047472 0.658049
O O9 0.909567 0.117177 0.510416
O O10 0.903019 0.032228 0.890315
O O11 0.907626 0.837049 0.616313
O O12 0.969420 0.927471 0.913079
O O13 0.828269 0.771673 0.241425
O O14 0.705823 0.683817 0.168899
O O15 0.424765 0.234807 0.584327
#
# Coordination Sequence:
#
# PCOD9246589 Si02
#       8
#     4   4   4   4   4   4   4   2
#     4  11  22  39  64  89 124 172 213 258 314 378
#     4  10  22  45  69  97 122 171 215 281 332 392
#     4  10  24  43  71  95 127 169 225 266 335 392
#     4  11  25  44  65  96 137 172 221 276 319 405
#     4  11  23  41  62  92 134 176 216 268 320 391
#     4  10  23  38  63  95 125 169 215 258 322 395
#     4  10  21  41  66  97 130 162 210 274 333 384
#     4  10  26  40  60  98 132 180 218 266 328 370
#
# _framework density 21.988347999999998
#
# number of rings (size 3 to 8) (size 9 to 14) (size 15 to 20)
#    0.000    1.600    1.333    2.000    9.333    0.000 
#    0.000    4.000    0.000    0.000    0.000    0.000 
#    0.000    0.000    0.000    0.000    0.000    0.000 
#
# Total GULP energy -167042.217213 kJ/mol
# GULP energy per Si atom -5568.073907 kJ/mol
# Density = 2.193830 g / cm^3
# Si number density = 21.988348 Si / 1000 Ang^3
#
#
#
# Elastic Constant Matrix: (Units=GPa)
#
#
# Indices 1 2 3 4 5 6 
#
# 1 47.7973 36.0611 4.2795 0.0000 23.0083 0.0000
# 2 36.0611 41.8271 -6.4663 0.0000 15.1647 0.0000
# 3 4.2795 -6.4663 58.9866 0.0000 13.4561 0.0000
# 4 0.0000 0.0000 0.0000 14.3372 0.0000 4.4982
# 5 23.0083 15.1647 13.4561 0.0000 27.0090 0.0000
# 6 0.0000 0.0000 0.0000 4.4982 0.0000 30.4650
#
#
#
# Elastic Compliance Matrix: (Units=1/GPa)
#
#
# Indices 1 2 3 4 5 6 
#
# 1 0.083483 -0.059934 -0.004603 0.000000 -0.035172 0.000000
# 2 -0.059934 0.076866 0.012380 0.000000 0.001731 0.000000
# 3 -0.004603 0.012380 0.021814 0.000000 -0.013897 0.000000
# 4 0.000000 0.000000 0.000000 0.073136 0.000000 -0.010799
# 5 -0.035172 0.001731 -0.013897 0.000000 0.072939 0.000000
# 6 0.000000 0.000000 0.000000 -0.010799 0.000000 0.034419
#
#
# Mechanical properties :
#
#
# Convention : Reuss Voigt Hill
#
# Bulk Modulus (GPa) = 12.84551 24.03999 18.44275
# Shear Modulus (GPa) = 10.14359 22.01136 16.07747
#
# Velocity S-wave (km/s) = 2.15016 3.16736 2.70697
# Velocity P-wave (km/s) = 3.46683 4.93285 4.26333
#
# Compressibility (1/GPa) = 0.07784818
#
# Stress axis : x y z
#
# Youngs Moduli (GPa) = 11.97855 13.00962 45.84136
#
# Poissons Ratio (x) = 0.77972 0.21102
# Poissons Ratio (y) = 0.71792 -0.56750
# Poissons Ratio (z) = 0.05514 -0.16106
#
# Static dielectric constant tensor:
#      x y z
#    x 1.802980 0.000000 -0.027990 
#    y 0.000000 1.801920 0.000000 
#    z -0.027990 0.000000 1.830550 
# 
# From -- ./inp_files/2959.got.cif
#   From: 2010.05.17/outbox.cif.g08.bks.cpg/sg14_2_cif.got.tgz:2959.got - 2010.06.03 17:49:19.
