data_PCOD9246752
_publ_section_title
;
Structure prediction by ZEFSAII (Michael W. Deem and Ramdas Pophale) SiO2 
 PCOD9246752
Probable space group: P 21/C
;
_chemical_formula_sum "Si O2"
_cell_formula_units_Z 28
_cell_length_a 19.183507
_cell_length_b 8.176745
_cell_length_c 13.736964
_cell_angle_alpha 90.000000
_cell_angle_beta 148.773049
_cell_angle_gamma 90.000000
_cell_volume 1117.091530
_symmetry_space_group_name_H-M "P 21/C"
_symmetry_group_IT_number 14
_symmetry_cell_setting 'monoclinic'
loop_
_space_group_symop_operation_xyz
x,y,z
-x,1/2+y,1/2-z
-x,-y,-z
x,1/2-y,1/2+z
loop_
_atom_site_type_symbol
_atom_site_label
_atom_site_fract_x
_atom_site_fract_y
_atom_site_fract_z
Si Si1 0.937587 0.589396 0.744060
Si Si2 0.730469 0.539057 0.356045
Si Si3 0.084336 0.689038 0.552603
Si Si4 0.580974 0.756966 0.030470
Si Si5 0.422295 0.816811 0.174648
Si Si6 0.132719 0.700959 0.818498
Si Si7 0.348273 0.894221 0.876233
O O1 0.819348 0.653794 0.531954
O O2 0.907521 0.396834 0.728497
O O3 0.071098 0.613868 0.838843
O O4 0.959556 0.707687 0.862341
O O5 0.843161 0.423407 0.441039
O O6 0.646383 0.610133 0.166646
O O7 0.630003 0.454451 0.312560
O O8 0.072531 0.620124 0.648180
O O9 0.203215 0.820027 0.714175
O O10 0.665388 0.915638 0.158853
O O11 0.558134 0.740348 0.888332
O O12 0.433473 0.800794 0.896939
O O13 0.294972 0.692939 0.017061
O O14 0.433163 0.875497 0.077367
#
# Coordination Sequence:
#
# PCOD9246752 Si02
#       7
#     4   4   4   4   4   4   4
#     4  11  21  44  60  92 123 167 207 264 310 379
#     4  11  24  40  65  90 129 167 209 254 319 371
#     4  11  22  44  63  92 126 167 205 262 316 380
#     4  11  23  41  63  97 128 163 210 264 299 382
#     4  10  21  42  63  89 126 165 202 256 312 371
#     4  10  23  40  68  88 124 166 208 257 325 368
#     4  10  24  39  67  95 125 165 212 254 319 363
#
# _framework density 25.065089
#
# number of rings (size 3 to 8) (size 9 to 14) (size 15 to 20)
#    0.000    1.429    4.286    0.857    4.000    1.714 
#    0.000    0.000    0.000    0.000    0.000    0.000 
#    0.000    0.000    0.000    0.000    0.000    0.000 
#
# Total GULP energy -156541.761624 kJ/mol
# GULP energy per Si atom -5590.777201 kJ/mol
# Density = 2.500804 g / cm^3
# Si number density = 25.065089 Si / 1000 Ang^3
#
#
#
# Elastic Constant Matrix: (Units=GPa)
#
#
# Indices 1 2 3 4 5 6 
#
# 1 66.3590 2.6700 -5.6716 0.0000 -25.0868 0.0000
# 2 2.6700 36.8777 14.8385 0.0000 -4.9122 0.0000
# 3 -5.6716 14.8385 110.4189 0.0000 -41.9280 0.0000
# 4 0.0000 0.0000 0.0000 14.5384 0.0000 -6.1241
# 5 -25.0868 -4.9122 -41.9280 0.0000 49.2916 0.0000
# 6 0.0000 0.0000 0.0000 -6.1241 0.0000 31.6539
#
#
#
# Elastic Compliance Matrix: (Units=1/GPa)
#
#
# Indices 1 2 3 4 5 6 
#
# 1 0.023059 -0.002660 0.008711 0.000000 0.018880 0.000000
# 2 -0.002660 0.028986 -0.005094 0.000000 -0.002798 0.000000
# 3 0.008711 -0.005094 0.017251 0.000000 0.018600 0.000000
# 4 0.000000 0.000000 0.000000 0.074887 0.000000 0.014488
# 5 0.018880 -0.002798 0.018600 0.000000 0.045439 0.000000
# 6 0.000000 0.000000 0.000000 0.014488 0.000000 0.034395
#
#
# Mechanical properties :
#
#
# Convention : Reuss Voigt Hill
#
# Bulk Modulus (GPa) = 14.04299 26.36993 20.20646
# Shear Modulus (GPa) = 20.33848 32.55134 26.44491
#
# Velocity S-wave (km/s) = 2.85165 3.60762 3.25168
# Velocity P-wave (km/s) = 4.05676 5.28173 4.70924
#
# Compressibility (1/GPa) = 0.07120989
#
# Stress axis : x y z
#
# Youngs Moduli (GPa) = 43.36753 34.49903 57.96725
#
# Poissons Ratio (x) = 0.09175 -0.50495
# Poissons Ratio (y) = 0.11534 0.29531
# Poissons Ratio (z) = -0.37777 0.17575
#
# Static dielectric constant tensor:
#      x y z
#    x 1.993880 0.000000 -0.027690 
#    y 0.000000 2.060410 0.000000 
#    z -0.027690 0.000000 2.010070 
# 
# From -- ./inp_files/50132.got.cif
#   From: 2010.05.17/outbox.cif.g08.bks.cpg/sg14_26_cif.got.tgz:50132.got - 2010.06.03 17:49:19.
