data_PCOD9246914
_publ_section_title
;
Structure prediction by ZEFSAII (Michael W. Deem and Ramdas Pophale) SiO2 
 PCOD9246914
Probable space group: P 21/C
;
_chemical_formula_sum "Si O2"
_cell_formula_units_Z 16
_cell_length_a 10.482009
_cell_length_b 6.616232
_cell_length_c 9.741182
_cell_angle_alpha 90.000000
_cell_angle_beta 112.795786
_cell_angle_gamma 90.000000
_cell_volume 622.797403
_symmetry_space_group_name_H-M "P 21/C"
_symmetry_group_IT_number 14
_symmetry_cell_setting 'monoclinic'
loop_
_space_group_symop_operation_xyz
x,y,z
-x,1/2+y,1/2-z
-x,-y,-z
x,1/2-y,1/2+z
loop_
_atom_site_type_symbol
_atom_site_label
_atom_site_fract_x
_atom_site_fract_y
_atom_site_fract_z
Si Si1 0.842687 0.195188 0.138389
Si Si2 0.025227 0.238687 0.471273
Si Si3 0.611634 0.899356 0.145375
Si Si4 0.681982 0.583629 0.971279
O O1 0.945166 0.277392 0.296834
O O2 0.752324 0.023740 0.173703
O O3 0.944746 0.141729 0.056662
O O4 0.740569 0.363886 0.032872
O O5 0.190534 0.231639 0.522118
O O6 0.000000 0.000000 0.500000
O O7 0.585273 0.913344 0.296628
O O8 0.625503 0.676622 0.088408
O O9 0.500000 0.000000 0.000000
#
# Coordination Sequence:
#
# PCOD9246914 Si02
#       4
#     4   4   4   4
#     4  11  23  45  72 102 146 179 229 291 359 417
#     4  10  21  42  70 106 138 177 228 287 361 413
#     4  12  29  47  71 101 141 195 242 283 345 421
#     4  11  27  47  70 109 140 184 238 292 355 418
#
# _framework density 25.690539999999999
#
# number of rings (size 3 to 8) (size 9 to 14) (size 15 to 20)
#    0.000    1.000    5.000    1.500   10.500    2.000 
#    0.000    0.000    0.000    0.000    0.000    0.000 
#    0.000    0.000    0.000    0.000    0.000    0.000 
#
# Total GULP energy -89622.512560 kJ/mol
# GULP energy per Si atom -5601.407035 kJ/mol
# Density = 2.563207 g / cm^3
# Si number density = 25.690540 Si / 1000 Ang^3
#
#
#
# Elastic Constant Matrix: (Units=GPa)
#
#
# Indices 1 2 3 4 5 6 
#
# 1 48.8793 6.4960 19.1904 0.0000 -12.3888 0.0000
# 2 6.4960 65.7397 25.1531 0.0000 -12.9563 0.0000
# 3 19.1904 25.1531 225.5121 0.0000 -12.0323 0.0000
# 4 0.0000 0.0000 0.0000 42.0466 0.0000 -8.4521
# 5 -12.3888 -12.9563 -12.0323 0.0000 49.1162 0.0000
# 6 0.0000 0.0000 0.0000 -8.4521 0.0000 35.5458
#
#
#
# Elastic Compliance Matrix: (Units=1/GPa)
#
#
# Indices 1 2 3 4 5 6 
#
# 1 0.022453 -0.000609 -0.001570 0.000000 0.005118 0.000000
# 2 -0.000609 0.016641 -0.001599 0.000000 0.003844 0.000000
# 3 -0.001570 -0.001599 0.004765 0.000000 0.000350 0.000000
# 4 0.000000 0.000000 0.000000 0.024977 0.000000 0.005939
# 5 0.005118 0.003844 0.000350 0.000000 0.022751 0.000000
# 6 0.000000 0.000000 0.000000 0.005939 0.000000 0.029545
#
#
# Mechanical properties :
#
#
# Convention : Reuss Voigt Hill
#
# Bulk Modulus (GPa) = 27.54607 49.09003 38.31805
# Shear Modulus (GPa) = 35.51416 44.62785 40.07100
#
# Velocity S-wave (km/s) = 3.72207 4.17241 3.95366
# Velocity P-wave (km/s) = 5.40530 6.50859 5.98243
#
# Compressibility (1/GPa) = 0.03630283
#
# Stress axis : x y z
#
# Youngs Moduli (GPa) = 44.53746 60.09163 209.86623
#
# Poissons Ratio (x) = 0.03662 0.32941
# Poissons Ratio (y) = 0.02714 0.33561
# Poissons Ratio (z) = 0.06991 0.09610
#
# Static dielectric constant tensor:
#      x y z
#    x 2.203380 0.000000 -0.077030 
#    y 0.000000 2.207750 0.000000 
#    z -0.077030 0.000000 1.979590 
# 
# From -- ./inp_files/11497.got.cif
#   From: 2010.05.17/outbox.cif.g08.bks.cpg/sg14_6_cif.got.tgz:11497.got - 2010.06.03 17:49:19.
