data_PCOD9246128
_publ_section_title
;
Structure prediction by ZEFSAII (Michael W. Deem and Ramdas Pophale) SiO2 
 PCOD9246128
Probable space group: P 21/C
;
_chemical_formula_sum "Si O2"
_cell_formula_units_Z 28
_cell_length_a 8.738724
_cell_length_b 7.462175
_cell_length_c 17.396777
_cell_angle_alpha 90.000000
_cell_angle_beta 72.121461
_cell_angle_gamma 90.000000
_cell_volume 1079.659067
_symmetry_space_group_name_H-M "P 21/C"
_symmetry_group_IT_number 14
_symmetry_cell_setting 'monoclinic'
loop_
_space_group_symop_operation_xyz
x,y,z
-x,1/2+y,1/2-z
-x,-y,-z
x,1/2-y,1/2+z
loop_
_atom_site_type_symbol
_atom_site_label
_atom_site_fract_x
_atom_site_fract_y
_atom_site_fract_z
Si Si1 0.550684 0.062358 0.175514
Si Si2 0.053985 0.932460 0.169820
Si Si3 0.682317 0.244647 0.782737
Si Si4 0.245786 0.296972 0.186759
Si Si5 0.830445 0.868761 0.077227
Si Si6 0.816254 0.927918 0.458760
Si Si7 0.807316 0.013057 0.620020
O O1 0.460110 0.880667 0.166569
O O2 0.715305 0.038309 0.103092
O O3 0.606289 0.079146 0.256320
O O4 0.418004 0.214575 0.183827
O O5 0.175565 0.777040 0.178420
O O6 0.887783 0.905106 0.242676
O O7 0.000117 0.916454 0.089670
O O8 0.140396 0.118388 0.178513
O O9 0.744869 0.139273 0.696165
O O10 0.278934 0.411820 0.104585
O O11 0.770515 0.697235 0.139415
O O12 0.827762 0.768243 0.997071
O O13 0.999476 0.978228 0.411420
O O14 0.754497 0.046697 0.539903
#
# Coordination Sequence:
#
# PCOD9246128 Si02
#       7
#     4   4   4   4   4   4   4
#     4  11  24  38  62  91 135 166 206 268 331 384
#     4  11  22  36  67  92 121 159 226 266 304 378
#     4  11  21  40  61  94 125 167 211 270 323 376
#     4  11  23  40  61  96 126 171 211 273 317 386
#     4  10  21  40  63  92 123 166 207 267 322 384
#     4   9  21  40  65  88 130 163 215 262 329 378
#     4   9  19  40  64  84 125 164 208 271 313 382
#
# _framework density 25.934113
#
# number of rings (size 3 to 8) (size 9 to 14) (size 15 to 20)
#    0.857    0.857    1.429    4.286    0.000    1.143 
#    0.000    0.714    0.000    0.000    0.000    0.000 
#    0.000    0.000    0.000    0.000    0.000    0.000 
#
# Total GULP energy -156343.818807 kJ/mol
# GULP energy per Si atom -5583.707815 kJ/mol
# Density = 2.587509 g / cm^3
# Si number density = 25.934113 Si / 1000 Ang^3
#
#
#
# Elastic Constant Matrix: (Units=GPa)
#
#
# Indices 1 2 3 4 5 6 
#
# 1 149.7990 3.5558 17.7500 0.0000 2.6037 0.0000
# 2 3.5558 89.8237 -2.4099 0.0000 -24.6770 0.0000
# 3 17.7500 -2.4099 57.1290 0.0000 6.3869 0.0000
# 4 0.0000 0.0000 0.0000 40.4421 0.0000 -13.0146
# 5 2.6037 -24.6770 6.3869 0.0000 20.3564 0.0000
# 6 0.0000 0.0000 0.0000 -13.0146 0.0000 36.4169
#
#
#
# Elastic Compliance Matrix: (Units=1/GPa)
#
#
# Indices 1 2 3 4 5 6 
#
# 1 0.006953 -0.000594 -0.002078 0.000000 -0.000957 0.000000
# 2 -0.000594 0.016888 -0.001451 0.000000 0.021003 0.000000
# 3 -0.002078 -0.001451 0.018919 0.000000 -0.007430 0.000000
# 4 0.000000 0.000000 0.000000 0.027940 0.000000 0.009985
# 5 -0.000957 0.021003 -0.007430 0.000000 0.077040 0.000000
# 6 0.000000 0.000000 0.000000 0.009985 0.000000 0.031028
#
#
# Mechanical properties :
#
#
# Convention : Reuss Voigt Hill
#
# Bulk Modulus (GPa) = 28.97472 37.17150 33.07311
# Shear Modulus (GPa) = 25.18655 37.96681 31.57668
#
# Velocity S-wave (km/s) = 3.11975 3.83034 3.49316
# Velocity P-wave (km/s) = 4.91669 5.82462 5.38980
#
# Compressibility (1/GPa) = 0.03451285
#
# Stress axis : x y z
#
# Youngs Moduli (GPa) = 143.83111 59.21457 52.85602
#
# Poissons Ratio (x) = 0.03517 0.10985
# Poissons Ratio (y) = 0.08543 0.07671
# Poissons Ratio (z) = 0.29891 0.08593
#
# Static dielectric constant tensor:
#      x y z
#    x 2.013210 0.000000 0.044390 
#    y 0.000000 2.233990 0.000000 
#    z 0.044390 0.000000 2.051190 
# 
# From -- ./inp_files/71755.got.cif
#   From: 2010.05.17/outbox.cif.g08.bks.cpg/sg14_36_cif.got.tgz:71755.got - 2010.06.03 17:49:19.
