data_PCOD9246428
_publ_section_title
;
Structure prediction by ZEFSAII (Michael W. Deem and Ramdas Pophale) SiO2 
 PCOD9246428
Probable space group: P 21/C
;
_chemical_formula_sum "Si O2"
_cell_formula_units_Z 26
_cell_length_a 18.572723
_cell_length_b 4.907105
_cell_length_c 10.242430
_cell_angle_alpha 90.000000
_cell_angle_beta 70.472355
_cell_angle_gamma 90.000000
_cell_volume 879.784341
_symmetry_space_group_name_H-M "P 21/C"
_symmetry_group_IT_number 14
_symmetry_cell_setting 'monoclinic'
loop_
_space_group_symop_operation_xyz
x,y,z
-x,1/2+y,1/2-z
-x,-y,-z
x,1/2-y,1/2+z
loop_
_atom_site_type_symbol
_atom_site_label
_atom_site_fract_x
_atom_site_fract_y
_atom_site_fract_z
Si Si1 0.140882 0.981406 0.016112
Si Si2 0.678470 0.498610 0.917221
Si Si3 0.500000 0.000000 0.500000
Si Si4 0.530664 0.988783 0.216494
Si Si5 0.018240 0.021338 0.817659
Si Si6 0.829116 0.223175 0.729983
Si Si7 0.303170 0.276937 0.341432
O O1 0.153244 0.687286 0.934296
O O2 0.217682 0.122991 0.919692
O O3 0.053748 0.081636 0.050130
O O4 0.150590 0.976626 0.166005
O O5 0.591817 0.437032 0.946836
O O6 0.744092 0.315125 0.816194
O O7 0.689090 0.766381 0.817791
O O8 0.688152 0.531515 0.064440
O O9 0.492995 0.255106 0.648159
O O10 0.503870 0.718028 0.143044
O O11 0.623756 0.968891 0.160692
O O12 0.997497 0.332184 0.801117
O O13 0.106844 0.960566 0.788474
#
# Coordination Sequence:
#
# PCOD9246428 Si02
#       7
#     4   4   2   4   4   4   4
#     4  10  22  40  64 100 137 183 230 285 346 413
#     4  10  21  41  61  94 134 176 229 284 346 410
#     4  10  22  42  64  96 134 176 230 278 346 404
#     4  11  24  43  66  95 131 173 224 276 338 399
#     4  10  21  42  70 105 140 184 231 287 344 412
#     4  10  22  40  65  95 142 179 232 284 346 412
#     4  10  22  40  64  96 132 177 227 283 344 411
#
# _framework density 29.552696000000001
#
# number of rings (size 3 to 8) (size 9 to 14) (size 15 to 20)
#    0.000    1.846    1.538    1.385    2.154    1.846 
#    0.000   22.308    0.000    0.000    0.000    0.000 
#    0.000    0.000    0.000    0.000    0.000    0.000 
#
# Total GULP energy -144803.195912 kJ/mol
# GULP energy per Si atom -5569.353689 kJ/mol
# Density = 2.948543 g / cm^3
# Si number density = 29.552696 Si / 1000 Ang^3
#
#
#
# Elastic Constant Matrix: (Units=GPa)
#
#
# Indices 1 2 3 4 5 6 
#
# 1 285.3541 63.9706 50.7041 0.0000 -63.7855 0.0000
# 2 63.9706 156.9709 35.3700 0.0000 -19.1721 0.0000
# 3 50.7041 35.3700 137.6715 0.0000 -34.8676 0.0000
# 4 0.0000 0.0000 0.0000 9.7868 0.0000 4.9887
# 5 -63.7855 -19.1721 -34.8676 0.0000 70.0220 0.0000
# 6 0.0000 0.0000 0.0000 4.9887 0.0000 41.4600
#
#
#
# Elastic Compliance Matrix: (Units=1/GPa)
#
#
# Indices 1 2 3 4 5 6 
#
# 1 0.004718 -0.001370 -0.000449 0.000000 0.003699 0.000000
# 2 -0.001370 0.007239 -0.001338 0.000000 0.000068 0.000000
# 3 -0.000449 -0.001338 0.008670 0.000000 0.003542 0.000000
# 4 0.000000 0.000000 0.000000 0.108855 0.000000 -0.013098
# 5 0.003699 0.000068 0.003542 0.000000 0.019433 0.000000
# 6 0.000000 0.000000 0.000000 -0.013098 0.000000 0.025696
#
#
# Mechanical properties :
#
#
# Convention : Reuss Voigt Hill
#
# Bulk Modulus (GPa) = 69.86552 97.78732 83.82642
# Shear Modulus (GPa) = 26.92582 52.91723 39.92152
#
# Velocity S-wave (km/s) = 3.02174 4.23615 3.67939
# Velocity P-wave (km/s) = 5.98889 7.55563 6.81742
#
# Compressibility (1/GPa) = 0.01431321
#
# Stress axis : x y z
#
# Youngs Moduli (GPa) = 211.94557 138.14747 115.34310
#
# Poissons Ratio (x) = 0.18924 0.05177
# Poissons Ratio (y) = 0.29033 0.15433
# Poissons Ratio (z) = 0.09513 0.18485
#
# Static dielectric constant tensor:
#      x y z
#    x 2.316110 0.000000 0.317270 
#    y 0.000000 2.681500 0.000000 
#    z 0.317270 0.000000 2.781080 
# 
# From -- ./inp_files/34615.got.cif
#   From: 2010.05.17/outbox.cif.g08.bks.cpg/sg14_18_cif.got.tgz:34615.got - 2010.06.03 17:49:19.
