data_PCOD9246065
_publ_section_title
;
Structure prediction by ZEFSAII (Michael W. Deem and Ramdas Pophale) SiO2 
 PCOD9246065
Probable space group: P 21/C
;
_chemical_formula_sum "Si O2"
_cell_formula_units_Z 28
_cell_length_a 7.847733
_cell_length_b 28.922646
_cell_length_c 5.486292
_cell_angle_alpha 90.000000
_cell_angle_beta 55.369171
_cell_angle_gamma 90.000000
_cell_volume 1024.640817
_symmetry_space_group_name_H-M "P 21/C"
_symmetry_group_IT_number 14
_symmetry_cell_setting 'monoclinic'
loop_
_space_group_symop_operation_xyz
x,y,z
-x,1/2+y,1/2-z
-x,-y,-z
x,1/2-y,1/2+z
loop_
_atom_site_type_symbol
_atom_site_label
_atom_site_fract_x
_atom_site_fract_y
_atom_site_fract_z
Si Si1 0.694942 0.607772 0.540344
Si Si2 0.867766 0.412299 0.320107
Si Si3 0.313537 0.368016 0.953511
Si Si4 0.634818 0.996699 0.138184
Si Si5 0.837123 0.133609 0.346095
Si Si6 0.818044 0.738341 0.939246
Si Si7 0.644698 0.272369 0.199843
O O1 0.577730 0.622397 0.879503
O O2 0.736938 0.553666 0.536069
O O3 0.908883 0.636274 0.358778
O O4 0.579365 0.618991 0.384770
O O5 0.798488 0.461946 0.476797
O O6 0.797864 0.377826 0.594509
O O7 0.114654 0.402290 0.113818
O O8 0.801781 0.404150 0.091784
O O9 0.244147 0.315132 0.006477
O O10 0.500000 0.000000 0.500000
O O11 0.500000 0.000000 0.000000
O O12 0.742699 0.180925 0.520370
O O13 0.930100 0.751038 0.096653
O O14 0.609197 0.769845 0.101297
O O15 0.690832 0.264747 0.447493
#
# Coordination Sequence:
#
# PCOD9246065 Si02
#       7
#     4   4   4   4   4   4   4
#     4  10  23  43  68  99 132 176 225 284 331 414
#     4  10  23  43  68  99 132 176 225 284 331 414
#     4  10  21  42  69 101 130 179 230 272 337 397
#     4  12  26  48  66 104 138 174 224 278 358 406
#     4  10  21  42  69 101 130 179 230 272 337 397
#     4  10  21  40  61  97 139 179 220 277 331 397
#     4  10  21  40  61  97 139 179 220 277 331 397
#
# _framework density 27.326650999999998
#
# number of rings (size 3 to 8) (size 9 to 14) (size 15 to 20)
#    0.000    1.714    0.000    3.429    0.000    4.571 
#   30.857   17.143    0.000    0.000    0.000    0.000 
#    0.000    0.000    0.000    0.000    0.000    0.000 
#
# Total GULP energy -156933.536784 kJ/mol
# GULP energy per Si atom -5604.769171 kJ/mol
# Density = 2.726445 g / cm^3
# Si number density = 27.326651 Si / 1000 Ang^3
#
#
#
# Elastic Constant Matrix: (Units=GPa)
#
#
# Indices 1 2 3 4 5 6 
#
# 1 114.1614 25.6940 54.9582 0.0000 39.2938 0.0000
# 2 25.6940 127.5497 9.6006 0.0000 19.4795 0.0000
# 3 54.9582 9.6006 196.0276 0.0000 45.3338 0.0000
# 4 0.0000 0.0000 0.0000 60.5516 0.0000 1.0462
# 5 39.2938 19.4795 45.3338 0.0000 81.5221 0.0000
# 6 0.0000 0.0000 0.0000 1.0462 0.0000 39.9816
#
#
#
# Elastic Compliance Matrix: (Units=1/GPa)
#
#
# Indices 1 2 3 4 5 6 
#
# 1 0.011550 -0.001555 -0.002250 0.000000 -0.003945 0.000000
# 2 -0.001555 0.008347 0.000362 0.000000 -0.001446 0.000000
# 3 -0.002250 0.000362 0.006293 0.000000 -0.002501 0.000000
# 4 0.000000 0.000000 0.000000 0.016522 0.000000 -0.000432
# 5 -0.003945 -0.001446 -0.002501 0.000000 0.015904 0.000000
# 6 0.000000 0.000000 0.000000 -0.000432 0.000000 0.025023
#
#
# Mechanical properties :
#
#
# Convention : Reuss Voigt Hill
#
# Bulk Modulus (GPa) = 51.80378 68.69382 60.24880
# Shear Modulus (GPa) = 51.56729 59.57678 55.57204
#
# Velocity S-wave (km/s) = 4.34875 4.67430 4.51446
# Velocity P-wave (km/s) = 6.64936 7.37053 7.01921
#
# Compressibility (1/GPa) = 0.01930361
#
# Stress axis : x y z
#
# Youngs Moduli (GPa) = 86.57788 119.80432 158.91033
#
# Poissons Ratio (x) = 0.18629 0.35752
# Poissons Ratio (y) = 0.13463 -0.05746
# Poissons Ratio (z) = 0.19479 -0.04332
#
# Static dielectric constant tensor:
#      x y z
#    x 2.236190 0.000000 0.021710 
#    y 0.000000 2.058710 0.000000 
#    z 0.021710 0.000000 2.153380 
# 
# From -- ./inp_files/2068.got.cif
#   From: 2010.05.17/outbox.cif.g08.bks.cpg/sg14_2_cif.got.tgz:2068.got - 2010.06.03 17:49:19.
