data_PCOD9246686
_publ_section_title
;
Structure prediction by ZEFSAII (Michael W. Deem and Ramdas Pophale) SiO2 
 PCOD9246686
Probable space group: P 21/C
;
_chemical_formula_sum "Si O2"
_cell_formula_units_Z 32
_cell_length_a 7.829008
_cell_length_b 16.163521
_cell_length_c 19.435735
_cell_angle_alpha 90.000000
_cell_angle_beta 32.987317
_cell_angle_gamma 90.000000
_cell_volume 1339.073362
_symmetry_space_group_name_H-M "P 21/C"
_symmetry_group_IT_number 14
_symmetry_cell_setting 'monoclinic'
loop_
_space_group_symop_operation_xyz
x,y,z
-x,1/2+y,1/2-z
-x,-y,-z
x,1/2-y,1/2+z
loop_
_atom_site_type_symbol
_atom_site_label
_atom_site_fract_x
_atom_site_fract_y
_atom_site_fract_z
Si Si1 0.262741 0.540335 0.752359
Si Si2 0.827066 0.452447 0.619250
Si Si3 0.881214 0.242422 0.119933
Si Si4 0.885156 0.514603 0.742144
Si Si5 0.660618 0.701616 0.788849
Si Si6 0.418720 0.077410 0.478897
Si Si7 0.674582 0.256965 0.962413
Si Si8 0.543362 0.207771 0.862909
O O1 0.462142 0.478517 0.731187
O O2 0.484764 0.617507 0.659328
O O3 0.123490 0.507782 0.726080
O O4 0.956240 0.577198 0.894464
O O5 0.838113 0.353801 0.616127
O O6 0.997588 0.488284 0.629466
O O7 0.000000 0.500000 0.500000
O O8 0.622931 0.296399 0.168638
O O9 0.815984 0.251535 0.224059
O O10 0.226609 0.260833 0.973400
O O11 0.755016 0.608799 0.780478
O O12 0.599824 0.449599 0.849913
O O13 0.954685 0.746120 0.652929
O O14 0.531470 0.750039 0.899719
O O15 0.578241 0.155922 0.460729
O O16 0.500000 0.000000 0.500000
O O17 0.615740 0.194912 0.918948
#
# Coordination Sequence:
#
# PCOD9246686 Si02
#       8
#     4   4   4   4   4   4   4   4
#     4  11  23  47  74 103 145 190 238 311 357 434
#     4  12  28  47  69 104 148 189 247 293 364 438
#     4  12  28  45  71 107 147 196 237 308 366 439
#     4  11  25  48  74 107 142 193 241 302 365 434
#     4  12  26  43  75 107 147 189 244 301 369 437
#     4  10  21  41  71 103 138 176 244 293 355 431
#     4  12  23  44  72 109 141 187 244 301 362 438
#     4  12  24  47  70 104 148 188 248 298 371 433
#
# _framework density 23.897123000000001
#
# number of rings (size 3 to 8) (size 9 to 14) (size 15 to 20)
#    0.000    0.500    5.000    3.750    5.250    2.000 
#    0.000    0.000    0.000    0.000    0.000    0.000 
#    0.000    0.000    0.000    0.000    0.000    0.000 
#
# Total GULP energy -178842.710219 kJ/mol
# GULP energy per Si atom -5588.834694 kJ/mol
# Density = 2.384273 g / cm^3
# Si number density = 23.897123 Si / 1000 Ang^3
#
#
#
# Elastic Constant Matrix: (Units=GPa)
#
#
# Indices 1 2 3 4 5 6 
#
# 1 77.0399 6.1995 -5.8022 0.0000 -4.9353 0.0000
# 2 6.1995 52.7751 3.9588 0.0000 -0.8921 0.0000
# 3 -5.8022 3.9588 64.8216 0.0000 -7.8205 0.0000
# 4 0.0000 0.0000 0.0000 36.7689 0.0000 -1.3759
# 5 -4.9353 -0.8921 -7.8205 0.0000 54.8214 0.0000
# 6 0.0000 0.0000 0.0000 -1.3759 0.0000 27.5386
#
#
#
# Elastic Compliance Matrix: (Units=1/GPa)
#
#
# Indices 1 2 3 4 5 6 
#
# 1 0.013311 -0.001650 0.001459 0.000000 0.001380 0.000000
# 2 -0.001650 0.019241 -0.001326 0.000000 -0.000025 0.000000
# 3 0.001459 -0.001326 0.015926 0.000000 0.002382 0.000000
# 4 0.000000 0.000000 0.000000 0.027248 0.000000 0.001361
# 5 0.001380 -0.000025 0.002382 0.000000 0.018705 0.000000
# 6 0.000000 0.000000 0.000000 0.001361 0.000000 0.036381
#
#
# Mechanical properties :
#
#
# Convention : Reuss Voigt Hill
#
# Bulk Modulus (GPa) = 22.00482 22.59433 22.29957
# Shear Modulus (GPa) = 33.55857 36.51114 35.03485
#
# Velocity S-wave (km/s) = 3.75146 3.91301 3.83308
# Velocity P-wave (km/s) = 5.29081 5.46725 5.37976
#
# Compressibility (1/GPa) = 0.04544459
#
# Stress axis : x y z
#
# Youngs Moduli (GPa) = 75.12426 51.97189 62.79107
#
# Poissons Ratio (x) = 0.08574 -0.09159
# Poissons Ratio (y) = 0.12394 0.08325
# Poissons Ratio (z) = -0.10958 0.06890
#
# Static dielectric constant tensor:
#      x y z
#    x 1.963380 0.000000 -0.028510 
#    y 0.000000 1.913140 0.000000 
#    z -0.028510 0.000000 2.070800 
# 
# From -- ./inp_files/66029.got.cif
#   From: 2010.05.17/outbox.cif.g08.bks.cpg/sg14_34_cif.got.tgz:66029.got - 2010.06.03 17:49:19.
