data_PCOD9246371
_publ_section_title
;
Structure prediction by ZEFSAII (Michael W. Deem and Ramdas Pophale) SiO2 
 PCOD9246371
Probable space group: P 21/C
;
_chemical_formula_sum "Si O2"
_cell_formula_units_Z 26
_cell_length_a 16.961525
_cell_length_b 4.992411
_cell_length_c 26.888782
_cell_angle_alpha 90.000000
_cell_angle_beta 29.445540
_cell_angle_gamma 90.000000
_cell_volume 1119.321256
_symmetry_space_group_name_H-M "P 21/C"
_symmetry_group_IT_number 14
_symmetry_cell_setting 'monoclinic'
loop_
_space_group_symop_operation_xyz
x,y,z
-x,1/2+y,1/2-z
-x,-y,-z
x,1/2-y,1/2+z
loop_
_atom_site_type_symbol
_atom_site_label
_atom_site_fract_x
_atom_site_fract_y
_atom_site_fract_z
Si Si1 0.500000 0.500000 0.000000
Si Si2 0.695339 0.991114 0.937078
Si Si3 0.139033 0.043751 0.257832
Si Si4 0.598543 0.161193 0.361577
Si Si5 0.481319 0.125868 0.695453
Si Si6 0.929284 0.965546 0.898952
Si Si7 0.678559 0.627657 0.615517
O O1 0.417783 0.764855 0.014858
O O2 0.340196 0.489195 0.126105
O O3 0.817884 0.948911 0.824505
O O4 0.789730 0.035758 0.936038
O O5 0.570294 0.739829 0.015396
O O6 0.293429 0.921512 0.202280
O O7 0.005464 0.811663 0.339213
O O8 0.060164 0.303474 0.325203
O O9 0.571877 0.993911 0.327578
O O10 0.627179 0.930679 0.631560
O O11 0.346370 0.090210 0.812035
O O12 0.548189 0.427363 0.661225
O O13 0.846647 0.934713 0.997949
#
# Coordination Sequence:
#
# PCOD9246371 Si02
#       7
#     2   4   4   4   4   4   4
#     4   8  20  36  70  92 132 160 230 276 320 382
#     4  10  22  43  66  97 131 179 228 266 330 391
#     4  12  26  42  60 100 138 179 209 277 334 413
#     4  10  22  42  66 100 131 176 228 277 332 390
#     4  10  21  40  70  96 129 165 238 284 333 383
#     4  12  25  43  66  94 143 173 221 265 349 399
#     4  10  21  41  66 100 124 174 226 291 328 399
#
# _framework density 23.228365
#
# number of rings (size 3 to 8) (size 9 to 14) (size 15 to 20)
#    0.923    0.615    1.538    3.231    0.000    4.923 
#    0.000    1.538    0.000    0.000    0.000    0.000 
#    0.000    0.000    0.000    0.000    0.000    0.000 
#
# Total GULP energy -145130.957633 kJ/mol
# GULP energy per Si atom -5581.959909 kJ/mol
# Density = 2.317550 g / cm^3
# Si number density = 23.228365 Si / 1000 Ang^3
#
#
#
# Elastic Constant Matrix: (Units=GPa)
#
#
# Indices 1 2 3 4 5 6 
#
# 1 58.7712 -5.8709 14.8519 0.0000 16.9943 0.0000
# 2 -5.8709 81.3910 32.3376 0.0000 2.4358 0.0000
# 3 14.8519 32.3376 156.6616 0.0000 17.0768 0.0000
# 4 0.0000 0.0000 0.0000 37.4148 0.0000 -8.9621
# 5 16.9943 2.4358 17.0768 0.0000 26.1838 0.0000
# 6 0.0000 0.0000 0.0000 -8.9621 0.0000 25.1976
#
#
#
# Elastic Compliance Matrix: (Units=1/GPa)
#
#
# Indices 1 2 3 4 5 6 
#
# 1 0.021398 0.002364 -0.001054 0.000000 -0.013421 0.000000
# 2 0.002364 0.013654 -0.002946 0.000000 -0.000883 0.000000
# 3 -0.001054 -0.002946 0.007522 0.000000 -0.003948 0.000000
# 4 0.000000 0.000000 0.000000 0.029216 0.000000 0.010392
# 5 -0.013421 -0.000883 -0.003948 0.000000 0.049559 0.000000
# 6 0.000000 0.000000 0.000000 0.010392 0.000000 0.043382
#
#
# Mechanical properties :
#
#
# Convention : Reuss Voigt Hill
#
# Bulk Modulus (GPa) = 25.44423 42.16231 33.80327
# Shear Modulus (GPa) = 27.60844 34.79294 31.20069
#
# Velocity S-wave (km/s) = 3.45130 3.87442 3.66897
# Velocity P-wave (km/s) = 5.18263 6.18106 5.70373
#
# Compressibility (1/GPa) = 0.03930164
#
# Stress axis : x y z
#
# Youngs Moduli (GPa) = 46.73262 73.23925 132.95178
#
# Poissons Ratio (x) = -0.17312 0.14007
# Poissons Ratio (y) = -0.11047 0.39171
# Poissons Ratio (z) = 0.04924 0.21578
#
# Static dielectric constant tensor:
#      x y z
#    x 2.029460 0.000000 -0.014390 
#    y 0.000000 2.083220 0.000000 
#    z -0.014390 0.000000 1.923390 
# 
# From -- ./inp_files/80108.got.cif
#   From: 2010.05.17/outbox.cif.g08.bks.cpg/sg14_41_cif.got.tgz:80108.got - 2010.06.03 17:49:19.
