data_PCOD9246475
_publ_section_title
;
Structure prediction by ZEFSAII (Michael W. Deem and Ramdas Pophale) SiO2 
 PCOD9246475
Probable space group: P 21/C
;
_chemical_formula_sum "Si O2"
_cell_formula_units_Z 24
_cell_length_a 9.379223
_cell_length_b 4.890076
_cell_length_c 21.808100
_cell_angle_alpha 90.000000
_cell_angle_beta 73.924809
_cell_angle_gamma 90.000000
_cell_volume 961.121087
_symmetry_space_group_name_H-M "P 21/C"
_symmetry_group_IT_number 14
_symmetry_cell_setting 'monoclinic'
loop_
_space_group_symop_operation_xyz
x,y,z
-x,1/2+y,1/2-z
-x,-y,-z
x,1/2-y,1/2+z
loop_
_atom_site_type_symbol
_atom_site_label
_atom_site_fract_x
_atom_site_fract_y
_atom_site_fract_z
Si Si1 0.902675 0.617525 0.769920
Si Si2 0.712678 0.306433 0.707848
Si Si3 0.148449 0.708481 0.533703
Si Si4 0.332434 0.006737 0.605314
Si Si5 0.551236 0.025964 0.840524
Si Si6 0.047008 0.787453 0.416333
O O1 0.774609 0.573445 0.735155
O O2 0.825705 0.493936 0.839567
O O3 0.962000 0.922210 0.765800
O O4 0.592148 0.393319 0.672598
O O5 0.854809 0.193952 0.655532
O O6 0.645837 0.116184 0.768972
O O7 0.289714 0.865621 0.545749
O O8 0.149710 0.679693 0.460176
O O9 0.093862 0.420906 0.568822
O O10 0.011786 0.913843 0.561333
O O11 0.454561 0.809975 0.621949
O O12 0.381608 0.311694 0.618196
#
# Coordination Sequence:
#
# PCOD9246475 Si02
#       6
#     4   4   4   4   4   4
#     4  11  21  32  54  83 109 145 188 242 302 348
#     4  11  23  42  59  88 123 158 206 248 300 373
#     4  10  21  41  63  95 124 158 207 255 310 370
#     4  11  22  39  57  84 122 157 198 251 298 356
#     4  11  25  38  60  84 119 166 200 245 300 356
#     4  10  22  38  67  92 123 164 201 257 314 361
#
# _framework density 24.970835999999998
#
# number of rings (size 3 to 8) (size 9 to 14) (size 15 to 20)
#    0.000    1.333    0.000    7.000    0.000    6.667 
#    0.000    1.667    0.000    0.000    0.000    0.000 
#    0.000    0.000    0.000    0.000    0.000    0.000 
#
# Total GULP energy -134166.472901 kJ/mol
# GULP energy per Si atom -5590.269704 kJ/mol
# Density = 2.491400 g / cm^3
# Si number density = 24.970836 Si / 1000 Ang^3
#
#
#
# Elastic Constant Matrix: (Units=GPa)
#
#
# Indices 1 2 3 4 5 6 
#
# 1 70.5945 8.1043 3.5180 0.0000 34.3812 0.0000
# 2 8.1043 120.1174 0.5374 0.0000 -1.8083 0.0000
# 3 3.5180 0.5374 70.4820 0.0000 24.8057 0.0000
# 4 0.0000 0.0000 0.0000 25.2410 0.0000 8.0678
# 5 34.3812 -1.8083 24.8057 0.0000 36.8717 0.0000
# 6 0.0000 0.0000 0.0000 8.0678 0.0000 25.3302
#
#
#
# Elastic Compliance Matrix: (Units=1/GPa)
#
#
# Indices 1 2 3 4 5 6 
#
# 1 0.032810 -0.002852 0.012055 0.000000 -0.038844 0.000000
# 2 -0.002852 0.008583 -0.001320 0.000000 0.003969 0.000000
# 3 0.012055 -0.001320 0.023028 0.000000 -0.026797 0.000000
# 4 0.000000 0.000000 0.000000 0.044108 0.000000 -0.014049
# 5 -0.038844 0.003969 -0.026797 0.000000 0.081564 0.000000
# 6 0.000000 0.000000 0.000000 -0.014049 0.000000 0.043953
#
#
# Mechanical properties :
#
#
# Convention : Reuss Voigt Hill
#
# Bulk Modulus (GPa) = 12.47095 31.72371 22.09733
# Shear Modulus (GPa) = 20.40737 34.09088 27.24912
#
# Velocity S-wave (km/s) = 2.86186 3.69891 3.30697
# Velocity P-wave (km/s) = 3.99066 5.56547 4.84251
#
# Compressibility (1/GPa) = 0.08018638
#
# Stress axis : x y z
#
# Youngs Moduli (GPa) = 30.47854 116.50555 43.42623
#
# Poissons Ratio (x) = 0.33232 -0.52350
# Poissons Ratio (y) = 0.08694 0.05731
# Poissons Ratio (z) = -0.36742 0.15376
#
# Static dielectric constant tensor:
#      x y z
#    x 2.006790 0.000000 0.082020 
#    y 0.000000 1.915700 0.000000 
#    z 0.082020 0.000000 2.082070 
# 
# From -- ./inp_files/75888.got.cif
#   From: 2010.05.17/outbox.cif.g08.bks.cpg/sg14_38_cif.got.tgz:75888.got - 2010.06.03 17:49:19.
