data_PCOD9246068
_publ_section_title
;
Structure prediction by ZEFSAII (Michael W. Deem and Ramdas Pophale) SiO2 
 PCOD9246068
Probable space group: P 21/C
;
_chemical_formula_sum "Si O2"
_cell_formula_units_Z 28
_cell_length_a 5.062105
_cell_length_b 22.851908
_cell_length_c 11.331911
_cell_angle_alpha 90.000000
_cell_angle_beta 87.305902
_cell_angle_gamma 90.000000
_cell_volume 1309.412521
_symmetry_space_group_name_H-M "P 21/C"
_symmetry_group_IT_number 14
_symmetry_cell_setting 'monoclinic'
loop_
_space_group_symop_operation_xyz
x,y,z
-x,1/2+y,1/2-z
-x,-y,-z
x,1/2-y,1/2+z
loop_
_atom_site_type_symbol
_atom_site_label
_atom_site_fract_x
_atom_site_fract_y
_atom_site_fract_z
Si Si1 0.860409 0.098250 0.351822
Si Si2 0.581635 0.989343 0.268372
Si Si3 0.895568 0.338012 0.306411
Si Si4 0.786586 0.650951 0.333384
Si Si5 0.929987 0.434317 0.117356
Si Si6 0.612476 0.893396 0.079975
Si Si7 0.286375 0.790684 0.753981
O O1 0.890760 0.071939 0.479751
O O2 0.726641 0.162249 0.352714
O O3 0.136842 0.111622 0.281089
O O4 0.689540 0.054828 0.273917
O O5 0.285387 0.977958 0.320087
O O6 0.624609 0.956723 0.142500
O O7 0.777490 0.954758 0.353870
O O8 0.882811 0.372524 0.182734
O O9 0.681992 0.369862 0.394031
O O10 0.804125 0.272070 0.288011
O O11 0.184404 0.350474 0.354174
O O12 0.695422 0.611326 0.443106
O O13 0.569643 0.699777 0.306555
O O14 0.063636 0.684497 0.348646
#
# Coordination Sequence:
#
# PCOD9246068 Si02
#       7
#     4   4   4   4   4   4   4
#     4  10  24  37  60  87 124 150 198 239 301 343
#     4  10  22  38  61  87 115 154 198 245 292 350
#     4  10  21  41  60  86 114 153 201 238 291 348
#     4  10  23  38  57  87 117 153 193 234 297 347
#     4  10  22  37  62  86 114 156 196 246 295 342
#     4  10  21  40  62  84 116 155 196 241 292 347
#     4  10  23  39  56  91 116 156 195 238 296 346
#
# _framework density 21.383635000000002
#
# number of rings (size 3 to 8) (size 9 to 14) (size 15 to 20)
#    0.857    1.143    0.000    2.571    4.000    2.857 
#    0.000    0.714    0.000    0.000    0.000    0.000 
#    0.000    0.000    0.000    0.000    0.000    0.000 
#
# Total GULP energy -156293.776263 kJ/mol
# GULP energy per Si atom -5581.920581 kJ/mol
# Density = 2.133497 g / cm^3
# Si number density = 21.383635 Si / 1000 Ang^3
#
#
#
# Elastic Constant Matrix: (Units=GPa)
#
#
# Indices 1 2 3 4 5 6 
#
# 1 49.2350 0.3989 21.0109 0.0000 9.0359 0.0000
# 2 0.3989 88.8493 -23.3186 0.0000 0.3412 0.0000
# 3 21.0109 -23.3186 29.3769 0.0000 -19.3419 0.0000
# 4 0.0000 0.0000 0.0000 0.8313 0.0000 -3.1714
# 5 9.0359 0.3412 -19.3419 0.0000 21.8378 0.0000
# 6 0.0000 0.0000 0.0000 -3.1714 0.0000 22.4841
#
#
#
# Elastic Compliance Matrix: (Units=1/GPa)
#
#
# Indices 1 2 3 4 5 6 
#
# 1 -0.011222 0.013489 0.051944 0.000000 0.050440 0.000000
# 2 0.013489 0.005724 -0.021203 0.000000 -0.024451 0.000000
# 3 0.051944 -0.021203 -0.081263 0.000000 -0.093137 0.000000
# 4 0.000000 0.000000 0.000000 2.604553 0.000000 0.367378
# 5 0.050440 -0.024451 -0.093137 0.000000 -0.057189 0.000000
# 6 0.000000 0.000000 0.000000 0.367378 0.000000 0.096295
#
#
# Mechanical properties :
#
#
# Convention : Reuss Voigt Hill
#
# Bulk Modulus (GPa) = 589.00452 18.18262 303.59357
# Shear Modulus (GPa) = 2.02511 20.32198 11.17354
#
# Velocity S-wave (km/s) = 0.97421 3.08612 2.28837
# Velocity P-wave (km/s) = 16.65262 4.60656 12.21741
#
# Compressibility (1/GPa) = 0.00169778
#
# Stress axis : x y z
#
# Youngs Moduli (GPa) = -89.10729 174.71686 -12.30567
#
# Poissons Ratio (x) = -2.35682 0.63920
# Poissons Ratio (y) = 1.20200 -0.26092
# Poissons Ratio (z) = 4.62857 3.70455
#
# Static dielectric constant tensor:
#      x y z
#    x 1.765970 0.000000 0.004940 
#    y 0.000000 1.782030 0.000000 
#    z 0.004940 0.000000 1.753750 
# 
# From -- ./inp_files/21992.got.cif
#   From: 2010.05.17/outbox.cif.g08.bks.cpg/sg14_11_cif.got.tgz:21992.got - 2010.06.03 17:49:19.
