data_PCOD9246247
_publ_section_title
;
Structure prediction by ZEFSAII (Michael W. Deem and Ramdas Pophale) SiO2 
 PCOD9246247
Probable space group: P 21/C
;
_chemical_formula_sum "Si O2"
_cell_formula_units_Z 28
_cell_length_a 4.772968
_cell_length_b 19.500832
_cell_length_c 12.202867
_cell_angle_alpha 90.000000
_cell_angle_beta 109.768688
_cell_angle_gamma 90.000000
_cell_volume 1068.866604
_symmetry_space_group_name_H-M "P 21/C"
_symmetry_group_IT_number 14
_symmetry_cell_setting 'monoclinic'
loop_
_space_group_symop_operation_xyz
x,y,z
-x,1/2+y,1/2-z
-x,-y,-z
x,1/2-y,1/2+z
loop_
_atom_site_type_symbol
_atom_site_label
_atom_site_fract_x
_atom_site_fract_y
_atom_site_fract_z
Si Si1 0.017296 0.650372 0.621192
Si Si2 0.278821 0.866924 0.496547
Si Si3 0.832625 0.446868 0.801471
Si Si4 0.538001 0.746966 0.171573
Si Si5 0.436732 0.335767 0.632116
Si Si6 0.089973 0.749576 0.319721
Si Si7 0.666079 0.462828 0.197232
O O1 0.818847 0.640106 0.489224
O O2 0.332867 0.684579 0.636473
O O3 0.862483 0.708289 0.686016
O O4 0.117986 0.583032 0.698948
O O5 0.140246 0.908496 0.578738
O O6 0.517092 0.815783 0.583156
O O7 0.067293 0.816695 0.397830
O O8 0.389013 0.920682 0.421158
O O9 0.623114 0.402458 0.694466
O O10 0.651559 0.517400 0.796152
O O11 0.156551 0.466640 0.801135
O O12 0.297491 0.720674 0.240985
O O13 0.785383 0.705270 0.304434
O O14 0.635842 0.287982 0.577915
#
# Coordination Sequence:
#
# PCOD9246247 Si02
#       7
#     4   4   4   4   4   4   4
#     4  10  23  41  65  99 137 180 227 281 347 411
#     4  10  22  42  72 100 134 178 228 294 344 404
#     4  11  26  47  69 101 139 187 236 280 337 413
#     4  10  21  40  66 101 135 172 226 288 350 406
#     4  10  23  41  65  99 137 180 227 281 347 411
#     4  10  21  40  66 101 135 172 226 288 350 406
#     4  11  26  47  69 101 139 187 236 280 337 413
#
# _framework density 26.195971
#
# number of rings (size 3 to 8) (size 9 to 14) (size 15 to 20)
#    0.000    1.714    0.000    2.571    8.000    1.143 
#   15.429    0.000    0.000    0.000    0.000    0.000 
#    0.000    0.000    0.000    0.000    0.000    0.000 
#
# Total GULP energy -156126.002888 kJ/mol
# GULP energy per Si atom -5575.928675 kJ/mol
# Density = 2.613635 g / cm^3
# Si number density = 26.195971 Si / 1000 Ang^3
#
#
#
# Elastic Constant Matrix: (Units=GPa)
#
#
# Indices 1 2 3 4 5 6 
#
# 1 117.6871 12.9747 20.8569 0.0000 12.9051 0.0000
# 2 12.9747 98.5083 50.3072 0.0000 -14.0965 0.0000
# 3 20.8569 50.3072 129.6666 0.0000 3.7792 0.0000
# 4 0.0000 0.0000 0.0000 58.3026 0.0000 -1.3356
# 5 12.9051 -14.0965 3.7792 0.0000 35.4557 0.0000
# 6 0.0000 0.0000 0.0000 -1.3356 0.0000 17.6629
#
#
#
# Elastic Compliance Matrix: (Units=1/GPa)
#
#
# Indices 1 2 3 4 5 6 
#
# 1 0.009209 -0.001315 -0.000861 0.000000 -0.003783 0.000000
# 2 -0.001315 0.014050 -0.005433 0.000000 0.006644 0.000000
# 3 -0.000861 -0.005433 0.010044 0.000000 -0.002917 0.000000
# 4 0.000000 0.000000 0.000000 0.017182 0.000000 0.001299
# 5 -0.003783 0.006644 -0.002917 0.000000 0.032533 0.000000
# 6 0.000000 0.000000 0.000000 0.001299 0.000000 0.056714
#
#
# Mechanical properties :
#
#
# Convention : Reuss Voigt Hill
#
# Bulk Modulus (GPa) = 55.29360 57.12661 56.21010
# Shear Modulus (GPa) = 31.06012 39.73246 35.39629
#
# Velocity S-wave (km/s) = 3.44711 3.89876 3.67987
# Velocity P-wave (km/s) = 6.08251 6.49013 6.28962
#
# Compressibility (1/GPa) = 0.01808528
#
# Stress axis : x y z
#
# Youngs Moduli (GPa) = 108.58398 71.17461 99.56644
#
# Poissons Ratio (x) = 0.09357 0.08573
# Poissons Ratio (y) = 0.14274 0.54096
# Poissons Ratio (z) = 0.09350 0.38671
#
# Static dielectric constant tensor:
#      x y z
#    x 2.000990 0.000000 -0.036220 
#    y 0.000000 2.126890 0.000000 
#    z -0.036220 0.000000 2.273410 
# 
# From -- ./inp_files/38123.got.cif
#   From: 2010.05.17/outbox.cif.g08.bks.cpg/sg14_20_cif.got.tgz:38123.got - 2010.06.03 17:49:19.
