data_PCOD9246901
_publ_section_title
;
Structure prediction by ZEFSAII (Michael W. Deem and Ramdas Pophale) SiO2 
 PCOD9246901
Probable space group: P 21/C
;
_chemical_formula_sum "Si O2"
_cell_formula_units_Z 30
_cell_length_a 5.146780
_cell_length_b 8.685665
_cell_length_c 24.983723
_cell_angle_alpha 90.000000
_cell_angle_beta 66.863081
_cell_angle_gamma 90.000000
_cell_volume 1027.022415
_symmetry_space_group_name_H-M "P 21/C"
_symmetry_group_IT_number 14
_symmetry_cell_setting 'monoclinic'
loop_
_space_group_symop_operation_xyz
x,y,z
-x,1/2+y,1/2-z
-x,-y,-z
x,1/2-y,1/2+z
loop_
_atom_site_type_symbol
_atom_site_label
_atom_site_fract_x
_atom_site_fract_y
_atom_site_fract_z
Si Si1 0.524620 0.637455 0.320024
Si Si2 0.956375 0.874683 0.299009
Si Si3 0.000000 0.000000 0.000000
Si Si4 0.773340 0.987229 0.423248
Si Si5 0.768808 0.298829 0.065236
Si Si6 0.039400 0.439930 0.395635
Si Si7 0.599920 0.150352 0.284767
Si Si8 0.521190 0.274808 0.403837
O O1 0.800337 0.710010 0.324761
O O2 0.301784 0.752779 0.366898
O O3 0.326849 0.488987 0.343955
O O4 0.595521 0.639892 0.251593
O O5 0.956852 0.974717 0.353278
O O6 0.218056 0.801986 0.246292
O O7 0.774555 0.990474 0.276119
O O8 0.862189 0.956224 0.949875
O O9 0.224530 0.855438 0.969246
O O10 0.492488 0.895464 0.434009
O O11 0.959157 0.908575 0.453381
O O12 0.654581 0.160311 0.436919
O O13 0.215079 0.359523 0.435032
O O14 0.804026 0.378036 0.374787
O O15 0.468153 0.178970 0.353628
#
# Coordination Sequence:
#
# PCOD9246901 Si02
#       8
#     4   4   2   4   4   4   4   4
#     4  10  23  37  63  90 136 173 228 279 339 395
#     4  10  23  37  59  91 132 184 231 273 338 406
#     4  10  26  46  78 102 132 180 240 288 364 406
#     4  10  21  43  65  95 139 181 214 281 348 415
#     4  10  21  42  69  97 131 175 224 283 340 411
#     4  11  26  47  69 102 137 176 231 301 339 411
#     4  11  23  38  62  94 134 185 229 278 336 415
#     4  11  26  43  67 100 142 178 229 284 351 414
#
# _framework density 29.210654999999999
#
# number of rings (size 3 to 8) (size 9 to 14) (size 15 to 20)
#    0.000    1.600    1.333    1.600    7.467    5.333 
#    0.000    4.000    0.000    0.000    0.000    0.000 
#    0.000    0.000    0.000    0.000    0.000    0.000 
#
# Total GULP energy -167051.612145 kJ/mol
# GULP energy per Si atom -5568.387071 kJ/mol
# Density = 2.914417 g / cm^3
# Si number density = 29.210655 Si / 1000 Ang^3
#
#
#
# Elastic Constant Matrix: (Units=GPa)
#
#
# Indices 1 2 3 4 5 6 
#
# 1 146.4766 34.3015 21.4464 0.0000 -18.8852 0.0000
# 2 34.3015 76.2462 14.0636 0.0000 -8.8984 0.0000
# 3 21.4464 14.0636 126.1741 0.0000 5.1362 0.0000
# 4 0.0000 0.0000 0.0000 40.2046 0.0000 -15.5136
# 5 -18.8852 -8.8984 5.1362 0.0000 35.7064 0.0000
# 6 0.0000 0.0000 0.0000 -15.5136 0.0000 35.7911
#
#
#
# Elastic Compliance Matrix: (Units=1/GPa)
#
#
# Indices 1 2 3 4 5 6 
#
# 1 0.008197 -0.003026 -0.001209 0.000000 0.003755 0.000000
# 2 -0.003026 0.014977 -0.001249 0.000000 0.002311 0.000000
# 3 -0.001209 -0.001249 0.008358 0.000000 -0.002153 0.000000
# 4 0.000000 0.000000 0.000000 0.029868 0.000000 0.012946
# 5 0.003755 0.002311 -0.002153 0.000000 0.030878 0.000000
# 6 0.000000 0.000000 0.000000 0.012946 0.000000 0.033551
#
#
# Mechanical properties :
#
#
# Convention : Reuss Voigt Hill
#
# Bulk Modulus (GPa) = 48.63027 54.27999 51.45513
# Shear Modulus (GPa) = 34.80621 40.94610 37.87616
#
# Velocity S-wave (km/s) = 3.45564 3.74806 3.60482
# Velocity P-wave (km/s) = 5.71018 6.11173 5.91436
#
# Compressibility (1/GPa) = 0.02056333
#
# Stress axis : x y z
#
# Youngs Moduli (GPa) = 121.99797 66.76879 119.64759
#
# Poissons Ratio (x) = 0.20207 0.14463
# Poissons Ratio (y) = 0.36921 0.14945
# Poissons Ratio (z) = 0.14747 0.08340
#
# Static dielectric constant tensor:
#      x y z
#    x 2.314080 0.000000 -0.056520 
#    y 0.000000 2.920890 0.000000 
#    z -0.056520 0.000000 2.683950 
# 
# From -- ./inp_files/78779.got.cif
#   From: 2010.05.17/outbox.cif.g08.bks.cpg/sg14_40_cif.got.tgz:78779.got - 2010.06.03 17:49:19.
