data_PCOD9246622
_publ_section_title
;
Structure prediction by ZEFSAII (Michael W. Deem and Ramdas Pophale) SiO2 
 PCOD9246622
Probable space group: P 21/C
;
_chemical_formula_sum "Si O2"
_cell_formula_units_Z 20
_cell_length_a 23.512507
_cell_length_b 8.198903
_cell_length_c 12.722530
_cell_angle_alpha 90.000000
_cell_angle_beta 161.800869
_cell_angle_gamma 90.000000
_cell_volume 765.999834
_symmetry_space_group_name_H-M "P 21/C"
_symmetry_group_IT_number 14
_symmetry_cell_setting 'monoclinic'
loop_
_space_group_symop_operation_xyz
x,y,z
-x,1/2+y,1/2-z
-x,-y,-z
x,1/2-y,1/2+z
loop_
_atom_site_type_symbol
_atom_site_label
_atom_site_fract_x
_atom_site_fract_y
_atom_site_fract_z
Si Si1 0.781246 0.883507 0.844126
Si Si2 0.102186 0.650674 0.766627
Si Si3 0.648771 0.859913 0.272786
Si Si4 0.636265 0.234825 0.592525
Si Si5 0.091229 0.889606 0.568515
O O1 0.655857 0.751659 0.681836
O O2 0.677710 0.049043 0.633816
O O3 0.900230 0.823249 0.955883
O O4 0.941242 0.903979 0.213381
O O5 0.118259 0.722889 0.680340
O O6 0.167935 0.463636 0.891096
O O7 0.239689 0.747469 0.084499
O O8 0.571363 0.757364 0.235072
O O9 0.500000 0.000000 0.000000
O O10 0.716395 0.378850 0.658181
O O11 0.000000 0.000000 0.500000
#
# Coordination Sequence:
#
# PCOD9246622 Si02
#       5
#     4   4   4   4   4
#     4  11  22  41  71  97 131 180 223 281 341 414
#     4  10  21  41  67  96 129 175 225 275 339 402
#     4  10  23  41  64  95 136 174 217 280 341 406
#     4  10  22  41  64  97 135 175 221 278 348 396
#     4  11  23  41  71 100 131 178 236 284 335 412
#
# _framework density 26.109667999999999
#
# number of rings (size 3 to 8) (size 9 to 14) (size 15 to 20)
#    0.000    1.600    2.000    3.000    5.600    3.200 
#    3.600    0.000    0.000    0.000    0.000    0.000 
#    0.000    0.000    0.000    0.000    0.000    0.000 
#
# Total GULP energy -111707.400198 kJ/mol
# GULP energy per Si atom -5585.370010 kJ/mol
# Density = 2.605024 g / cm^3
# Si number density = 26.109668 Si / 1000 Ang^3
#
#
#
# Elastic Constant Matrix: (Units=GPa)
#
#
# Indices 1 2 3 4 5 6 
#
# 1 113.8351 28.1075 38.5345 0.0000 38.0243 0.0000
# 2 28.1075 93.3345 31.4338 0.0000 27.2618 0.0000
# 3 38.5345 31.4338 88.6229 0.0000 23.4507 0.0000
# 4 0.0000 0.0000 0.0000 29.6075 0.0000 8.0960
# 5 38.0243 27.2618 23.4507 0.0000 55.4032 0.0000
# 6 0.0000 0.0000 0.0000 8.0960 0.0000 52.8485
#
#
#
# Elastic Compliance Matrix: (Units=1/GPa)
#
#
# Indices 1 2 3 4 5 6 
#
# 1 0.012322 -0.000613 -0.003359 0.000000 -0.006734 0.000000
# 2 -0.000613 0.013383 -0.003209 0.000000 -0.004807 0.000000
# 3 -0.003359 -0.003209 0.014476 0.000000 -0.002243 0.000000
# 4 0.000000 0.000000 0.000000 0.035252 0.000000 -0.005400
# 5 -0.006734 -0.004807 -0.002243 0.000000 0.025986 0.000000
# 6 0.000000 0.000000 0.000000 -0.005400 0.000000 0.019749
#
#
# Mechanical properties :
#
#
# Convention : Reuss Voigt Hill
#
# Bulk Modulus (GPa) = 38.72785 54.66046 46.69415
# Shear Modulus (GPa) = 34.68961 40.75295 37.72128
#
# Velocity S-wave (km/s) = 3.64897 3.95503 3.80508
# Velocity P-wave (km/s) = 5.71124 6.46813 6.10143
#
# Compressibility (1/GPa) = 0.02582121
#
# Stress axis : x y z
#
# Youngs Moduli (GPa) = 81.15460 74.72009 69.08074
#
# Poissons Ratio (x) = 0.04579 0.23202
# Poissons Ratio (y) = 0.04973 0.22165
# Poissons Ratio (z) = 0.27257 0.23974
#
# Static dielectric constant tensor:
#      x y z
#    x 2.041380 0.000000 0.016160 
#    y 0.000000 2.103830 0.000000 
#    z 0.016160 0.000000 2.122940 
# 
# From -- ./inp_files/28233.got.cif
#   From: 2010.05.17/outbox.cif.g08.bks.cpg/sg14_15_cif.got.tgz:28233.got - 2010.06.03 17:49:19.
