data_PCOD9246835
_publ_section_title
;
Structure prediction by ZEFSAII (Michael W. Deem and Ramdas Pophale) SiO2 
 PCOD9246835
Probable space group: P 21/C
;
_chemical_formula_sum "Si O2"
_cell_formula_units_Z 32
_cell_length_a 12.032714
_cell_length_b 7.761889
_cell_length_c 14.138538
_cell_angle_alpha 90.000000
_cell_angle_beta 76.584358
_cell_angle_gamma 90.000000
_cell_volume 1284.458436
_symmetry_space_group_name_H-M "P 21/C"
_symmetry_group_IT_number 14
_symmetry_cell_setting 'monoclinic'
loop_
_space_group_symop_operation_xyz
x,y,z
-x,1/2+y,1/2-z
-x,-y,-z
x,1/2-y,1/2+z
loop_
_atom_site_type_symbol
_atom_site_label
_atom_site_fract_x
_atom_site_fract_y
_atom_site_fract_z
Si Si1 0.461907 0.238705 0.152676
Si Si2 0.684545 0.463398 0.072849
Si Si3 0.858085 0.435585 0.698159
Si Si4 0.103251 0.424216 0.616097
Si Si5 0.376421 0.978606 0.795154
Si Si6 0.104448 0.664875 0.092375
Si Si7 0.854104 0.845781 0.672719
Si Si8 0.660875 0.678092 0.504017
O O1 0.582046 0.327389 0.100865
O O2 0.379108 0.383930 0.210226
O O3 0.402440 0.132824 0.080947
O O4 0.503980 0.120042 0.230713
O O5 0.746456 0.556535 0.149936
O O6 0.792265 0.389955 0.993904
O O7 0.631748 0.623840 0.026029
O O8 0.735964 0.361310 0.693144
O O9 0.872703 0.409795 0.806813
O O10 0.847990 0.637352 0.673028
O O11 0.972606 0.363030 0.627050
O O12 0.105740 0.627692 0.597263
O O13 0.131329 0.395390 0.720601
O O14 0.202595 0.335993 0.537120
O O15 0.372413 0.067616 0.898594
O O16 0.973869 0.610340 0.097562
#
# Coordination Sequence:
#
# PCOD9246835 Si02
#       8
#     4   4   4   4   4   4   4   4
#     4  12  29  46  71 101 139 186 237 287 344 405
#     4  12  24  44  67 100 135 187 235 283 343 412
#     4  10  22  44  69 101 139 180 226 277 356 412
#     4  10  23  42  72 103 140 177 223 290 353 412
#     4  12  26  47  70 100 138 183 232 286 343 417
#     4  10  22  40  67 105 139 177 226 291 344 421
#     4  10  21  42  66  99 140 183 226 281 352 412
#     4  12  26  47  72  99 140 182 232 290 345 414
#
# _framework density 24.913222999999999
#
# number of rings (size 3 to 8) (size 9 to 14) (size 15 to 20)
#    0.000    1.000    1.250    4.875    3.500    2.500 
#    2.250    0.000    0.000    0.000    0.000    0.000 
#    0.000    0.000    0.000    0.000    0.000    0.000 
#
# Total GULP energy -179225.302813 kJ/mol
# GULP energy per Si atom -5600.790713 kJ/mol
# Density = 2.485652 g / cm^3
# Si number density = 24.913223 Si / 1000 Ang^3
#
#
#
# Elastic Constant Matrix: (Units=GPa)
#
#
# Indices 1 2 3 4 5 6 
#
# 1 154.7330 3.8870 31.2650 0.0000 -17.4548 0.0000
# 2 3.8870 28.3903 2.7593 0.0000 -4.6660 0.0000
# 3 31.2650 2.7593 76.4161 0.0000 -18.4488 0.0000
# 4 0.0000 0.0000 0.0000 34.3156 0.0000 -1.2498
# 5 -17.4548 -4.6660 -18.4488 0.0000 46.8201 0.0000
# 6 0.0000 0.0000 0.0000 -1.2498 0.0000 31.0876
#
#
#
# Elastic Compliance Matrix: (Units=1/GPa)
#
#
# Indices 1 2 3 4 5 6 
#
# 1 0.007168 -0.000468 -0.002522 0.000000 0.001632 0.000000
# 2 -0.000468 0.035856 -0.000312 0.000000 0.003276 0.000000
# 3 -0.002522 -0.000312 0.015356 0.000000 0.005079 0.000000
# 4 0.000000 0.000000 0.000000 0.029184 0.000000 0.001173
# 5 0.001632 0.003276 0.005079 0.000000 0.024295 0.000000
# 6 0.000000 0.000000 0.000000 0.001173 0.000000 0.032214
#
#
# Mechanical properties :
#
#
# Convention : Reuss Voigt Hill
#
# Bulk Modulus (GPa) = 19.31423 37.26243 28.28833
# Shear Modulus (GPa) = 29.77325 37.21988 33.49657
#
# Velocity S-wave (km/s) = 3.46074 3.86940 3.67076
# Velocity P-wave (km/s) = 4.87221 5.91205 5.41714
#
# Compressibility (1/GPa) = 0.05177530
#
# Stress axis : x y z
#
# Youngs Moduli (GPa) = 139.50559 27.88924 65.12266
#
# Poissons Ratio (x) = 0.01305 0.16423
# Poissons Ratio (y) = 0.06530 0.02034
# Poissons Ratio (z) = 0.35182 0.00871
#
# Static dielectric constant tensor:
#      x y z
#    x 2.003120 0.000000 0.011000 
#    y 0.000000 1.982230 0.000000 
#    z 0.011000 0.000000 1.948490 
# 
# From -- ./inp_files/43701.got.cif
#   From: 2010.05.17/outbox.cif.g08.bks.cpg/sg14_22_cif.got.tgz:43701.got - 2010.06.03 17:49:19.
