data_PCOD9246118
_publ_section_title
;
Structure prediction by ZEFSAII (Michael W. Deem and Ramdas Pophale) SiO2 
 PCOD9246118
Probable space group: P 21/C
;
_chemical_formula_sum "Si O2"
_cell_formula_units_Z 20
_cell_length_a 7.525891
_cell_length_b 15.888766
_cell_length_c 9.538205
_cell_angle_alpha 90.000000
_cell_angle_beta 47.578256
_cell_angle_gamma 90.000000
_cell_volume 841.954118
_symmetry_space_group_name_H-M "P 21/C"
_symmetry_group_IT_number 14
_symmetry_cell_setting 'monoclinic'
loop_
_space_group_symop_operation_xyz
x,y,z
-x,1/2+y,1/2-z
-x,-y,-z
x,1/2-y,1/2+z
loop_
_atom_site_type_symbol
_atom_site_label
_atom_site_fract_x
_atom_site_fract_y
_atom_site_fract_z
Si Si1 0.003232 0.908178 0.936688
Si Si2 0.107613 0.662092 0.113777
Si Si3 0.455808 0.587972 0.706676
Si Si4 0.081486 0.848395 0.193168
Si Si5 0.207178 0.070080 0.421388
O O1 0.144968 0.905303 0.716947
O O2 0.271096 0.113714 0.955352
O O3 0.085386 0.853658 0.023932
O O4 0.000000 0.000000 0.000000
O O5 0.095910 0.748581 0.205498
O O6 0.865129 0.641419 0.153651
O O7 0.322391 0.648490 0.889746
O O8 0.304137 0.602651 0.645523
O O9 0.433267 0.490300 0.771526
O O10 0.850075 0.889004 0.396675
O O11 0.000000 0.000000 0.500000
#
# Coordination Sequence:
#
# PCOD9246118 Si02
#       5
#     4   4   4   4   4
#     4  12  24  38  65  95 115 157 216 247 284 364
#     4  10  21  40  63  90 123 156 199 254 305 356
#     4  10  23  43  61  84 126 167 194 244 312 355
#     4  10  21  40  63  90 123 156 199 254 305 356
#     4   8  17  37  60  83 122 162 191 241 304 355
#
# _framework density 23.754262000000001
#
# number of rings (size 3 to 8) (size 9 to 14) (size 15 to 20)
#    0.000    2.400    0.000    6.000    0.000    8.000 
#    0.000    6.000    0.000    0.000    0.000    0.000 
#    0.000    0.000    0.000    0.000    0.000    0.000 
#
# Total GULP energy -111631.315484 kJ/mol
# GULP energy per Si atom -5581.565774 kJ/mol
# Density = 2.370020 g / cm^3
# Si number density = 23.754262 Si / 1000 Ang^3
#
#
#
# Elastic Constant Matrix: (Units=GPa)
#
#
# Indices 1 2 3 4 5 6 
#
# 1 72.2048 -14.8284 26.1628 0.0000 5.1863 0.0000
# 2 -14.8284 64.8863 -5.6624 0.0000 -8.6567 0.0000
# 3 26.1628 -5.6624 98.2358 0.0000 18.8123 0.0000
# 4 0.0000 0.0000 0.0000 36.6395 0.0000 18.8745
# 5 5.1863 -8.6567 18.8123 0.0000 26.4924 0.0000
# 6 0.0000 0.0000 0.0000 18.8745 0.0000 19.0600
#
#
#
# Elastic Compliance Matrix: (Units=1/GPa)
#
#
# Indices 1 2 3 4 5 6 
#
# 1 0.016025 0.003425 -0.004264 0.000000 0.001010 0.000000
# 2 0.003425 0.016847 -0.001003 0.000000 0.005547 0.000000
# 3 -0.004264 -0.001003 0.012917 0.000000 -0.008665 0.000000
# 4 0.000000 0.000000 0.000000 0.055715 0.000000 -0.055173
# 5 0.001010 0.005547 -0.008665 0.000000 0.045515 0.000000
# 6 0.000000 0.000000 0.000000 -0.055173 0.000000 0.107102
#
#
# Mechanical properties :
#
#
# Convention : Reuss Voigt Hill
#
# Bulk Modulus (GPa) = 23.75063 27.40786 25.57925
# Shear Modulus (GPa) = 18.39319 31.74869 25.07094
#
# Velocity S-wave (km/s) = 2.78566 3.65985 3.25226
# Velocity P-wave (km/s) = 4.51295 5.42425 4.98945
#
# Compressibility (1/GPa) = 0.04210414
#
# Stress axis : x y z
#
# Youngs Moduli (GPa) = 62.40127 59.35867 77.41864
#
# Poissons Ratio (x) = -0.20330 0.33011
# Poissons Ratio (y) = -0.21372 0.07767
# Poissons Ratio (z) = 0.26607 0.05955
#
# Static dielectric constant tensor:
#      x y z
#    x 1.895170 0.000000 -0.143530 
#    y 0.000000 -0.104120 0.000000 
#    z -0.143530 0.000000 1.674310 
# 
# From -- ./inp_files/8997.got.cif
#   From: 2010.05.17/outbox.cif.g08.bks.cpg/sg14_5_cif.got.tgz:8997.got - 2010.06.03 17:49:19.
