data_PCOD9246649
_publ_section_title
;
Structure prediction by ZEFSAII (Michael W. Deem and Ramdas Pophale) SiO2 
 PCOD9246649
Probable space group: P 21/C
;
_chemical_formula_sum "Si O2"
_cell_formula_units_Z 24
_cell_length_a 8.859480
_cell_length_b 21.046812
_cell_length_c 8.624831
_cell_angle_alpha 90.000000
_cell_angle_beta 142.451049
_cell_angle_gamma 90.000000
_cell_volume 980.111308
_symmetry_space_group_name_H-M "P 21/C"
_symmetry_group_IT_number 14
_symmetry_cell_setting 'monoclinic'
loop_
_space_group_symop_operation_xyz
x,y,z
-x,1/2+y,1/2-z
-x,-y,-z
x,1/2-y,1/2+z
loop_
_atom_site_type_symbol
_atom_site_label
_atom_site_fract_x
_atom_site_fract_y
_atom_site_fract_z
Si Si1 0.128926 0.251988 0.663283
Si Si2 0.211054 0.056956 0.328045
Si Si3 0.408388 0.136206 0.999750
Si Si4 0.560176 0.356593 0.968689
Si Si5 0.120690 0.834351 0.805995
Si Si6 0.000285 0.426757 0.311166
O O1 0.360003 0.300203 0.820952
O O2 0.905582 0.289332 0.565343
O O3 0.260558 0.201947 0.883681
O O4 0.014351 0.207802 0.435977
O O5 0.473130 0.092118 0.527798
O O6 0.033724 0.102869 0.280195
O O7 0.181493 0.985991 0.364961
O O8 0.134091 0.058297 0.083119
O O9 0.543766 0.126594 0.273119
O O10 0.607831 0.144548 0.027126
O O11 0.195875 0.082626 0.832209
O O12 0.855376 0.360681 0.225472
#
# Coordination Sequence:
#
# PCOD9246649 Si02
#       6
#     4   4   4   4   4   4
#     4  11  24  42  64  94 132 172 223 270 330 400
#     4   9  22  42  69  98 132 177 223 272 334 401
#     4  11  24  38  63  96 131 170 213 279 329 391
#     4  10  21  41  68  95 128 175 219 271 327 395
#     4  11  25  42  64  96 130 173 219 271 336 397
#     4  10  21  43  69  99 132 174 226 273 334 400
#
# _framework density 24.487013999999999
#
# number of rings (size 3 to 8) (size 9 to 14) (size 15 to 20)
#    0.000    1.667    1.667    1.500    4.667    3.333 
#    0.000    3.333    0.000    0.000    0.000    0.000 
#    0.000    0.000    0.000    0.000    0.000    0.000 
#
# Total GULP energy -133918.398327 kJ/mol
# GULP energy per Si atom -5579.933264 kJ/mol
# Density = 2.443128 g / cm^3
# Si number density = 24.487014 Si / 1000 Ang^3
#
#
#
# Elastic Constant Matrix: (Units=GPa)
#
#
# Indices 1 2 3 4 5 6 
#
# 1 141.1237 71.8923 21.2739 0.0000 44.6693 0.0000
# 2 71.8923 114.6521 17.1480 0.0000 19.1773 0.0000
# 3 21.2739 17.1480 15.0720 0.0000 15.5168 0.0000
# 4 0.0000 0.0000 0.0000 19.0603 0.0000 -2.9265
# 5 44.6693 19.1773 15.5168 0.0000 51.4783 0.0000
# 6 0.0000 0.0000 0.0000 -2.9265 0.0000 31.1084
#
#
#
# Elastic Compliance Matrix: (Units=1/GPa)
#
#
# Indices 1 2 3 4 5 6 
#
# 1 0.013597 -0.006680 -0.002910 0.000000 -0.008433 0.000000
# 2 -0.006680 0.013800 -0.010072 0.000000 0.003692 0.000000
# 3 -0.002910 -0.010072 0.109402 0.000000 -0.026699 0.000000
# 4 0.000000 0.000000 0.000000 0.053234 0.000000 0.005008
# 5 -0.008433 0.003692 -0.026699 0.000000 0.033415 0.000000
# 6 0.000000 0.000000 0.000000 0.005008 0.000000 0.032617
#
#
# Mechanical properties :
#
#
# Convention : Reuss Voigt Hill
#
# Bulk Modulus (GPa) = 10.25912 54.60846 32.43379
# Shear Modulus (GPa) = 15.24941 31.03164 23.14053
#
# Velocity S-wave (km/s) = 2.49821 3.56373 3.07744
# Velocity P-wave (km/s) = 3.53838 6.26762 5.08936
#
# Compressibility (1/GPa) = 0.09747429
#
# Stress axis : x y z
#
# Youngs Moduli (GPa) = 73.54631 72.46487 9.14057
#
# Poissons Ratio (x) = 0.48408 0.02660
# Poissons Ratio (y) = 0.49130 0.09207
# Poissons Ratio (z) = 0.21401 0.72989
#
# Static dielectric constant tensor:
#      x y z
#    x 1.955430 0.000000 0.034100 
#    y 0.000000 2.015530 0.000000 
#    z 0.034100 0.000000 2.026610 
# 
# From -- ./inp_files/26701.got.cif
#   From: 2010.05.17/outbox.cif.g08.bks.cpg/sg14_14_cif.got.tgz:26701.got - 2010.06.03 17:49:19.
