data_PCOD9246166
_publ_section_title
;
Structure prediction by ZEFSAII (Michael W. Deem and Ramdas Pophale) SiO2 
 PCOD9246166
Probable space group: P 21/C
;
_chemical_formula_sum "Si O2"
_cell_formula_units_Z 32
_cell_length_a 11.469145
_cell_length_b 24.382836
_cell_length_c 5.069447
_cell_angle_alpha 90.000000
_cell_angle_beta 80.397742
_cell_angle_gamma 90.000000
_cell_volume 1397.809933
_symmetry_space_group_name_H-M "P 21/C"
_symmetry_group_IT_number 14
_symmetry_cell_setting 'monoclinic'
loop_
_space_group_symop_operation_xyz
x,y,z
-x,1/2+y,1/2-z
-x,-y,-z
x,1/2-y,1/2+z
loop_
_atom_site_type_symbol
_atom_site_label
_atom_site_fract_x
_atom_site_fract_y
_atom_site_fract_z
Si Si1 0.951348 0.284322 0.528662
Si Si2 0.327114 0.120686 0.186646
Si Si3 0.166968 0.050897 0.522870
Si Si4 0.088174 0.550017 0.711142
Si Si5 0.446922 0.589812 0.136043
Si Si6 0.386187 0.024217 0.800801
Si Si7 0.819067 0.388878 0.814121
Si Si8 0.768379 0.784686 0.112567
O O1 0.925267 0.265606 0.240854
O O2 0.880802 0.335484 0.669948
O O3 0.092060 0.295891 0.478320
O O4 0.211355 0.110699 0.409095
O O5 0.450216 0.128835 0.292178
O O6 0.303727 0.163773 0.967148
O O7 0.341602 0.060192 0.057463
O O8 0.281107 0.026324 0.625418
O O9 0.053024 0.056129 0.751709
O O10 0.122231 0.009615 0.311878
O O11 0.146375 0.564525 0.412565
O O12 0.132488 0.592129 0.921053
O O13 0.418313 0.538493 0.341622
O O14 0.322424 0.617094 0.120330
O O15 0.505218 0.557454 0.869890
O O16 0.742303 0.734989 0.917276
#
# Coordination Sequence:
#
# PCOD9246166 Si02
#       8
#     4   4   4   4   4   4   4   4
#     4  10  22  43  66  94 122 164 213 272 335 392
#     4  11  23  39  68  91 128 177 220 265 326 380
#     4  10  23  37  60  97 133 170 212 265 322 396
#     4  11  25  38  61  98 135 169 212 264 328 386
#     4  10  23  39  61  96 129 180 215 262 304 392
#     4  10  21  40  64  90 136 170 227 256 318 377
#     4  12  24  42  66  91 132 174 216 265 325 391
#     4  10  24  43  68  95 127 157 214 279 331 380
#
# _framework density 22.892955000000001
#
# number of rings (size 3 to 8) (size 9 to 14) (size 15 to 20)
#    0.000    1.500    1.250    2.625    8.750    2.000 
#    0.000    1.250    0.000    0.000    0.000    0.000 
#    0.000    0.000    0.000    0.000    0.000    0.000 
#
# Total GULP energy -179128.343890 kJ/mol
# GULP energy per Si atom -5597.760747 kJ/mol
# Density = 2.284085 g / cm^3
# Si number density = 22.892955 Si / 1000 Ang^3
#
#
#
# Elastic Constant Matrix: (Units=GPa)
#
#
# Indices 1 2 3 4 5 6 
#
# 1 102.9115 8.9731 24.5207 0.0000 -12.2132 0.0000
# 2 8.9731 39.5566 -3.1773 0.0000 -0.1373 0.0000
# 3 24.5207 -3.1773 63.8746 0.0000 6.1771 0.0000
# 4 0.0000 0.0000 0.0000 23.2659 0.0000 1.7752
# 5 -12.2132 -0.1373 6.1771 0.0000 26.5137 0.0000
# 6 0.0000 0.0000 0.0000 1.7752 0.0000 34.9905
#
#
#
# Elastic Compliance Matrix: (Units=1/GPa)
#
#
# Indices 1 2 3 4 5 6 
#
# 1 0.012106 -0.003161 -0.005465 0.000000 0.006833 0.000000
# 2 -0.003161 0.026208 0.002706 0.000000 -0.001951 0.000000
# 3 -0.005465 0.002706 0.018548 0.000000 -0.006825 0.000000
# 4 0.000000 0.000000 0.000000 0.043148 0.000000 -0.002189
# 5 0.006833 -0.001951 -0.006825 0.000000 0.042444 0.000000
# 6 0.000000 0.000000 0.000000 -0.002189 0.000000 0.028690
#
#
# Mechanical properties :
#
#
# Convention : Reuss Voigt Hill
#
# Bulk Modulus (GPa) = 22.21207 29.66396 25.93801
# Shear Modulus (GPa) = 25.25335 28.68912 26.97123
#
# Velocity S-wave (km/s) = 3.32491 3.54388 3.43614
# Velocity P-wave (km/s) = 4.94607 5.45263 5.20552
#
# Compressibility (1/GPa) = 0.04502057
#
# Stress axis : x y z
#
# Youngs Moduli (GPa) = 82.60392 38.15635 53.91299
#
# Poissons Ratio (x) = 0.12063 0.29466
# Poissons Ratio (y) = 0.26115 -0.14589
# Poissons Ratio (z) = 0.45147 -0.10325
#
# Static dielectric constant tensor:
#      x y z
#    x 1.865120 0.000000 -0.000320 
#    y 0.000000 1.889720 0.000000 
#    z -0.000320 0.000000 1.888670 
# 
# From -- ./inp_files/3142.got.cif
#   From: 2010.05.17/outbox.cif.g08.bks.cpg/sg14_2_cif.got.tgz:3142.got - 2010.06.03 17:49:19.
