data_PCOD9246459
_publ_section_title
;
Structure prediction by ZEFSAII (Michael W. Deem and Ramdas Pophale) SiO2 
 PCOD9246459
Probable space group: P 21/C
;
_chemical_formula_sum "Si O2"
_cell_formula_units_Z 20
_cell_length_a 8.957760
_cell_length_b 15.351687
_cell_length_c 15.567516
_cell_angle_alpha 90.000000
_cell_angle_beta 29.222661
_cell_angle_gamma 90.000000
_cell_volume 1045.145987
_symmetry_space_group_name_H-M "P 21/C"
_symmetry_group_IT_number 14
_symmetry_cell_setting 'monoclinic'
loop_
_space_group_symop_operation_xyz
x,y,z
-x,1/2+y,1/2-z
-x,-y,-z
x,1/2-y,1/2+z
loop_
_atom_site_type_symbol
_atom_site_label
_atom_site_fract_x
_atom_site_fract_y
_atom_site_fract_z
Si Si1 0.305352 0.686940 0.418606
Si Si2 0.815687 0.466094 0.383255
Si Si3 0.003162 0.859589 0.543997
Si Si4 0.858548 0.067122 0.140337
Si Si5 0.142563 0.452417 0.046607
O O1 0.223275 0.617226 0.534116
O O2 0.664083 0.676476 0.225371
O O3 0.137496 0.657069 0.414333
O O4 0.225070 0.787274 0.470836
O O5 0.500000 0.500000 0.500000
O O6 0.949504 0.546684 0.371345
O O7 0.051530 0.438969 0.190335
O O8 0.034711 0.886048 0.427917
O O9 0.033643 0.950717 0.577439
O O10 0.502228 0.051533 0.342842
O O11 0.000000 0.000000 0.000000
#
# Coordination Sequence:
#
# PCOD9246459 Si02
#       5
#     4   4   4   4   4
#     4  10  22  40  60  92 122 163 205 257 310 369
#     4  11  21  39  63  92 122 158 209 258 310 366
#     4  10  22  39  63  89 123 163 205 252 311 369
#     4   9  21  38  63  88 121 166 203 247 314 373
#     4  10  21  41  63  89 124 166 206 252 313 367
#
# _framework density 19.136082999999999
#
# number of rings (size 3 to 8) (size 9 to 14) (size 15 to 20)
#    0.000    2.000    2.000    0.600    8.400    0.000 
#    3.600    2.000    0.000    0.000    0.000    0.000 
#    0.000    0.000    0.000    0.000    0.000    0.000 
#
# Total GULP energy -111477.854311 kJ/mol
# GULP energy per Si atom -5573.892716 kJ/mol
# Density = 1.909253 g / cm^3
# Si number density = 19.136083 Si / 1000 Ang^3
#
#
#
# Elastic Constant Matrix: (Units=GPa)
#
#
# Indices 1 2 3 4 5 6 
#
# 1 92.7772 27.3536 27.1964 0.0000 4.9493 0.0000
# 2 27.3536 90.7625 25.0762 0.0000 0.6634 0.0000
# 3 27.1964 25.0762 90.0661 0.0000 18.3892 0.0000
# 4 0.0000 0.0000 0.0000 14.4355 0.0000 -9.7761
# 5 4.9493 0.6634 18.3892 0.0000 32.1277 0.0000
# 6 0.0000 0.0000 0.0000 -9.7761 0.0000 31.4413
#
#
#
# Elastic Compliance Matrix: (Units=1/GPa)
#
#
# Indices 1 2 3 4 5 6 
#
# 1 0.012518 -0.002966 -0.002913 0.000000 -0.000200 0.000000
# 2 -0.002966 0.012739 -0.003047 0.000000 0.001938 0.000000
# 3 -0.002913 -0.003047 0.014411 0.000000 -0.007737 0.000000
# 4 0.000000 0.000000 0.000000 0.087752 0.000000 0.027285
# 5 -0.000200 0.001938 -0.007737 0.000000 0.035545 0.000000
# 6 0.000000 0.000000 0.000000 0.027285 0.000000 0.040289
#
#
# Mechanical properties :
#
#
# Convention : Reuss Voigt Hill
#
# Bulk Modulus (GPa) = 45.84007 48.09536 46.96772
# Shear Modulus (GPa) = 21.89352 28.53285 25.21319
#
# Velocity S-wave (km/s) = 3.38612 3.86560 3.63378
# Velocity P-wave (km/s) = 6.26853 6.71653 6.49639
#
# Compressibility (1/GPa) = 0.02181497
#
# Stress axis : x y z
#
# Youngs Moduli (GPa) = 79.88713 78.49692 69.39346
#
# Poissons Ratio (x) = 0.23284 0.20216
# Poissons Ratio (y) = 0.23696 0.21143
# Poissons Ratio (z) = 0.23273 0.23917
#
# Static dielectric constant tensor:
#      x y z
#    x 1.710760 0.000000 0.009370 
#    y 0.000000 1.659430 0.000000 
#    z 0.009370 0.000000 1.677490 
# 
# From -- ./inp_files/8746.got.cif
#   From: 2010.05.17/outbox.cif.g08.bks.cpg/sg14_5_cif.got.tgz:8746.got - 2010.06.03 17:49:19.
