data_PCOD9246199
_publ_section_title
;
Structure prediction by ZEFSAII (Michael W. Deem and Ramdas Pophale) SiO2 
 PCOD9246199
Probable space group: P 21/C
;
_chemical_formula_sum "Si O2"
_cell_formula_units_Z 24
_cell_length_a 11.568601
_cell_length_b 21.271360
_cell_length_c 8.942557
_cell_angle_alpha 90.000000
_cell_angle_beta 31.602354
_cell_angle_gamma 90.000000
_cell_volume 1153.151651
_symmetry_space_group_name_H-M "P 21/C"
_symmetry_group_IT_number 14
_symmetry_cell_setting 'monoclinic'
loop_
_space_group_symop_operation_xyz
x,y,z
-x,1/2+y,1/2-z
-x,-y,-z
x,1/2-y,1/2+z
loop_
_atom_site_type_symbol
_atom_site_label
_atom_site_fract_x
_atom_site_fract_y
_atom_site_fract_z
Si Si1 0.122804 0.076823 0.303727
Si Si2 0.190625 0.738489 0.557660
Si Si3 0.492584 0.692084 0.968201
Si Si4 0.132673 0.210705 0.336417
Si Si5 0.551413 0.950616 0.313062
Si Si6 0.283658 0.521258 0.829099
O O1 0.242787 0.143301 0.188668
O O2 0.861699 0.080262 0.562808
O O3 0.137992 0.038406 0.441671
O O4 0.235611 0.044274 0.033277
O O5 0.325820 0.697125 0.291474
O O6 0.362320 0.780702 0.465824
O O7 0.004415 0.772728 0.661683
O O8 0.049876 0.701435 0.834605
O O9 0.697391 0.736505 0.792889
O O10 0.557278 0.620280 0.868409
O O11 0.350935 0.963609 0.420741
O O12 0.500000 0.000000 0.500000
O O13 0.500000 0.500000 0.500000
#
# Coordination Sequence:
#
# PCOD9246199 Si02
#       6
#     4   4   4   4   4   4
#     4  10  21  40  65  88 120 164 211 257 308 372
#     4  10  23  38  62  92 123 160 203 257 318 379
#     4  11  23  41  61  90 127 164 206 260 320 373
#     4  11  22  40  65  93 123 162 211 263 317 378
#     4  11  24  39  60  89 125 163 206 257 313 374
#     4   9  21  40  61  88 120 160 204 248 303 370
#
# _framework density 20.812529000000001
#
# number of rings (size 3 to 8) (size 9 to 14) (size 15 to 20)
#    0.000    1.667    0.000    4.000    0.000   12.667 
#    0.000    0.000    0.000    0.000    0.000    0.000 
#    0.000    0.000    0.000    0.000    0.000    0.000 
#
# Total GULP energy -133643.117565 kJ/mol
# GULP energy per Si atom -5568.463232 kJ/mol
# Density = 2.076516 g / cm^3
# Si number density = 20.812529 Si / 1000 Ang^3
#
#
#
# Elastic Constant Matrix: (Units=GPa)
#
#
# Indices 1 2 3 4 5 6 
#
# 1 145.8061 61.8605 22.9609 0.0000 -10.0677 0.0000
# 2 61.8605 119.2696 36.7282 0.0000 6.0321 0.0000
# 3 22.9609 36.7282 76.7673 0.0000 11.6811 0.0000
# 4 0.0000 0.0000 0.0000 22.2815 0.0000 -2.3788
# 5 -10.0677 6.0321 11.6811 0.0000 36.2559 0.0000
# 6 0.0000 0.0000 0.0000 -2.3788 0.0000 19.9356
#
#
#
# Elastic Compliance Matrix: (Units=1/GPa)
#
#
# Indices 1 2 3 4 5 6 
#
# 1 0.009261 -0.004649 -0.001109 0.000000 0.003703 0.000000
# 2 -0.004649 0.012168 -0.004129 0.000000 -0.001985 0.000000
# 3 -0.001109 -0.004129 0.016063 0.000000 -0.004796 0.000000
# 4 0.000000 0.000000 0.000000 0.045459 0.000000 0.005424
# 5 0.003703 -0.001985 -0.004796 0.000000 0.030485 0.000000
# 6 0.000000 0.000000 0.000000 0.005424 0.000000 0.050809
#
#
# Mechanical properties :
#
#
# Convention : Reuss Voigt Hill
#
# Bulk Modulus (GPa) = 56.43963 64.99357 60.71660
# Shear Modulus (GPa) = 26.32613 30.38085 28.35349
#
# Velocity S-wave (km/s) = 3.56043 3.82480 3.69498
# Velocity P-wave (km/s) = 6.63921 7.12750 6.88769
#
# Compressibility (1/GPa) = 0.01771805
#
# Stress axis : x y z
#
# Youngs Moduli (GPa) = 107.97736 82.18606 62.25378
#
# Poissons Ratio (x) = 0.38210 0.06904
# Poissons Ratio (y) = 0.50200 0.25703
# Poissons Ratio (z) = 0.11975 0.33933
#
# Static dielectric constant tensor:
#      x y z
#    x 1.844970 0.000000 -0.070640 
#    y 0.000000 1.815450 0.000000 
#    z -0.070640 0.000000 1.823180 
# 
# From -- ./inp_files/14510.got.cif
#   From: 2010.05.17/outbox.cif.g08.bks.cpg/sg14_8_cif.got.tgz:14510.got - 2010.06.03 17:49:19.
