data_PCOD9246512
_publ_section_title
;
Structure prediction by ZEFSAII (Michael W. Deem and Ramdas Pophale) SiO2 
 PCOD9246512
Probable space group: P 21/C
;
_chemical_formula_sum "Si O2"
_cell_formula_units_Z 20
_cell_length_a 9.763601
_cell_length_b 15.118457
_cell_length_c 8.692952
_cell_angle_alpha 90.000000
_cell_angle_beta 137.157742
_cell_angle_gamma 90.000000
_cell_volume 872.534014
_symmetry_space_group_name_H-M "P 21/C"
_symmetry_group_IT_number 14
_symmetry_cell_setting 'monoclinic'
loop_
_space_group_symop_operation_xyz
x,y,z
-x,1/2+y,1/2-z
-x,-y,-z
x,1/2-y,1/2+z
loop_
_atom_site_type_symbol
_atom_site_label
_atom_site_fract_x
_atom_site_fract_y
_atom_site_fract_z
Si Si1 0.158713 0.826351 0.620843
Si Si2 0.508766 0.719315 0.833723
Si Si3 0.545915 0.401985 0.850231
Si Si4 0.270284 0.939324 0.161977
Si Si5 0.050740 0.170174 0.232675
O O1 0.345710 0.761638 0.816811
O O2 0.272611 0.905296 0.626214
O O3 0.036095 0.763782 0.400994
O O4 0.023361 0.846478 0.654590
O O5 0.542293 0.803585 0.752381
O O6 0.391202 0.636498 0.665711
O O7 0.711346 0.680436 0.068815
O O8 0.360932 0.469012 0.680205
O O9 0.653428 0.423771 0.100738
O O10 0.040803 0.909503 0.945117
#
# Coordination Sequence:
#
# PCOD9246512 Si02
#       5
#     4   4   4   4   4
#     4   9  21  37  58  89 123 160 199 260 299 369
#     4   9  22  38  64  88 123 165 204 260 308 365
#     4   9  21  44  62  87 134 163 200 261 316 352
#     4  10  21  41  64  94 122 167 208 256 303 386
#     4  11  21  36  64  89 119 162 212 246 314 364
#
# _framework density 22.921745999999999
#
# number of rings (size 3 to 8) (size 9 to 14) (size 15 to 20)
#    1.200    1.200    0.000    2.400    2.800    0.800 
#    3.600    3.000    0.000    0.000    0.000    0.000 
#    0.000    0.000    0.000    0.000    0.000    0.000 
#
# Total GULP energy -111463.423258 kJ/mol
# GULP energy per Si atom -5573.171163 kJ/mol
# Density = 2.286957 g / cm^3
# Si number density = 22.921746 Si / 1000 Ang^3
#
#
#
# Elastic Constant Matrix: (Units=GPa)
#
#
# Indices 1 2 3 4 5 6 
#
# 1 79.3694 -6.8502 7.4418 0.0000 1.7523 0.0000
# 2 -6.8502 71.3202 -8.0239 0.0000 -11.0997 0.0000
# 3 7.4418 -8.0239 58.7885 0.0000 16.8890 0.0000
# 4 0.0000 0.0000 0.0000 26.2145 0.0000 -4.7749
# 5 1.7523 -11.0997 16.8890 0.0000 34.1921 0.0000
# 6 0.0000 0.0000 0.0000 -4.7749 0.0000 14.3235
#
#
#
# Elastic Compliance Matrix: (Units=1/GPa)
#
#
# Indices 1 2 3 4 5 6 
#
# 1 0.012837 0.001130 -0.001617 0.000000 0.000507 0.000000
# 2 0.001130 0.014895 0.000603 0.000000 0.004480 0.000000
# 3 -0.001617 0.000603 0.020064 0.000000 -0.009632 0.000000
# 4 0.000000 0.000000 0.000000 0.040613 0.000000 0.013539
# 5 0.000507 0.004480 -0.009632 0.000000 0.035432 0.000000
# 6 0.000000 0.000000 0.000000 0.013539 0.000000 0.074329
#
#
# Mechanical properties :
#
#
# Convention : Reuss Voigt Hill
#
# Bulk Modulus (GPa) = 20.82063 21.62375 21.22219
# Shear Modulus (GPa) = 23.37025 29.40669 26.38847
#
# Velocity S-wave (km/s) = 3.19653 3.58567 3.39668
# Velocity P-wave (km/s) = 4.76726 5.15722 4.96607
#
# Compressibility (1/GPa) = 0.04802928
#
# Stress axis : x y z
#
# Youngs Moduli (GPa) = 77.89851 67.13746 49.84005
#
# Poissons Ratio (x) = -0.07587 0.08057
# Poissons Ratio (y) = -0.08803 -0.03005
# Poissons Ratio (z) = 0.12593 -0.04048
#
# Static dielectric constant tensor:
#      x y z
#    x 1.875280 0.000000 -0.003920 
#    y 0.000000 1.908190 0.000000 
#    z -0.003920 0.000000 1.885590 
# 
# From -- ./inp_files/5537.got.cif
#   From: 2010.05.17/outbox.cif.g08.bks.cpg/sg14_3_cif.got.tgz:5537.got - 2010.06.03 17:49:19.
