data_PCOD9246750
_publ_section_title
;
Structure prediction by ZEFSAII (Michael W. Deem and Ramdas Pophale) SiO2 
 PCOD9246750
Probable space group: P 21/C
;
_chemical_formula_sum "Si O2"
_cell_formula_units_Z 32
_cell_length_a 10.616874
_cell_length_b 8.948748
_cell_length_c 20.260694
_cell_angle_alpha 90.000000
_cell_angle_beta 139.836374
_cell_angle_gamma 90.000000
_cell_volume 1241.522423
_symmetry_space_group_name_H-M "P 21/C"
_symmetry_group_IT_number 14
_symmetry_cell_setting 'monoclinic'
loop_
_space_group_symop_operation_xyz
x,y,z
-x,1/2+y,1/2-z
-x,-y,-z
x,1/2-y,1/2+z
loop_
_atom_site_type_symbol
_atom_site_label
_atom_site_fract_x
_atom_site_fract_y
_atom_site_fract_z
Si Si1 0.280981 0.561163 0.283678
Si Si2 0.740372 0.675439 0.626084
Si Si3 0.158028 0.976963 0.940563
Si Si4 0.850463 0.234916 0.658797
Si Si5 0.415296 0.074064 0.213335
Si Si6 0.811485 0.948240 0.572286
Si Si7 0.893957 0.751263 0.491119
Si Si8 0.690797 0.229073 0.883254
O O1 0.331089 0.400160 0.335928
O O2 0.289018 0.685594 0.344541
O O3 0.422548 0.590233 0.279938
O O4 0.050697 0.558222 0.172226
O O5 0.693123 0.565678 0.546758
O O6 0.717192 0.841372 0.590285
O O7 0.976534 0.661518 0.730107
O O8 0.052870 0.863505 0.848580
O O9 0.058903 0.110968 0.940997
O O10 0.259657 0.873034 0.034569
O O11 0.759410 0.115208 0.572538
O O12 0.520337 0.149819 0.317218
O O13 0.365943 0.898875 0.193744
O O14 0.231565 0.174675 0.117021
O O15 0.777252 0.872719 0.487461
O O16 0.101882 0.807048 0.549223
#
# Coordination Sequence:
#
# PCOD9246750 Si02
#       8
#     4   4   4   4   4   4   4   4
#     4   9  17  35  56  87 125 159 206 262 309 380
#     4   8  16  31  56  89 123 162 203 247 318 382
#     4   9  18  35  60  88 126 168 205 250 315 391
#     4   9  17  31  58  94 125 155 207 261 314 378
#     4  11  23  42  64  91 125 169 216 266 318 370
#     4   9  16  33  59  91 123 161 204 258 318 373
#     4  10  21  42  63  87 127 172 207 261 328 380
#     4  11  24  45  63  91 128 166 221 265 317 381
#
# _framework density 25.774805000000001
#
# number of rings (size 3 to 8) (size 9 to 14) (size 15 to 20)
#    0.000    2.500    1.250    2.250    0.000    1.000 
#    9.000   17.500    0.000    0.000    0.000    0.000 
#    0.000    0.000    0.000    0.000    0.000    0.000 
#
# Total GULP energy -178749.628702 kJ/mol
# GULP energy per Si atom -5585.925897 kJ/mol
# Density = 2.571614 g / cm^3
# Si number density = 25.774805 Si / 1000 Ang^3
#
#
#
# Elastic Constant Matrix: (Units=GPa)
#
#
# Indices 1 2 3 4 5 6 
#
# 1 56.8395 10.1913 15.6972 0.0000 10.3621 0.0000
# 2 10.1913 95.9266 6.1951 0.0000 -6.3842 0.0000
# 3 15.6972 6.1951 53.4243 0.0000 13.0706 0.0000
# 4 0.0000 0.0000 0.0000 44.0039 0.0000 -10.5167
# 5 10.3621 -6.3842 13.0706 0.0000 26.8397 0.0000
# 6 0.0000 0.0000 0.0000 -10.5167 0.0000 29.9059
#
#
#
# Elastic Compliance Matrix: (Units=1/GPa)
#
#
# Indices 1 2 3 4 5 6 
#
# 1 0.020315 -0.002315 -0.004140 0.000000 -0.006377 0.000000
# 2 -0.002315 0.011067 -0.001664 0.000000 0.004337 0.000000
# 3 -0.004140 -0.001664 0.022516 0.000000 -0.009762 0.000000
# 4 0.000000 0.000000 0.000000 0.024810 0.000000 0.008725
# 5 -0.006377 0.004337 -0.009762 0.000000 0.045506 0.000000
# 6 0.000000 0.000000 0.000000 0.008725 0.000000 0.036506
#
#
# Mechanical properties :
#
#
# Convention : Reuss Voigt Hill
#
# Bulk Modulus (GPa) = 26.55452 30.03976 28.29714
# Shear Modulus (GPa) = 26.38361 31.75701 29.07031
#
# Velocity S-wave (km/s) = 3.20288 3.51393 3.36200
# Velocity P-wave (km/s) = 4.89926 5.30505 5.10619
#
# Compressibility (1/GPa) = 0.03765838
#
# Stress axis : x y z
#
# Youngs Moduli (GPa) = 49.22586 90.36121 44.41304
#
# Poissons Ratio (x) = 0.20921 0.18387
# Poissons Ratio (y) = 0.11397 0.07390
# Poissons Ratio (z) = 0.20380 0.15036
#
# Static dielectric constant tensor:
#      x y z
#    x 2.049070 0.000000 -0.052130 
#    y 0.000000 2.048850 0.000000 
#    z -0.052130 0.000000 2.087730 
# 
# From -- ./inp_files/73133.got.cif
#   From: 2010.05.17/outbox.cif.g08.bks.cpg/sg14_37_cif.got.tgz:73133.got - 2010.06.03 17:49:19.
