data_PCOD9246818
_publ_section_title
;
Structure prediction by ZEFSAII (Michael W. Deem and Ramdas Pophale) SiO2 
 PCOD9246818
Probable space group: P 21/C
;
_chemical_formula_sum "Si O2"
_cell_formula_units_Z 24
_cell_length_a 9.148661
_cell_length_b 11.664332
_cell_length_c 18.613903
_cell_angle_alpha 90.000000
_cell_angle_beta 150.683513
_cell_angle_gamma 90.000000
_cell_volume 972.581186
_symmetry_space_group_name_H-M "P 21/C"
_symmetry_group_IT_number 14
_symmetry_cell_setting 'monoclinic'
loop_
_space_group_symop_operation_xyz
x,y,z
-x,1/2+y,1/2-z
-x,-y,-z
x,1/2-y,1/2+z
loop_
_atom_site_type_symbol
_atom_site_label
_atom_site_fract_x
_atom_site_fract_y
_atom_site_fract_z
Si Si1 0.715075 0.047745 0.028984
Si Si2 0.139918 0.187537 0.936578
Si Si3 0.365289 0.312914 0.258278
Si Si4 0.756396 0.252104 0.642210
Si Si5 0.666658 0.119350 0.468902
Si Si6 0.210214 0.096014 0.551938
O O1 0.518201 0.108634 0.883977
O O2 0.881597 0.145162 0.146198
O O3 0.500000 0.000000 0.000000
O O4 0.898949 0.947917 0.068535
O O5 0.009092 0.203754 0.801046
O O6 0.497470 0.203820 0.083889
O O7 0.048865 0.292291 0.949298
O O8 0.475525 0.186822 0.327044
O O9 0.436941 0.354925 0.208494
O O10 0.010299 0.335190 0.108342
O O11 0.605478 0.162290 0.522965
O O12 0.647623 0.983652 0.448640
O O13 0.000000 0.000000 0.500000
#
# Coordination Sequence:
#
# PCOD9246818 Si02
#       6
#     4   4   4   4   4   4
#     4   9  20  38  66  92 126 168 213 265 327 389
#     4  11  24  39  67  98 130 171 220 269 334 396
#     4  10  22  41  66  89 129 176 215 272 328 399
#     4  10  22  40  66  97 129 165 217 279 333 385
#     4  10  21  42  66  91 130 170 218 271 337 383
#     4  10  25  40  66  89 132 176 214 264 331 397
#
# _framework density 24.676604000000001
#
# number of rings (size 3 to 8) (size 9 to 14) (size 15 to 20)
#    0.000    2.000    0.000    3.000   14.000    2.000 
#    6.000    0.833    0.000    0.000    0.000    0.000 
#    0.000    0.000    0.000    0.000    0.000    0.000 
#
# Total GULP energy -133974.586667 kJ/mol
# GULP energy per Si atom -5582.274444 kJ/mol
# Density = 2.462044 g / cm^3
# Si number density = 24.676604 Si / 1000 Ang^3
#
#
#
# Elastic Constant Matrix: (Units=GPa)
#
#
# Indices 1 2 3 4 5 6 
#
# 1 40.5776 28.3487 5.5962 0.0000 -9.5880 0.0000
# 2 28.3487 98.9183 24.4847 0.0000 -18.1214 0.0000
# 3 5.5962 24.4847 100.4343 0.0000 -11.7341 0.0000
# 4 0.0000 0.0000 0.0000 32.5144 0.0000 -4.1790
# 5 -9.5880 -18.1214 -11.7341 0.0000 43.3236 0.0000
# 6 0.0000 0.0000 0.0000 -4.1790 0.0000 38.4469
#
#
#
# Elastic Compliance Matrix: (Units=1/GPa)
#
#
# Indices 1 2 3 4 5 6 
#
# 1 0.031331 -0.008508 0.000746 0.000000 0.003577 0.000000
# 2 -0.008508 0.013753 -0.002506 0.000000 0.003191 0.000000
# 3 0.000746 -0.002506 0.010763 0.000000 0.002032 0.000000
# 4 0.000000 0.000000 0.000000 0.031191 0.000000 0.003390
# 5 0.003577 0.003191 0.002032 0.000000 0.025759 0.000000
# 6 0.000000 0.000000 0.000000 0.003390 0.000000 0.026378
#
#
# Mechanical properties :
#
#
# Convention : Reuss Voigt Hill
#
# Bulk Modulus (GPa) = 28.31976 39.64326 33.98151
# Shear Modulus (GPa) = 29.15772 34.95702 32.05737
#
# Velocity S-wave (km/s) = 3.44116 3.76787 3.60821
# Velocity P-wave (km/s) = 5.22399 5.91854 5.58208
#
# Compressibility (1/GPa) = 0.03531103
#
# Stress axis : x y z
#
# Youngs Moduli (GPa) = 31.91769 72.71389 92.90663
#
# Poissons Ratio (x) = 0.61868 -0.06935
# Poissons Ratio (y) = 0.27157 0.23281
# Poissons Ratio (z) = -0.02382 0.18221
#
# Static dielectric constant tensor:
#      x y z
#    x 2.229110 0.000000 0.037110 
#    y 0.000000 2.056260 0.000000 
#    z 0.037110 0.000000 1.874950 
# 
# From -- ./inp_files/28978.got.cif
#   From: 2010.05.17/outbox.cif.g08.bks.cpg/sg14_15_cif.got.tgz:28978.got - 2010.06.03 17:49:19.
