data_PCOD9246852
_publ_section_title
;
Structure prediction by ZEFSAII (Michael W. Deem and Ramdas Pophale) SiO2 
 PCOD9246852
Probable space group: P 21/C
;
_chemical_formula_sum "Si O2"
_cell_formula_units_Z 24
_cell_length_a 12.969731
_cell_length_b 9.521209
_cell_length_c 15.207265
_cell_angle_alpha 90.000000
_cell_angle_beta 151.964050
_cell_angle_gamma 90.000000
_cell_volume 882.664328
_symmetry_space_group_name_H-M "P 21/C"
_symmetry_group_IT_number 14
_symmetry_cell_setting 'monoclinic'
loop_
_space_group_symop_operation_xyz
x,y,z
-x,1/2+y,1/2-z
-x,-y,-z
x,1/2-y,1/2+z
loop_
_atom_site_type_symbol
_atom_site_label
_atom_site_fract_x
_atom_site_fract_y
_atom_site_fract_z
Si Si1 0.800586 0.955995 0.726003
Si Si2 0.642809 0.626657 0.812594
Si Si3 0.315754 0.871116 0.760778
Si Si4 0.278588 0.737064 0.916196
Si Si5 0.208035 0.289931 0.411752
Si Si6 0.256894 0.938071 0.132270
O O1 0.735772 0.826295 0.619498
O O2 0.674552 0.091784 0.597774
O O3 0.779587 0.956680 0.814752
O O4 0.067259 0.967137 0.918343
O O5 0.768016 0.514208 0.847294
O O6 0.467315 0.710983 0.622231
O O7 0.494790 0.541917 0.771279
O O8 0.774834 0.729805 0.975795
O O9 0.257906 0.847757 0.819538
O O10 0.247253 0.725117 0.659445
O O11 0.581432 0.887779 0.946991
O O12 0.053112 0.694260 0.796275
#
# Coordination Sequence:
#
# PCOD9246852 Si02
#       6
#     4   4   4   4   4   4
#     4  10  21  42  67  94 132 169 226 276 330 389
#     4  11  23  42  64  97 133 172 222 270 331 409
#     4  10  24  44  65  99 135 169 226 272 333 403
#     4  11  24  45  65  96 137 174 216 280 329 399
#     4  11  25  40  68 100 122 184 215 269 348 374
#     4   9  20  41  66  96 126 174 224 278 325 390
#
# _framework density 27.190404000000001
#
# number of rings (size 3 to 8) (size 9 to 14) (size 15 to 20)
#    0.000    1.667    1.667    1.500    4.667    6.667 
#    9.000    0.000    0.000    0.000    0.000    0.000 
#    0.000    0.000    0.000    0.000    0.000    0.000 
#
# Total GULP energy -134381.655551 kJ/mol
# GULP energy per Si atom -5599.235648 kJ/mol
# Density = 2.712852 g / cm^3
# Si number density = 27.190404 Si / 1000 Ang^3
#
#
#
# Elastic Constant Matrix: (Units=GPa)
#
#
# Indices 1 2 3 4 5 6 
#
# 1 73.5590 -9.7662 19.3271 0.0000 26.0643 0.0000
# 2 -9.7662 68.2629 28.1892 0.0000 -2.1810 0.0000
# 3 19.3271 28.1892 119.0008 0.0000 -1.4351 0.0000
# 4 0.0000 0.0000 0.0000 49.0882 0.0000 -15.4719
# 5 26.0643 -2.1810 -1.4351 0.0000 52.7474 0.0000
# 6 0.0000 0.0000 0.0000 -15.4719 0.0000 33.7710
#
#
#
# Elastic Compliance Matrix: (Units=1/GPa)
#
#
# Indices 1 2 3 4 5 6 
#
# 1 0.018391 0.004014 -0.004047 0.000000 -0.009032 0.000000
# 2 0.004014 0.017131 -0.004727 0.000000 -0.001404 0.000000
# 3 -0.004047 -0.004727 0.010205 0.000000 0.002082 0.000000
# 4 0.000000 0.000000 0.000000 0.023810 0.000000 0.010908
# 5 -0.009032 -0.001404 0.002082 0.000000 0.023420 0.000000
# 6 0.000000 0.000000 0.000000 0.010908 0.000000 0.034609
#
#
# Mechanical properties :
#
#
# Convention : Reuss Voigt Hill
#
# Bulk Modulus (GPa) = 27.61876 37.36922 32.49399
# Shear Modulus (GPa) = 33.52259 41.99282 37.75770
#
# Velocity S-wave (km/s) = 3.51505 3.93415 3.73049
# Velocity P-wave (km/s) = 5.16272 5.86601 5.52557
#
# Compressibility (1/GPa) = 0.03620728
#
# Stress axis : x y z
#
# Youngs Moduli (GPa) = 54.37499 58.37538 97.98837
#
# Poissons Ratio (x) = -0.23429 0.39651
# Poissons Ratio (y) = -0.21824 0.46316
# Poissons Ratio (z) = 0.22003 0.27592
#
# Static dielectric constant tensor:
#      x y z
#    x 2.178560 0.000000 0.069440 
#    y 0.000000 2.158650 0.000000 
#    z 0.069440 0.000000 2.119960 
# 
# From -- ./inp_files/47011.got.cif
#   From: 2010.05.17/outbox.cif.g08.bks.cpg/sg14_24_cif.got.tgz:47011.got - 2010.06.03 17:49:19.
