data_PCOD9246760
_publ_section_title
;
Structure prediction by ZEFSAII (Michael W. Deem and Ramdas Pophale) SiO2 
 PCOD9246760
Probable space group: P 21/C
;
_chemical_formula_sum "Si O2"
_cell_formula_units_Z 20
_cell_length_a 5.387097
_cell_length_b 13.009014
_cell_length_c 12.170888
_cell_angle_alpha 90.000000
_cell_angle_beta 95.889196
_cell_angle_gamma 90.000000
_cell_volume 848.444122
_symmetry_space_group_name_H-M "P 21/C"
_symmetry_group_IT_number 14
_symmetry_cell_setting 'monoclinic'
loop_
_space_group_symop_operation_xyz
x,y,z
-x,1/2+y,1/2-z
-x,-y,-z
x,1/2-y,1/2+z
loop_
_atom_site_type_symbol
_atom_site_label
_atom_site_fract_x
_atom_site_fract_y
_atom_site_fract_z
Si Si1 0.632033 0.970599 0.243379
Si Si2 0.105221 0.768678 0.954097
Si Si3 0.108030 0.556113 0.612030
Si Si4 0.412750 0.232522 0.608800
Si Si5 0.393900 0.601060 0.051540
O O1 0.384728 0.978934 0.157611
O O2 0.583127 0.865452 0.311622
O O3 0.895559 0.956798 0.194194
O O4 0.640975 0.067246 0.326429
O O5 0.331200 0.794932 0.882390
O O6 0.842515 0.790728 0.887752
O O7 0.130938 0.826939 0.069957
O O8 0.145977 0.647025 0.981719
O O9 0.000000 0.500000 0.500000
O O10 0.417234 0.190440 0.481114
O O11 0.500000 0.500000 0.000000
#
# Coordination Sequence:
#
# PCOD9246760 Si02
#       5
#     4   4   4   4   4
#     4  11  23  42  68  97 124 176 219 269 329 398
#     4  10  21  42  63  94 135 165 211 285 327 383
#     4  12  27  46  59  90 146 183 216 251 328 418
#     4   9  20  39  71  96 129 150 221 288 335 363
#     4   8  20  38  70  99 127 150 222 287 341 360
#
# _framework density 23.572557
#
# number of rings (size 3 to 8) (size 9 to 14) (size 15 to 20)
#    1.200    0.800    0.000    3.000    2.800    1.600 
#   10.800    0.000    0.000    0.000    0.000    0.000 
#    0.000    0.000    0.000    0.000    0.000    0.000 
#
# Total GULP energy -111510.736585 kJ/mol
# GULP energy per Si atom -5575.536829 kJ/mol
# Density = 2.351891 g / cm^3
# Si number density = 23.572557 Si / 1000 Ang^3
#
#
#
# Elastic Constant Matrix: (Units=GPa)
#
#
# Indices 1 2 3 4 5 6 
#
# 1 152.7864 15.1288 13.2036 0.0000 -13.0395 0.0000
# 2 15.1288 50.9038 18.0411 0.0000 -6.2111 0.0000
# 3 13.2036 18.0411 69.3968 0.0000 -16.5163 0.0000
# 4 0.0000 0.0000 0.0000 49.3708 0.0000 4.7181
# 5 -13.0395 -6.2111 -16.5163 0.0000 40.0144 0.0000
# 6 0.0000 0.0000 0.0000 4.7181 0.0000 21.4721
#
#
#
# Elastic Compliance Matrix: (Units=1/GPa)
#
#
# Indices 1 2 3 4 5 6 
#
# 1 0.006904 -0.001672 -0.000449 0.000000 0.001805 0.000000
# 2 -0.001672 0.022092 -0.005255 0.000000 0.000715 0.000000
# 3 -0.000449 -0.005255 0.017335 0.000000 0.006193 0.000000
# 4 0.000000 0.000000 0.000000 0.020689 0.000000 -0.004546
# 5 0.001805 0.000715 0.006193 0.000000 0.028246 0.000000
# 6 0.000000 0.000000 0.000000 -0.004546 0.000000 0.047571
#
#
# Mechanical properties :
#
#
# Convention : Reuss Voigt Hill
#
# Bulk Modulus (GPa) = 31.66774 40.64821 36.15797
# Shear Modulus (GPa) = 29.74138 37.28568 33.51353
#
# Velocity S-wave (km/s) = 3.55589 3.98143 3.77466
# Velocity P-wave (km/s) = 5.50658 6.19814 5.86257
#
# Compressibility (1/GPa) = 0.03157788
#
# Stress axis : x y z
#
# Youngs Moduli (GPa) = 144.85366 45.26618 57.68536
#
# Poissons Ratio (x) = 0.07570 0.02591
# Poissons Ratio (y) = 0.24224 0.30312
# Poissons Ratio (z) = 0.06507 0.23786
#
# Static dielectric constant tensor:
#      x y z
#    x 2.010930 0.000000 -0.017420 
#    y 0.000000 1.963810 0.000000 
#    z -0.017420 0.000000 1.886950 
# 
# From -- ./inp_files/20672.got.cif
#   From: 2010.05.17/outbox.cif.g08.bks.cpg/sg14_11_cif.got.tgz:20672.got - 2010.06.03 17:49:19.
