data_PCOD9246184
_publ_section_title
;
Structure prediction by ZEFSAII (Michael W. Deem and Ramdas Pophale) SiO2 
 PCOD9246184
Probable space group: P 21/C
;
_chemical_formula_sum "Si O2"
_cell_formula_units_Z 28
_cell_length_a 26.912061
_cell_length_b 5.137414
_cell_length_c 16.783511
_cell_angle_alpha 90.000000
_cell_angle_beta 29.243182
_cell_angle_gamma 90.000000
_cell_volume 1133.585783
_symmetry_space_group_name_H-M "P 21/C"
_symmetry_group_IT_number 14
_symmetry_cell_setting 'monoclinic'
loop_
_space_group_symop_operation_xyz
x,y,z
-x,1/2+y,1/2-z
-x,-y,-z
x,1/2-y,1/2+z
loop_
_atom_site_type_symbol
_atom_site_label
_atom_site_fract_x
_atom_site_fract_y
_atom_site_fract_z
Si Si1 0.736050 0.921877 0.096276
Si Si2 0.896425 0.580213 0.687311
Si Si3 0.593094 0.127182 0.418311
Si Si4 0.412663 0.243051 0.434823
Si Si5 0.567265 0.545341 0.273753
Si Si6 0.768591 0.424420 0.367472
Si Si7 0.941855 0.670877 0.808651
O O1 0.683960 0.129065 0.227803
O O2 0.660372 0.675733 0.188279
O O3 0.839894 0.804241 0.984964
O O4 0.755852 0.043434 0.981279
O O5 0.810182 0.362383 0.793847
O O6 0.917739 0.592580 0.751842
O O7 0.000000 0.500000 0.500000
O O8 0.853241 0.862083 0.724399
O O9 0.630588 0.954315 0.439718
O O10 0.500000 0.000000 0.500000
O O11 0.535147 0.375355 0.534931
O O12 0.530448 0.257293 0.302846
O O13 0.424883 0.150780 0.327130
O O14 0.334089 0.482068 0.531944
O O15 0.977163 0.407110 0.801983
#
# Coordination Sequence:
#
# PCOD9246184 Si02
#       7
#     4   4   4   4   4   4   4
#     4   9  22  43  62  95 133 178 220 278 343 407
#     4  11  24  46  73 100 135 175 233 289 346 403
#     4  10  22  41  60  96 134 173 228 273 335 402
#     4  11  22  38  66  96 138 177 231 275 340 411
#     4  10  21  40  64  93 132 179 220 282 331 407
#     4  10  24  43  69 102 136 182 221 285 347 406
#     4  11  24  46  70  98 136 178 224 283 348 411
#
# _framework density 24.700379999999999
#
# number of rings (size 3 to 8) (size 9 to 14) (size 15 to 20)
#    0.000    1.714    1.429    2.143    2.000    5.714 
#   12.857    0.000    0.000    0.000    0.000    0.000 
#    0.000    0.000    0.000    0.000    0.000    0.000 
#
# Total GULP energy -156437.302834 kJ/mol
# GULP energy per Si atom -5587.046530 kJ/mol
# Density = 2.464416 g / cm^3
# Si number density = 24.700380 Si / 1000 Ang^3
#
#
#
# Elastic Constant Matrix: (Units=GPa)
#
#
# Indices 1 2 3 4 5 6 
#
# 1 78.2485 40.0397 23.8584 0.0000 -13.2452 0.0000
# 2 40.0397 56.6722 6.8152 0.0000 -3.4071 0.0000
# 3 23.8584 6.8152 106.6983 0.0000 7.6818 0.0000
# 4 0.0000 0.0000 0.0000 25.1139 0.0000 -15.8636
# 5 -13.2452 -3.4071 7.6818 0.0000 30.8907 0.0000
# 6 0.0000 0.0000 0.0000 -15.8636 0.0000 39.3161
#
#
#
# Elastic Compliance Matrix: (Units=1/GPa)
#
#
# Indices 1 2 3 4 5 6 
#
# 1 0.024091 -0.015817 -0.005086 0.000000 0.009850 0.000000
# 2 -0.015817 0.028326 0.002027 0.000000 -0.004162 0.000000
# 3 -0.005086 0.002027 0.010713 0.000000 -0.004621 0.000000
# 4 0.000000 0.000000 0.000000 0.053438 0.000000 0.021562
# 5 0.009850 -0.004162 -0.004621 0.000000 0.037286 0.000000
# 6 0.000000 0.000000 0.000000 0.021562 0.000000 0.034135
#
#
# Mechanical properties :
#
#
# Convention : Reuss Voigt Hill
#
# Bulk Modulus (GPa) = 39.40302 42.56063 40.98182
# Shear Modulus (GPa) = 21.34918 30.45784 25.90351
#
# Velocity S-wave (km/s) = 2.94313 3.51535 3.24189
# Velocity P-wave (km/s) = 5.24751 5.80905 5.53541
#
# Compressibility (1/GPa) = 0.02537877
#
# Stress axis : x y z
#
# Youngs Moduli (GPa) = 41.50846 35.30274 93.34740
#
# Poissons Ratio (x) = 0.55839 0.47475
# Poissons Ratio (y) = 0.65655 -0.18923
# Poissons Ratio (z) = 0.21111 -0.07156
#
# Static dielectric constant tensor:
#      x y z
#    x 1.992430 0.000000 -0.039010 
#    y 0.000000 2.198130 0.000000 
#    z -0.039010 0.000000 2.017710 
# 
# From -- ./inp_files/62139.got.cif
#   From: 2010.05.17/outbox.cif.g08.bks.cpg/sg14_32_cif.got.tgz:62139.got - 2010.06.03 17:49:19.
