data_PCOD9246138
_publ_section_title
;
Structure prediction by ZEFSAII (Michael W. Deem and Ramdas Pophale) SiO2 
 PCOD9246138
Probable space group: P 21/C
;
_chemical_formula_sum "Si O2"
_cell_formula_units_Z 28
_cell_length_a 5.405833
_cell_length_b 8.880756
_cell_length_c 28.865469
_cell_angle_alpha 90.000000
_cell_angle_beta 117.183596
_cell_angle_gamma 90.000000
_cell_volume 1232.707905
_symmetry_space_group_name_H-M "P 21/C"
_symmetry_group_IT_number 14
_symmetry_cell_setting 'monoclinic'
loop_
_space_group_symop_operation_xyz
x,y,z
-x,1/2+y,1/2-z
-x,-y,-z
x,1/2-y,1/2+z
loop_
_atom_site_type_symbol
_atom_site_label
_atom_site_fract_x
_atom_site_fract_y
_atom_site_fract_z
Si Si1 0.185352 0.272595 0.285151
Si Si2 0.557716 0.320329 0.497845
Si Si3 0.247447 0.790755 0.391835
Si Si4 0.967026 0.350020 0.964631
Si Si5 0.283924 0.595387 0.311138
Si Si6 0.530436 0.464286 0.864745
Si Si7 0.646213 0.798993 0.299407
O O1 0.142182 0.435862 0.301942
O O2 0.325549 0.169898 0.335275
O O3 0.384809 0.305176 0.257929
O O4 0.923656 0.194324 0.238721
O O5 0.500000 0.500000 0.500000
O O6 0.755883 0.264131 0.556682
O O7 0.734928 0.262301 0.468348
O O8 0.261608 0.233409 0.480290
O O9 0.350625 0.656268 0.367727
O O10 0.958148 0.828403 0.342795
O O11 0.439208 0.934766 0.400370
O O12 0.832737 0.403985 0.904316
O O13 0.000000 0.500000 0.000000
O O14 0.568890 0.630378 0.308662
O O15 0.496699 0.574464 0.817411
#
# Coordination Sequence:
#
# PCOD9246138 Si02
#       7
#     4   4   4   4   4   4   4
#     4  11  22  40  62  94 132 172 230 279 357 428
#     4  12  28  48  74 107 154 190 247 315 379 438
#     4  10  23  42  66  93 135 179 226 293 364 421
#     4  12  26  49  77 110 147 199 255 307 371 448
#     4  10  22  38  61  90 131 171 220 283 348 432
#     4  11  24  40  70  98 135 183 239 295 358 442
#     4  10  21  40  63  94 129 176 220 288 357 421
#
# _framework density 22.714223
#
# number of rings (size 3 to 8) (size 9 to 14) (size 15 to 20)
#    0.000    1.143    1.429    5.143    6.000    2.286 
#    0.000    0.000    0.000    0.000    0.000    0.000 
#    0.000    0.000    0.000    0.000    0.000    0.000 
#
# Total GULP energy -156195.155753 kJ/mol
# GULP energy per Si atom -5578.398420 kJ/mol
# Density = 2.266252 g / cm^3
# Si number density = 22.714223 Si / 1000 Ang^3
#
#
#
# Elastic Constant Matrix: (Units=GPa)
#
#
# Indices 1 2 3 4 5 6 
#
# 1 60.7548 18.5848 -13.9348 0.0000 0.9289 0.0000
# 2 18.5848 107.2254 9.9804 0.0000 6.7195 0.0000
# 3 -13.9348 9.9804 75.9149 0.0000 -1.7123 0.0000
# 4 0.0000 0.0000 0.0000 21.4398 0.0000 8.8834
# 5 0.9289 6.7195 -1.7123 0.0000 28.7169 0.0000
# 6 0.0000 0.0000 0.0000 8.8834 0.0000 23.7961
#
#
#
# Elastic Compliance Matrix: (Units=1/GPa)
#
#
# Indices 1 2 3 4 5 6 
#
# 1 0.018436 -0.003585 0.003866 0.000000 0.000473 0.000000
# 2 -0.003585 0.010291 -0.002065 0.000000 -0.002415 0.000000
# 3 0.003866 -0.002065 0.014181 0.000000 0.001204 0.000000
# 4 0.000000 0.000000 0.000000 0.055177 0.000000 -0.020598
# 5 0.000473 -0.002415 0.001204 0.000000 0.035444 0.000000
# 6 0.000000 0.000000 0.000000 -0.020598 0.000000 0.049713
#
#
# Mechanical properties :
#
#
# Convention : Reuss Voigt Hill
#
# Bulk Modulus (GPa) = 25.41999 30.35065 27.88532
# Shear Modulus (GPa) = 25.00949 30.07487 27.54218
#
# Velocity S-wave (km/s) = 3.32181 3.64270 3.48595
# Velocity P-wave (km/s) = 5.09196 5.57524 5.33907
#
# Compressibility (1/GPa) = 0.03933912
#
# Stress axis : x y z
#
# Youngs Moduli (GPa) = 54.24268 97.17138 70.51697
#
# Poissons Ratio (x) = 0.34834 -0.27262
# Poissons Ratio (y) = 0.19445 0.14565
# Poissons Ratio (z) = -0.20970 0.20070
#
# Static dielectric constant tensor:
#      x y z
#    x 2.029010 0.000000 -0.014590 
#    y 0.000000 1.923050 0.000000 
#    z -0.014590 0.000000 1.889950 
# 
# From -- ./inp_files/78743.got.cif
#   From: 2010.05.17/outbox.cif.g08.bks.cpg/sg14_40_cif.got.tgz:78743.got - 2010.06.03 17:49:19.
