data_PCOD9246256
_publ_section_title
;
Structure prediction by ZEFSAII (Michael W. Deem and Ramdas Pophale) SiO2 
 PCOD9246256
Probable space group: P 21/C
;
_chemical_formula_sum "Si O2"
_cell_formula_units_Z 16
_cell_length_a 7.917850
_cell_length_b 5.014056
_cell_length_c 18.979824
_cell_angle_alpha 90.000000
_cell_angle_beta 123.314523
_cell_angle_gamma 90.000000
_cell_volume 629.683759
_symmetry_space_group_name_H-M "P 21/C"
_symmetry_group_IT_number 14
_symmetry_cell_setting 'monoclinic'
loop_
_space_group_symop_operation_xyz
x,y,z
-x,1/2+y,1/2-z
-x,-y,-z
x,1/2-y,1/2+z
loop_
_atom_site_type_symbol
_atom_site_label
_atom_site_fract_x
_atom_site_fract_y
_atom_site_fract_z
Si Si1 0.443851 0.815870 0.572392
Si Si2 0.795590 0.807221 0.003769
Si Si3 0.182296 0.010225 0.630900
Si Si4 0.137076 0.214411 0.773521
O O1 0.291005 0.599374 0.505136
O O2 0.364699 0.852997 0.635585
O O3 0.673496 0.727128 0.630596
O O4 0.394492 0.107024 0.530863
O O5 0.853913 0.749130 0.934436
O O6 0.986320 0.681310 0.086806
O O7 0.215398 0.120284 0.715381
O O8 0.968668 0.000106 0.756677
#
# Coordination Sequence:
#
# PCOD9246256 Si02
#       4
#     4   4   4   4
#     4  10  21  40  66  90 118 163 218 245 307 362
#     4   9  20  38  71  94 110 154 226 266 288 351
#     4   9  23  39  70  88 124 156 219 254 306 360
#     4  12  28  41  58  95 138 165 198 255 323 372
#
# _framework density 25.409579000000001
#
# number of rings (size 3 to 8) (size 9 to 14) (size 15 to 20)
#    1.500    0.500    0.000    2.250    7.000    0.000 
#    0.000    7.500    0.000    0.000    0.000    0.000 
#    0.000    0.000    0.000    0.000    0.000    0.000 
#
# Total GULP energy -89547.137772 kJ/mol
# GULP energy per Si atom -5596.696111 kJ/mol
# Density = 2.535175 g / cm^3
# Si number density = 25.409579 Si / 1000 Ang^3
#
#
#
# Elastic Constant Matrix: (Units=GPa)
#
#
# Indices 1 2 3 4 5 6 
#
# 1 69.3312 -19.3284 8.7314 0.0000 5.2741 0.0000
# 2 -19.3284 96.2243 13.3625 0.0000 8.7218 0.0000
# 3 8.7314 13.3625 105.6290 0.0000 6.4778 0.0000
# 4 0.0000 0.0000 0.0000 35.9837 0.0000 0.2572
# 5 5.2741 8.7218 6.4778 0.0000 52.9146 0.0000
# 6 0.0000 0.0000 0.0000 0.2572 0.0000 48.7801
#
#
#
# Elastic Compliance Matrix: (Units=1/GPa)
#
#
# Indices 1 2 3 4 5 6 
#
# 1 0.015775 0.003574 -0.001636 0.000000 -0.001961 0.000000
# 2 0.003574 0.011523 -0.001627 0.000000 -0.002056 0.000000
# 3 -0.001636 -0.001627 0.009856 0.000000 -0.000775 0.000000
# 4 0.000000 0.000000 0.000000 0.027791 0.000000 -0.000147
# 5 -0.001961 -0.002056 -0.000775 0.000000 0.019528 0.000000
# 6 0.000000 0.000000 0.000000 -0.000147 0.000000 0.020501
#
#
# Mechanical properties :
#
#
# Convention : Reuss Voigt Hill
#
# Bulk Modulus (GPa) = 26.47260 30.74617 28.60939
# Shear Modulus (GPa) = 42.75586 45.43029 44.09308
#
# Velocity S-wave (km/s) = 4.10648 4.23297 4.17020
# Velocity P-wave (km/s) = 5.73805 6.00143 5.87122
#
# Compressibility (1/GPa) = 0.03777490
#
# Stress axis : x y z
#
# Youngs Moduli (GPa) = 63.39157 86.78663 101.46443
#
# Poissons Ratio (x) = -0.31014 0.16597
# Poissons Ratio (y) = -0.22654 0.16508
# Poissons Ratio (z) = 0.10369 0.14120
#
# Static dielectric constant tensor:
#      x y z
#    x 2.100480 0.000000 -0.113340 
#    y 0.000000 1.947210 0.000000 
#    z -0.113340 0.000000 1.941620 
# 
# From -- ./inp_files/38344.got.cif
#   From: 2010.05.17/outbox.cif.g08.bks.cpg/sg14_20_cif.got.tgz:38344.got - 2010.06.03 17:49:19.
