data_PCOD9246380
_publ_section_title
;
Structure prediction by ZEFSAII (Michael W. Deem and Ramdas Pophale) SiO2 
 PCOD9246380
Probable space group: P 21/C
;
_chemical_formula_sum "Si O2"
_cell_formula_units_Z 28
_cell_length_a 9.473492
_cell_length_b 13.369407
_cell_length_c 9.066516
_cell_angle_alpha 90.000000
_cell_angle_beta 75.652913
_cell_angle_gamma 90.000000
_cell_volume 1112.506008
_symmetry_space_group_name_H-M "P 21/C"
_symmetry_group_IT_number 14
_symmetry_cell_setting 'monoclinic'
loop_
_space_group_symop_operation_xyz
x,y,z
-x,1/2+y,1/2-z
-x,-y,-z
x,1/2-y,1/2+z
loop_
_atom_site_type_symbol
_atom_site_label
_atom_site_fract_x
_atom_site_fract_y
_atom_site_fract_z
Si Si1 0.222045 0.359406 0.963154
Si Si2 0.217236 0.442220 0.432268
Si Si3 0.246471 0.759844 0.723980
Si Si4 0.965044 0.211398 0.969027
Si Si5 0.614821 0.407271 0.460056
Si Si6 0.336706 0.527403 0.092987
Si Si7 0.633304 0.795488 0.882449
O O1 0.293017 0.333197 0.786432
O O2 0.229823 0.476669 0.999174
O O3 0.315932 0.312646 0.075933
O O4 0.068397 0.303232 0.994227
O O5 0.500000 0.500000 0.500000
O O6 0.309890 0.355538 0.488055
O O7 0.237070 0.534868 0.538251
O O8 0.288853 0.481951 0.263959
O O9 0.097728 0.733985 0.674146
O O10 0.178272 0.791117 0.894959
O O11 0.349430 0.661935 0.689900
O O12 0.318645 0.854265 0.622836
O O13 0.063144 0.111625 0.951975
O O14 0.534613 0.326448 0.586428
O O15 0.500000 0.500000 0.000000
#
# Coordination Sequence:
#
# PCOD9246380 Si02
#       7
#     4   4   4   4   4   4   4
#     4  11  22  42  70  98 141 185 225 290 351 421
#     4  10  22  45  72  95 135 187 229 284 352 427
#     4  12  27  42  66 101 136 177 235 297 344 434
#     4  11  25  45  67 100 137 182 235 280 353 424
#     4  10  23  43  70 100 132 174 229 290 356 415
#     4  12  26  43  68 102 139 182 234 293 359 418
#     4  10  21  40  72 105 131 178 240 285 345 417
#
# _framework density 25.168402
#
# number of rings (size 3 to 8) (size 9 to 14) (size 15 to 20)
#    0.000    1.143    0.000    6.857    0.000    9.714 
#    0.000    0.000    0.000    0.000    0.000    0.000 
#    0.000    0.000    0.000    0.000    0.000    0.000 
#
# Total GULP energy -156385.502839 kJ/mol
# GULP energy per Si atom -5585.196530 kJ/mol
# Density = 2.511112 g / cm^3
# Si number density = 25.168402 Si / 1000 Ang^3
#
#
#
# Elastic Constant Matrix: (Units=GPa)
#
#
# Indices 1 2 3 4 5 6 
#
# 1 133.5730 35.4603 17.9717 0.0000 -14.4116 0.0000
# 2 35.4603 120.0479 25.4917 0.0000 -9.2172 0.0000
# 3 17.9717 25.4917 88.2438 0.0000 -19.4437 0.0000
# 4 0.0000 0.0000 0.0000 45.4048 0.0000 -2.0798
# 5 -14.4116 -9.2172 -19.4437 0.0000 41.4588 0.0000
# 6 0.0000 0.0000 0.0000 -2.0798 0.0000 55.8708
#
#
#
# Elastic Compliance Matrix: (Units=1/GPa)
#
#
# Indices 1 2 3 4 5 6 
#
# 1 0.008378 -0.002182 -0.000604 0.000000 0.002144 0.000000
# 2 -0.002182 0.009470 -0.002224 0.000000 0.000304 0.000000
# 3 -0.000604 -0.002224 0.013319 0.000000 0.005542 0.000000
# 4 0.000000 0.000000 0.000000 0.022062 0.000000 0.000821
# 5 0.002144 0.000304 0.005542 0.000000 0.027532 0.000000
# 6 0.000000 0.000000 0.000000 0.000821 0.000000 0.017929
#
#
# Mechanical properties :
#
#
# Convention : Reuss Voigt Hill
#
# Bulk Modulus (GPa) = 47.28696 55.52355 51.40526
# Shear Modulus (GPa) = 43.19291 46.07628 44.63459
#
# Velocity S-wave (km/s) = 4.14715 4.28333 4.21579
# Velocity P-wave (km/s) = 6.46226 6.82432 6.64575
#
# Compressibility (1/GPa) = 0.02114748
#
# Stress axis : x y z
#
# Youngs Moduli (GPa) = 119.35486 105.59420 75.08135
#
# Poissons Ratio (x) = 0.23041 0.04531
# Poissons Ratio (y) = 0.26044 0.16701
# Poissons Ratio (z) = 0.07203 0.23489
#
# Static dielectric constant tensor:
#      x y z
#    x 2.090870 0.000000 0.015550 
#    y 0.000000 2.064710 0.000000 
#    z 0.015550 0.000000 2.014040 
# 
# From -- ./inp_files/9452.got.cif
#   From: 2010.05.17/outbox.cif.g08.bks.cpg/sg14_5_cif.got.tgz:9452.got - 2010.06.03 17:49:19.
