data_PCOD9246869
_publ_section_title
;
Structure prediction by ZEFSAII (Michael W. Deem and Ramdas Pophale) SiO2 
 PCOD9246869
Probable space group: P 21/C
;
_chemical_formula_sum "Si O2"
_cell_formula_units_Z 28
_cell_length_a 5.196400
_cell_length_b 13.523691
_cell_length_c 18.418883
_cell_angle_alpha 90.000000
_cell_angle_beta 124.709104
_cell_angle_gamma 90.000000
_cell_volume 1064.048012
_symmetry_space_group_name_H-M "P 21/C"
_symmetry_group_IT_number 14
_symmetry_cell_setting 'monoclinic'
loop_
_space_group_symop_operation_xyz
x,y,z
-x,1/2+y,1/2-z
-x,-y,-z
x,1/2-y,1/2+z
loop_
_atom_site_type_symbol
_atom_site_label
_atom_site_fract_x
_atom_site_fract_y
_atom_site_fract_z
Si Si1 0.827070 0.018310 0.819676
Si Si2 0.336795 0.594232 0.570968
Si Si3 0.890376 0.796556 0.218743
Si Si4 0.674375 0.387915 0.593999
Si Si5 0.308448 0.386567 0.903156
Si Si6 0.465411 0.688870 0.906371
Si Si7 0.734961 0.508680 0.861445
O O1 0.919025 0.050112 0.915885
O O2 0.939971 0.111141 0.792341
O O3 0.461380 0.006988 0.744784
O O4 0.978413 0.914138 0.822544
O O5 0.531827 0.495386 0.585068
O O6 0.284951 0.638878 0.484134
O O7 0.527121 0.671746 0.652351
O O8 0.094002 0.800778 0.325333
O O9 0.897746 0.697174 0.171323
O O10 0.455582 0.304414 0.592578
O O11 0.565291 0.431751 0.889516
O O12 0.080392 0.473581 0.896353
O O13 0.466104 0.341532 0.000318
O O14 0.663405 0.613550 0.888634
#
# Coordination Sequence:
#
# PCOD9246869 Si02
#       7
#     4   4   4   4   4   4   4
#     4  10  23  42  71 106 143 191 237 315 369 452
#     4  10  21  42  68 102 147 184 237 311 374 437
#     4  10  24  42  71 103 145 187 254 299 377 440
#     4  10  21  42  68 106 141 186 243 301 380 437
#     4  12  26  52  70 108 149 201 245 312 367 443
#     4  11  24  47  71 106 142 201 249 310 365 454
#     4  11  28  47  74 102 154 198 250 301 364 447
#
# _framework density 26.314603000000002
#
# number of rings (size 3 to 8) (size 9 to 14) (size 15 to 20)
#    0.000    1.429    1.429    2.143   10.000    0.000 
#    7.714    0.000    0.000    0.000    0.000    0.000 
#    0.000    0.000    0.000    0.000    0.000    0.000 
#
# Total GULP energy -156373.240605 kJ/mol
# GULP energy per Si atom -5584.758593 kJ/mol
# Density = 2.625471 g / cm^3
# Si number density = 26.314603 Si / 1000 Ang^3
#
#
#
# Elastic Constant Matrix: (Units=GPa)
#
#
# Indices 1 2 3 4 5 6 
#
# 1 72.7589 18.6113 8.4009 0.0000 -10.6671 0.0000
# 2 18.6113 137.6001 35.5147 0.0000 -5.6749 0.0000
# 3 8.4009 35.5147 145.9259 0.0000 -14.7883 0.0000
# 4 0.0000 0.0000 0.0000 33.7238 0.0000 -3.8790
# 5 -10.6671 -5.6749 -14.7883 0.0000 26.6759 0.0000
# 6 0.0000 0.0000 0.0000 -3.8790 0.0000 24.7551
#
#
#
# Elastic Compliance Matrix: (Units=1/GPa)
#
#
# Indices 1 2 3 4 5 6 
#
# 1 0.015033 -0.001839 0.000161 0.000000 0.005709 0.000000
# 2 -0.001839 0.007990 -0.001845 0.000000 -0.000058 0.000000
# 3 0.000161 -0.001845 0.007691 0.000000 0.003936 0.000000
# 4 0.000000 0.000000 0.000000 0.030197 0.000000 0.004732
# 5 0.005709 -0.000058 0.003936 0.000000 0.041939 0.000000
# 6 0.000000 0.000000 0.000000 0.004732 0.000000 0.041137
#
#
# Mechanical properties :
#
#
# Convention : Reuss Voigt Hill
#
# Bulk Modulus (GPa) = 42.25125 53.48206 47.86666
# Shear Modulus (GPa) = 31.46174 36.61482 34.03828
#
# Velocity S-wave (km/s) = 3.46150 3.73423 3.60045
# Velocity P-wave (km/s) = 5.66277 6.24186 5.95936
#
# Compressibility (1/GPa) = 0.02366794
#
# Stress axis : x y z
#
# Youngs Moduli (GPa) = 66.52045 125.15803 130.01690
#
# Poissons Ratio (x) = 0.23021 -0.02091
# Poissons Ratio (y) = 0.12235 0.23982
# Poissons Ratio (z) = -0.01070 0.23086
#
# Static dielectric constant tensor:
#      x y z
#    x 2.092370 0.000000 0.060100 
#    y 0.000000 2.178610 0.000000 
#    z 0.060100 0.000000 2.192910 
# 
# From -- ./inp_files/63803.got.cif
#   From: 2010.05.17/outbox.cif.g08.bks.cpg/sg14_32_cif.got.tgz:63803.got - 2010.06.03 17:49:19.
