data_PCOD9246664
_publ_section_title
;
Structure prediction by ZEFSAII (Michael W. Deem and Ramdas Pophale) SiO2 
 PCOD9246664
Probable space group: P 21/C
;
_chemical_formula_sum "Si O2"
_cell_formula_units_Z 28
_cell_length_a 5.089180
_cell_length_b 24.622557
_cell_length_c 9.587887
_cell_angle_alpha 90.000000
_cell_angle_beta 95.308801
_cell_angle_gamma 90.000000
_cell_volume 1196.291332
_symmetry_space_group_name_H-M "P 21/C"
_symmetry_group_IT_number 14
_symmetry_cell_setting 'monoclinic'
loop_
_space_group_symop_operation_xyz
x,y,z
-x,1/2+y,1/2-z
-x,-y,-z
x,1/2-y,1/2+z
loop_
_atom_site_type_symbol
_atom_site_label
_atom_site_fract_x
_atom_site_fract_y
_atom_site_fract_z
Si Si1 0.084635 0.574597 0.604156
Si Si2 0.063949 0.741428 0.052634
Si Si3 0.181925 0.970136 0.811483
Si Si4 0.650127 0.587241 0.198682
Si Si5 0.731427 0.834917 0.941582
Si Si6 0.573308 0.826703 0.492626
Si Si7 0.600772 0.175293 0.807230
O O1 0.221852 0.545811 0.477162
O O2 0.874358 0.614442 0.522443
O O3 0.935392 0.530458 0.689044
O O4 0.277819 0.615152 0.692901
O O5 0.943246 0.786769 0.940441
O O6 0.814997 0.704351 0.076025
O O7 0.296092 0.701756 0.014390
O O8 0.176859 0.778334 0.183761
O O9 0.949161 0.932639 0.735588
O O10 0.449187 0.958737 0.741745
O O11 0.605096 0.639384 0.298580
O O12 0.586294 0.611386 0.044846
O O13 0.519914 0.816583 0.045288
O O14 0.602013 0.820096 0.327980
#
# Coordination Sequence:
#
# PCOD9246664 Si02
#       7
#     4   4   4   4   4   4   4
#     4   9  21  38  69  99 125 167 220 271 315 388
#     4  11  26  43  63  93 123 179 215 265 313 391
#     4  10  21  41  69  95 128 170 216 267 327 371
#     4  11  24  42  63  97 129 170 209 272 315 388
#     4  10  22  41  68  92 130 159 224 264 320 374
#     4  12  28  42  67  90 139 168 221 260 333 382
#     4  11  24  45  65 100 127 174 212 276 315 395
#
# _framework density 23.405670000000001
#
# number of rings (size 3 to 8) (size 9 to 14) (size 15 to 20)
#    0.000    1.429    2.857    0.857   10.000    1.714 
#    0.000    1.429    0.000    0.000    0.000    0.000 
#    0.000    0.000    0.000    0.000    0.000    0.000 
#
# Total GULP energy -156568.140118 kJ/mol
# GULP energy per Si atom -5591.719290 kJ/mol
# Density = 2.335240 g / cm^3
# Si number density = 23.405670 Si / 1000 Ang^3
#
#
#
# Elastic Constant Matrix: (Units=GPa)
#
#
# Indices 1 2 3 4 5 6 
#
# 1 78.2402 0.6730 8.5722 0.0000 -0.0669 0.0000
# 2 0.6730 55.2321 -6.9470 0.0000 1.7315 0.0000
# 3 8.5722 -6.9470 46.3019 0.0000 12.2409 0.0000
# 4 0.0000 0.0000 0.0000 10.5897 0.0000 -5.2537
# 5 -0.0669 1.7315 12.2409 0.0000 14.7902 0.0000
# 6 0.0000 0.0000 0.0000 -5.2537 0.0000 31.3215
#
#
#
# Elastic Compliance Matrix: (Units=1/GPa)
#
#
# Indices 1 2 3 4 5 6 
#
# 1 0.013150 -0.000664 -0.003290 0.000000 0.002860 0.000000
# 2 -0.000664 0.018870 0.004530 0.000000 -0.005961 0.000000
# 3 -0.003290 0.004530 0.029481 0.000000 -0.024945 0.000000
# 4 0.000000 0.000000 0.000000 0.103003 0.000000 0.017277
# 5 0.002860 -0.005961 -0.024945 0.000000 0.088968 0.000000
# 6 0.000000 0.000000 0.000000 0.017277 0.000000 0.034825
#
#
# Mechanical properties :
#
#
# Convention : Reuss Voigt Hill
#
# Bulk Modulus (GPa) = 15.96091 20.48563 18.22327
# Shear Modulus (GPa) = 16.23224 23.17203 19.70214
#
# Velocity S-wave (km/s) = 2.63633 3.14987 2.90447
# Velocity P-wave (km/s) = 4.01261 4.69045 4.36471
#
# Compressibility (1/GPa) = 0.06265308
#
# Stress axis : x y z
#
# Youngs Moduli (GPa) = 76.04675 52.99367 33.92021
#
# Poissons Ratio (x) = 0.03518 0.11161
# Poissons Ratio (y) = 0.05048 -0.15366
# Poissons Ratio (z) = 0.25022 -0.24007
#
# Static dielectric constant tensor:
#      x y z
#    x 1.888140 0.000000 -0.037600 
#    y 0.000000 1.894790 0.000000 
#    z -0.037600 0.000000 1.908380 
# 
# From -- ./inp_files/6577.got.cif
#   From: 2010.05.17/outbox.cif.g08.bks.cpg/sg14_4_cif.got.tgz:6577.got - 2010.06.03 17:49:19.
