data_PCOD9246617
_publ_section_title
;
Structure prediction by ZEFSAII (Michael W. Deem and Ramdas Pophale) SiO2 
 PCOD9246617
Probable space group: P 21/C
;
_chemical_formula_sum "Si O2"
_cell_formula_units_Z 30
_cell_length_a 5.372519
_cell_length_b 19.250826
_cell_length_c 10.334998
_cell_angle_alpha 90.000000
_cell_angle_beta 101.603665
_cell_angle_gamma 90.000000
_cell_volume 1047.055797
_symmetry_space_group_name_H-M "P 21/C"
_symmetry_group_IT_number 14
_symmetry_cell_setting 'monoclinic'
loop_
_space_group_symop_operation_xyz
x,y,z
-x,1/2+y,1/2-z
-x,-y,-z
x,1/2-y,1/2+z
loop_
_atom_site_type_symbol
_atom_site_label
_atom_site_fract_x
_atom_site_fract_y
_atom_site_fract_z
Si Si1 0.788381 0.783313 0.823300
Si Si2 0.500000 0.000000 0.500000
Si Si3 0.985367 0.919517 0.180813
Si Si4 0.202446 0.962134 0.723970
Si Si5 0.902660 0.184493 0.370869
Si Si6 0.729656 0.312288 0.437587
Si Si7 0.680280 0.861005 0.388409
Si Si8 0.388703 0.409974 0.579488
O O1 0.613530 0.720153 0.855551
O O2 0.919451 0.767002 0.700631
O O3 0.677057 0.860636 0.806788
O O4 0.015938 0.794863 0.952362
O O5 0.296676 0.981882 0.592691
O O6 0.511562 0.915678 0.450115
O O7 0.780316 0.890358 0.261496
O O8 0.856599 0.931905 0.027621
O O9 0.202133 0.864259 0.173638
O O10 0.041769 0.993647 0.254913
O O11 0.158777 0.880842 0.724073
O O12 0.433139 0.971362 0.850657
O O13 0.670423 0.233419 0.388978
O O14 0.062920 0.149926 0.501109
O O15 0.535541 0.355385 0.502583
#
# Coordination Sequence:
#
# PCOD9246617 Si02
#       8
#     4   2   4   4   4   4   4   4
#     4  10  21  41  67  95 132 171 219 292 330 388
#     4  10  24  42  64  98 136 172 226 268 340 410
#     4  10  23  44  63  95 139 172 217 281 334 396
#     4  11  24  44  66  99 132 179 225 272 341 408
#     4  11  22  42  72  93 135 176 226 284 335 401
#     4  10  22  42  65 101 126 174 231 271 337 400
#     4  10  22  43  63  95 136 176 220 280 340 399
#     4  11  23  41  69  96 130 176 227 271 333 403
#
# _framework density 28.651767
#
# number of rings (size 3 to 8) (size 9 to 14) (size 15 to 20)
#    0.000    1.600    2.667    1.200    1.867    3.733 
#   12.000    0.000    0.000    0.000    0.000    0.000 
#    0.000    0.000    0.000    0.000    0.000    0.000 
#
# Total GULP energy -167519.323311 kJ/mol
# GULP energy per Si atom -5583.977444 kJ/mol
# Density = 2.858655 g / cm^3
# Si number density = 28.651767 Si / 1000 Ang^3
#
#
#
# Elastic Constant Matrix: (Units=GPa)
#
#
# Indices 1 2 3 4 5 6 
#
# 1 67.1336 29.5882 22.8652 0.0000 -16.3159 0.0000
# 2 29.5882 153.5432 26.9099 0.0000 -16.4720 0.0000
# 3 22.8652 26.9099 113.9379 0.0000 -9.7898 0.0000
# 4 0.0000 0.0000 0.0000 43.9929 0.0000 -12.4525
# 5 -16.3159 -16.4720 -9.7898 0.0000 49.9504 0.0000
# 6 0.0000 0.0000 0.0000 -12.4525 0.0000 52.8315
#
#
#
# Elastic Compliance Matrix: (Units=1/GPa)
#
#
# Indices 1 2 3 4 5 6 
#
# 1 0.018004 -0.002523 -0.002628 0.000000 0.004534 0.000000
# 2 -0.002523 0.007341 -0.001109 0.000000 0.001380 0.000000
# 3 -0.002628 -0.001109 0.009623 0.000000 0.000662 0.000000
# 4 0.000000 0.000000 0.000000 0.024356 0.000000 0.005741
# 5 0.004534 0.001380 0.000662 0.000000 0.022086 0.000000
# 6 0.000000 0.000000 0.000000 0.005741 0.000000 0.020281
#
#
# Mechanical properties :
#
#
# Convention : Reuss Voigt Hill
#
# Bulk Modulus (GPa) = 44.54399 54.81569 49.67984
# Shear Modulus (GPa) = 41.08687 46.37171 43.72929
#
# Velocity S-wave (km/s) = 3.79094 4.02737 3.91094
# Velocity P-wave (km/s) = 5.89424 6.38745 6.14579
#
# Compressibility (1/GPa) = 0.02244972
#
# Stress axis : x y z
#
# Youngs Moduli (GPa) = 55.54198 136.21552 103.91896
#
# Poissons Ratio (x) = 0.34361 0.27308
# Poissons Ratio (y) = 0.14011 0.11526
# Poissons Ratio (z) = 0.14595 0.15108
#
# Static dielectric constant tensor:
#      x y z
#    x 2.278270 0.000000 0.122750 
#    y 0.000000 2.335820 0.000000 
#    z 0.122750 0.000000 2.270810 
# 
# From -- ./inp_files/21576.got.cif
#   From: 2010.05.17/outbox.cif.g08.bks.cpg/sg14_11_cif.got.tgz:21576.got - 2010.06.03 17:49:19.
