data_PCOD9246342
_publ_section_title
;
Structure prediction by ZEFSAII (Michael W. Deem and Ramdas Pophale) SiO2 
 PCOD9246342
Probable space group: P 21/C
;
_chemical_formula_sum "Si O2"
_cell_formula_units_Z 28
_cell_length_a 25.091396
_cell_length_b 8.909790
_cell_length_c 7.371902
_cell_angle_alpha 90.000000
_cell_angle_beta 44.256975
_cell_angle_gamma 90.000000
_cell_volume 1150.141142
_symmetry_space_group_name_H-M "P 21/C"
_symmetry_group_IT_number 14
_symmetry_cell_setting 'monoclinic'
loop_
_space_group_symop_operation_xyz
x,y,z
-x,1/2+y,1/2-z
-x,-y,-z
x,1/2-y,1/2+z
loop_
_atom_site_type_symbol
_atom_site_label
_atom_site_fract_x
_atom_site_fract_y
_atom_site_fract_z
Si Si1 0.284360 0.023813 0.665895
Si Si2 0.958581 0.365984 0.977788
Si Si3 0.912826 0.613480 0.800888
Si Si4 0.125300 0.580116 0.450745
Si Si5 0.556236 0.943783 0.630903
Si Si6 0.743314 0.644530 0.363721
Si Si7 0.413289 0.404899 0.368307
O O1 0.215186 0.922893 0.769278
O O2 0.371894 0.970326 0.454559
O O3 0.279874 0.181322 0.570343
O O4 0.263175 0.069903 0.924355
O O5 0.951883 0.485878 0.831131
O O6 0.032533 0.258905 0.832656
O O7 0.074085 0.562177 0.757358
O O8 0.896606 0.239840 0.076351
O O9 0.895412 0.546450 0.645783
O O10 0.829582 0.642410 0.086177
O O11 0.571639 0.948782 0.377133
O O12 0.565116 0.770170 0.663317
O O13 0.471263 0.007752 0.858118
O O14 0.677909 0.573088 0.394081
#
# Coordination Sequence:
#
# PCOD9246342 Si02
#       7
#     4   4   4   4   4   4   4
#     4  10  21  40  69 100 143 182 239 288 356 428
#     4  12  29  49  73 105 141 186 239 306 366 437
#     4  12  28  50  76 105 144 189 243 303 368 430
#     4  12  26  49  71 103 141 185 236 296 362 430
#     4   9  19  38  62 100 136 185 223 290 335 416
#     4  10  21  42  70 101 136 191 234 292 352 438
#     4   9  19  38  65  97 141 176 236 274 351 409
#
# _framework density 24.344837999999999
#
# number of rings (size 3 to 8) (size 9 to 14) (size 15 to 20)
#    0.000    1.429    2.857    1.286    2.000    4.571 
#    2.571    0.000    0.000    0.000    0.000    0.000 
#    0.000    0.000    0.000    0.000    0.000    0.000 
#
# Total GULP energy -156760.056044 kJ/mol
# GULP energy per Si atom -5598.573430 kJ/mol
# Density = 2.428943 g / cm^3
# Si number density = 24.344838 Si / 1000 Ang^3
#
#
#
# Elastic Constant Matrix: (Units=GPa)
#
#
# Indices 1 2 3 4 5 6 
#
# 1 174.1275 62.8660 86.2312 0.0000 -41.7648 0.0000
# 2 62.8660 91.4123 20.2153 0.0000 -14.1185 0.0000
# 3 86.2312 20.2153 111.9736 0.0000 -13.2508 0.0000
# 4 0.0000 0.0000 0.0000 28.7977 0.0000 -4.3537
# 5 -41.7648 -14.1185 -13.2508 0.0000 61.6834 0.0000
# 6 0.0000 0.0000 0.0000 -4.3537 0.0000 41.8077
#
#
#
# Elastic Compliance Matrix: (Units=1/GPa)
#
#
# Indices 1 2 3 4 5 6 
#
# 1 0.014016 -0.006746 -0.008861 0.000000 0.006042 0.000000
# 2 -0.006746 0.014946 0.002423 0.000000 -0.000626 0.000000
# 3 -0.008861 0.002423 0.015055 0.000000 -0.002211 0.000000
# 4 0.000000 0.000000 0.000000 0.035280 0.000000 0.003674
# 5 0.006042 -0.000626 -0.002211 0.000000 0.019685 0.000000
# 6 0.000000 0.000000 0.000000 0.003674 0.000000 0.024302
#
#
# Mechanical properties :
#
#
# Convention : Reuss Voigt Hill
#
# Bulk Modulus (GPa) = 56.65917 79.57094 68.11506
# Shear Modulus (GPa) = 32.14707 40.33781 36.24244
#
# Velocity S-wave (km/s) = 3.63779 4.07496 3.86257
# Velocity P-wave (km/s) = 6.40069 7.40920 6.92334
#
# Compressibility (1/GPa) = 0.01764939
#
# Stress axis : x y z
#
# Youngs Moduli (GPa) = 71.34867 66.90569 66.42211
#
# Poissons Ratio (x) = 0.45136 0.58854
# Poissons Ratio (y) = 0.48133 -0.16093
# Poissons Ratio (z) = 0.63219 -0.16210
#
# Static dielectric constant tensor:
#      x y z
#    x 1.991540 0.000000 -0.009270 
#    y 0.000000 1.932160 0.000000 
#    z -0.009270 0.000000 2.012000 
# 
# From -- ./inp_files/19643.got.cif
#   From: 2010.05.17/outbox.cif.g08.bks.cpg/sg14_10_cif.got.tgz:19643.got - 2010.06.03 17:49:19.
