data_PCOD9246196
_publ_section_title
;
Structure prediction by ZEFSAII (Michael W. Deem and Ramdas Pophale) SiO2 
 PCOD9246196
Probable space group: P 21/C
;
_chemical_formula_sum "Si O2"
_cell_formula_units_Z 26
_cell_length_a 20.753559
_cell_length_b 11.283026
_cell_length_c 15.350979
_cell_angle_alpha 90.000000
_cell_angle_beta 17.494521
_cell_angle_gamma 90.000000
_cell_volume 1080.598390
_symmetry_space_group_name_H-M "P 21/C"
_symmetry_group_IT_number 14
_symmetry_cell_setting 'monoclinic'
loop_
_space_group_symop_operation_xyz
x,y,z
-x,1/2+y,1/2-z
-x,-y,-z
x,1/2-y,1/2+z
loop_
_atom_site_type_symbol
_atom_site_label
_atom_site_fract_x
_atom_site_fract_y
_atom_site_fract_z
Si Si1 0.635984 0.998052 0.141031
Si Si2 0.844939 0.674946 0.577687
Si Si3 0.284880 0.549870 0.821101
Si Si4 0.977681 0.095743 0.604302
Si Si5 0.500000 0.000000 0.500000
Si Si6 0.195064 0.485188 0.129595
Si Si7 0.068779 0.223411 0.235463
O O1 0.671703 0.014100 0.197327
O O2 0.381008 0.996753 0.460260
O O3 0.733685 0.098377 0.952107
O O4 0.754220 0.875121 0.963382
O O5 0.602276 0.632353 0.888908
O O6 0.910666 0.719260 0.396328
O O7 0.910970 0.780348 0.557461
O O8 0.990242 0.563416 0.415893
O O9 0.500000 0.500000 0.500000
O O10 0.297010 0.539152 0.909029
O O11 0.103176 0.458694 0.024357
O O12 0.172455 0.673050 0.935870
O O13 0.000000 0.000000 0.500000
O O14 0.126817 0.350376 0.199348
#
# Coordination Sequence:
#
# PCOD9246196 Si02
#       7
#     4   4   4   4   2   4   4
#     4  10  24  43  67  99 136 185 231 289 348 422
#     4  10  23  43  68 104 135 189 232 289 355 423
#     4  10  21  40  65 101 129 183 232 283 344 416
#     4  11  23  44  69 101 145 178 236 289 350 423
#     4  10  24  46  66  96 146 184 240 290 356 416
#     4  11  22  42  69  96 139 184 228 288 352 416
#     4   9  21  42  64  96 142 178 227 289 347 420
#
# _framework density 24.060742000000001
#
# number of rings (size 3 to 8) (size 9 to 14) (size 15 to 20)
#    0.000    1.846    1.538    1.846    2.154    4.308 
#    2.769    0.000    0.000    0.000    0.000    0.000 
#    0.000    0.000    0.000    0.000    0.000    0.000 
#
# Total GULP energy -144755.704146 kJ/mol
# GULP energy per Si atom -5567.527083 kJ/mol
# Density = 2.400598 g / cm^3
# Si number density = 24.060742 Si / 1000 Ang^3
#
#
#
# Elastic Constant Matrix: (Units=GPa)
#
#
# Indices 1 2 3 4 5 6 
#
# 1 39.5653 14.2980 5.2460 0.0000 -2.5174 0.0000
# 2 14.2980 169.5778 50.9583 0.0000 -14.3510 0.0000
# 3 5.2460 50.9583 85.3558 0.0000 1.8545 0.0000
# 4 0.0000 0.0000 0.0000 21.1796 0.0000 -8.5898
# 5 -2.5174 -14.3510 1.8545 0.0000 43.5496 0.0000
# 6 0.0000 0.0000 0.0000 -8.5898 0.0000 40.6061
#
#
#
# Elastic Compliance Matrix: (Units=1/GPa)
#
#
# Indices 1 2 3 4 5 6 
#
# 1 0.026109 -0.001999 -0.000430 0.000000 0.000869 0.000000
# 2 -0.001999 0.007634 -0.004491 0.000000 0.002592 0.000000
# 3 -0.000430 -0.004491 0.014470 0.000000 -0.002121 0.000000
# 4 0.000000 0.000000 0.000000 0.051646 0.000000 0.010925
# 5 0.000869 0.002592 -0.002121 0.000000 0.023957 0.000000
# 6 0.000000 0.000000 0.000000 0.010925 0.000000 0.026938
#
#
# Mechanical properties :
#
#
# Convention : Reuss Voigt Hill
#
# Bulk Modulus (GPa) = 29.09280 48.38926 38.74103
# Shear Modulus (GPa) = 28.40062 36.00017 32.20040
#
# Velocity S-wave (km/s) = 3.43938 3.87230 3.66224
# Velocity P-wave (km/s) = 5.28111 6.33623 5.83258
#
# Compressibility (1/GPa) = 0.03437277
#
# Stress axis : x y z
#
# Youngs Moduli (GPa) = 38.30057 130.98488 69.11053
#
# Poissons Ratio (x) = 0.26178 0.02975
# Poissons Ratio (y) = 0.07655 0.31040
# Poissons Ratio (z) = 0.01648 0.58830
#
# Static dielectric constant tensor:
#      x y z
#    x 2.053630 0.000000 0.095270 
#    y 0.000000 2.336590 0.000000 
#    z 0.095270 0.000000 2.204220 
# 
# From -- ./inp_files/47211.got.cif
#   From: 2010.05.17/outbox.cif.g08.bks.cpg/sg14_24_cif.got.tgz:47211.got - 2010.06.03 17:49:19.
