data_PCOD9246896
_publ_section_title
;
Structure prediction by ZEFSAII (Michael W. Deem and Ramdas Pophale) SiO2 
 PCOD9246896
Probable space group: P 21/C
;
_chemical_formula_sum "Si O2"
_cell_formula_units_Z 28
_cell_length_a 9.310689
_cell_length_b 5.553511
_cell_length_c 27.128538
_cell_angle_alpha 90.000000
_cell_angle_beta 125.941411
_cell_angle_gamma 90.000000
_cell_volume 1135.679534
_symmetry_space_group_name_H-M "P 21/C"
_symmetry_group_IT_number 14
_symmetry_cell_setting 'monoclinic'
loop_
_space_group_symop_operation_xyz
x,y,z
-x,1/2+y,1/2-z
-x,-y,-z
x,1/2-y,1/2+z
loop_
_atom_site_type_symbol
_atom_site_label
_atom_site_fract_x
_atom_site_fract_y
_atom_site_fract_z
Si Si1 0.442876 0.231609 0.883228
Si Si2 0.683662 0.297309 0.342124
Si Si3 0.759441 0.032191 0.495757
Si Si4 0.829716 0.940987 0.615666
Si Si5 0.138212 0.626724 0.324847
Si Si6 0.831756 0.172494 0.773088
Si Si7 0.158495 0.204325 0.585235
O O1 0.507976 0.209529 0.840495
O O2 0.316279 0.458239 0.869938
O O3 0.304901 0.035980 0.874985
O O4 0.613409 0.272995 0.951301
O O5 0.676661 0.335184 0.281786
O O6 0.790156 0.534963 0.383006
O O7 0.773206 0.035020 0.371304
O O8 0.742227 0.909503 0.545373
O O9 0.950115 0.162628 0.534817
O O10 0.755031 0.835300 0.451322
O O11 0.900873 0.209432 0.635544
O O12 0.995633 0.774047 0.662156
O O13 0.202355 0.673795 0.281666
O O14 0.930296 0.560809 0.271402
#
# Coordination Sequence:
#
# PCOD9246896 Si02
#       7
#     4   4   4   4   4   4   4
#     4  10  26  42  63 105 143 177 223 292 361 421
#     4  11  24  47  71 104 139 188 233 291 348 422
#     4  10  21  42  69 103 144 186 228 292 353 427
#     4  11  22  45  67 101 134 184 232 290 355 419
#     4  11  24  44  68  97 135 179 239 297 344 422
#     4  11  23  44  73  94 130 184 245 292 345 412
#     4  10  23  42  70 105 143 182 241 281 344 428
#
# _framework density 24.65484
#
# number of rings (size 3 to 8) (size 9 to 14) (size 15 to 20)
#    0.000    1.429    2.857    1.286    4.000    5.714 
#   12.857    0.000    0.000    0.000    0.000    0.000 
#    0.000    0.000    0.000    0.000    0.000    0.000 
#
# Total GULP energy -155971.965125 kJ/mol
# GULP energy per Si atom -5570.427326 kJ/mol
# Density = 2.459872 g / cm^3
# Si number density = 24.654840 Si / 1000 Ang^3
#
#
#
# Elastic Constant Matrix: (Units=GPa)
#
#
# Indices 1 2 3 4 5 6 
#
# 1 95.5963 -4.5537 10.8437 0.0000 -25.2554 0.0000
# 2 -4.5537 42.2290 14.1785 0.0000 -4.3221 0.0000
# 3 10.8437 14.1785 50.9572 0.0000 -28.1739 0.0000
# 4 0.0000 0.0000 0.0000 8.8708 0.0000 -19.1037
# 5 -25.2554 -4.3221 -28.1739 0.0000 28.6298 0.0000
# 6 0.0000 0.0000 0.0000 -19.1037 0.0000 1.0390
#
#
#
# Elastic Compliance Matrix: (Units=1/GPa)
#
#
# Indices 1 2 3 4 5 6 
#
# 1 0.015452 0.000985 0.008897 0.000000 0.022535 0.000000
# 2 0.000985 0.026847 -0.010875 0.000000 -0.005780 0.000000
# 3 0.008897 -0.010875 0.053056 0.000000 0.058417 0.000000
# 4 0.000000 0.000000 0.000000 -0.002921 0.000000 -0.053702
# 5 0.022535 -0.005780 0.058417 0.000000 0.111422 0.000000
# 6 0.000000 0.000000 0.000000 -0.053702 0.000000 -0.024936
#
#
# Mechanical properties :
#
#
# Convention : Reuss Voigt Hill
#
# Bulk Modulus (GPa) = 10.71031 25.52440 18.11735
# Shear Modulus (GPa) = 23.58189 18.92884 21.25536
#
# Velocity S-wave (km/s) = 3.09606 2.77384 2.93937
# Velocity P-wave (km/s) = 4.13936 4.54248 4.34560
#
# Compressibility (1/GPa) = 0.09336799
#
# Stress axis : x y z
#
# Youngs Moduli (GPa) = 64.71751 37.24878 18.84816
#
# Poissons Ratio (x) = -0.03671 -0.16769
# Poissons Ratio (y) = -0.06378 0.20498
# Poissons Ratio (z) = -0.57578 0.40509
#
# Static dielectric constant tensor:
#      x y z
#    x 2.202750 0.000000 -0.025470 
#    y 0.000000 2.900860 0.000000 
#    z -0.025470 0.000000 1.925330 
# 
# From -- ./inp_files/79296.got.cif
#   From: 2010.05.17/outbox.cif.g08.bks.cpg/sg14_40_cif.got.tgz:79296.got - 2010.06.03 17:49:19.
