data_PCOD9246026
_publ_section_title
;
Structure prediction by ZEFSAII (Michael W. Deem and Ramdas Pophale) SiO2 
 PCOD9246026
Probable space group: P 21/C
;
_chemical_formula_sum "Si O2"
_cell_formula_units_Z 28
_cell_length_a 10.961131
_cell_length_b 12.331448
_cell_length_c 13.761318
_cell_angle_alpha 90.000000
_cell_angle_beta 45.213033
_cell_angle_gamma 90.000000
_cell_volume 1320.149909
_symmetry_space_group_name_H-M "P 21/C"
_symmetry_group_IT_number 14
_symmetry_cell_setting 'monoclinic'
loop_
_space_group_symop_operation_xyz
x,y,z
-x,1/2+y,1/2-z
-x,-y,-z
x,1/2-y,1/2+z
loop_
_atom_site_type_symbol
_atom_site_label
_atom_site_fract_x
_atom_site_fract_y
_atom_site_fract_z
Si Si1 0.278850 0.270840 0.498058
Si Si2 0.281457 0.821111 0.919683
Si Si3 0.434308 0.623993 0.532321
Si Si4 0.201685 0.117237 0.384631
Si Si5 0.197128 0.877184 0.333809
Si Si6 0.110705 0.207724 0.783631
Si Si7 0.193981 0.043166 0.891174
O O1 0.436568 0.306443 0.475421
O O2 0.318045 0.180671 0.395567
O O3 0.143007 0.223780 0.652066
O O4 0.216836 0.373479 0.468336
O O5 0.409630 0.830266 0.938438
O O6 0.087853 0.811680 0.075150
O O7 0.284657 0.717547 0.847704
O O8 0.298693 0.933770 0.851223
O O9 0.500000 0.500000 0.500000
O O10 0.254330 0.629477 0.690671
O O11 0.178398 0.182351 0.297523
O O12 0.007659 0.124196 0.537069
O O13 0.255440 0.994614 0.339153
O O14 0.214404 0.110786 0.779988
O O15 0.000000 0.000000 0.000000
#
# Coordination Sequence:
#
# PCOD9246026 Si02
#       7
#     4   4   4   4   4   4   4
#     4  11  21  38  61  91 122 157 201 247 303 367
#     4  10  21  40  58  91 117 158 202 246 304 353
#     4  12  24  38  60  90 123 164 199 238 314 370
#     4   9  20  40  64  90 115 161 206 249 301 346
#     4  10  22  41  62  87 123 156 203 256 296 363
#     4   9  19  37  65  87 118 153 205 252 293 354
#     4   9  19  37  60  89 115 155 205 247 294 351
#
# _framework density 21.209710999999999
#
# number of rings (size 3 to 8) (size 9 to 14) (size 15 to 20)
#    0.000    2.000    1.429    2.571    0.000    3.429 
#   10.286    0.714    0.000    0.000    0.000    0.000 
#    0.000    0.000    0.000    0.000    0.000    0.000 
#
# Total GULP energy -156395.894298 kJ/mol
# GULP energy per Si atom -5585.567654 kJ/mol
# Density = 2.116144 g / cm^3
# Si number density = 21.209711 Si / 1000 Ang^3
#
#
#
# Elastic Constant Matrix: (Units=GPa)
#
#
# Indices 1 2 3 4 5 6 
#
# 1 103.8648 61.5264 5.3512 0.0000 16.3524 0.0000
# 2 61.5264 160.1888 25.7430 0.0000 29.7067 0.0000
# 3 5.3512 25.7430 73.3198 0.0000 13.3943 0.0000
# 4 0.0000 0.0000 0.0000 13.0392 0.0000 1.9271
# 5 16.3524 29.7067 13.3943 0.0000 32.1509 0.0000
# 6 0.0000 0.0000 0.0000 1.9271 0.0000 26.3214
#
#
#
# Elastic Compliance Matrix: (Units=1/GPa)
#
#
# Indices 1 2 3 4 5 6 
#
# 1 0.012699 -0.004559 0.001173 0.000000 -0.002735 0.000000
# 2 -0.004559 0.009323 -0.001938 0.000000 -0.005488 0.000000
# 3 0.001173 -0.001938 0.015170 0.000000 -0.005126 0.000000
# 4 0.000000 0.000000 0.000000 0.077531 0.000000 -0.005676
# 5 -0.002735 -0.005488 -0.005126 0.000000 0.039701 0.000000
# 6 0.000000 0.000000 0.000000 -0.005676 0.000000 0.038407
#
#
# Mechanical properties :
#
#
# Convention : Reuss Voigt Hill
#
# Bulk Modulus (GPa) = 37.67171 58.06831 47.87001
# Shear Modulus (GPa) = 23.54876 30.61915 27.08395
#
# Velocity S-wave (km/s) = 3.33570 3.80365 3.57733
# Velocity P-wave (km/s) = 5.71279 6.83578 6.29936
#
# Compressibility (1/GPa) = 0.02654512
#
# Stress axis : x y z
#
# Youngs Moduli (GPa) = 78.74941 107.26468 65.91899
#
# Poissons Ratio (x) = 0.48898 -0.07736
# Poissons Ratio (y) = 0.35899 0.12775
# Poissons Ratio (z) = -0.09241 0.20788
#
# Static dielectric constant tensor:
#      x y z
#    x 1.780070 0.000000 -0.052580 
#    y 0.000000 1.782660 0.000000 
#    z -0.052580 0.000000 1.797170 
# 
# From -- ./inp_files/44333.got.cif
#   From: 2010.05.17/outbox.cif.g08.bks.cpg/sg14_23_cif.got.tgz:44333.got - 2010.06.03 17:49:19.
