data_PCOD9246534
_publ_section_title
;
Structure prediction by ZEFSAII (Michael W. Deem and Ramdas Pophale) SiO2 
 PCOD9246534
Probable space group: P 21/C
;
_chemical_formula_sum "Si O2"
_cell_formula_units_Z 16
_cell_length_a 6.854519
_cell_length_b 8.817677
_cell_length_c 10.498049
_cell_angle_alpha 90.000000
_cell_angle_beta 73.981491
_cell_angle_gamma 90.000000
_cell_volume 609.875447
_symmetry_space_group_name_H-M "P 21/C"
_symmetry_group_IT_number 14
_symmetry_cell_setting 'monoclinic'
loop_
_space_group_symop_operation_xyz
x,y,z
-x,1/2+y,1/2-z
-x,-y,-z
x,1/2-y,1/2+z
loop_
_atom_site_type_symbol
_atom_site_label
_atom_site_fract_x
_atom_site_fract_y
_atom_site_fract_z
Si Si1 0.605468 0.365620 0.261502
Si Si2 0.765607 0.602231 0.019924
Si Si3 0.059621 0.643825 0.181174
Si Si4 0.365804 0.343737 0.622418
O O1 0.783728 0.265440 0.292617
O O2 0.528908 0.495811 0.370799
O O3 0.444566 0.256819 0.225889
O O4 0.687259 0.470794 0.128418
O O5 0.834853 0.514480 0.878557
O O6 0.612748 0.730692 0.999798
O O7 0.948709 0.680416 0.065905
O O8 0.874954 0.625742 0.314080
#
# Coordination Sequence:
#
# PCOD9246534 Si02
#       4
#     4   4   4   4
#     4  11  24  41  65  93 127 166 207 257 309 369
#     4  10  22  43  66  90 127 166 204 258 313 365
#     4  10  21  41  65  91 122 163 208 257 311 365
#     4  11  22  40  65  93 126 166 209 254 308 370
#
# _framework density 26.234867000000001
#
# number of rings (size 3 to 8) (size 9 to 14) (size 15 to 20)
#    0.000    1.500    0.000    6.750    0.000    3.000 
#    0.000   20.000    0.000    0.000    0.000    0.000 
#    0.000    0.000    0.000    0.000    0.000    0.000 
#
# Total GULP energy -89474.598226 kJ/mol
# GULP energy per Si atom -5592.162389 kJ/mol
# Density = 2.617515 g / cm^3
# Si number density = 26.234867 Si / 1000 Ang^3
#
#
#
# Elastic Constant Matrix: (Units=GPa)
#
#
# Indices 1 2 3 4 5 6 
#
# 1 67.0562 61.4691 14.9580 0.0000 21.0582 0.0000
# 2 61.4691 172.2479 38.0490 0.0000 33.1602 0.0000
# 3 14.9580 38.0490 66.2542 0.0000 19.0438 0.0000
# 4 0.0000 0.0000 0.0000 64.1149 0.0000 13.8152
# 5 21.0582 33.1602 19.0438 0.0000 43.3071 0.0000
# 6 0.0000 0.0000 0.0000 13.8152 0.0000 61.6786
#
#
#
# Elastic Compliance Matrix: (Units=1/GPa)
#
#
# Indices 1 2 3 4 5 6 
#
# 1 0.023380 -0.007326 0.000669 0.000000 -0.006053 0.000000
# 2 -0.007326 0.009577 -0.003162 0.000000 -0.002380 0.000000
# 3 0.000669 -0.003162 0.018493 0.000000 -0.006036 0.000000
# 4 0.000000 0.000000 0.000000 0.016388 0.000000 -0.003671
# 5 -0.006053 -0.002380 -0.006036 0.000000 0.030511 0.000000
# 6 0.000000 0.000000 0.000000 -0.003671 0.000000 0.017035
#
#
# Mechanical properties :
#
#
# Convention : Reuss Voigt Hill
#
# Bulk Modulus (GPa) = 31.43451 59.39008 45.41229
# Shear Modulus (GPa) = 34.33446 46.55893 40.44670
#
# Velocity S-wave (km/s) = 3.62157 4.21729 3.93073
# Velocity P-wave (km/s) = 5.43099 6.81183 6.16022
#
# Compressibility (1/GPa) = 0.03181217
#
# Stress axis : x y z
#
# Youngs Moduli (GPa) = 42.77120 104.42166 54.07398
#
# Poissons Ratio (x) = 0.76499 -0.03615
# Poissons Ratio (y) = 0.31334 0.17096
# Poissons Ratio (z) = -0.02860 0.33014
#
# Static dielectric constant tensor:
#      x y z
#    x 2.077830 0.000000 -0.134030 
#    y 0.000000 2.041520 0.000000 
#    z -0.134030 0.000000 2.242480 
# 
# From -- ./inp_files/22615.got.cif
#   From: 2010.05.17/outbox.cif.g08.bks.cpg/sg14_12_cif.got.tgz:22615.got - 2010.06.03 17:49:19.
