data_PCOD9246394
_publ_section_title
;
Structure prediction by ZEFSAII (Michael W. Deem and Ramdas Pophale) SiO2 
 PCOD9246394
Probable space group: P 21/C
;
_chemical_formula_sum "Si O2"
_cell_formula_units_Z 20
_cell_length_a 5.127329
_cell_length_b 17.548650
_cell_length_c 9.761428
_cell_angle_alpha 90.000000
_cell_angle_beta 69.221378
_cell_angle_gamma 90.000000
_cell_volume 821.183860
_symmetry_space_group_name_H-M "P 21/C"
_symmetry_group_IT_number 14
_symmetry_cell_setting 'monoclinic'
loop_
_space_group_symop_operation_xyz
x,y,z
-x,1/2+y,1/2-z
-x,-y,-z
x,1/2-y,1/2+z
loop_
_atom_site_type_symbol
_atom_site_label
_atom_site_fract_x
_atom_site_fract_y
_atom_site_fract_z
Si Si1 0.975383 0.742566 0.119187
Si Si2 0.198979 0.340720 0.580354
Si Si3 0.159648 0.033172 0.678849
Si Si4 0.212864 0.602569 0.546488
Si Si5 0.739881 0.399153 0.036332
O O1 0.772760 0.772665 0.037081
O O2 0.829605 0.695334 0.265480
O O3 0.118961 0.820024 0.145387
O O4 0.206566 0.688068 0.008570
O O5 0.916778 0.379778 0.577745
O O6 0.457861 0.397407 0.520711
O O7 0.951385 0.037013 0.845128
O O8 0.442552 0.079633 0.657244
O O9 0.990578 0.073175 0.586749
O O10 0.242277 0.950848 0.604388
#
# Coordination Sequence:
#
# PCOD9246394 Si02
#       5
#     4   4   4   4   4
#     4  10  24  38  60  90 119 158 199 251 290 366
#     4  10  24  35  60  85 121 155 200 238 311 336
#     4  10  21  41  58  92 115 163 194 253 291 351
#     4  10  23  36  60  84 122 155 193 252 294 351
#     4  10  22  36  66  84 122 155 209 236 297 360
#
# _framework density 24.355083
#
# number of rings (size 3 to 8) (size 9 to 14) (size 15 to 20)
#    1.200    0.800    0.000    2.400    8.400    0.000 
#    0.000    2.000    0.000    0.000    0.000    0.000 
#    0.000    0.000    0.000    0.000    0.000    0.000 
#
# Total GULP energy -111800.384240 kJ/mol
# GULP energy per Si atom -5590.019212 kJ/mol
# Density = 2.429965 g / cm^3
# Si number density = 24.355083 Si / 1000 Ang^3
#
#
#
# Elastic Constant Matrix: (Units=GPa)
#
#
# Indices 1 2 3 4 5 6 
#
# 1 109.8914 13.4967 1.8219 0.0000 -14.9900 0.0000
# 2 13.4967 84.3048 14.2875 0.0000 -7.9966 0.0000
# 3 1.8219 14.2875 76.1713 0.0000 1.1803 0.0000
# 4 0.0000 0.0000 0.0000 25.1386 0.0000 -11.0464
# 5 -14.9900 -7.9966 1.1803 0.0000 21.4069 0.0000
# 6 0.0000 0.0000 0.0000 -11.0464 0.0000 25.0661
#
#
#
# Elastic Compliance Matrix: (Units=1/GPa)
#
#
# Indices 1 2 3 4 5 6 
#
# 1 0.010141 -0.000954 -0.000168 0.000000 0.006754 0.000000
# 2 -0.000954 0.012834 -0.002450 0.000000 0.004261 0.000000
# 3 -0.000168 -0.002450 0.013620 0.000000 -0.001784 0.000000
# 4 0.000000 0.000000 0.000000 0.049333 0.000000 0.021740
# 5 0.006754 0.004261 -0.001784 0.000000 0.053133 0.000000
# 6 0.000000 0.000000 0.000000 0.021740 0.000000 0.049475
#
#
# Mechanical properties :
#
#
# Convention : Reuss Voigt Hill
#
# Bulk Modulus (GPa) = 33.95741 36.61996 35.28868
# Shear Modulus (GPa) = 24.33109 30.37309 27.35209
#
# Velocity S-wave (km/s) = 3.16415 3.53525 3.35484
# Velocity P-wave (km/s) = 5.22705 5.63316 5.43390
#
# Compressibility (1/GPa) = 0.02944865
#
# Stress axis : x y z
#
# Youngs Moduli (GPa) = 98.60768 77.91821 73.42356
#
# Poissons Ratio (x) = 0.07436 0.01235
# Poissons Ratio (y) = 0.09411 0.17992
# Poissons Ratio (z) = 0.01659 0.19094
#
# Static dielectric constant tensor:
#      x y z
#    x 1.877380 0.000000 -0.010420 
#    y 0.000000 1.956590 0.000000 
#    z -0.010420 0.000000 1.932990 
# 
# From -- ./inp_files/5869.got.cif
#   From: 2010.05.17/outbox.cif.g08.bks.cpg/sg14_3_cif.got.tgz:5869.got - 2010.06.03 17:49:19.
