data_PCOD9246651
_publ_section_title
;
Structure prediction by ZEFSAII (Michael W. Deem and Ramdas Pophale) SiO2 
 PCOD9246651
Probable space group: P 21/C
;
_chemical_formula_sum "Si O2"
_cell_formula_units_Z 28
_cell_length_a 9.865036
_cell_length_b 18.699634
_cell_length_c 14.907275
_cell_angle_alpha 90.000000
_cell_angle_beta 28.836148
_cell_angle_gamma 90.000000
_cell_volume 1326.334621
_symmetry_space_group_name_H-M "P 21/C"
_symmetry_group_IT_number 14
_symmetry_cell_setting 'monoclinic'
loop_
_space_group_symop_operation_xyz
x,y,z
-x,1/2+y,1/2-z
-x,-y,-z
x,1/2-y,1/2+z
loop_
_atom_site_type_symbol
_atom_site_label
_atom_site_fract_x
_atom_site_fract_y
_atom_site_fract_z
Si Si1 0.778572 0.957846 0.865206
Si Si2 0.579576 0.689182 0.420006
Si Si3 0.869147 0.305447 0.581345
Si Si4 0.749558 0.674010 0.115527
Si Si5 0.103865 0.542199 0.353866
Si Si6 0.242697 0.449764 0.028722
Si Si7 0.945231 0.674586 0.731362
O O1 0.692317 0.875511 0.913949
O O2 0.900027 0.977407 0.891376
O O3 0.030047 0.983710 0.654299
O O4 0.500000 0.000000 0.000000
O O5 0.692098 0.668697 0.254947
O O6 0.717047 0.762730 0.372055
O O7 0.243670 0.692831 0.604930
O O8 0.009349 0.232890 0.533834
O O9 0.992647 0.328340 0.411620
O O10 0.538094 0.295404 0.759372
O O11 0.914466 0.372825 0.618850
O O12 0.796299 0.599222 0.037593
O O13 0.434324 0.526951 0.148512
O O14 0.000000 0.500000 0.500000
O O15 0.166805 0.396070 0.154756
#
# Coordination Sequence:
#
# PCOD9246651 Si02
#       7
#     4   4   4   4   4   4   4
#     4  12  26  44  66 100 133 176 222 279 338 397
#     4  10  23  42  66  95 137 171 220 272 340 386
#     4   9  20  41  64  90 128 168 221 264 336 386
#     4   9  21  39  63  93 126 170 215 276 321 397
#     4  11  26  46  67  93 135 181 220 274 336 405
#     4  11  24  42  69  93 135 173 230 272 339 399
#     4  10  21  41  68  96 132 175 219 281 317 402
#
# _framework density 21.110810000000001
#
# number of rings (size 3 to 8) (size 9 to 14) (size 15 to 20)
#    0.000    1.714    1.429    1.286    8.000    2.857 
#    7.714    0.000    0.000    0.000    0.000    0.000 
#    0.000    0.000    0.000    0.000    0.000    0.000 
#
# Total GULP energy -156533.646868 kJ/mol
# GULP energy per Si atom -5590.487388 kJ/mol
# Density = 2.106276 g / cm^3
# Si number density = 21.110810 Si / 1000 Ang^3
#
#
#
# Elastic Constant Matrix: (Units=GPa)
#
#
# Indices 1 2 3 4 5 6 
#
# 1 96.2425 26.3387 40.2612 0.0000 -18.8898 0.0000
# 2 26.3387 32.4371 9.5775 0.0000 -19.6220 0.0000
# 3 40.2612 9.5775 94.9941 0.0000 -28.0744 0.0000
# 4 0.0000 0.0000 0.0000 44.9572 0.0000 0.1925
# 5 -18.8898 -19.6220 -28.0744 0.0000 27.5481 0.0000
# 6 0.0000 0.0000 0.0000 0.1925 0.0000 22.8425
#
#
#
# Elastic Compliance Matrix: (Units=1/GPa)
#
#
# Indices 1 2 3 4 5 6 
#
# 1 0.016373 -0.015746 -0.007654 0.000000 -0.007789 0.000000
# 2 -0.015746 0.074578 0.016689 0.000000 0.059332 0.000000
# 3 -0.007654 0.016689 0.020106 0.000000 0.027130 0.000000
# 4 0.000000 0.000000 0.000000 0.022244 0.000000 -0.000187
# 5 -0.007789 0.059332 0.027130 0.000000 0.100868 0.000000
# 6 0.000000 0.000000 0.000000 -0.000187 0.000000 0.043780
#
#
# Mechanical properties :
#
#
# Convention : Reuss Voigt Hill
#
# Bulk Modulus (GPa) = 10.24211 41.78094 26.01152
# Shear Modulus (GPa) = 15.43615 28.90265 22.16940
#
# Velocity S-wave (km/s) = 2.70700 3.70414 3.24411
# Velocity P-wave (km/s) = 3.82526 6.17482 5.13619
#
# Compressibility (1/GPa) = 0.09763611
#
# Stress axis : x y z
#
# Youngs Moduli (GPa) = 61.07734 13.40873 49.73653
#
# Poissons Ratio (x) = 0.21114 0.38066
# Poissons Ratio (y) = 0.96174 -0.83007
# Poissons Ratio (z) = 0.46746 -0.22378
#
# Static dielectric constant tensor:
#      x y z
#    x 1.763540 0.000000 0.051290 
#    y 0.000000 1.761700 0.000000 
#    z 0.051290 0.000000 1.764350 
# 
# From -- ./inp_files/42102.got.cif
#   From: 2010.05.17/outbox.cif.g08.bks.cpg/sg14_22_cif.got.tgz:42102.got - 2010.06.03 17:49:19.
