data_PCOD9246691
_publ_section_title
;
Structure prediction by ZEFSAII (Michael W. Deem and Ramdas Pophale) SiO2 
 PCOD9246691
Probable space group: P 21/C
;
_chemical_formula_sum "Si O2"
_cell_formula_units_Z 28
_cell_length_a 7.325016
_cell_length_b 14.007181
_cell_length_c 13.204475
_cell_angle_alpha 90.000000
_cell_angle_beta 59.949212
_cell_angle_gamma 90.000000
_cell_volume 1172.704524
_symmetry_space_group_name_H-M "P 21/C"
_symmetry_group_IT_number 14
_symmetry_cell_setting 'monoclinic'
loop_
_space_group_symop_operation_xyz
x,y,z
-x,1/2+y,1/2-z
-x,-y,-z
x,1/2-y,1/2+z
loop_
_atom_site_type_symbol
_atom_site_label
_atom_site_fract_x
_atom_site_fract_y
_atom_site_fract_z
Si Si1 0.741811 0.654677 0.043393
Si Si2 0.982559 0.657483 0.442052
Si Si3 0.953782 0.547414 0.654109
Si Si4 0.971074 0.478826 0.144317
Si Si5 0.374520 0.744859 0.214018
Si Si6 0.347641 0.875338 0.537400
Si Si7 0.538452 0.065685 0.714213
O O1 0.596505 0.691021 0.175431
O O2 0.949435 0.592956 0.965717
O O3 0.810416 0.758519 0.978860
O O4 0.267806 0.494448 0.817578
O O5 0.940447 0.555160 0.400491
O O6 0.193341 0.702865 0.335525
O O7 0.003881 0.625484 0.554020
O O8 0.012198 0.574450 0.752190
O O9 0.699677 0.530108 0.720488
O O10 0.136995 0.564018 0.110834
O O11 0.433837 0.408005 0.968810
O O12 0.317093 0.719121 0.113557
O O13 0.426905 0.854497 0.211209
O O14 0.410466 0.877363 0.403548
#
# Coordination Sequence:
#
# PCOD9246691 Si02
#       7
#     4   4   4   4   4   4   4
#     4  10  21  41  71  94 137 184 233 286 349 415
#     4  11  22  43  71  98 140 193 228 285 362 417
#     4  11  23  44  70 100 148 185 225 293 358 409
#     4  12  23  43  73 104 141 181 237 293 350 421
#     4  10  22  42  66  97 142 177 237 285 344 421
#     4  10  23  43  69  97 142 183 230 295 349 399
#     4  12  24  41  71 106 136 184 238 287 349 426
#
# _framework density 23.876432999999999
#
# number of rings (size 3 to 8) (size 9 to 14) (size 15 to 20)
#    0.857    0.286    5.714    0.857    2.000    1.143 
#    0.000    5.714    0.000    0.000    0.000    0.000 
#    0.000    0.000    0.000    0.000    0.000    0.000 
#
# Total GULP energy -156095.786234 kJ/mol
# GULP energy per Si atom -5574.849508 kJ/mol
# Density = 2.382209 g / cm^3
# Si number density = 23.876433 Si / 1000 Ang^3
#
#
#
# Elastic Constant Matrix: (Units=GPa)
#
#
# Indices 1 2 3 4 5 6 
#
# 1 99.2679 8.9890 22.5128 0.0000 -16.8893 0.0000
# 2 8.9890 76.9892 5.6011 0.0000 -4.5445 0.0000
# 3 22.5128 5.6011 106.4095 0.0000 -15.4697 0.0000
# 4 0.0000 0.0000 0.0000 20.7257 0.0000 -3.9150
# 5 -16.8893 -4.5445 -15.4697 0.0000 33.8100 0.0000
# 6 0.0000 0.0000 0.0000 -3.9150 0.0000 37.8887
#
#
#
# Elastic Compliance Matrix: (Units=1/GPa)
#
#
# Indices 1 2 3 4 5 6 
#
# 1 0.011347 -0.000922 -0.001656 0.000000 0.004787 0.000000
# 2 -0.000922 0.013189 -0.000330 0.000000 0.001161 0.000000
# 3 -0.001656 -0.000330 0.010326 0.000000 0.003853 0.000000
# 4 0.000000 0.000000 0.000000 0.049210 0.000000 0.005085
# 5 0.004787 0.001161 0.003853 0.000000 0.033887 0.000000
# 6 0.000000 0.000000 0.000000 0.005085 0.000000 0.026919
#
#
# Mechanical properties :
#
#
# Convention : Reuss Voigt Hill
#
# Bulk Modulus (GPa) = 34.42961 39.65248 37.04105
# Shear Modulus (GPa) = 31.17678 34.85580 33.01629
#
# Velocity S-wave (km/s) = 3.61744 3.82493 3.72263
# Velocity P-wave (km/s) = 5.64793 6.01251 5.83307
#
# Compressibility (1/GPa) = 0.02904477
#
# Stress axis : x y z
#
# Youngs Moduli (GPa) = 88.12719 75.82056 96.84696
#
# Poissons Ratio (x) = 0.06989 0.16041
# Poissons Ratio (y) = 0.08124 0.03200
# Poissons Ratio (z) = 0.14597 0.02505
#
# Static dielectric constant tensor:
#      x y z
#    x 1.923030 0.000000 0.000790 
#    y 0.000000 2.008540 0.000000 
#    z 0.000790 0.000000 1.961410 
# 
# From -- ./inp_files/41156.got.cif
#   From: 2010.05.17/outbox.cif.g08.bks.cpg/sg14_21_cif.got.tgz:41156.got - 2010.06.03 17:49:19.
