data_PCOD9246127
_publ_section_title
;
Structure prediction by ZEFSAII (Michael W. Deem and Ramdas Pophale) SiO2 
 PCOD9246127
Probable space group: P 21/C
;
_chemical_formula_sum "Si O2"
_cell_formula_units_Z 16
_cell_length_a 12.172861
_cell_length_b 5.252865
_cell_length_c 21.436771
_cell_angle_alpha 90.000000
_cell_angle_beta 23.559269
_cell_angle_gamma 90.000000
_cell_volume 547.872751
_symmetry_space_group_name_H-M "P 21/C"
_symmetry_group_IT_number 14
_symmetry_cell_setting 'monoclinic'
loop_
_space_group_symop_operation_xyz
x,y,z
-x,1/2+y,1/2-z
-x,-y,-z
x,1/2-y,1/2+z
loop_
_atom_site_type_symbol
_atom_site_label
_atom_site_fract_x
_atom_site_fract_y
_atom_site_fract_z
Si Si1 0.043036 0.531721 0.768554
Si Si2 0.526092 0.105538 0.415672
Si Si3 0.543037 0.031718 0.768554
Si Si4 0.026092 0.894461 0.915672
O O1 0.336179 0.615784 0.643450
O O2 0.030770 0.270064 0.738438
O O3 0.777843 0.542233 0.951461
O O4 0.750001 0.992946 0.250000
O O5 0.500000 0.000000 0.500000
O O6 0.469233 0.270057 0.761559
O O7 0.836179 0.115783 0.643450
O O8 0.277844 0.042237 0.951460
O O9 0.000000 0.000000 0.000000
#
# Coordination Sequence:
#
# PCOD9246127 Si02
#       4
#     4   4   4   4
#     4  10  21  40  63  92 123 160 203 252 303 360
#     4  10  21  40  63  92 124 162 204 252 304 362
#     4  10  21  40  63  92 123 160 203 252 303 360
#     4  10  21  40  63  92 124 162 204 252 304 362
#
# _framework density 29.203862000000001
#
# number of rings (size 3 to 8) (size 9 to 14) (size 15 to 20)
#    0.000    2.000    0.000    3.000    0.000    0.000 
#    0.000   82.500    0.000    0.000    0.000    0.000 
#    0.000    0.000    0.000    0.000    0.000    0.000 
#
# Total GULP energy -89263.343119 kJ/mol
# GULP energy per Si atom -5578.958945 kJ/mol
# Density = 2.913739 g / cm^3
# Si number density = 29.203862 Si / 1000 Ang^3
#
#
#
# Elastic Constant Matrix: (Units=GPa)
#
#
# Indices 1 2 3 4 5 6 
#
# 1 126.4421 29.3958 32.6743 0.0000 -10.1315 0.0000
# 2 29.3958 135.2939 44.2100 0.0000 6.6489 0.0000
# 3 32.6743 44.2100 254.5374 0.0000 -18.0759 0.0000
# 4 0.0000 0.0000 0.0000 45.7832 0.0000 -5.8875
# 5 -10.1315 6.6489 -18.0759 0.0000 92.0056 0.0000
# 6 0.0000 0.0000 0.0000 -5.8875 0.0000 50.1722
#
#
#
# Elastic Compliance Matrix: (Units=1/GPa)
#
#
# Indices 1 2 3 4 5 6 
#
# 1 0.008561 -0.001662 -0.000745 0.000000 0.000916 0.000000
# 2 -0.001662 0.008224 -0.001288 0.000000 -0.001030 0.000000
# 3 -0.000745 -0.001288 0.004309 0.000000 0.000858 0.000000
# 4 0.000000 0.000000 0.000000 0.022177 0.000000 0.002602
# 5 0.000916 -0.001030 0.000858 0.000000 0.011213 0.000000
# 6 0.000000 0.000000 0.000000 0.002602 0.000000 0.020237
#
#
# Mechanical properties :
#
#
# Convention : Reuss Voigt Hill
#
# Bulk Modulus (GPa) = 72.97284 80.98151 76.97718
# Shear Modulus (GPa) = 57.68442 64.92507 61.30474
#
# Velocity S-wave (km/s) = 4.44918 4.72016 4.58667
# Velocity P-wave (km/s) = 7.17184 7.58265 7.38010
#
# Compressibility (1/GPa) = 0.01370373
#
# Stress axis : x y z
#
# Youngs Moduli (GPa) = 116.80780 121.59611 232.07099
#
# Poissons Ratio (x) = 0.20204 0.17296
# Poissons Ratio (y) = 0.19409 0.29897
# Poissons Ratio (z) = 0.08706 0.15665
#
# Static dielectric constant tensor:
#      x y z
#    x 2.535300 0.000000 -0.110610 
#    y 0.000000 2.470400 0.000000 
#    z -0.110610 0.000000 2.397560 
# 
# From -- ./inp_files/20368.got.cif
#   From: 2010.05.17/outbox.cif.g08.bks.cpg/sg14_11_cif.got.tgz:20368.got - 2010.06.03 17:49:19.
