data_PCOD9246701
_publ_section_title
;
Structure prediction by ZEFSAII (Michael W. Deem and Ramdas Pophale) SiO2 
 PCOD9246701
Probable space group: P 21/C
;
_chemical_formula_sum "Si O2"
_cell_formula_units_Z 30
_cell_length_a 18.202622
_cell_length_b 4.905688
_cell_length_c 14.828703
_cell_angle_alpha 90.000000
_cell_angle_beta 73.438970
_cell_angle_gamma 90.000000
_cell_volume 1269.219422
_symmetry_space_group_name_H-M "P 21/C"
_symmetry_group_IT_number 14
_symmetry_cell_setting 'monoclinic'
loop_
_space_group_symop_operation_xyz
x,y,z
-x,1/2+y,1/2-z
-x,-y,-z
x,1/2-y,1/2+z
loop_
_atom_site_type_symbol
_atom_site_label
_atom_site_fract_x
_atom_site_fract_y
_atom_site_fract_z
Si Si1 0.000000 0.000000 0.000000
Si Si2 0.569130 0.232230 0.567179
Si Si3 0.975108 0.184191 0.849252
Si Si4 0.467521 0.732813 0.624756
Si Si5 0.757636 0.536720 0.181203
Si Si6 0.129923 0.144211 0.198396
Si Si7 0.118205 0.413403 0.010478
Si Si8 0.658379 0.054819 0.195208
O O1 0.001661 0.910640 0.890854
O O2 0.080888 0.175068 0.963785
O O3 0.498298 0.426453 0.623548
O O4 0.575044 0.260304 0.457201
O O5 0.639969 0.336541 0.600992
O O6 0.542921 0.923289 0.592755
O O7 0.945372 0.340078 0.952055
O O8 0.046907 0.279205 0.769367
O O9 0.896064 0.158663 0.823955
O O10 0.415420 0.861564 0.720110
O O11 0.806221 0.643888 0.249069
O O12 0.724699 0.241099 0.213698
O O13 0.687890 0.746700 0.187731
O O14 0.810533 0.498548 0.074699
O O15 0.143866 0.301124 0.099559
#
# Coordination Sequence:
#
# PCOD9246701 Si02
#       8
#     2   4   4   4   4   4   4   4
#     4  10  22  38  68  92 118 156 224 304 346 402
#     4  10  21  41  74 104 132 170 227 273 324 373
#     4  11  22  40  68  91 119 165 232 305 346 388
#     4  10  21  41  74 105 132 171 222 281 314 379
#     4  12  30  43  65  95 146 186 221 269 350 424
#     4  11  25  41  66  96 123 172 233 294 351 407
#     4  11  25  42  66  91 125 172 223 291 347 413
#     4  12  26  44  66  99 142 187 214 268 330 417
#
# _framework density 23.636574
#
# number of rings (size 3 to 8) (size 9 to 14) (size 15 to 20)
#    0.000    1.067    2.667    2.800    5.600    2.133 
#    0.000    0.000    0.000    0.000    0.000    0.000 
#    0.000    0.000    0.000    0.000    0.000    0.000 
#
# Total GULP energy -167100.592619 kJ/mol
# GULP energy per Si atom -5570.019754 kJ/mol
# Density = 2.358278 g / cm^3
# Si number density = 23.636574 Si / 1000 Ang^3
#
#
#
# Elastic Constant Matrix: (Units=GPa)
#
#
# Indices 1 2 3 4 5 6 
#
# 1 70.4408 -5.7597 27.4991 0.0000 35.5819 0.0000
# 2 -5.7597 55.4520 -6.1944 0.0000 -0.0255 0.0000
# 3 27.4991 -6.1944 98.9685 0.0000 23.1370 0.0000
# 4 0.0000 0.0000 0.0000 29.9042 0.0000 -1.9460
# 5 35.5819 -0.0255 23.1370 0.0000 37.0292 0.0000
# 6 0.0000 0.0000 0.0000 -1.9460 0.0000 34.0889
#
#
#
# Elastic Compliance Matrix: (Units=1/GPa)
#
#
# Indices 1 2 3 4 5 6 
#
# 1 0.028248 0.002748 -0.001559 0.000000 -0.026167 0.000000
# 2 0.002748 0.018449 0.001178 0.000000 -0.003363 0.000000
# 3 -0.001559 0.001178 0.012016 0.000000 -0.006009 0.000000
# 4 0.000000 0.000000 0.000000 0.033565 0.000000 0.001916
# 5 -0.026167 -0.003363 -0.006009 0.000000 0.055903 0.000000
# 6 0.000000 0.000000 0.000000 0.001916 0.000000 0.029444
#
#
# Mechanical properties :
#
#
# Convention : Reuss Voigt Hill
#
# Bulk Modulus (GPa) = 15.76176 28.43903 22.10040
# Shear Modulus (GPa) = 25.76776 34.15887 29.96331
#
# Velocity S-wave (km/s) = 3.30535 3.80566 3.56429
# Velocity P-wave (km/s) = 4.60977 5.60077 5.12926
#
# Compressibility (1/GPa) = 0.06344467
#
# Stress axis : x y z
#
# Youngs Moduli (GPa) = 35.40097 54.20344 83.22289
#
# Poissons Ratio (x) = -0.14894 0.12978
# Poissons Ratio (y) = -0.09728 -0.09800
# Poissons Ratio (z) = 0.05520 -0.06383
#
# Static dielectric constant tensor:
#      x y z
#    x 1.835150 0.000000 -0.073200 
#    y 0.000000 1.769540 0.000000 
#    z -0.073200 0.000000 1.917490 
# 
# From -- ./inp_files/47982.got.cif
#   From: 2010.05.17/outbox.cif.g08.bks.cpg/sg14_24_cif.got.tgz:47982.got - 2010.06.03 17:49:19.
