data_PCOD9246786
_publ_section_title
;
Structure prediction by ZEFSAII (Michael W. Deem and Ramdas Pophale) SiO2 
 PCOD9246786
Probable space group: P 21/C
;
_chemical_formula_sum "Si O2"
_cell_formula_units_Z 32
_cell_length_a 22.751584
_cell_length_b 7.568796
_cell_length_c 15.006392
_cell_angle_alpha 90.000000
_cell_angle_beta 31.585070
_cell_angle_gamma 90.000000
_cell_volume 1353.475273
_symmetry_space_group_name_H-M "P 21/C"
_symmetry_group_IT_number 14
_symmetry_cell_setting 'monoclinic'
loop_
_space_group_symop_operation_xyz
x,y,z
-x,1/2+y,1/2-z
-x,-y,-z
x,1/2-y,1/2+z
loop_
_atom_site_type_symbol
_atom_site_label
_atom_site_fract_x
_atom_site_fract_y
_atom_site_fract_z
Si Si1 0.732277 0.752667 0.876479
Si Si2 0.115890 0.134244 0.162575
Si Si3 0.101709 0.882395 0.460714
Si Si4 0.177248 0.891231 0.716824
Si Si5 0.996042 0.787211 0.352913
Si Si6 0.511031 0.832493 0.878824
Si Si7 0.315178 0.006226 0.229744
Si Si8 0.424263 0.536503 0.868354
O O1 0.779090 0.830915 0.909073
O O2 0.812925 0.583845 0.750764
O O3 0.718297 0.892887 0.817506
O O4 0.614472 0.652533 0.043048
O O5 0.102920 0.225491 0.084039
O O6 0.006940 0.207142 0.357170
O O7 0.083599 0.927659 0.196141
O O8 0.155163 0.767237 0.314037
O O9 0.055728 0.083529 0.504034
O O10 0.201329 0.909061 0.403991
O O11 0.301241 0.872469 0.512468
O O12 0.072079 0.872925 0.787502
O O13 0.629869 0.857259 0.773259
O O14 0.489415 0.651087 0.856034
O O15 0.510874 0.987224 0.804634
O O16 0.412844 0.869012 0.076636
#
# Coordination Sequence:
#
# PCOD9246786 Si02
#       8
#     4   4   4   4   4   4   4   4
#     4  10  23  40  65  93 134 167 229 267 339 407
#     4  10  23  38  64  97 135 182 218 270 331 411
#     4  10  23  40  65  94 138 174 216 274 337 393
#     4  10  21  42  64  96 130 178 219 276 331 409
#     4  10  22  39  65  92 139 178 225 262 335 403
#     4  11  24  44  71  92 133 173 230 283 343 393
#     4  11  23  43  67  99 128 177 223 281 335 409
#     4  10  24  43  69  95 131 172 223 287 342 395
#
# _framework density 23.642841000000001
#
# number of rings (size 3 to 8) (size 9 to 14) (size 15 to 20)
#    1.500    0.250    1.250    2.625    5.250    1.000 
#    2.250    1.250    0.000    0.000    0.000    0.000 
#    0.000    0.000    0.000    0.000    0.000    0.000 
#
# Total GULP energy -178451.363562 kJ/mol
# GULP energy per Si atom -5576.605111 kJ/mol
# Density = 2.358903 g / cm^3
# Si number density = 23.642841 Si / 1000 Ang^3
#
#
#
# Elastic Constant Matrix: (Units=GPa)
#
#
# Indices 1 2 3 4 5 6 
#
# 1 121.1572 30.4039 -18.7555 0.0000 -11.4618 0.0000
# 2 30.4039 73.4733 -3.2088 0.0000 -4.3550 0.0000
# 3 -18.7555 -3.2088 46.0691 0.0000 -5.2133 0.0000
# 4 0.0000 0.0000 0.0000 39.1286 0.0000 -9.4491
# 5 -11.4618 -4.3550 -5.2133 0.0000 19.7250 0.0000
# 6 0.0000 0.0000 0.0000 -9.4491 0.0000 27.8211
#
#
#
# Elastic Compliance Matrix: (Units=1/GPa)
#
#
# Indices 1 2 3 4 5 6 
#
# 1 0.010562 -0.003772 0.004780 0.000000 0.006568 0.000000
# 2 -0.003772 0.015220 -0.000354 0.000000 0.001075 0.000000
# 3 0.004780 -0.000354 0.024671 0.000000 0.009220 0.000000
# 4 0.000000 0.000000 0.000000 0.027840 0.000000 0.009456
# 5 0.006568 0.001075 0.009220 0.000000 0.057188 0.000000
# 6 0.000000 0.000000 0.000000 0.009456 0.000000 0.039155
#
#
# Mechanical properties :
#
#
# Convention : Reuss Voigt Hill
#
# Bulk Modulus (GPa) = 19.31986 28.61987 23.96986
# Shear Modulus (GPa) = 26.23541 32.81893 29.52717
#
# Velocity S-wave (km/s) = 3.33476 3.72978 3.53779
# Velocity P-wave (km/s) = 4.79758 5.53893 5.18153
#
# Compressibility (1/GPa) = 0.05176021
#
# Stress axis : x y z
#
# Youngs Moduli (GPa) = 94.68112 65.70433 40.53277
#
# Poissons Ratio (x) = 0.24787 -0.19376
# Poissons Ratio (y) = 0.35718 0.01436
# Poissons Ratio (z) = -0.45261 0.02327
#
# Static dielectric constant tensor:
#      x y z
#    x 1.929850 0.000000 0.004970 
#    y 0.000000 1.881630 0.000000 
#    z 0.004970 0.000000 1.996120 
# 
# From -- ./inp_files/49930.got.cif
#   From: 2010.05.17/outbox.cif.g08.bks.cpg/sg14_25_cif.got.tgz:49930.got - 2010.06.03 17:49:19.
