data_PCOD9246784
_publ_section_title
;
Structure prediction by ZEFSAII (Michael W. Deem and Ramdas Pophale) SiO2 
 PCOD9246784
Probable space group: P 21/C
;
_chemical_formula_sum "Si O2"
_cell_formula_units_Z 28
_cell_length_a 12.026679
_cell_length_b 8.472319
_cell_length_c 14.534910
_cell_angle_alpha 90.000000
_cell_angle_beta 127.071058
_cell_angle_gamma 90.000000
_cell_volume 1181.687350
_symmetry_space_group_name_H-M "P 21/C"
_symmetry_group_IT_number 14
_symmetry_cell_setting 'monoclinic'
loop_
_space_group_symop_operation_xyz
x,y,z
-x,1/2+y,1/2-z
-x,-y,-z
x,1/2-y,1/2+z
loop_
_atom_site_type_symbol
_atom_site_label
_atom_site_fract_x
_atom_site_fract_y
_atom_site_fract_z
Si Si1 0.075468 0.500148 0.883687
Si Si2 0.594377 0.520108 0.323877
Si Si3 0.128707 0.297546 0.295717
Si Si4 0.354103 0.925565 0.956976
Si Si5 0.383998 0.775073 0.302649
Si Si6 0.877784 0.145731 0.410604
Si Si7 0.110344 0.137465 0.086082
O O1 0.138373 0.342430 0.874698
O O2 0.027643 0.626452 0.782756
O O3 0.918493 0.470678 0.848456
O O4 0.161511 0.574659 0.010365
O O5 0.632506 0.401164 0.427035
O O6 0.475566 0.634410 0.304003
O O7 0.552887 0.434836 0.207707
O O8 0.737513 0.611654 0.377821
O O9 0.239102 0.436905 0.377504
O O10 0.132848 0.193154 0.203042
O O11 0.351946 0.768738 0.892369
O O12 0.500000 0.000000 0.000000
O O13 0.233534 0.767781 0.179748
O O14 0.028932 0.218070 0.501441
O O15 0.000000 0.000000 0.000000
#
# Coordination Sequence:
#
# PCOD9246784 Si02
#       7
#     4   4   4   4   4   4   4
#     4  10  23  37  67  96 130 175 222 284 344 411
#     4  11  26  44  73  98 138 187 232 287 354 421
#     4  11  24  41  67 102 140 177 226 290 347 414
#     4  10  24  45  69  95 139 180 233 282 349 415
#     4  11  24  45  70  99 135 187 228 289 349 419
#     4  10  21  42  64  95 135 173 226 281 344 408
#     4  11  24  41  67 103 137 178 232 285 347 416
#
# _framework density 23.694932000000001
#
# number of rings (size 3 to 8) (size 9 to 14) (size 15 to 20)
#    0.000    1.429    2.857    0.857    8.000    2.286 
#    2.571    0.714    0.000    0.000    0.000    0.000 
#    0.000    0.000    0.000    0.000    0.000    0.000 
#
# Total GULP energy -155970.950360 kJ/mol
# GULP energy per Si atom -5570.391084 kJ/mol
# Density = 2.364100 g / cm^3
# Si number density = 23.694932 Si / 1000 Ang^3
#
#
#
# Elastic Constant Matrix: (Units=GPa)
#
#
# Indices 1 2 3 4 5 6 
#
# 1 60.0741 4.6030 11.9792 0.0000 -14.4361 0.0000
# 2 4.6030 39.4327 -3.7337 0.0000 -12.4335 0.0000
# 3 11.9792 -3.7337 63.7217 0.0000 -18.2658 0.0000
# 4 0.0000 0.0000 0.0000 30.6490 0.0000 -8.6351
# 5 -14.4361 -12.4335 -18.2658 0.0000 23.7398 0.0000
# 6 0.0000 0.0000 0.0000 -8.6351 0.0000 36.4488
#
#
#
# Elastic Compliance Matrix: (Units=1/GPa)
#
#
# Indices 1 2 3 4 5 6 
#
# 1 0.019597 0.001818 0.000143 0.000000 0.012979 0.000000
# 2 0.001818 0.034230 0.009134 0.000000 0.026061 0.000000
# 3 0.000143 0.009134 0.022577 0.000000 0.022242 0.000000
# 4 0.000000 0.000000 0.000000 0.034961 0.000000 0.008283
# 5 0.012979 0.026061 0.022242 0.000000 0.080779 0.000000
# 6 0.000000 0.000000 0.000000 0.008283 0.000000 0.029398
#
#
# Mechanical properties :
#
#
# Convention : Reuss Voigt Hill
#
# Bulk Modulus (GPa) = 10.14245 20.99171 15.56708
# Shear Modulus (GPa) = 21.53168 28.19285 24.86227
#
# Velocity S-wave (km/s) = 3.01774 3.45313 3.24275
# Velocity P-wave (km/s) = 4.05365 4.97767 4.53923
#
# Compressibility (1/GPa) = 0.09859551
#
# Stress axis : x y z
#
# Youngs Moduli (GPa) = 51.02747 29.21450 44.29228
#
# Poissons Ratio (x) = -0.05313 -0.00633
# Poissons Ratio (y) = -0.09279 -0.40458
# Poissons Ratio (z) = -0.00730 -0.26685
#
# Static dielectric constant tensor:
#      x y z
#    x 1.926320 0.000000 -0.117670 
#    y 0.000000 2.118000 0.000000 
#    z -0.117670 0.000000 2.007160 
# 
# From -- ./inp_files/43547.got.cif
#   From: 2010.05.17/outbox.cif.g08.bks.cpg/sg14_22_cif.got.tgz:43547.got - 2010.06.03 17:49:19.
