data_PCOD9246689
_publ_section_title
;
Structure prediction by ZEFSAII (Michael W. Deem and Ramdas Pophale) SiO2 
 PCOD9246689
Probable space group: P 21/C
;
_chemical_formula_sum "Si O2"
_cell_formula_units_Z 24
_cell_length_a 11.649741
_cell_length_b 11.473482
_cell_length_c 7.689437
_cell_angle_alpha 90.000000
_cell_angle_beta 66.554230
_cell_angle_gamma 90.000000
_cell_volume 942.936266
_symmetry_space_group_name_H-M "P 21/C"
_symmetry_group_IT_number 14
_symmetry_cell_setting 'monoclinic'
loop_
_space_group_symop_operation_xyz
x,y,z
-x,1/2+y,1/2-z
-x,-y,-z
x,1/2-y,1/2+z
loop_
_atom_site_type_symbol
_atom_site_label
_atom_site_fract_x
_atom_site_fract_y
_atom_site_fract_z
Si Si1 0.313795 0.134445 0.857302
Si Si2 0.821919 0.429306 0.089313
Si Si3 0.675475 0.386853 0.709279
Si Si4 0.573035 0.344936 0.399423
Si Si5 0.834696 0.826473 0.723104
Si Si6 0.905174 0.278935 0.365134
O O1 0.441459 0.145567 0.886278
O O2 0.280789 0.250291 0.774065
O O3 0.318239 0.019826 0.735594
O O4 0.203700 0.121316 0.067164
O O5 0.676249 0.415222 0.225115
O O6 0.858227 0.563344 0.084602
O O7 0.889381 0.353217 0.200429
O O8 0.857299 0.356456 0.896904
O O9 0.587080 0.386493 0.588696
O O10 0.618009 0.289611 0.868055
O O11 0.808529 0.342845 0.553050
O O12 0.950973 0.738629 0.670770
#
# Coordination Sequence:
#
# PCOD9246689 Si02
#       6
#     4   4   4   4   4   4
#     4  12  25  43  65  99 132 173 211 271 328 378
#     4  10  22  44  68  95 128 174 217 271 322 381
#     4  10  22  44  66  94 125 175 213 267 326 383
#     4  10  21  41  71  90 128 168 219 260 326 384
#     4  12  25  43  63 101 132 171 216 272 320 386
#     4  10  21  43  68  93 128 173 219 261 328 379
#
# _framework density 25.452408999999999
#
# number of rings (size 3 to 8) (size 9 to 14) (size 15 to 20)
#    0.000    1.333    3.333    3.000    2.333    0.667 
#   21.000    1.667    0.000    0.000    0.000    0.000 
#    0.000    0.000    0.000    0.000    0.000    0.000 
#
# Total GULP energy -134433.193573 kJ/mol
# GULP energy per Si atom -5601.383066 kJ/mol
# Density = 2.539448 g / cm^3
# Si number density = 25.452409 Si / 1000 Ang^3
#
#
#
# Elastic Constant Matrix: (Units=GPa)
#
#
# Indices 1 2 3 4 5 6 
#
# 1 154.2643 47.3763 4.4730 0.0000 -7.7126 0.0000
# 2 47.3763 193.0303 24.0688 0.0000 9.9787 0.0000
# 3 4.4730 24.0688 32.1240 0.0000 2.0954 0.0000
# 4 0.0000 0.0000 0.0000 30.5408 0.0000 8.1187
# 5 -7.7126 9.9787 2.0954 0.0000 22.5438 0.0000
# 6 0.0000 0.0000 0.0000 8.1187 0.0000 27.6248
#
#
#
# Elastic Compliance Matrix: (Units=1/GPa)
#
#
# Indices 1 2 3 4 5 6 
#
# 1 0.007251 -0.001984 0.000260 0.000000 0.003335 0.000000
# 2 -0.001984 0.006362 -0.004289 0.000000 -0.003097 0.000000
# 3 0.000260 -0.004289 0.034385 0.000000 -0.001209 0.000000
# 4 0.000000 0.000000 0.000000 0.035518 0.000000 -0.010438
# 5 0.003335 -0.003097 -0.001209 0.000000 0.046982 0.000000
# 6 0.000000 0.000000 0.000000 -0.010438 0.000000 0.039267
#
#
# Mechanical properties :
#
#
# Convention : Reuss Voigt Hill
#
# Bulk Modulus (GPa) = 27.79951 59.02831 43.41391
# Shear Modulus (GPa) = 25.80198 36.37524 31.08861
#
# Velocity S-wave (km/s) = 3.18737 3.78451 3.49870
# Velocity P-wave (km/s) = 4.94891 6.50682 5.78058
#
# Compressibility (1/GPa) = 0.03597186
#
# Stress axis : x y z
#
# Youngs Moduli (GPa) = 137.91150 157.17304 29.08208
#
# Poissons Ratio (x) = 0.31190 -0.00755
# Poissons Ratio (y) = 0.27368 0.12473
# Poissons Ratio (z) = -0.03581 0.67407
#
# Static dielectric constant tensor:
#      x y z
#    x 2.063080 0.000000 0.036110 
#    y 0.000000 2.028040 0.000000 
#    z 0.036110 0.000000 2.083070 
# 
# From -- ./inp_files/12385.got.cif
#   From: 2010.05.17/outbox.cif.g08.bks.cpg/sg14_7_cif.got.tgz:12385.got - 2010.06.03 17:49:19.
