data_PCOD9246904
_publ_section_title
;
Structure prediction by ZEFSAII (Michael W. Deem and Ramdas Pophale) SiO2 
 PCOD9246904
Probable space group: P 21/C
;
_chemical_formula_sum "Si O2"
_cell_formula_units_Z 20
_cell_length_a 9.591227
_cell_length_b 11.356382
_cell_length_c 10.762538
_cell_angle_alpha 90.000000
_cell_angle_beta 139.530239
_cell_angle_gamma 90.000000
_cell_volume 760.860021
_symmetry_space_group_name_H-M "P 21/C"
_symmetry_group_IT_number 14
_symmetry_cell_setting 'monoclinic'
loop_
_space_group_symop_operation_xyz
x,y,z
-x,1/2+y,1/2-z
-x,-y,-z
x,1/2-y,1/2+z
loop_
_atom_site_type_symbol
_atom_site_label
_atom_site_fract_x
_atom_site_fract_y
_atom_site_fract_z
Si Si1 0.752304 0.031763 0.305184
Si Si2 0.215669 0.191770 0.819134
Si Si3 0.790867 0.439010 0.099090
Si Si4 0.017582 0.890863 0.918890
Si Si5 0.384147 0.712438 0.803844
O O1 0.661432 0.038808 0.384598
O O2 0.731838 0.163793 0.241477
O O3 0.679046 0.924274 0.169781
O O4 0.000000 0.000000 0.500000
O O5 0.153794 0.287507 0.672759
O O6 0.982951 0.155330 0.711892
O O7 0.370192 0.247519 0.026716
O O8 0.929090 0.553179 0.232334
O O9 0.645677 0.384623 0.108702
O O10 0.256040 0.838603 0.098694
O O11 0.000000 0.000000 0.000000
#
# Coordination Sequence:
#
# PCOD9246904 Si02
#       5
#     4   4   4   4   4
#     4  10  21  42  69  98 135 177 227 277 329 406
#     4  11  24  44  70 100 134 181 229 277 334 408
#     4  10  24  43  70  96 144 181 217 286 343 385
#     4  10  23  44  66  95 139 174 227 282 331 399
#     4  11  23  47  67 101 137 177 229 281 333 408
#
# _framework density 26.286042999999999
#
# number of rings (size 3 to 8) (size 9 to 14) (size 15 to 20)
#    0.000    1.600    4.000    0.600    5.600    3.200 
#   14.400    0.000    0.000    0.000    0.000    0.000 
#    0.000    0.000    0.000    0.000    0.000    0.000 
#
# Total GULP energy -111759.466368 kJ/mol
# GULP energy per Si atom -5587.973318 kJ/mol
# Density = 2.622621 g / cm^3
# Si number density = 26.286043 Si / 1000 Ang^3
#
#
#
# Elastic Constant Matrix: (Units=GPa)
#
#
# Indices 1 2 3 4 5 6 
#
# 1 33.7223 12.7458 4.2606 0.0000 -8.9818 0.0000
# 2 12.7458 152.2460 55.5545 0.0000 6.7065 0.0000
# 3 4.2606 55.5545 93.9280 0.0000 16.8407 0.0000
# 4 0.0000 0.0000 0.0000 65.1687 0.0000 2.4879
# 5 -8.9818 6.7065 16.8407 0.0000 32.7508 0.0000
# 6 0.0000 0.0000 0.0000 2.4879 0.0000 30.0874
#
#
#
# Elastic Compliance Matrix: (Units=1/GPa)
#
#
# Indices 1 2 3 4 5 6 
#
# 1 0.033750 -0.002597 -0.001927 0.000000 0.010779 0.000000
# 2 -0.002597 0.008601 -0.004985 0.000000 0.000090 0.000000
# 3 -0.001927 -0.004985 0.014975 0.000000 -0.007208 0.000000
# 4 0.000000 0.000000 0.000000 0.015393 0.000000 -0.001273
# 5 0.010779 0.000090 -0.007208 0.000000 0.037178 0.000000
# 6 0.000000 0.000000 0.000000 -0.001273 0.000000 0.033342
#
#
# Mechanical properties :
#
#
# Convention : Reuss Voigt Hill
#
# Bulk Modulus (GPa) = 26.10556 47.22424 36.66490
# Shear Modulus (GPa) = 28.56702 39.42374 33.99538
#
# Velocity S-wave (km/s) = 3.30020 3.87692 3.60013
# Velocity P-wave (km/s) = 4.94719 6.16808 5.59106
#
# Compressibility (1/GPa) = 0.03830601
#
# Stress axis : x y z
#
# Youngs Moduli (GPa) = 29.62965 116.26617 66.77837
#
# Poissons Ratio (x) = 0.30194 0.12871
# Poissons Ratio (y) = 0.07695 0.33292
# Poissons Ratio (z) = 0.05711 0.57964
#
# Static dielectric constant tensor:
#      x y z
#    x 2.133860 0.000000 -0.059550 
#    y 0.000000 2.157350 0.000000 
#    z -0.059550 0.000000 2.074380 
# 
# From -- ./inp_files/28799.got.cif
#   From: 2010.05.17/outbox.cif.g08.bks.cpg/sg14_15_cif.got.tgz:28799.got - 2010.06.03 17:49:19.
