data_PCOD9246225
_publ_section_title
;
Structure prediction by ZEFSAII (Michael W. Deem and Ramdas Pophale) SiO2 
 PCOD9246225
Probable space group: P 21/C
;
_chemical_formula_sum "Si O2"
_cell_formula_units_Z 28
_cell_length_a 10.233191
_cell_length_b 8.309735
_cell_length_c 24.023503
_cell_angle_alpha 90.000000
_cell_angle_beta 141.755406
_cell_angle_gamma 90.000000
_cell_volume 1264.559197
_symmetry_space_group_name_H-M "P 21/C"
_symmetry_group_IT_number 14
_symmetry_cell_setting 'monoclinic'
loop_
_space_group_symop_operation_xyz
x,y,z
-x,1/2+y,1/2-z
-x,-y,-z
x,1/2-y,1/2+z
loop_
_atom_site_type_symbol
_atom_site_label
_atom_site_fract_x
_atom_site_fract_y
_atom_site_fract_z
Si Si1 0.588133 0.172377 0.906307
Si Si2 0.795232 0.393978 0.133175
Si Si3 0.056144 0.636473 0.695284
Si Si4 0.603164 0.725407 0.046411
Si Si5 0.878580 0.377223 0.921857
Si Si6 0.202815 0.000197 0.722166
Si Si7 0.045505 0.447309 0.451045
O O1 0.481090 0.274063 0.918836
O O2 0.708026 0.280880 0.901116
O O3 0.418019 0.062321 0.819274
O O4 0.751324 0.054034 0.991709
O O5 0.854168 0.430693 0.216950
O O6 0.708766 0.551884 0.072797
O O7 0.020242 0.371982 0.178188
O O8 0.606092 0.265290 0.062269
O O9 0.143304 0.820408 0.723507
O O10 0.799431 0.651318 0.609528
O O11 0.106167 0.541163 0.654392
O O12 0.782320 0.474040 0.838525
O O13 0.048865 0.246039 0.956663
O O14 0.000000 0.500000 0.000000
O O15 0.000000 0.500000 0.500000
#
# Coordination Sequence:
#
# PCOD9246225 Si02
#       7
#     4   4   4   4   4   4   4
#     4  11  22  41  64  98 128 170 229 272 337 401
#     4  10  21  41  62  91 136 167 218 273 323 412
#     4  10  21  40  65  93 129 173 219 271 337 386
#     4  10  22  38  63  96 129 176 215 266 345 388
#     4  10  22  44  65  89 128 180 219 276 339 388
#     4  10  22  40  61  92 132 165 223 275 322 404
#     4   9  22  42  63  91 130 166 219 271 328 396
#
# _framework density 22.142102999999999
#
# number of rings (size 3 to 8) (size 9 to 14) (size 15 to 20)
#    0.000    2.000    1.429    0.857    2.000    5.143 
#   12.857    0.000    0.000    0.000    0.000    0.000 
#    0.000    0.000    0.000    0.000    0.000    0.000 
#
# Total GULP energy -156057.990119 kJ/mol
# GULP energy per Si atom -5573.499647 kJ/mol
# Density = 2.209171 g / cm^3
# Si number density = 22.142103 Si / 1000 Ang^3
#
#
#
# Elastic Constant Matrix: (Units=GPa)
#
#
# Indices 1 2 3 4 5 6 
#
# 1 78.3647 11.7345 36.9250 0.0000 -16.8896 0.0000
# 2 11.7345 31.7056 31.9145 0.0000 -2.4435 0.0000
# 3 36.9250 31.9145 123.3587 0.0000 -27.2759 0.0000
# 4 0.0000 0.0000 0.0000 27.6437 0.0000 -7.1210
# 5 -16.8896 -2.4435 -27.2759 0.0000 36.4133 0.0000
# 6 0.0000 0.0000 0.0000 -7.1210 0.0000 28.6524
#
#
#
# Elastic Compliance Matrix: (Units=1/GPa)
#
#
# Indices 1 2 3 4 5 6 
#
# 1 0.015560 -0.002398 -0.002969 0.000000 0.004833 0.000000
# 2 -0.002398 0.044329 -0.012391 0.000000 -0.007419 0.000000
# 3 -0.002969 -0.012391 0.014037 0.000000 0.008306 0.000000
# 4 0.000000 0.000000 0.000000 0.038649 0.000000 0.009606
# 5 0.004833 -0.007419 0.008306 0.000000 0.035428 0.000000
# 6 0.000000 0.000000 0.000000 0.009606 0.000000 0.037288
#
#
# Mechanical properties :
#
#
# Convention : Reuss Voigt Hill
#
# Bulk Modulus (GPa) = 26.03460 43.84188 34.93824
# Shear Modulus (GPa) = 21.40304 28.73221 25.06763
#
# Velocity S-wave (km/s) = 3.11243 3.60617 3.36836
# Velocity P-wave (km/s) = 4.96989 6.09774 5.56247
#
# Compressibility (1/GPa) = 0.03841042
#
# Stress axis : x y z
#
# Youngs Moduli (GPa) = 64.26581 22.55876 71.23823
#
# Poissons Ratio (x) = 0.05410 0.21148
# Poissons Ratio (y) = 0.15413 0.88271
# Poissons Ratio (z) = 0.19078 0.27953
#
# Static dielectric constant tensor:
#      x y z
#    x 1.831300 0.000000 0.084320 
#    y 0.000000 1.833570 0.000000 
#    z 0.084320 0.000000 1.729060 
# 
# From -- ./inp_files/77159.got.cif
#   From: 2010.05.17/outbox.cif.g08.bks.cpg/sg14_39_cif.got.tgz:77159.got - 2010.06.03 17:49:19.
