data_PCOD9246850
_publ_section_title
;
Structure prediction by ZEFSAII (Michael W. Deem and Ramdas Pophale) SiO2 
 PCOD9246850
Probable space group: P 21/C
;
_chemical_formula_sum "Si O2"
_cell_formula_units_Z 32
_cell_length_a 16.189488
_cell_length_b 22.412280
_cell_length_c 10.806461
_cell_angle_alpha 90.000000
_cell_angle_beta 158.095706
_cell_angle_gamma 90.000000
_cell_volume 1462.777284
_symmetry_space_group_name_H-M "P 21/C"
_symmetry_group_IT_number 14
_symmetry_cell_setting 'monoclinic'
loop_
_space_group_symop_operation_xyz
x,y,z
-x,1/2+y,1/2-z
-x,-y,-z
x,1/2-y,1/2+z
loop_
_atom_site_type_symbol
_atom_site_label
_atom_site_fract_x
_atom_site_fract_y
_atom_site_fract_z
Si Si1 0.664880 0.895942 0.246227
Si Si2 0.531899 0.252558 0.782152
Si Si3 0.753937 0.737686 0.866366
Si Si4 0.341618 0.887309 0.566763
Si Si5 0.954836 0.472477 0.803922
Si Si6 0.409319 0.055890 0.300408
Si Si7 0.947937 0.642857 0.677251
Si Si8 0.750701 0.133029 0.159252
O O1 0.798786 0.833335 0.427316
O O2 0.833482 0.951022 0.479939
O O3 0.529491 0.900063 0.930301
O O4 0.475222 0.890246 0.087134
O O5 0.371617 0.247046 0.677910
O O6 0.398817 0.250595 0.467081
O O7 0.636650 0.317848 0.936834
O O8 0.699677 0.197732 0.032280
O O9 0.945699 0.786959 0.138232
O O10 0.403176 0.928196 0.537987
O O11 0.106237 0.892926 0.304327
O O12 0.818460 0.525769 0.558389
O O13 0.814764 0.413414 0.641920
O O14 0.000000 0.500000 0.000000
O O15 0.500000 0.000000 0.500000
O O16 0.303537 0.119540 0.192013
O O17 0.058732 0.637820 0.968801
#
# Coordination Sequence:
#
# PCOD9246850 Si02
#       8
#     4   4   4   4   4   4   4   4
#     4   9  21  42  63  98 128 166 225 282 325 403
#     4  10  22  42  69 100 141 179 222 289 347 402
#     4  10  22  41  67  99 143 176 224 284 347 409
#     4  10  21  42  67  93 134 175 216 283 344 390
#     4  12  23  41  71  90 124 185 227 265 337 409
#     4  12  27  46  63  94 139 180 225 285 339 410
#     4  11  23  42  68  97 133 182 223 282 349 402
#     4  10  23  40  66 100 130 171 228 283 338 401
#
# _framework density 21.876194999999999
#
# number of rings (size 3 to 8) (size 9 to 14) (size 15 to 20)
#    0.000    1.500    3.750    0.750    5.250    2.000 
#    6.750    0.000    0.000    0.000    0.000    0.000 
#    0.000    0.000    0.000    0.000    0.000    0.000 
#
# Total GULP energy -178505.573712 kJ/mol
# GULP energy per Si atom -5578.299178 kJ/mol
# Density = 2.182640 g / cm^3
# Si number density = 21.876195 Si / 1000 Ang^3
#
#
#
# Elastic Constant Matrix: (Units=GPa)
#
#
# Indices 1 2 3 4 5 6 
#
# 1 47.9270 2.3453 -7.7979 0.0000 13.6431 0.0000
# 2 2.3453 54.1438 4.7547 0.0000 3.2192 0.0000
# 3 -7.7979 4.7547 17.8356 0.0000 11.9935 0.0000
# 4 0.0000 0.0000 0.0000 48.0031 0.0000 3.5398
# 5 13.6431 3.2192 11.9935 0.0000 15.7690 0.0000
# 6 0.0000 0.0000 0.0000 3.5398 0.0000 42.7766
#
#
#
# Elastic Compliance Matrix: (Units=1/GPa)
#
#
# Indices 1 2 3 4 5 6 
#
# 1 -0.466039 0.038520 -0.982241 0.000000 1.142413 0.000000
# 2 0.038520 0.015728 0.076181 0.000000 -0.094479 0.000000
# 3 -0.982241 0.076181 -1.954122 0.000000 2.320522 0.000000
# 4 0.000000 0.000000 0.000000 0.020960 0.000000 -0.001734
# 5 1.142413 -0.094479 2.320522 0.000000 -2.670623 0.000000
# 6 0.000000 0.000000 0.000000 -0.001734 0.000000 0.023521
#
#
# Mechanical properties :
#
#
# Convention : Reuss Voigt Hill
#
# Bulk Modulus (GPa) = -0.24157 13.16784 6.46313
# Shear Modulus (GPa) = -1.06944 29.35005 14.14030
#
# Velocity S-wave (km/s) = -0.69994 3.66682 2.54516
# Velocity P-wave (km/s) = 0.87401 4.89487 3.40557
#
# Compressibility (1/GPa) = -4.13951364
#
# Stress axis : x y z
#
# Youngs Moduli (GPa) = -2.14574 63.57990 -0.51174
#
# Poissons Ratio (x) = -2.44910 -0.50265
# Poissons Ratio (y) = 0.08265 0.03898
# Poissons Ratio (z) = -2.10764 -4.84357
#
# Static dielectric constant tensor:
#      x y z
#    x 1.808390 0.000000 0.030300 
#    y 0.000000 1.895980 0.000000 
#    z 0.030300 0.000000 1.816440 
# 
# From -- ./inp_files/34456.got.cif
#   From: 2010.05.17/outbox.cif.g08.bks.cpg/sg14_18_cif.got.tgz:34456.got - 2010.06.03 17:49:19.
