data_PCOD9246932
_publ_section_title
;
Structure prediction by ZEFSAII (Michael W. Deem and Ramdas Pophale) SiO2 
 PCOD9246932
Probable space group: P 21/C
;
_chemical_formula_sum "Si O2"
_cell_formula_units_Z 28
_cell_length_a 8.906119
_cell_length_b 8.466139
_cell_length_c 22.699648
_cell_angle_alpha 90.000000
_cell_angle_beta 48.362901
_cell_angle_gamma 90.000000
_cell_volume 1279.167846
_symmetry_space_group_name_H-M "P 21/C"
_symmetry_group_IT_number 14
_symmetry_cell_setting 'monoclinic'
loop_
_space_group_symop_operation_xyz
x,y,z
-x,1/2+y,1/2-z
-x,-y,-z
x,1/2-y,1/2+z
loop_
_atom_site_type_symbol
_atom_site_label
_atom_site_fract_x
_atom_site_fract_y
_atom_site_fract_z
Si Si1 0.738497 0.322596 0.805023
Si Si2 0.485780 0.496560 0.653652
Si Si3 0.186659 0.980532 0.833257
Si Si4 0.984750 0.130256 0.452727
Si Si5 0.882521 0.684822 0.207412
Si Si6 0.398370 0.473124 0.964725
Si Si7 0.173316 0.349162 0.495295
O O1 0.647374 0.147677 0.829489
O O2 0.782100 0.354469 0.726124
O O3 0.566156 0.443516 0.871690
O O4 0.930634 0.339031 0.797348
O O5 0.610041 0.507865 0.682484
O O6 0.324071 0.359179 0.705913
O O7 0.665085 0.512895 0.559148
O O8 0.011436 0.911994 0.919687
O O9 0.122100 0.137375 0.815275
O O10 0.083476 0.091002 0.363640
O O11 0.089833 0.281379 0.454499
O O12 0.746217 0.123502 0.506262
O O13 0.000000 0.000000 0.500000
O O14 0.500000 0.500000 0.000000
O O15 0.275182 0.306676 0.997474
#
# Coordination Sequence:
#
# PCOD9246932 Si02
#       7
#     4   4   4   4   4   4   4
#     4  11  26  45  68 104 142 180 238 290 357 417
#     4  11  25  45  72  98 139 183 239 284 346 424
#     4  12  26  45  73 101 139 185 237 295 351 415
#     4  10  22  40  72 101 138 181 237 283 352 412
#     4  12  25  46  67 102 141 185 229 298 349 417
#     4  10  21  42  71 105 138 184 227 285 359 418
#     4  10  24  46  69 105 139 185 237 293 342 425
#
# _framework density 21.889230000000001
#
# number of rings (size 3 to 8) (size 9 to 14) (size 15 to 20)
#    0.000    1.143    2.857    2.143    8.000    2.286 
#    0.000    7.857    0.000    0.000    0.000    0.000 
#    0.000    0.000    0.000    0.000    0.000    0.000 
#
# Total GULP energy -156305.707880 kJ/mol
# GULP energy per Si atom -5582.346710 kJ/mol
# Density = 2.183941 g / cm^3
# Si number density = 21.889230 Si / 1000 Ang^3
#
#
#
# Elastic Constant Matrix: (Units=GPa)
#
#
# Indices 1 2 3 4 5 6 
#
# 1 123.7613 24.5892 40.6985 0.0000 -12.9609 0.0000
# 2 24.5892 51.1547 23.2384 0.0000 -11.8236 0.0000
# 3 40.6985 23.2384 102.4534 0.0000 -13.2593 0.0000
# 4 0.0000 0.0000 0.0000 39.2296 0.0000 -4.0065
# 5 -12.9609 -11.8236 -13.2593 0.0000 30.9865 0.0000
# 6 0.0000 0.0000 0.0000 -4.0065 0.0000 28.5576
#
#
#
# Elastic Compliance Matrix: (Units=1/GPa)
#
#
# Indices 1 2 3 4 5 6 
#
# 1 0.009839 -0.002968 -0.003016 0.000000 0.001692 0.000000
# 2 -0.002968 0.024028 -0.003435 0.000000 0.006457 0.000000
# 3 -0.003016 -0.003435 0.012074 0.000000 0.002594 0.000000
# 4 0.000000 0.000000 0.000000 0.025861 0.000000 0.003628
# 5 0.001692 0.006457 0.002594 0.000000 0.036554 0.000000
# 6 0.000000 0.000000 0.000000 0.003628 0.000000 0.035526
#
#
# Mechanical properties :
#
#
# Convention : Reuss Voigt Hill
#
# Bulk Modulus (GPa) = 36.89836 50.49131 43.69483
# Shear Modulus (GPa) = 29.11123 32.34429 30.72776
#
# Velocity S-wave (km/s) = 3.65078 3.84817 3.75078
# Velocity P-wave (km/s) = 5.88765 6.54686 6.22598
#
# Compressibility (1/GPa) = 0.02710148
#
# Stress axis : x y z
#
# Youngs Moduli (GPa) = 101.63795 41.61757 82.82543
#
# Poissons Ratio (x) = 0.12352 0.24982
# Poissons Ratio (y) = 0.30167 0.28454
# Poissons Ratio (z) = 0.30656 0.14297
#
# Static dielectric constant tensor:
#      x y z
#    x 1.640010 0.000000 -0.043580 
#    y 0.000000 1.762460 0.000000 
#    z -0.043580 0.000000 1.825000 
# 
# From -- ./inp_files/64959.got.cif
#   From: 2010.05.17/outbox.cif.g08.bks.cpg/sg14_33_cif.got.tgz:64959.got - 2010.06.03 17:49:19.
