data_PCOD9246731
_publ_section_title
;
Structure prediction by ZEFSAII (Michael W. Deem and Ramdas Pophale) SiO2 
 PCOD9246731
Probable space group: P 21/C
;
_chemical_formula_sum "Si O2"
_cell_formula_units_Z 16
_cell_length_a 5.098549
_cell_length_b 16.322332
_cell_length_c 9.474035
_cell_angle_alpha 90.000000
_cell_angle_beta 132.292873
_cell_angle_gamma 90.000000
_cell_volume 583.214215
_symmetry_space_group_name_H-M "P 21/C"
_symmetry_group_IT_number 14
_symmetry_cell_setting 'monoclinic'
loop_
_space_group_symop_operation_xyz
x,y,z
-x,1/2+y,1/2-z
-x,-y,-z
x,1/2-y,1/2+z
loop_
_atom_site_type_symbol
_atom_site_label
_atom_site_fract_x
_atom_site_fract_y
_atom_site_fract_z
Si Si1 0.986156 0.494854 0.826496
Si Si2 0.204309 0.075343 0.998492
Si Si3 0.308939 0.165258 0.458736
Si Si4 0.466020 0.774168 0.744011
O O1 0.961795 0.574881 0.719512
O O2 0.613009 0.452844 0.650859
O O3 0.289565 0.428286 0.900478
O O4 0.000000 0.500000 0.000000
O O5 0.230229 0.162752 0.085983
O O6 0.000000 0.000000 0.000000
O O7 0.905279 0.195544 0.328631
O O8 0.458708 0.184735 0.667335
O O9 0.512564 0.217516 0.415501
#
# Coordination Sequence:
#
# PCOD9246731 Si02
#       4
#     4   4   4   4
#     4  10  23  40  64  93 125 164 216 257 316 379
#     4  10  21  42  62  89 129 164 203 268 316 367
#     4  11  24  43  63  95 125 168 212 257 318 382
#     4  11  24  42  65  91 130 165 212 260 320 373
#
# _framework density 27.434173999999999
#
# number of rings (size 3 to 8) (size 9 to 14) (size 15 to 20)
#    0.000    1.500    2.500    1.500    3.500    3.000 
#    0.000    0.000    0.000    0.000    0.000    0.000 
#    0.000    0.000    0.000    0.000    0.000    0.000 
#
# Total GULP energy -89581.181798 kJ/mol
# GULP energy per Si atom -5598.823862 kJ/mol
# Density = 2.737173 g / cm^3
# Si number density = 27.434174 Si / 1000 Ang^3
#
#
#
# Elastic Constant Matrix: (Units=GPa)
#
#
# Indices 1 2 3 4 5 6 
#
# 1 92.9831 28.5248 18.2432 0.0000 -17.1504 0.0000
# 2 28.5248 67.9100 3.7699 0.0000 4.1154 0.0000
# 3 18.2432 3.7699 134.4476 0.0000 -25.7768 0.0000
# 4 0.0000 0.0000 0.0000 19.4429 0.0000 -21.8872
# 5 -17.1504 4.1154 -25.7768 0.0000 53.3809 0.0000
# 6 0.0000 0.0000 0.0000 -21.8872 0.0000 27.7012
#
#
#
# Elastic Compliance Matrix: (Units=1/GPa)
#
#
# Indices 1 2 3 4 5 6 
#
# 1 0.013543 -0.005910 -0.000827 0.000000 0.004407 0.000000
# 2 -0.005910 0.017433 -0.000340 0.000000 -0.003407 0.000000
# 3 -0.000827 -0.000340 0.008280 0.000000 0.003759 0.000000
# 4 0.000000 0.000000 0.000000 0.465214 0.000000 0.367573
# 5 0.004407 -0.003407 0.003759 0.000000 0.022227 0.000000
# 6 0.000000 0.000000 0.000000 0.367573 0.000000 0.326525
#
#
# Mechanical properties :
#
#
# Convention : Reuss Voigt Hill
#
# Bulk Modulus (GPa) = 39.83646 44.04627 41.94137
# Shear Modulus (GPa) = 5.70944 36.42521 21.06732
#
# Velocity S-wave (km/s) = 1.44418 3.64776 2.77415
# Velocity P-wave (km/s) = 4.16331 5.81650 5.05790
#
# Compressibility (1/GPa) = 0.02510263
#
# Stress axis : x y z
#
# Youngs Moduli (GPa) = 73.84035 57.36246 120.76906
#
# Poissons Ratio (x) = 0.33899 0.09987
# Poissons Ratio (y) = 0.43637 0.04108
# Poissons Ratio (z) = 0.06106 0.01951
#
# Static dielectric constant tensor:
#      x y z
#    x 5.115290 0.000000 0.610050 
#    y 0.000000 2.116970 0.000000 
#    z 0.610050 0.000000 2.259890 
# 
# From -- ./inp_files/5181.got.cif
#   From: 2010.05.17/outbox.cif.g08.bks.cpg/sg14_3_cif.got.tgz:5181.got - 2010.06.03 17:49:19.
