data_PCOD9246883
_publ_section_title
;
Structure prediction by ZEFSAII (Michael W. Deem and Ramdas Pophale) SiO2 
 PCOD9246883
Probable space group: P 21/C
;
_chemical_formula_sum "Si O2"
_cell_formula_units_Z 24
_cell_length_a 16.343765
_cell_length_b 8.246711
_cell_length_c 18.570800
_cell_angle_alpha 90.000000
_cell_angle_beta 152.879365
_cell_angle_gamma 90.000000
_cell_volume 1141.038269
_symmetry_space_group_name_H-M "P 21/C"
_symmetry_group_IT_number 14
_symmetry_cell_setting 'monoclinic'
loop_
_space_group_symop_operation_xyz
x,y,z
-x,1/2+y,1/2-z
-x,-y,-z
x,1/2-y,1/2+z
loop_
_atom_site_type_symbol
_atom_site_label
_atom_site_fract_x
_atom_site_fract_y
_atom_site_fract_z
Si Si1 0.190644 0.064566 0.680707
Si Si2 0.153405 0.568275 0.311397
Si Si3 0.495350 0.064469 0.665134
Si Si4 0.853156 0.060603 0.683881
Si Si5 0.517646 0.943598 0.844939
Si Si6 0.316192 0.067161 0.312794
O O1 0.179811 0.013633 0.755398
O O2 0.332354 0.972729 0.741043
O O3 0.270718 0.250022 0.749449
O O4 0.000000 0.000000 0.500000
O O5 0.112714 0.755544 0.268416
O O6 0.336984 0.544206 0.497516
O O7 0.002159 0.496370 0.244773
O O8 0.440737 0.252432 0.620450
O O9 0.334338 0.959528 0.505200
O O10 0.520445 0.005937 0.765717
O O11 0.666031 0.035783 0.746704
O O12 0.833108 0.965189 0.743244
O O13 0.500000 0.000000 0.500000
#
# Coordination Sequence:
#
# PCOD9246883 Si02
#       6
#     4   4   4   4   4   4
#     4  12  26  44  67  99 135 175 225 284 340 406
#     4  12  24  42  67  96 132 177 221 275 339 404
#     4  11  23  42  65  96 131 172 222 276 333 402
#     4  11  23  42  65  96 131 172 222 276 333 402
#     4  12  24  42  67  96 132 177 221 275 339 404
#     4  10  21  42  68  95 132 177 222 278 343 412
#
# _framework density 21.033474999999999
#
# number of rings (size 3 to 8) (size 9 to 14) (size 15 to 20)
#    0.000    0.667    0.000   10.500    0.000    2.667 
#    0.000    2.500    0.000    0.000    0.000    0.000 
#    0.000    0.000    0.000    0.000    0.000    0.000 
#
# Total GULP energy -133895.152048 kJ/mol
# GULP energy per Si atom -5578.964669 kJ/mol
# Density = 2.098560 g / cm^3
# Si number density = 21.033475 Si / 1000 Ang^3
#
#
#
# Elastic Constant Matrix: (Units=GPa)
#
#
# Indices 1 2 3 4 5 6 
#
# 1 171.2268 -4.2413 35.5028 0.0000 -9.4941 0.0000
# 2 -4.2413 99.5580 -14.2925 0.0000 -14.7754 0.0000
# 3 35.5028 -14.2925 63.2037 0.0000 -5.2548 0.0000
# 4 0.0000 0.0000 0.0000 29.9967 0.0000 2.0335
# 5 -9.4941 -14.7754 -5.2548 0.0000 115.1609 0.0000
# 6 0.0000 0.0000 0.0000 2.0335 0.0000 42.3633
#
#
#
# Elastic Compliance Matrix: (Units=1/GPa)
#
#
# Indices 1 2 3 4 5 6 
#
# 1 0.006630 -0.000203 -0.003741 0.000000 0.000350 0.000000
# 2 -0.000203 0.010633 0.002640 0.000000 0.001468 0.000000
# 3 -0.003741 0.002640 0.018593 0.000000 0.000879 0.000000
# 4 0.000000 0.000000 0.000000 0.033446 0.000000 -0.001605
# 5 0.000350 0.001468 0.000879 0.000000 0.008941 0.000000
# 6 0.000000 0.000000 0.000000 -0.001605 0.000000 0.023682
#
#
# Mechanical properties :
#
#
# Convention : Reuss Voigt Hill
#
# Bulk Modulus (GPa) = 30.07573 40.88073 35.47823
# Shear Modulus (GPa) = 43.24680 58.63881 50.94280
#
# Velocity S-wave (km/s) = 4.53934 5.28577 4.92671
# Velocity P-wave (km/s) = 6.46561 7.53198 7.01907
#
# Compressibility (1/GPa) = 0.03324940
#
# Stress axis : x y z
#
# Youngs Moduli (GPa) = 150.82322 94.04978 53.78248
#
# Poissons Ratio (x) = 0.01906 0.20121
# Poissons Ratio (y) = 0.03057 -0.14200
# Poissons Ratio (z) = 0.56424 -0.24832
#
# Static dielectric constant tensor:
#      x y z
#    x 1.859990 0.000000 0.085260 
#    y 0.000000 1.805510 0.000000 
#    z 0.085260 0.000000 1.817340 
# 
# From -- ./inp_files/59121.got.cif
#   From: 2010.05.17/outbox.cif.g08.bks.cpg/sg14_30_cif.got.tgz:59121.got - 2010.06.03 17:49:19.
