data_PCOD9246915
_publ_section_title
;
Structure prediction by ZEFSAII (Michael W. Deem and Ramdas Pophale) SiO2 
 PCOD9246915
Probable space group: P 21/C
;
_chemical_formula_sum "Si O2"
_cell_formula_units_Z 26
_cell_length_a 9.127960
_cell_length_b 22.292777
_cell_length_c 5.044039
_cell_angle_alpha 90.000000
_cell_angle_beta 114.749473
_cell_angle_gamma 90.000000
_cell_volume 932.121446
_symmetry_space_group_name_H-M "P 21/C"
_symmetry_group_IT_number 14
_symmetry_cell_setting 'monoclinic'
loop_
_space_group_symop_operation_xyz
x,y,z
-x,1/2+y,1/2-z
-x,-y,-z
x,1/2-y,1/2+z
loop_
_atom_site_type_symbol
_atom_site_label
_atom_site_fract_x
_atom_site_fract_y
_atom_site_fract_z
Si Si1 0.500000 0.000000 0.000000
Si Si2 0.723304 0.209187 0.883739
Si Si3 0.908150 0.440514 0.168495
Si Si4 0.210001 0.061825 0.504760
Si Si5 0.413566 0.886413 0.612951
Si Si6 0.063636 0.342433 0.586555
Si Si7 0.337903 0.291427 0.475409
O O1 0.622262 0.953773 0.235447
O O2 0.511036 0.048108 0.272582
O O3 0.685381 0.259123 0.632043
O O4 0.634506 0.148751 0.700370
O O5 0.918080 0.200651 0.050703
O O6 0.067207 0.444238 0.112743
O O7 0.962667 0.402487 0.456957
O O8 0.831846 0.502996 0.202731
O O9 0.768660 0.401342 0.916031
O O10 0.199363 0.128008 0.376716
O O11 0.533139 0.841695 0.852138
O O12 0.159974 0.317662 0.407637
O O13 0.351462 0.262258 0.199590
#
# Coordination Sequence:
#
# PCOD9246915 Si02
#       7
#     2   4   4   4   4   4   4
#     4  10  22  44  76 114 160 206 262 318 404 480
#     4  11  25  46  74 108 146 197 259 319 391 462
#     4   9  21  42  69 106 146 199 253 320 387 469
#     4  10  21  42  70 108 155 197 254 320 390 469
#     4  10  23  45  73 107 152 204 258 329 388 479
#     4  11  24  40  73 104 146 193 256 321 387 467
#     4  12  28  48  73 108 154 203 259 324 402 478
#
# _framework density 27.893360000000001
#
# number of rings (size 3 to 8) (size 9 to 14) (size 15 to 20)
#    0.000    1.538    0.000    3.231    8.615    0.000 
#    2.769    8.462    0.000    0.000    0.000    0.000 
#    0.000    0.000    0.000    0.000    0.000    0.000 
#
# Total GULP energy -144807.305350 kJ/mol
# GULP energy per Si atom -5569.511744 kJ/mol
# Density = 2.782987 g / cm^3
# Si number density = 27.893360 Si / 1000 Ang^3
#
#
#
# Elastic Constant Matrix: (Units=GPa)
#
#
# Indices 1 2 3 4 5 6 
#
# 1 80.5363 63.6380 37.0209 0.0000 -2.5294 0.0000
# 2 63.6380 150.8177 70.7503 0.0000 8.6539 0.0000
# 3 37.0209 70.7503 101.8746 0.0000 5.7862 0.0000
# 4 0.0000 0.0000 0.0000 73.6026 0.0000 21.9898
# 5 -2.5294 8.6539 5.7862 0.0000 37.6884 0.0000
# 6 0.0000 0.0000 0.0000 21.9898 0.0000 40.6210
#
#
#
# Elastic Compliance Matrix: (Units=1/GPa)
#
#
# Indices 1 2 3 4 5 6 
#
# 1 0.019288 -0.007345 -0.002096 0.000000 0.003303 0.000000
# 2 -0.007345 0.012687 -0.006001 0.000000 -0.002485 0.000000
# 3 -0.002096 -0.006001 0.014804 0.000000 -0.001036 0.000000
# 4 0.000000 0.000000 0.000000 0.016208 0.000000 -0.008774
# 5 0.003303 -0.002485 -0.001036 0.000000 0.027485 0.000000
# 6 0.000000 0.000000 0.000000 -0.008774 0.000000 0.029368
#
#
# Mechanical properties :
#
#
# Convention : Reuss Voigt Hill
#
# Bulk Modulus (GPa) = 62.90956 75.11632 69.01294
# Shear Modulus (GPa) = 32.04705 41.17036 36.60870
#
# Velocity S-wave (km/s) = 3.39324 3.84603 3.62671
# Velocity P-wave (km/s) = 6.16074 6.83454 6.50636
#
# Compressibility (1/GPa) = 0.01589583
#
# Stress axis : x y z
#
# Youngs Moduli (GPa) = 51.84685 78.81843 67.54935
#
# Poissons Ratio (x) = 0.57891 0.14157
# Poissons Ratio (y) = 0.38080 0.40536
# Poissons Ratio (z) = 0.10866 0.47299
#
# Static dielectric constant tensor:
#      x y z
#    x 2.282210 0.000000 0.055380 
#    y 0.000000 2.310980 0.000000 
#    z 0.055380 0.000000 2.272260 
# 
# From -- ./inp_files/3191.got.cif
#   From: 2010.05.17/outbox.cif.g08.bks.cpg/sg14_2_cif.got.tgz:3191.got - 2010.06.03 17:49:19.
