data_PCOD9246455
_publ_section_title
;
Structure prediction by ZEFSAII (Michael W. Deem and Ramdas Pophale) SiO2 
 PCOD9246455
Probable space group: P 21/C
;
_chemical_formula_sum "Si O2"
_cell_formula_units_Z 20
_cell_length_a 16.901808
_cell_length_b 11.459105
_cell_length_c 8.412165
_cell_angle_alpha 90.000000
_cell_angle_beta 150.830966
_cell_angle_gamma 90.000000
_cell_volume 794.083748
_symmetry_space_group_name_H-M "P 21/C"
_symmetry_group_IT_number 14
_symmetry_cell_setting 'monoclinic'
loop_
_space_group_symop_operation_xyz
x,y,z
-x,1/2+y,1/2-z
-x,-y,-z
x,1/2-y,1/2+z
loop_
_atom_site_type_symbol
_atom_site_label
_atom_site_fract_x
_atom_site_fract_y
_atom_site_fract_z
Si Si1 0.854361 0.407501 0.711942
Si Si2 0.428775 0.257217 0.724207
Si Si3 0.106709 0.659697 0.869649
Si Si4 0.592752 0.103017 0.249592
Si Si5 0.746633 0.607234 0.334520
O O1 0.905469 0.294899 0.700995
O O2 0.727317 0.483166 0.387012
O O3 0.810627 0.362973 0.811950
O O4 0.000000 0.500000 0.000000
O O5 0.502840 0.361672 0.751663
O O6 0.375583 0.151500 0.515587
O O7 0.276641 0.300267 0.562132
O O8 0.559891 0.215539 0.080723
O O9 0.924497 0.614472 0.571066
O O10 0.213954 0.592663 0.924714
O O11 0.500000 0.000000 0.000000
#
# Coordination Sequence:
#
# PCOD9246455 Si02
#       5
#     4   4   4   4   4
#     4  10  22  39  62  94 126 159 207 267 314 365
#     4  10  23  40  61  90 126 163 208 260 318 379
#     4  11  22  40  65  91 121 163 214 254 307 382
#     4  11  24  42  62  91 128 166 207 260 319 377
#     4  10  21  41  63  88 123 163 206 261 315 369
#
# _framework density 25.186260999999998
#
# number of rings (size 3 to 8) (size 9 to 14) (size 15 to 20)
#    0.000    1.600    0.000    4.800    0.000    8.000 
#    0.000   11.000    0.000    0.000    0.000    0.000 
#    0.000    0.000    0.000    0.000    0.000    0.000 
#
# Total GULP energy -111878.106914 kJ/mol
# GULP energy per Si atom -5593.905346 kJ/mol
# Density = 2.512894 g / cm^3
# Si number density = 25.186261 Si / 1000 Ang^3
#
#
#
# Elastic Constant Matrix: (Units=GPa)
#
#
# Indices 1 2 3 4 5 6 
#
# 1 92.9052 16.4156 46.8186 0.0000 32.5462 0.0000
# 2 16.4156 94.3010 22.7889 0.0000 -3.6848 0.0000
# 3 46.8186 22.7889 87.4734 0.0000 -2.3785 0.0000
# 4 0.0000 0.0000 0.0000 41.5685 0.0000 -23.0084
# 5 32.5462 -3.6848 -2.3785 0.0000 40.5115 0.0000
# 6 0.0000 0.0000 0.0000 -23.0084 0.0000 46.3691
#
#
#
# Elastic Compliance Matrix: (Units=1/GPa)
#
#
# Indices 1 2 3 4 5 6 
#
# 1 0.025610 -0.001971 -0.013780 0.000000 -0.021563 0.000000
# 2 -0.001971 0.011498 -0.001872 0.000000 0.002519 0.000000
# 3 -0.013780 -0.001872 0.019623 0.000000 0.012053 0.000000
# 4 0.000000 0.000000 0.000000 0.033166 0.000000 0.016457
# 5 -0.021563 0.002519 0.012053 0.000000 0.042944 0.000000
# 6 0.000000 0.000000 0.000000 0.016457 0.000000 0.029732
#
#
# Mechanical properties :
#
#
# Convention : Reuss Voigt Hill
#
# Bulk Modulus (GPa) = 46.54366 49.63617 48.08992
# Shear Modulus (GPa) = 24.39236 38.26692 31.32964
#
# Velocity S-wave (km/s) = 3.11542 3.90212 3.53075
# Velocity P-wave (km/s) = 5.60901 6.32870 5.97969
#
# Compressibility (1/GPa) = 0.02148520
#
# Stress axis : x y z
#
# Youngs Moduli (GPa) = 39.04697 86.96950 50.95995
#
# Poissons Ratio (x) = 0.17138 0.70225
# Poissons Ratio (y) = 0.07694 0.09542
# Poissons Ratio (z) = 0.53808 0.16284
#
# Static dielectric constant tensor:
#      x y z
#    x 2.022460 0.000000 -0.001690 
#    y 0.000000 1.992510 0.000000 
#    z -0.001690 0.000000 2.037120 
# 
# From -- ./inp_files/7835.got.cif
#   From: 2010.05.17/outbox.cif.g08.bks.cpg/sg14_4_cif.got.tgz:7835.got - 2010.06.03 17:49:19.
