data_PCOD9246777
_publ_section_title
;
Structure prediction by ZEFSAII (Michael W. Deem and Ramdas Pophale) SiO2 
 PCOD9246777
Probable space group: P 21/C
;
_chemical_formula_sum "Si O2"
_cell_formula_units_Z 16
_cell_length_a 7.678354
_cell_length_b 6.575747
_cell_length_c 15.503719
_cell_angle_alpha 90.000000
_cell_angle_beta 119.435838
_cell_angle_gamma 90.000000
_cell_volume 681.743002
_symmetry_space_group_name_H-M "P 21/C"
_symmetry_group_IT_number 14
_symmetry_cell_setting 'monoclinic'
loop_
_space_group_symop_operation_xyz
x,y,z
-x,1/2+y,1/2-z
-x,-y,-z
x,1/2-y,1/2+z
loop_
_atom_site_type_symbol
_atom_site_label
_atom_site_fract_x
_atom_site_fract_y
_atom_site_fract_z
Si Si1 0.004988 0.125244 0.589597
Si Si2 0.744555 0.206150 0.287352
Si Si3 0.395190 0.686848 0.924964
Si Si4 0.652514 0.559400 0.370917
O O1 0.181799 0.284656 0.620817
O O2 0.070803 0.947721 0.673090
O O3 0.000000 0.000000 0.500000
O O4 0.800727 0.233506 0.566946
O O5 0.705976 0.346914 0.194283
O O6 0.744001 0.340337 0.373086
O O7 0.545656 0.068457 0.236964
O O8 0.561709 0.857008 0.939483
O O9 0.500000 0.500000 0.000000
#
# Coordination Sequence:
#
# PCOD9246777 Si02
#       4
#     4   4   4   4
#     4  12  23  42  67  96 137 176 222 286 338 405
#     4  10  22  41  69  93 133 178 225 274 341 399
#     4  10  22  41  63  96 132 175 221 280 330 397
#     4  10  21  42  64  91 133 177 222 270 344 397
#
# _framework density 23.469252999999998
#
# number of rings (size 3 to 8) (size 9 to 14) (size 15 to 20)
#    1.500    0.000    5.000    0.000    3.500    1.000 
#    0.000    1.250    0.000    0.000    0.000    0.000 
#    0.000    0.000    0.000    0.000    0.000    0.000 
#
# Total GULP energy -89089.635847 kJ/mol
# GULP energy per Si atom -5568.102240 kJ/mol
# Density = 2.341584 g / cm^3
# Si number density = 23.469253 Si / 1000 Ang^3
#
#
#
# Elastic Constant Matrix: (Units=GPa)
#
#
# Indices 1 2 3 4 5 6 
#
# 1 162.3847 43.2496 24.1680 0.0000 -11.3636 0.0000
# 2 43.2496 75.0309 26.7157 0.0000 -0.6701 0.0000
# 3 24.1680 26.7157 86.7028 0.0000 -18.1513 0.0000
# 4 0.0000 0.0000 0.0000 22.7692 0.0000 -7.6671
# 5 -11.3636 -0.6701 -18.1513 0.0000 33.9610 0.0000
# 6 0.0000 0.0000 0.0000 -7.6671 0.0000 40.7313
#
#
#
# Elastic Compliance Matrix: (Units=1/GPa)
#
#
# Indices 1 2 3 4 5 6 
#
# 1 0.007475 -0.004172 -0.000329 0.000000 0.002243 0.000000
# 2 -0.004172 0.017481 -0.005003 0.000000 -0.003725 0.000000
# 3 -0.000329 -0.005003 0.014777 0.000000 0.007689 0.000000
# 4 0.000000 0.000000 0.000000 0.046891 0.000000 0.008827
# 5 0.002243 -0.003725 0.007689 0.000000 0.034232 0.000000
# 6 0.000000 0.000000 0.000000 0.008827 0.000000 0.026213
#
#
# Mechanical properties :
#
#
# Convention : Reuss Voigt Hill
#
# Bulk Modulus (GPa) = 48.25055 56.93166 52.59111
# Shear Modulus (GPa) = 28.90426 34.82464 31.86445
#
# Velocity S-wave (km/s) = 3.51319 3.85624 3.68871
# Velocity P-wave (km/s) = 6.08773 6.64365 6.37176
#
# Compressibility (1/GPa) = 0.02072515
#
# Stress axis : x y z
#
# Youngs Moduli (GPa) = 133.77487 57.20553 67.67443
#
# Poissons Ratio (x) = 0.23865 0.02224
# Poissons Ratio (y) = 0.55809 0.33860
# Poissons Ratio (z) = 0.04395 0.28622
#
# Static dielectric constant tensor:
#      x y z
#    x 1.797700 0.000000 -0.043740 
#    y 0.000000 1.890190 0.000000 
#    z -0.043740 0.000000 1.935370 
# 
# From -- ./inp_files/48343.got.cif
#   From: 2010.05.17/outbox.cif.g08.bks.cpg/sg14_25_cif.got.tgz:48343.got - 2010.06.03 17:49:19.
