data_PCOD9246314
_publ_section_title
;
Structure prediction by ZEFSAII (Michael W. Deem and Ramdas Pophale) SiO2 
 PCOD9246314
Probable space group: P 21/C
;
_chemical_formula_sum "Si O2"
_cell_formula_units_Z 20
_cell_length_a 11.439160
_cell_length_b 11.006244
_cell_length_c 7.571161
_cell_angle_alpha 90.000000
_cell_angle_beta 124.675758
_cell_angle_gamma 90.000000
_cell_volume 783.918374
_symmetry_space_group_name_H-M "P 21/C"
_symmetry_group_IT_number 14
_symmetry_cell_setting 'monoclinic'
loop_
_space_group_symop_operation_xyz
x,y,z
-x,1/2+y,1/2-z
-x,-y,-z
x,1/2-y,1/2+z
loop_
_atom_site_type_symbol
_atom_site_label
_atom_site_fract_x
_atom_site_fract_y
_atom_site_fract_z
Si Si1 0.874109 0.696259 0.271628
Si Si2 0.946595 0.124816 0.364160
Si Si3 0.651116 0.905332 0.027696
Si Si4 0.664190 0.103901 0.315132
Si Si5 0.334531 0.979955 0.315772
O O1 0.760084 0.595643 0.220126
O O2 0.007559 0.623199 0.298729
O O3 0.951124 0.766028 0.494069
O O4 0.773455 0.806503 0.111703
O O5 0.793724 0.153870 0.312285
O O6 0.000000 0.000000 0.500000
O O7 0.495215 0.848601 0.856860
O O8 0.671992 0.016443 0.903917
O O9 0.654448 0.965591 0.225532
O O10 0.703467 0.110737 0.555567
O O11 0.500000 0.000000 0.500000
#
# Coordination Sequence:
#
# PCOD9246314 Si02
#       5
#     4   4   4   4   4
#     4  12  22  42  69  96 136 185 228 281 355 413
#     4  12  24  44  66  98 144 179 229 294 345 416
#     4  10  21  41  71  95 125 182 228 274 350 405
#     4  10  22  45  65  96 137 172 222 295 337 400
#     4  10  21  40  67  97 127 173 233 284 336 410
#
# _framework density 25.51286
#
# number of rings (size 3 to 8) (size 9 to 14) (size 15 to 20)
#    0.000    1.200    6.000    0.000    0.000    0.000 
#   10.800    3.000    0.000    0.000    0.000    0.000 
#    0.000    0.000    0.000    0.000    0.000    0.000 
#
# Total GULP energy -111469.426553 kJ/mol
# GULP energy per Si atom -5573.471328 kJ/mol
# Density = 2.545479 g / cm^3
# Si number density = 25.512860 Si / 1000 Ang^3
#
#
#
# Elastic Constant Matrix: (Units=GPa)
#
#
# Indices 1 2 3 4 5 6 
#
# 1 168.4010 21.1407 32.4184 0.0000 27.1173 0.0000
# 2 21.1407 32.5351 6.9684 0.0000 9.0864 0.0000
# 3 32.4184 6.9684 45.3953 0.0000 12.0080 0.0000
# 4 0.0000 0.0000 0.0000 11.1201 0.0000 13.8303
# 5 27.1173 9.0864 12.0080 0.0000 45.9180 0.0000
# 6 0.0000 0.0000 0.0000 13.8303 0.0000 34.0827
#
#
#
# Elastic Compliance Matrix: (Units=1/GPa)
#
#
# Indices 1 2 3 4 5 6 
#
# 1 0.007599 -0.003273 -0.004199 0.000000 -0.002742 0.000000
# 2 -0.003273 0.034480 -0.001786 0.000000 -0.004423 0.000000
# 3 -0.004199 -0.001786 0.026377 0.000000 -0.004065 0.000000
# 4 0.000000 0.000000 0.000000 0.181553 0.000000 -0.073671
# 5 -0.002742 -0.004423 -0.004065 0.000000 0.025336 0.000000
# 6 0.000000 0.000000 0.000000 -0.073671 0.000000 0.059235
#
#
# Mechanical properties :
#
#
# Convention : Reuss Voigt Hill
#
# Bulk Modulus (GPa) = 20.02348 40.82071 30.42210
# Shear Modulus (GPa) = 13.52298 30.61111 22.06704
#
# Velocity S-wave (km/s) = 2.30477 3.46762 2.94417
# Velocity P-wave (km/s) = 3.86627 5.66280 4.84847
#
# Compressibility (1/GPa) = 0.04994136
#
# Stress axis : x y z
#
# Youngs Moduli (GPa) = 131.59813 29.00208 37.91228
#
# Poissons Ratio (x) = 0.09491 0.15919
# Poissons Ratio (y) = 0.43066 0.06770
# Poissons Ratio (z) = 0.55258 0.05179
#
# Static dielectric constant tensor:
#      x y z
#    x 2.027820 0.000000 -0.093240 
#    y 0.000000 1.667950 0.000000 
#    z -0.093240 0.000000 2.075730 
# 
# From -- ./inp_files/12166.got.cif
#   From: 2010.05.17/outbox.cif.g08.bks.cpg/sg14_7_cif.got.tgz:12166.got - 2010.06.03 17:49:19.
