data_PCOD9246177
_publ_section_title
;
Structure prediction by ZEFSAII (Michael W. Deem and Ramdas Pophale) SiO2 
 PCOD9246177
Probable space group: P 21/C
;
_chemical_formula_sum "Si O2"
_cell_formula_units_Z 32
_cell_length_a 6.062309
_cell_length_b 11.536502
_cell_length_c 26.330508
_cell_angle_alpha 90.000000
_cell_angle_beta 117.419908
_cell_angle_gamma 90.000000
_cell_volume 1634.616457
_symmetry_space_group_name_H-M "P 21/C"
_symmetry_group_IT_number 14
_symmetry_cell_setting 'monoclinic'
loop_
_space_group_symop_operation_xyz
x,y,z
-x,1/2+y,1/2-z
-x,-y,-z
x,1/2-y,1/2+z
loop_
_atom_site_type_symbol
_atom_site_label
_atom_site_fract_x
_atom_site_fract_y
_atom_site_fract_z
Si Si1 0.029782 0.678198 0.344169
Si Si2 0.830104 0.250004 0.750001
Si Si3 0.274784 0.864205 0.655043
Si Si4 0.345372 0.135796 0.655040
Si Si5 0.653092 0.821808 0.155828
Si Si6 0.233286 0.499997 0.616647
Si Si7 0.582026 0.705471 0.433105
Si Si8 0.849580 0.794525 0.066897
O O1 0.874244 0.793679 0.340472
O O2 0.866228 0.570871 0.345635
O O3 0.099720 0.677947 0.292668
O O4 0.287758 0.680843 0.402418
O O5 0.756785 0.330652 0.789323
O O6 0.599486 0.169362 0.710673
O O7 0.070939 0.177947 0.792675
O O8 0.512339 0.793665 0.659531
O O9 0.034033 0.810496 0.601227
O O10 0.300116 0.999999 0.650053
O O11 0.370827 0.189510 0.601222
O O12 0.678034 0.819150 0.097576
O O13 0.483703 0.929145 0.154364
O O14 0.288427 0.405870 0.579204
O O15 0.028371 0.594134 0.579214
O O16 0.693977 0.727059 0.500000
#
# Coordination Sequence:
#
# PCOD9246177 Si02
#       8
#     4   4   4   4   4   4   4   4
#     4  10  22  42  59  93 127 163 210 259 316 374
#     4  10  22  44  60  92 120 168 212 256 314 376
#     4  10  23  45  62  90 127 163 213 260 311 374
#     4  10  23  45  62  90 127 163 213 260 311 374
#     4  10  22  42  59  93 127 163 210 259 316 374
#     4  10  21  40  64  92 132 160 209 262 316 372
#     4  10  22  40  65  94 127 167 209 259 315 371
#     4  10  22  40  65  94 127 167 209 259 315 371
#
# _framework density 19.576457999999999
#
# number of rings (size 3 to 8) (size 9 to 14) (size 15 to 20)
#    0.000    2.000    0.000    1.875    0.000   10.500 
#   54.000    1.250    0.000    0.000    0.000    0.000 
#    0.000    0.000    0.000    0.000    0.000    0.000 
#
# Total GULP energy -178952.225826 kJ/mol
# GULP energy per Si atom -5592.257057 kJ/mol
# Density = 1.953190 g / cm^3
# Si number density = 19.576458 Si / 1000 Ang^3
#
#
#
# Elastic Constant Matrix: (Units=GPa)
#
#
# Indices 1 2 3 4 5 6 
#
# 1 134.1045 74.0215 66.3741 0.0000 1.8064 0.0000
# 2 74.0215 163.7907 76.1758 0.0000 -0.0878 0.0000
# 3 66.3741 76.1758 146.2367 0.0000 -2.2414 0.0000
# 4 0.0000 0.0000 0.0000 5.0915 0.0000 0.4365
# 5 1.8064 -0.0878 -2.2414 0.0000 5.6578 0.0000
# 6 0.0000 0.0000 0.0000 0.4365 0.0000 18.6210
#
#
#
# Elastic Compliance Matrix: (Units=1/GPa)
#
#
# Indices 1 2 3 4 5 6 
#
# 1 0.011069 -0.003475 -0.003288 0.000000 -0.004891 0.000000
# 2 -0.003475 0.009162 -0.003195 0.000000 -0.000014 0.000000
# 3 -0.003288 -0.003195 0.010072 0.000000 0.004990 0.000000
# 4 0.000000 0.000000 0.000000 0.196802 0.000000 -0.004613
# 5 -0.004891 -0.000014 0.004990 0.000000 0.180285 0.000000
# 6 0.000000 0.000000 0.000000 -0.004613 0.000000 0.053811
#
#
# Mechanical properties :
#
#
# Convention : Reuss Voigt Hill
#
# Bulk Modulus (GPa) = 96.30193 97.47495 96.88844
# Shear Modulus (GPa) = 10.31820 21.04476 15.68148
#
# Velocity S-wave (km/s) = 2.29829 3.28228 2.83333
# Velocity P-wave (km/s) = 7.50616 8.01652 7.76553
#
# Compressibility (1/GPa) = 0.01038401
#
# Stress axis : x y z
#
# Youngs Moduli (GPa) = 90.34500 109.14509 99.28745
#
# Poissons Ratio (x) = 0.37933 0.32650
# Poissons Ratio (y) = 0.31399 0.31726
# Poissons Ratio (z) = 0.29709 0.34876
#
# Static dielectric constant tensor:
#      x y z
#    x 1.698190 0.000000 0.001010 
#    y 0.000000 1.664240 0.000000 
#    z 0.001010 0.000000 1.667020 
# 
# From -- ./inp_files/75816.got.cif
#   From: 2010.05.17/outbox.cif.g08.bks.cpg/sg14_38_cif.got.tgz:75816.got - 2010.06.03 17:49:19.
