data_PCOD9246456
_publ_section_title
;
Structure prediction by ZEFSAII (Michael W. Deem and Ramdas Pophale) SiO2 
 PCOD9246456
Probable space group: P 21/C
;
_chemical_formula_sum "Si O2"
_cell_formula_units_Z 20
_cell_length_a 7.825304
_cell_length_b 14.448703
_cell_length_c 11.074485
_cell_angle_alpha 90.000000
_cell_angle_beta 39.195445
_cell_angle_gamma 90.000000
_cell_volume 791.313361
_symmetry_space_group_name_H-M "P 21/C"
_symmetry_group_IT_number 14
_symmetry_cell_setting 'monoclinic'
loop_
_space_group_symop_operation_xyz
x,y,z
-x,1/2+y,1/2-z
-x,-y,-z
x,1/2-y,1/2+z
loop_
_atom_site_type_symbol
_atom_site_label
_atom_site_fract_x
_atom_site_fract_y
_atom_site_fract_z
Si Si1 0.180033 0.709817 0.348435
Si Si2 0.989871 0.570397 0.619009
Si Si3 0.071317 0.602204 0.997098
Si Si4 0.481471 0.336913 0.619515
Si Si5 0.462566 0.865893 0.489480
O O1 0.107034 0.817439 0.376449
O O2 0.451614 0.698062 0.280475
O O3 0.226459 0.634854 0.218447
O O4 0.961639 0.668844 0.562632
O O5 0.000000 0.500000 0.500000
O O6 0.282006 0.585402 0.523541
O O7 0.736940 0.574915 0.849372
O O8 0.340314 0.605324 0.928837
O O9 0.000000 0.500000 0.000000
O O10 0.819818 0.628552 0.219656
O O11 0.500127 0.245957 0.527633
#
# Coordination Sequence:
#
# PCOD9246456 Si02
#       5
#     4   4   4   4   4
#     4   9  23  40  64  87 124 172 208 249 320 389
#     4  10  21  41  63  88 124 161 213 258 309 384
#     4  11  22  42  64  97 132 161 211 279 317 367
#     4   9  20  41  59  87 125 163 202 261 316 374
#     4  11  20  42  67  87 126 171 208 256 323 380
#
# _framework density 25.274439000000001
#
# number of rings (size 3 to 8) (size 9 to 14) (size 15 to 20)
#    1.200    0.800    2.000    1.200    0.000    4.000 
#    3.600    1.000    0.000    0.000    0.000    0.000 
#    0.000    0.000    0.000    0.000    0.000    0.000 
#
# Total GULP energy -111355.442782 kJ/mol
# GULP energy per Si atom -5567.772139 kJ/mol
# Density = 2.521691 g / cm^3
# Si number density = 25.274439 Si / 1000 Ang^3
#
#
#
# Elastic Constant Matrix: (Units=GPa)
#
#
# Indices 1 2 3 4 5 6 
#
# 1 39.2362 0.0158 9.5361 0.0000 -18.7786 0.0000
# 2 0.0158 100.0890 11.7677 0.0000 7.8530 0.0000
# 3 9.5361 11.7677 94.6653 0.0000 -13.5922 0.0000
# 4 0.0000 0.0000 0.0000 41.8841 0.0000 -0.1414
# 5 -18.7786 7.8530 -13.5922 0.0000 40.8882 0.0000
# 6 0.0000 0.0000 0.0000 -0.1414 0.0000 23.9283
#
#
#
# Elastic Compliance Matrix: (Units=1/GPa)
#
#
# Indices 1 2 3 4 5 6 
#
# 1 0.032904 -0.001058 -0.001033 0.000000 0.014971 0.000000
# 2 -0.001058 0.010420 -0.001623 0.000000 -0.003027 0.000000
# 3 -0.001033 -0.001623 0.011390 0.000000 0.003623 0.000000
# 4 0.000000 0.000000 0.000000 0.023876 0.000000 0.000141
# 5 0.014971 -0.003027 0.003623 0.000000 0.033119 0.000000
# 6 0.000000 0.000000 0.000000 0.000141 0.000000 0.041792
#
#
# Mechanical properties :
#
#
# Convention : Reuss Voigt Hill
#
# Bulk Modulus (GPa) = 21.14929 30.73663 25.94296
# Shear Modulus (GPa) = 28.29805 35.51817 31.90811
#
# Velocity S-wave (km/s) = 3.34972 3.75280 3.55697
# Velocity P-wave (km/s) = 4.83186 5.56467 5.21116
#
# Compressibility (1/GPa) = 0.04728291
#
# Stress axis : x y z
#
# Youngs Moduli (GPa) = 30.39184 95.97291 87.79897
#
# Poissons Ratio (x) = 0.10157 0.09073
# Poissons Ratio (y) = 0.03217 0.14252
# Poissons Ratio (z) = 0.03141 0.15579
#
# Static dielectric constant tensor:
#      x y z
#    x 1.908430 0.000000 -0.021320 
#    y 0.000000 2.112990 0.000000 
#    z -0.021320 0.000000 1.918560 
# 
# From -- ./inp_files/26223.got.cif
#   From: 2010.05.17/outbox.cif.g08.bks.cpg/sg14_14_cif.got.tgz:26223.got - 2010.06.03 17:49:19.
