data_PCOD9246596
_publ_section_title
;
Structure prediction by ZEFSAII (Michael W. Deem and Ramdas Pophale) SiO2 
 PCOD9246596
Probable space group: P 21/C
;
_chemical_formula_sum "Si O2"
_cell_formula_units_Z 28
_cell_length_a 8.099993
_cell_length_b 7.783915
_cell_length_c 28.523759
_cell_angle_alpha 90.000000
_cell_angle_beta 140.674025
_cell_angle_gamma 90.000000
_cell_volume 1139.711338
_symmetry_space_group_name_H-M "P 21/C"
_symmetry_group_IT_number 14
_symmetry_cell_setting 'monoclinic'
loop_
_space_group_symop_operation_xyz
x,y,z
-x,1/2+y,1/2-z
-x,-y,-z
x,1/2-y,1/2+z
loop_
_atom_site_type_symbol
_atom_site_label
_atom_site_fract_x
_atom_site_fract_y
_atom_site_fract_z
Si Si1 0.675717 0.686183 0.597624
Si Si2 0.518595 0.179308 0.531731
Si Si3 0.782656 0.645158 0.945448
Si Si4 0.032489 0.849286 0.825082
Si Si5 0.716162 0.764914 0.837566
Si Si6 0.476749 0.345996 0.843064
Si Si7 0.792747 0.133217 0.321462
O O1 0.495091 0.681925 0.512215
O O2 0.783508 0.510334 0.642133
O O3 0.506177 0.765415 0.602121
O O4 0.927926 0.796859 0.634518
O O5 0.291697 0.205181 0.519600
O O6 0.777427 0.195274 0.619325
O O7 0.500000 0.000000 0.500000
O O8 0.833883 0.778490 0.915398
O O9 0.540023 0.544857 0.867642
O O10 0.000000 0.500000 0.000000
O O11 0.865578 0.889886 0.834870
O O12 0.817928 0.818102 0.738810
O O13 0.415659 0.814893 0.764258
O O14 0.773538 0.571728 0.829207
O O15 0.671964 0.290162 0.844044
#
# Coordination Sequence:
#
# PCOD9246596 Si02
#       7
#     4   4   4   4   4   4   4
#     4  12  24  43  70  96 148 176 229 298 350 418
#     4  12  24  43  69  97 135 184 233 283 360 421
#     4  11  22  42  69 100 132 185 236 285 350 429
#     4  11  26  44  65 106 137 179 237 290 358 428
#     4  10  22  41  67  97 137 175 233 288 351 416
#     4  10  24  41  70 102 135 179 237 286 349 421
#     4  10  21  41  66  99 134 182 226 287 348 417
#
# _framework density 24.567625
#
# number of rings (size 3 to 8) (size 9 to 14) (size 15 to 20)
#    0.000    1.143    1.429    6.429    4.000    1.143 
#    2.571    0.714    0.000    0.000    0.000    0.000 
#    0.000    0.000    0.000    0.000    0.000    0.000 
#
# Total GULP energy -156422.502897 kJ/mol
# GULP energy per Si atom -5586.517961 kJ/mol
# Density = 2.451171 g / cm^3
# Si number density = 24.567625 Si / 1000 Ang^3
#
#
#
# Elastic Constant Matrix: (Units=GPa)
#
#
# Indices 1 2 3 4 5 6 
#
# 1 78.2388 -0.6851 23.0743 0.0000 -21.6486 0.0000
# 2 -0.6851 49.0278 -10.4358 0.0000 -0.8822 0.0000
# 3 23.0743 -10.4358 95.6654 0.0000 -9.0278 0.0000
# 4 0.0000 0.0000 0.0000 29.9968 0.0000 2.4986
# 5 -21.6486 -0.8822 -9.0278 0.0000 50.7909 0.0000
# 6 0.0000 0.0000 0.0000 2.4986 0.0000 24.4534
#
#
#
# Elastic Compliance Matrix: (Units=1/GPa)
#
#
# Indices 1 2 3 4 5 6 
#
# 1 0.015371 -0.000355 -0.003182 0.000000 0.005980 0.000000
# 2 -0.000355 0.020920 0.002428 0.000000 0.000644 0.000000
# 3 -0.003182 0.002428 0.011555 0.000000 0.000740 0.000000
# 4 0.000000 0.000000 0.000000 0.033623 0.000000 -0.003436
# 5 0.005980 0.000644 0.000740 0.000000 0.022380 0.000000
# 6 0.000000 0.000000 0.000000 -0.003436 0.000000 0.041245
#
#
# Mechanical properties :
#
#
# Convention : Reuss Voigt Hill
#
# Bulk Modulus (GPa) = 21.91540 27.42654 24.67097
# Shear Modulus (GPa) = 30.76511 35.11347 32.93929
#
# Velocity S-wave (km/s) = 3.54257 3.78465 3.66561
# Velocity P-wave (km/s) = 5.06684 5.50328 5.28956
#
# Compressibility (1/GPa) = 0.04563002
#
# Stress axis : x y z
#
# Youngs Moduli (GPa) = 65.05611 47.80088 86.54035
#
# Poissons Ratio (x) = 0.01696 0.27536
# Poissons Ratio (y) = 0.02309 -0.21016
# Poissons Ratio (z) = 0.20700 -0.11608
#
# Static dielectric constant tensor:
#      x y z
#    x 2.019250 0.000000 0.050430 
#    y 0.000000 2.001150 0.000000 
#    z 0.050430 0.000000 2.000070 
# 
# From -- ./inp_files/76497.got.cif
#   From: 2010.05.17/outbox.cif.g08.bks.cpg/sg14_39_cif.got.tgz:76497.got - 2010.06.03 17:49:19.
