data_PCOD9246916
_publ_section_title
;
Structure prediction by ZEFSAII (Michael W. Deem and Ramdas Pophale) SiO2 
 PCOD9246916
Probable space group: P 21/C
;
_chemical_formula_sum "Si O2"
_cell_formula_units_Z 28
_cell_length_a 18.780097
_cell_length_b 6.149753
_cell_length_c 14.053263
_cell_angle_alpha 90.000000
_cell_angle_beta 122.944891
_cell_angle_gamma 90.000000
_cell_volume 1362.056317
_symmetry_space_group_name_H-M "P 21/C"
_symmetry_group_IT_number 14
_symmetry_cell_setting 'monoclinic'
loop_
_space_group_symop_operation_xyz
x,y,z
-x,1/2+y,1/2-z
-x,-y,-z
x,1/2-y,1/2+z
loop_
_atom_site_type_symbol
_atom_site_label
_atom_site_fract_x
_atom_site_fract_y
_atom_site_fract_z
Si Si1 0.709660 0.451407 0.657306
Si Si2 0.720150 0.845767 0.531401
Si Si3 0.703261 0.700192 0.311089
Si Si4 0.131519 0.964658 0.016628
Si Si5 0.855518 0.195237 0.669384
Si Si6 0.596009 0.437092 0.091224
Si Si7 0.988669 0.287567 0.924573
O O1 0.709418 0.602747 0.563982
O O2 0.731092 0.618861 0.755804
O O3 0.785821 0.290071 0.691357
O O4 0.624617 0.315504 0.619003
O O5 0.694325 0.827176 0.403266
O O6 0.813278 0.956781 0.616309
O O7 0.653077 0.981363 0.544174
O O8 0.775700 0.521089 0.379175
O O9 0.625891 0.571717 0.205981
O O10 0.073171 0.850894 0.052364
O O11 0.138218 0.822590 0.926096
O O12 0.081583 0.192135 0.970280
O O13 0.941844 0.255083 0.788338
O O14 0.500000 0.500000 0.000000
O O15 0.000000 0.500000 0.000000
#
# Coordination Sequence:
#
# PCOD9246916 Si02
#       7
#     4   4   4   4   4   4   4
#     4  10  21  42  70  91 136 171 219 272 334 404
#     4  10  23  41  66 101 128 180 225 266 337 407
#     4  11  23  42  68  98 128 178 224 269 338 407
#     4  11  25  41  63  94 130 172 231 280 336 403
#     4  11  24  40  67  94 133 173 230 284 334 409
#     4  10  24  45  66 102 137 168 213 276 337 407
#     4  11  26  42  61  94 131 176 226 285 353 394
#
# _framework density 20.557154000000001
#
# number of rings (size 3 to 8) (size 9 to 14) (size 15 to 20)
#    0.000    1.429    1.429    3.429    8.000    3.429 
#    5.143    0.000    0.000    0.000    0.000    0.000 
#    0.000    0.000    0.000    0.000    0.000    0.000 
#
# Total GULP energy -155992.851555 kJ/mol
# GULP energy per Si atom -5571.173270 kJ/mol
# Density = 2.051036 g / cm^3
# Si number density = 20.557154 Si / 1000 Ang^3
#
#
#
# Elastic Constant Matrix: (Units=GPa)
#
#
# Indices 1 2 3 4 5 6 
#
# 1 32.2240 4.2463 26.2096 0.0000 2.5161 0.0000
# 2 4.2463 66.4460 27.3216 0.0000 3.7653 0.0000
# 3 26.2096 27.3216 142.1787 0.0000 9.6486 0.0000
# 4 0.0000 0.0000 0.0000 22.8555 0.0000 -3.9020
# 5 2.5161 3.7653 9.6486 0.0000 38.2908 0.0000
# 6 0.0000 0.0000 0.0000 -3.9020 0.0000 26.7031
#
#
#
# Elastic Compliance Matrix: (Units=1/GPa)
#
#
# Indices 1 2 3 4 5 6 
#
# 1 0.036541 0.000495 -0.006781 0.000000 -0.000741 0.000000
# 2 0.000495 0.016374 -0.003181 0.000000 -0.000841 0.000000
# 3 -0.006781 -0.003181 0.008997 0.000000 -0.001509 0.000000
# 4 0.000000 0.000000 0.000000 0.044873 0.000000 0.006557
# 5 -0.000741 -0.000841 -0.001509 0.000000 0.026628 0.000000
# 6 0.000000 0.000000 0.000000 0.006557 0.000000 0.038407
#
#
# Mechanical properties :
#
#
# Convention : Reuss Voigt Hill
#
# Bulk Modulus (GPa) = 23.26746 39.60041 31.43394
# Shear Modulus (GPa) = 24.38105 29.77464 27.07785
#
# Velocity S-wave (km/s) = 3.44759 3.80989 3.63326
# Velocity P-wave (km/s) = 5.21448 6.21764 5.73803
#
# Compressibility (1/GPa) = 0.04297848
#
# Stress axis : x y z
#
# Youngs Moduli (GPa) = 27.36675 61.07375 111.14835
#
# Poissons Ratio (x) = -0.03023 0.75368
# Poissons Ratio (y) = -0.01355 0.35352
# Poissons Ratio (z) = 0.18557 0.19425
#
# Static dielectric constant tensor:
#      x y z
#    x 1.706050 0.000000 0.000850 
#    y 0.000000 1.998620 0.000000 
#    z 0.000850 0.000000 1.774660 
# 
# From -- ./inp_files/49717.got.cif
#   From: 2010.05.17/outbox.cif.g08.bks.cpg/sg14_25_cif.got.tgz:49717.got - 2010.06.03 17:49:19.
