data_PCOD9246662
_publ_section_title
;
Structure prediction by ZEFSAII (Michael W. Deem and Ramdas Pophale) SiO2 
 PCOD9246662
Probable space group: P 21/C
;
_chemical_formula_sum "Si O2"
_cell_formula_units_Z 32
_cell_length_a 9.682472
_cell_length_b 12.420773
_cell_length_c 14.296411
_cell_angle_alpha 90.000000
_cell_angle_beta 116.023218
_cell_angle_gamma 90.000000
_cell_volume 1545.027474
_symmetry_space_group_name_H-M "P 21/C"
_symmetry_group_IT_number 14
_symmetry_cell_setting 'monoclinic'
loop_
_space_group_symop_operation_xyz
x,y,z
-x,1/2+y,1/2-z
-x,-y,-z
x,1/2-y,1/2+z
loop_
_atom_site_type_symbol
_atom_site_label
_atom_site_fract_x
_atom_site_fract_y
_atom_site_fract_z
Si Si1 0.736737 0.532149 0.519526
Si Si2 0.656798 0.879436 0.481735
Si Si3 0.313762 0.617748 0.957222
Si Si4 0.154631 0.221136 0.833076
Si Si5 0.737974 0.184142 0.921459
Si Si6 0.609290 0.635590 0.751814
Si Si7 0.420541 0.917662 0.850641
Si Si8 0.180648 0.727305 0.756850
O O1 0.851435 0.613669 0.603769
O O2 0.793495 0.430834 0.477129
O O3 0.646505 0.474768 0.577410
O O4 0.602748 0.595064 0.422178
O O5 0.493159 0.871634 0.485631
O O6 0.769630 0.809238 0.577806
O O7 0.637670 0.842411 0.368980
O O8 0.708800 0.004038 0.499710
O O9 0.260225 0.719659 0.002856
O O10 0.229236 0.624066 0.831994
O O11 0.319107 0.812149 0.809369
O O12 0.263979 0.189924 0.778174
O O13 0.985808 0.259682 0.754465
O O14 0.559133 0.170696 0.835573
O O15 0.831545 0.211166 0.856896
O O16 0.608130 0.505699 0.738198
#
# Coordination Sequence:
#
# PCOD9246662 Si02
#       8
#     4   4   4   4   4   4   4   4
#     4   9  19  38  66  85 121 161 218 259 299 363
#     4  11  23  43  65  97 133 165 213 270 320 377
#     4  11  23  42  67  97 131 164 213 277 313 372
#     4  11  25  42  61  96 134 172 206 264 317 386
#     4  11  21  40  69  97 120 168 218 261 315 378
#     4  10  21  41  69  94 119 173 223 252 317 384
#     4   9  18  37  66  89 115 167 215 260 293 378
#     4  12  24  39  64  98 134 165 209 261 331 380
#
# _framework density 20.711607999999998
#
# number of rings (size 3 to 8) (size 9 to 14) (size 15 to 20)
#    0.000    1.500    3.750    2.250    0.000    3.500 
#    2.250    1.875    0.000    0.000    0.000    0.000 
#    0.000    0.000    0.000    0.000    0.000    0.000 
#
# Total GULP energy -178645.952686 kJ/mol
# GULP energy per Si atom -5582.686021 kJ/mol
# Density = 2.066447 g / cm^3
# Si number density = 20.711608 Si / 1000 Ang^3
#
#
#
# Elastic Constant Matrix: (Units=GPa)
#
#
# Indices 1 2 3 4 5 6 
#
# 1 41.4977 12.9569 -2.5754 0.0000 -11.8498 0.0000
# 2 12.9569 79.4788 32.7343 0.0000 -15.0042 0.0000
# 3 -2.5754 32.7343 51.0500 0.0000 -18.4964 0.0000
# 4 0.0000 0.0000 0.0000 15.5923 0.0000 -5.2542
# 5 -11.8498 -15.0042 -18.4964 0.0000 23.9077 0.0000
# 6 0.0000 0.0000 0.0000 -5.2542 0.0000 2.6282
#
#
#
# Elastic Compliance Matrix: (Units=1/GPa)
#
#
# Indices 1 2 3 4 5 6 
#
# 1 0.034164 -0.007240 0.015083 0.000000 0.024059 0.000000
# 2 -0.007240 0.018801 -0.013125 0.000000 -0.001943 0.000000
# 3 0.015083 -0.013125 0.039586 0.000000 0.029865 0.000000
# 4 0.000000 0.000000 0.000000 0.196533 0.000000 0.392903
# 5 0.024059 -0.001943 0.029865 0.000000 0.075638 0.000000
# 6 0.000000 0.000000 0.000000 0.392903 0.000000 1.165972
#
#
# Mechanical properties :
#
#
# Convention : Reuss Voigt Hill
#
# Bulk Modulus (GPa) = 12.19692 28.69534 20.44613
# Shear Modulus (GPa) = 3.18758 17.01967 10.10363
#
# Velocity S-wave (km/s) = 1.24192 2.86972 2.21107
# Velocity P-wave (km/s) = 2.82103 4.98650 4.05114
#
# Compressibility (1/GPa) = 0.08198794
#
# Stress axis : x y z
#
# Youngs Moduli (GPa) = 29.27023 53.18850 25.26133
#
# Poissons Ratio (x) = 0.38507 -0.38101
# Poissons Ratio (y) = 0.21191 0.33155
# Poissons Ratio (z) = -0.44148 0.69810
#
# Static dielectric constant tensor:
#      x y z
#    x 1.723930 0.000000 0.004410 
#    y 0.000000 1.773960 0.000000 
#    z 0.004410 0.000000 1.762870 
# 
# From -- ./inp_files/41228.got.cif
#   From: 2010.05.17/outbox.cif.g08.bks.cpg/sg14_21_cif.got.tgz:41228.got - 2010.06.03 17:49:19.
