data_PCOD9246559
_publ_section_title
;
Structure prediction by ZEFSAII (Michael W. Deem and Ramdas Pophale) SiO2 
 PCOD9246559
Probable space group: P 21/C
;
_chemical_formula_sum "Si O2"
_cell_formula_units_Z 28
_cell_length_a 20.942641
_cell_length_b 5.095673
_cell_length_c 19.036200
_cell_angle_alpha 90.000000
_cell_angle_beta 150.873232
_cell_angle_gamma 90.000000
_cell_volume 988.811385
_symmetry_space_group_name_H-M "P 21/C"
_symmetry_group_IT_number 14
_symmetry_cell_setting 'monoclinic'
loop_
_space_group_symop_operation_xyz
x,y,z
-x,1/2+y,1/2-z
-x,-y,-z
x,1/2-y,1/2+z
loop_
_atom_site_type_symbol
_atom_site_label
_atom_site_fract_x
_atom_site_fract_y
_atom_site_fract_z
Si Si1 0.676305 0.861354 0.271510
Si Si2 0.769015 0.325293 0.736090
Si Si3 0.523034 0.981647 0.859872
Si Si4 0.698308 0.353701 0.402631
Si Si5 0.045236 0.220308 0.968403
Si Si6 0.255901 0.329812 0.888039
Si Si7 0.982476 0.224431 0.653910
O O1 0.688245 0.614112 0.346411
O O2 0.809853 0.748699 0.363061
O O3 0.691005 0.133333 0.232186
O O4 0.515653 0.843947 0.110873
O O5 0.753334 0.574674 0.669869
O O6 0.745520 0.083294 0.660547
O O7 0.923818 0.283051 0.900971
O O8 0.363842 0.908080 0.696050
O O9 0.601281 0.127468 0.875196
O O10 0.602941 0.715183 0.941389
O O11 0.848552 0.288469 0.567103
O O12 0.034975 0.436201 0.895165
O O13 0.026650 0.938097 0.916460
O O14 0.131403 0.287332 0.821373
#
# Coordination Sequence:
#
# PCOD9246559 Si02
#       7
#     4   4   4   4   4   4   4
#     4   9  21  38  64 100 130 177 217 275 336 392
#     4  10  21  41  65  98 137 171 216 270 334 407
#     4  10  23  42  63  96 133 174 223 276 327 398
#     4   9  22  40  62  93 124 172 221 271 318 387
#     4   9  18  35  63  96 130 167 215 265 319 388
#     4  10  23  43  65  99 134 172 214 272 337 401
#     4   9  19  39  65  91 128 167 216 266 323 387
#
# _framework density 28.316822999999999
#
# number of rings (size 3 to 8) (size 9 to 14) (size 15 to 20)
#    0.857    1.714    0.000    0.429    2.000    4.571 
#    0.000   14.286    0.000    0.000    0.000    0.000 
#    0.000    0.000    0.000    0.000    0.000    0.000 
#
# Total GULP energy -156053.433140 kJ/mol
# GULP energy per Si atom -5573.336898 kJ/mol
# Density = 2.825237 g / cm^3
# Si number density = 28.316823 Si / 1000 Ang^3
#
#
#
# Elastic Constant Matrix: (Units=GPa)
#
#
# Indices 1 2 3 4 5 6 
#
# 1 150.8803 49.2207 50.9232 0.0000 51.6622 0.0000
# 2 49.2207 184.5963 25.0899 0.0000 -11.7590 0.0000
# 3 50.9232 25.0899 128.4740 0.0000 62.0123 0.0000
# 4 0.0000 0.0000 0.0000 37.2498 0.0000 -8.8868
# 5 51.6622 -11.7590 62.0123 0.0000 49.6841 0.0000
# 6 0.0000 0.0000 0.0000 -8.8868 0.0000 54.9027
#
#
#
# Elastic Compliance Matrix: (Units=1/GPa)
#
#
# Indices 1 2 3 4 5 6 
#
# 1 0.016894 -0.008064 0.010763 0.000000 -0.032909 0.000000
# 2 -0.008064 0.010478 -0.010299 0.000000 0.023719 0.000000
# 3 0.010763 -0.010299 0.030455 0.000000 -0.051641 0.000000
# 4 0.000000 0.000000 0.000000 0.027924 0.000000 0.004520
# 5 -0.032909 0.023719 -0.051641 0.000000 0.124415 0.000000
# 6 0.000000 0.000000 0.000000 0.004520 0.000000 0.018946
#
#
# Mechanical properties :
#
#
# Convention : Reuss Voigt Hill
#
# Bulk Modulus (GPa) = 23.45870 79.37981 51.41926
# Shear Modulus (GPa) = 19.34082 50.94845 35.14463
#
# Velocity S-wave (km/s) = 2.61629 4.24633 3.52678
# Velocity P-wave (km/s) = 4.17480 7.22048 5.89764
#
# Compressibility (1/GPa) = 0.04262811
#
# Stress axis : x y z
#
# Youngs Moduli (GPa) = 59.19289 95.43723 32.83512
#
# Poissons Ratio (x) = 0.76959 -0.35341
# Poissons Ratio (y) = 0.47732 0.33816
# Poissons Ratio (z) = -0.63710 0.98290
#
# Static dielectric constant tensor:
#      x y z
#    x 2.134160 0.000000 -0.083110 
#    y 0.000000 2.254520 0.000000 
#    z -0.083110 0.000000 2.467490 
# 
# From -- ./inp_files/74505.got.cif
#   From: 2010.05.17/outbox.cif.g08.bks.cpg/sg14_38_cif.got.tgz:74505.got - 2010.06.03 17:49:19.
