data_PCOD9246114
_publ_section_title
;
Structure prediction by ZEFSAII (Michael W. Deem and Ramdas Pophale) SiO2 
 PCOD9246114
Probable space group: P 21/C
;
_chemical_formula_sum "Si O2"
_cell_formula_units_Z 32
_cell_length_a 22.121371
_cell_length_b 5.134572
_cell_length_c 11.946618
_cell_angle_alpha 90.000000
_cell_angle_beta 111.981798
_cell_angle_gamma 90.000000
_cell_volume 1258.296077
_symmetry_space_group_name_H-M "P 21/C"
_symmetry_group_IT_number 14
_symmetry_cell_setting 'monoclinic'
loop_
_space_group_symop_operation_xyz
x,y,z
-x,1/2+y,1/2-z
-x,-y,-z
x,1/2-y,1/2+z
loop_
_atom_site_type_symbol
_atom_site_label
_atom_site_fract_x
_atom_site_fract_y
_atom_site_fract_z
Si Si1 0.269417 0.522649 0.289408
Si Si2 0.940755 0.304786 0.305213
Si Si3 0.491326 0.143752 0.816370
Si Si4 0.844878 0.342567 0.394112
Si Si5 0.628694 0.257930 0.470657
Si Si6 0.838847 0.596117 0.626916
Si Si7 0.063427 0.037440 0.419012
Si Si8 0.647455 0.744227 0.831387
O O1 0.219287 0.734008 0.206886
O O2 0.327511 0.671277 0.392991
O O3 0.226938 0.363036 0.350392
O O4 0.293397 0.338885 0.206241
O O5 0.893282 0.499333 0.344096
O O6 0.969951 0.370243 0.201946
O O7 0.007031 0.231996 0.416921
O O8 0.887806 0.087237 0.230272
O O9 0.505719 0.345673 0.723310
O O10 0.551425 0.200544 0.940032
O O11 0.417189 0.214839 0.791562
O O12 0.824676 0.459716 0.498154
O O13 0.897815 0.120235 0.462390
O O14 0.646750 0.472964 0.387500
O O15 0.640327 0.973661 0.424864
O O16 0.878327 0.840608 0.612236
#
# Coordination Sequence:
#
# PCOD9246114 Si02
#       8
#     4   4   4   4   4   4   4   4
#     4  11  24  42  63  89 128 174 211 264 316 397
#     4  10  21  40  63  89 116 152 204 259 323 382
#     4   8  16  35  64  94 130 166 214 274 322 373
#     4  10  24  41  60  90 120 163 209 261 317 384
#     4  10  22  42  67  98 133 173 222 271 321 388
#     4  10  23  42  60  90 120 157 208 260 313 384
#     4  11  21  40  64  87 121 156 203 264 321 383
#     4  10  22  42  66  98 132 175 219 271 330 381
#
# _framework density 25.431218000000001
#
# number of rings (size 3 to 8) (size 9 to 14) (size 15 to 20)
#    0.000    2.000    1.250    1.125    1.750    4.000 
#    9.000    0.000    0.000    9.000    0.000    0.000 
#    0.000    0.000    0.000    0.000    0.000    0.000 
#
# Total GULP energy -178840.100816 kJ/mol
# GULP energy per Si atom -5588.753151 kJ/mol
# Density = 2.537334 g / cm^3
# Si number density = 25.431218 Si / 1000 Ang^3
#
#
#
# Elastic Constant Matrix: (Units=GPa)
#
#
# Indices 1 2 3 4 5 6 
#
# 1 69.0514 0.2553 35.7064 0.0000 13.1694 0.0000
# 2 0.2553 54.4813 19.5620 0.0000 2.0913 0.0000
# 3 35.7064 19.5620 102.5796 0.0000 32.3256 0.0000
# 4 0.0000 0.0000 0.0000 87.9559 0.0000 -38.2080
# 5 13.1694 2.0913 32.3256 0.0000 46.8813 0.0000
# 6 0.0000 0.0000 0.0000 -38.2080 0.0000 52.0493
#
#
#
# Elastic Compliance Matrix: (Units=1/GPa)
#
#
# Indices 1 2 3 4 5 6 
#
# 1 0.017946 0.002262 -0.006462 0.000000 -0.000687 0.000000
# 2 0.002262 0.020166 -0.005301 0.000000 0.002120 0.000000
# 3 -0.006462 -0.005301 0.015794 0.000000 -0.008839 0.000000
# 4 0.000000 0.000000 0.000000 0.016692 0.000000 0.012253
# 5 -0.000687 0.002120 -0.008839 0.000000 0.027523 0.000000
# 6 0.000000 0.000000 0.000000 0.012253 0.000000 0.028207
#
#
# Mechanical properties :
#
#
# Convention : Reuss Voigt Hill
#
# Bulk Modulus (GPa) = 28.64933 37.46220 33.05576
# Shear Modulus (GPa) = 31.85408 48.74987 40.30197
#
# Velocity S-wave (km/s) = 3.54299 4.38303 3.98520
# Velocity P-wave (km/s) = 5.29404 6.35432 5.84826
#
# Compressibility (1/GPa) = 0.03490484
#
# Stress axis : x y z
#
# Youngs Moduli (GPa) = 55.72292 49.58725 63.31485
#
# Poissons Ratio (x) = -0.11219 0.40913
# Poissons Ratio (y) = -0.12607 0.33566
# Poissons Ratio (z) = 0.36007 0.26288
#
# Static dielectric constant tensor:
#      x y z
#    x 2.039340 0.000000 -0.162460 
#    y 0.000000 2.172720 0.000000 
#    z -0.162460 0.000000 2.460760 
# 
# From -- ./inp_files/35609.got.cif
#   From: 2010.05.17/outbox.cif.g08.bks.cpg/sg14_18_cif.got.tgz:35609.got - 2010.06.03 17:49:19.
