data_PCOD9246793
_publ_section_title
;
Structure prediction by ZEFSAII (Michael W. Deem and Ramdas Pophale) SiO2 
 PCOD9246793
Probable space group: P 21/C
;
_chemical_formula_sum "Si O2"
_cell_formula_units_Z 28
_cell_length_a 12.771446
_cell_length_b 9.762891
_cell_length_c 8.592578
_cell_angle_alpha 90.000000
_cell_angle_beta 106.995032
_cell_angle_gamma 90.000000
_cell_volume 1024.589314
_symmetry_space_group_name_H-M "P 21/C"
_symmetry_group_IT_number 14
_symmetry_cell_setting 'monoclinic'
loop_
_space_group_symop_operation_xyz
x,y,z
-x,1/2+y,1/2-z
-x,-y,-z
x,1/2-y,1/2+z
loop_
_atom_site_type_symbol
_atom_site_label
_atom_site_fract_x
_atom_site_fract_y
_atom_site_fract_z
Si Si1 0.820013 0.382649 0.800812
Si Si2 0.969738 0.277653 0.607389
Si Si3 0.557098 0.785436 0.582153
Si Si4 0.339082 0.653281 0.814798
Si Si5 0.764842 0.570084 0.037679
Si Si6 0.882806 0.848306 0.099870
Si Si7 0.365159 0.062083 0.073684
O O1 0.707800 0.304490 0.718783
O O2 0.789707 0.521232 0.874826
O O3 0.901086 0.377388 0.689868
O O4 0.882915 0.289829 0.953400
O O5 0.055113 0.356697 0.536333
O O6 0.026992 0.151320 0.723671
O O7 0.440953 0.840515 0.475188
O O8 0.648307 0.859290 0.514183
O O9 0.572616 0.624367 0.549480
O O10 0.589635 0.838791 0.766847
O O11 0.370876 0.584673 0.663674
O O12 0.244519 0.558783 0.850435
O O13 0.851729 0.686323 0.110766
O O14 0.763397 0.916194 0.025139
#
# Coordination Sequence:
#
# PCOD9246793 Si02
#       7
#     4   4   4   4   4   4   4
#     4  11  23  42  58  95 130 161 214 255 318 368
#     4  10  22  40  63  92 121 168 207 259 311 370
#     4  10  23  39  71  91 128 165 213 245 324 374
#     4  11  23  40  66  93 132 164 208 259 311 374
#     4  10  21  42  65  90 123 171 202 257 313 378
#     4  10  21  43  67  89 126 162 220 254 313 372
#     4  10  21  43  63  97 121 167 208 263 307 375
#
# _framework density 27.328019999999999
#
# number of rings (size 3 to 8) (size 9 to 14) (size 15 to 20)
#    0.000    1.714    1.429    4.286    4.000    2.286 
#   12.857    2.857    0.000    0.000    0.000    0.000 
#    0.000    0.000    0.000    0.000    0.000    0.000 
#
# Total GULP energy -156858.474061 kJ/mol
# GULP energy per Si atom -5602.088359 kJ/mol
# Density = 2.726582 g / cm^3
# Si number density = 27.328020 Si / 1000 Ang^3
#
#
#
# Elastic Constant Matrix: (Units=GPa)
#
#
# Indices 1 2 3 4 5 6 
#
# 1 80.8741 -9.0828 24.5295 0.0000 -15.5906 0.0000
# 2 -9.0828 39.3698 -23.9782 0.0000 1.6253 0.0000
# 3 24.5295 -23.9782 95.7154 0.0000 13.0262 0.0000
# 4 0.0000 0.0000 0.0000 34.3252 0.0000 -2.3825
# 5 -15.5906 1.6253 13.0262 0.0000 54.2414 0.0000
# 6 0.0000 0.0000 0.0000 -2.3825 0.0000 39.8059
#
#
#
# Elastic Compliance Matrix: (Units=1/GPa)
#
#
# Indices 1 2 3 4 5 6 
#
# 1 0.014767 0.000527 -0.004371 0.000000 0.005278 0.000000
# 2 0.000527 0.030407 0.007842 0.000000 -0.002643 0.000000
# 3 -0.004371 0.007842 0.014199 0.000000 -0.004901 0.000000
# 4 0.000000 0.000000 0.000000 0.029255 0.000000 0.001751
# 5 0.005278 -0.002643 -0.004901 0.000000 0.021210 0.000000
# 6 0.000000 0.000000 0.000000 0.001751 0.000000 0.025227
#
#
# Mechanical properties :
#
#
# Convention : Reuss Voigt Hill
#
# Bulk Modulus (GPa) = 14.84339 22.09960 18.47149
# Shear Modulus (GPa) = 33.43920 40.64056 37.03988
#
# Velocity S-wave (km/s) = 3.50183 3.86053 3.68554
# Velocity P-wave (km/s) = 4.66838 5.28923 4.98847
#
# Compressibility (1/GPa) = 0.06737006
#
# Stress axis : x y z
#
# Youngs Moduli (GPa) = 67.71702 32.88708 70.42563
#
# Poissons Ratio (x) = -0.01733 0.30782
# Poissons Ratio (y) = -0.03568 -0.55228
# Poissons Ratio (z) = 0.29598 -0.25790
#
# Static dielectric constant tensor:
#      x y z
#    x 2.062200 0.000000 -0.045550 
#    y 0.000000 2.381980 0.000000 
#    z -0.045550 0.000000 2.136510 
# 
# From -- ./inp_files/15580.got.cif
#   From: 2010.05.17/outbox.cif.g08.bks.cpg/sg14_8_cif.got.tgz:15580.got - 2010.06.03 17:49:19.
