data_PCOD9246107
_publ_section_title
;
Structure prediction by ZEFSAII (Michael W. Deem and Ramdas Pophale) SiO2 
 PCOD9246107
Probable space group: P 21/C
;
_chemical_formula_sum "Si O2"
_cell_formula_units_Z 20
_cell_length_a 15.738473
_cell_length_b 6.573352
_cell_length_c 23.383362
_cell_angle_alpha 90.000000
_cell_angle_beta 23.233557
_cell_angle_gamma 90.000000
_cell_volume 954.292702
_symmetry_space_group_name_H-M "P 21/C"
_symmetry_group_IT_number 14
_symmetry_cell_setting 'monoclinic'
loop_
_space_group_symop_operation_xyz
x,y,z
-x,1/2+y,1/2-z
-x,-y,-z
x,1/2-y,1/2+z
loop_
_atom_site_type_symbol
_atom_site_label
_atom_site_fract_x
_atom_site_fract_y
_atom_site_fract_z
Si Si1 0.783879 0.446349 0.666459
Si Si2 0.604762 0.440801 0.329988
Si Si3 0.333253 0.094844 0.557482
Si Si4 0.092137 0.266502 0.307208
Si Si5 0.373520 0.676683 0.921150
O O1 0.743457 0.210900 0.704641
O O2 0.814047 0.563400 0.708195
O O3 0.564700 0.541550 0.775683
O O4 0.000000 0.500000 0.500000
O O5 0.440745 0.298014 0.465706
O O6 0.760399 0.568172 0.275240
O O7 0.475943 0.606893 0.373394
O O8 0.121771 0.149352 0.724756
O O9 0.500000 0.000000 0.500000
O O10 0.308019 0.942028 0.520156
O O11 0.848411 0.212935 0.474105
#
# Coordination Sequence:
#
# PCOD9246107 Si02
#       5
#     4   4   4   4   4
#     4  10  23  46  62  85 123 163 214 260 308 365
#     4  10  21  40  63  81 128 163 196 255 312 358
#     4  11  20  37  59  88 127 162 201 247 307 382
#     4  11  23  38  61  94 122 163 209 253 312 370
#     4  10  24  38  59  98 120 159 212 246 316 375
#
# _framework density 20.957930000000001
#
# number of rings (size 3 to 8) (size 9 to 14) (size 15 to 20)
#    0.000    1.600    6.000    0.600    2.800    6.400 
#    7.200    0.000    0.000    0.000    0.000    0.000 
#    0.000    0.000    0.000    0.000    0.000    0.000 
#
# Total GULP energy -111698.228735 kJ/mol
# GULP energy per Si atom -5584.911437 kJ/mol
# Density = 2.091023 g / cm^3
# Si number density = 20.957930 Si / 1000 Ang^3
#
#
#
# Elastic Constant Matrix: (Units=GPa)
#
#
# Indices 1 2 3 4 5 6 
#
# 1 7.2029 8.8216 2.1343 0.0000 -8.7188 0.0000
# 2 8.8216 123.4488 17.6997 0.0000 4.2888 0.0000
# 3 2.1343 17.6997 108.8905 0.0000 7.7263 0.0000
# 4 0.0000 0.0000 0.0000 22.1843 0.0000 -2.1686
# 5 -8.7188 4.2888 7.7263 0.0000 40.3861 0.0000
# 6 0.0000 0.0000 0.0000 -2.1686 0.0000 7.8631
#
#
#
# Elastic Compliance Matrix: (Units=1/GPa)
#
#
# Indices 1 2 3 4 5 6 
#
# 1 0.222699 -0.016933 -0.005222 0.000000 0.050875 0.000000
# 2 -0.016933 0.009597 -0.000909 0.000000 -0.004501 0.000000
# 3 -0.005222 -0.000909 0.009638 0.000000 -0.002875 0.000000
# 4 0.000000 0.000000 0.000000 0.046326 0.000000 0.012777
# 5 0.050875 -0.004501 -0.002875 0.000000 0.036772 0.000000
# 6 0.000000 0.000000 0.000000 0.012777 0.000000 0.130699
#
#
# Mechanical properties :
#
#
# Convention : Reuss Voigt Hill
#
# Bulk Modulus (GPa) = 5.10709 32.98373 19.04541
# Shear Modulus (GPa) = 8.81635 28.14582 18.48108
#
# Velocity S-wave (km/s) = 2.05325 3.66863 2.97276
# Velocity P-wave (km/s) = 2.83958 5.80666 4.57059
#
# Compressibility (1/GPa) = 0.19580623
#
# Stress axis : x y z
#
# Youngs Moduli (GPa) = 4.49036 104.19718 103.76045
#
# Poissons Ratio (x) = 1.76434 0.54188
# Poissons Ratio (y) = 0.07603 0.09429
# Poissons Ratio (z) = 0.02345 0.09469
#
# Static dielectric constant tensor:
#      x y z
#    x 1.762050 0.000000 0.023790 
#    y 0.000000 1.729030 0.000000 
#    z 0.023790 0.000000 1.782460 
# 
# From -- ./inp_files/42434.got.cif
#   From: 2010.05.17/outbox.cif.g08.bks.cpg/sg14_22_cif.got.tgz:42434.got - 2010.06.03 17:49:19.
