data_PCOD9246142
_publ_section_title
;
Structure prediction by ZEFSAII (Michael W. Deem and Ramdas Pophale) SiO2 
 PCOD9246142
Probable space group: P 21/C
;
_chemical_formula_sum "Si O2"
_cell_formula_units_Z 24
_cell_length_a 19.967195
_cell_length_b 5.051901
_cell_length_c 11.000350
_cell_angle_alpha 90.000000
_cell_angle_beta 125.048876
_cell_angle_gamma 90.000000
_cell_volume 908.412851
_symmetry_space_group_name_H-M "P 21/C"
_symmetry_group_IT_number 14
_symmetry_cell_setting 'monoclinic'
loop_
_space_group_symop_operation_xyz
x,y,z
-x,1/2+y,1/2-z
-x,-y,-z
x,1/2-y,1/2+z
loop_
_atom_site_type_symbol
_atom_site_label
_atom_site_fract_x
_atom_site_fract_y
_atom_site_fract_z
Si Si1 0.700478 0.785635 0.931940
Si Si2 0.952555 0.051079 0.179327
Si Si3 0.755809 0.227905 0.360869
Si Si4 0.371732 0.592906 0.448552
Si Si5 0.468198 0.216075 0.372052
Si Si6 0.081899 0.678052 0.096211
O O1 0.722119 0.487140 0.921782
O O2 0.609274 0.856301 0.789254
O O3 0.763708 0.991523 0.936813
O O4 0.687021 0.871991 0.055505
O O5 0.903479 0.184187 0.242572
O O6 0.032245 0.245284 0.274399
O O7 0.932712 0.079349 0.015146
O O8 0.690115 0.282566 0.185912
O O9 0.834049 0.091681 0.380154
O O10 0.425302 0.452731 0.401225
O O11 0.445333 0.721701 0.603651
O O12 0.500000 0.000000 0.500000
O O13 0.000000 0.500000 0.000000
#
# Coordination Sequence:
#
# PCOD9246142 Si02
#       6
#     4   4   4   4   4   4
#     4  11  26  42  68  96 135 175 223 274 350 395
#     4  10  22  42  71 102 133 172 229 285 341 407
#     4  11  26  45  63 102 135 175 225 284 341 409
#     4  10  24  41  65  94 135 174 222 282 335 407
#     4  10  21  40  63  95 126 173 226 270 326 410
#     4  10  24  47  72 104 138 186 234 288 344 420
#
# _framework density 26.419706999999999
#
# number of rings (size 3 to 8) (size 9 to 14) (size 15 to 20)
#    0.000    1.667    1.667    0.500    7.000    5.333 
#    6.000    0.000    0.000    0.000    0.000    0.000 
#    0.000    0.000    0.000    0.000    0.000    0.000 
#
# Total GULP energy -133675.633394 kJ/mol
# GULP energy per Si atom -5569.818058 kJ/mol
# Density = 2.635957 g / cm^3
# Si number density = 26.419707 Si / 1000 Ang^3
#
#
#
# Elastic Constant Matrix: (Units=GPa)
#
#
# Indices 1 2 3 4 5 6 
#
# 1 129.8762 9.5813 9.1849 0.0000 -8.0225 0.0000
# 2 9.5813 83.2485 -0.9903 0.0000 -0.0051 0.0000
# 3 9.1849 -0.9903 54.2996 0.0000 1.5359 0.0000
# 4 0.0000 0.0000 0.0000 29.4486 0.0000 -11.3844
# 5 -8.0225 -0.0051 1.5359 0.0000 42.1828 0.0000
# 6 0.0000 0.0000 0.0000 -11.3844 0.0000 35.7998
#
#
#
# Elastic Compliance Matrix: (Units=1/GPa)
#
#
# Indices 1 2 3 4 5 6 
#
# 1 0.007965 -0.000933 -0.001409 0.000000 0.001566 0.000000
# 2 -0.000933 0.012124 0.000384 0.000000 -0.000190 0.000000
# 3 -0.001409 0.000384 0.018688 0.000000 -0.000948 0.000000
# 4 0.000000 0.000000 0.000000 0.038717 0.000000 0.012312
# 5 0.001566 -0.000190 -0.000948 0.000000 0.024039 0.000000
# 6 0.000000 0.000000 0.000000 0.012312 0.000000 0.031848
#
#
# Mechanical properties :
#
#
# Convention : Reuss Voigt Hill
#
# Bulk Modulus (GPa) = 28.68423 33.66401 31.17412
# Shear Modulus (GPa) = 33.57562 38.12947 35.85254
#
# Velocity S-wave (km/s) = 3.56877 3.80310 3.68780
# Velocity P-wave (km/s) = 5.27847 5.66166 5.47342
#
# Compressibility (1/GPa) = 0.03486236
#
# Stress axis : x y z
#
# Youngs Moduli (GPa) = 125.55175 82.47960 53.50897
#
# Poissons Ratio (x) = 0.07698 0.07537
# Poissons Ratio (y) = 0.11718 -0.02057
# Poissons Ratio (z) = 0.17685 -0.03170
#
# Static dielectric constant tensor:
#      x y z
#    x 2.041550 0.000000 0.109580 
#    y 0.000000 2.191850 0.000000 
#    z 0.109580 0.000000 2.316990 
# 
# From -- ./inp_files/33368.got.cif
#   From: 2010.05.17/outbox.cif.g08.bks.cpg/sg14_17_cif.got.tgz:33368.got - 2010.06.03 17:49:19.
