data_PCOD9246526
_publ_section_title
;
Structure prediction by ZEFSAII (Michael W. Deem and Ramdas Pophale) SiO2 
 PCOD9246526
Probable space group: P 21/C
;
_chemical_formula_sum "Si O2"
_cell_formula_units_Z 32
_cell_length_a 6.796483
_cell_length_b 16.152347
_cell_length_c 14.086892
_cell_angle_alpha 90.000000
_cell_angle_beta 61.998564
_cell_angle_gamma 90.000000
_cell_volume 1365.413508
_symmetry_space_group_name_H-M "P 21/C"
_symmetry_group_IT_number 14
_symmetry_cell_setting 'monoclinic'
loop_
_space_group_symop_operation_xyz
x,y,z
-x,1/2+y,1/2-z
-x,-y,-z
x,1/2-y,1/2+z
loop_
_atom_site_type_symbol
_atom_site_label
_atom_site_fract_x
_atom_site_fract_y
_atom_site_fract_z
Si Si1 0.256620 0.524879 0.592356
Si Si2 0.695968 0.767192 0.790781
Si Si3 0.879638 0.202898 0.871588
Si Si4 0.968465 0.127130 0.165900
Si Si5 0.688796 0.952468 0.511960
Si Si6 0.459554 0.815826 0.650586
Si Si7 0.791440 0.225122 0.573855
Si Si8 0.821132 0.047676 0.666449
O O1 0.500000 0.500000 0.500000
O O2 0.189030 0.615436 0.570523
O O3 0.253819 0.534210 0.708490
O O4 0.069890 0.457874 0.605301
O O5 0.602059 0.794087 0.710070
O O6 0.466339 0.743687 0.892611
O O7 0.884798 0.696898 0.735472
O O8 0.832930 0.838171 0.812870
O O9 0.679654 0.236302 0.851855
O O10 0.909236 0.273404 0.945213
O O11 0.739142 0.119933 0.277030
O O12 0.904718 0.200105 0.106810
O O13 0.620468 0.856876 0.537669
O O14 0.916659 0.967355 0.405360
O O15 0.500000 0.000000 0.500000
O O16 0.709543 0.987263 0.614560
O O17 0.791398 0.140923 0.633049
#
# Coordination Sequence:
#
# PCOD9246526 Si02
#       8
#     4   4   4   4   4   4   4   4
#     4  12  26  44  66  97 145 189 231 286 345 419
#     4  10  21  41  65  89 124 168 217 275 336 401
#     4  11  25  42  65 100 133 178 234 282 345 424
#     4  10  23  42  63  92 129 176 227 272 337 414
#     4  11  23  40  69 100 130 169 219 288 353 403
#     4  10  21  41  68  95 127 169 220 282 349 407
#     4  11  24  42  67  94 129 176 226 284 344 411
#     4  11  25  44  66 102 136 171 231 291 345 415
#
# _framework density 23.436126000000002
#
# number of rings (size 3 to 8) (size 9 to 14) (size 15 to 20)
#    0.000    1.250    0.000    6.000    0.000   14.500 
#    0.000    2.500    0.000    0.000    0.000    0.000 
#    0.000    0.000    0.000    0.000    0.000    0.000 
#
# Total GULP energy -179015.818430 kJ/mol
# GULP energy per Si atom -5594.244326 kJ/mol
# Density = 2.338278 g / cm^3
# Si number density = 23.436126 Si / 1000 Ang^3
#
#
#
# Elastic Constant Matrix: (Units=GPa)
#
#
# Indices 1 2 3 4 5 6 
#
# 1 154.1020 44.4426 34.9008 0.0000 -4.4496 0.0000
# 2 44.4426 111.0165 16.0835 0.0000 -6.7190 0.0000
# 3 34.9008 16.0835 92.6023 0.0000 3.9268 0.0000
# 4 0.0000 0.0000 0.0000 35.6663 0.0000 1.9235
# 5 -4.4496 -6.7190 3.9268 0.0000 37.0388 0.0000
# 6 0.0000 0.0000 0.0000 1.9235 0.0000 32.7084
#
#
#
# Elastic Compliance Matrix: (Units=1/GPa)
#
#
# Indices 1 2 3 4 5 6 
#
# 1 0.007872 -0.002743 -0.002521 0.000000 0.000715 0.000000
# 2 -0.002743 0.010324 -0.000829 0.000000 0.001631 0.000000
# 3 -0.002521 -0.000829 0.011966 0.000000 -0.001722 0.000000
# 4 0.000000 0.000000 0.000000 0.028127 0.000000 -0.001654
# 5 0.000715 0.001631 -0.001722 0.000000 0.027563 0.000000
# 6 0.000000 0.000000 0.000000 -0.001654 0.000000 0.030670
#
#
# Mechanical properties :
#
#
# Convention : Reuss Voigt Hill
#
# Bulk Modulus (GPa) = 55.62433 60.95273 58.28853
# Shear Modulus (GPa) = 37.11969 38.56896 37.84433
#
# Velocity S-wave (km/s) = 3.98410 4.06113 4.02280
# Velocity P-wave (km/s) = 6.70448 6.93216 6.81927
#
# Compressibility (1/GPa) = 0.01797774
#
# Stress axis : x y z
#
# Youngs Moduli (GPa) = 127.03633 96.85749 83.57129
#
# Poissons Ratio (x) = 0.26566 0.21066
# Poissons Ratio (y) = 0.34843 0.06925
# Poissons Ratio (z) = 0.32023 0.08026
#
# Static dielectric constant tensor:
#      x y z
#    x 1.827990 0.000000 -0.001240 
#    y 0.000000 1.917310 0.000000 
#    z -0.001240 0.000000 1.972160 
# 
# From -- ./inp_files/37852.got.cif
#   From: 2010.05.17/outbox.cif.g08.bks.cpg/sg14_19_cif.got.tgz:37852.got - 2010.06.03 17:49:19.
