data_PCOD9246632
_publ_section_title
;
Structure prediction by ZEFSAII (Michael W. Deem and Ramdas Pophale) SiO2 
 PCOD9246632
Probable space group: P 21/C
;
_chemical_formula_sum "Si O2"
_cell_formula_units_Z 32
_cell_length_a 10.328440
_cell_length_b 16.191375
_cell_length_c 15.682980
_cell_angle_alpha 90.000000
_cell_angle_beta 33.403012
_cell_angle_gamma 90.000000
_cell_volume 1443.855734
_symmetry_space_group_name_H-M "P 21/C"
_symmetry_group_IT_number 14
_symmetry_cell_setting 'monoclinic'
loop_
_space_group_symop_operation_xyz
x,y,z
-x,1/2+y,1/2-z
-x,-y,-z
x,1/2-y,1/2+z
loop_
_atom_site_type_symbol
_atom_site_label
_atom_site_fract_x
_atom_site_fract_y
_atom_site_fract_z
Si Si1 0.593495 0.511441 0.727070
Si Si2 0.191178 0.086515 0.634282
Si Si3 0.189560 0.252132 0.029594
Si Si4 0.123919 0.310881 0.740874
Si Si5 0.391502 0.347671 0.757997
Si Si6 0.647316 0.406047 0.000161
Si Si7 0.902771 0.352495 0.425306
Si Si8 0.017547 0.903883 0.926466
O O1 0.436219 0.437508 0.776181
O O2 0.768329 0.548956 0.559200
O O3 0.757039 0.463241 0.708724
O O4 0.462129 0.587091 0.844762
O O5 0.131087 0.157981 0.599820
O O6 0.431416 0.107822 0.554221
O O7 0.964875 0.080984 0.819872
O O8 0.247135 0.997795 0.566567
O O9 0.272445 0.203295 0.071542
O O10 0.324865 0.280502 0.868224
O O11 0.991181 0.186239 0.109990
O O12 0.224331 0.357372 0.768115
O O13 0.865811 0.346974 0.863329
O O14 0.073966 0.220818 0.806012
O O15 0.638196 0.322459 0.579193
O O16 0.966426 0.385761 0.482051
#
# Coordination Sequence:
#
# PCOD9246632 Si02
#       8
#     4   4   4   4   4   4   4   4
#     4  10  22  41  73  98 130 186 230 287 341 416
#     4  10  23  43  66 103 136 178 234 286 341 420
#     4  11  24  43  66 100 140 177 228 289 346 415
#     4  11  27  41  67  99 138 180 228 281 355 409
#     4  11  24  47  64 102 140 174 233 291 345 407
#     4  11  23  41  73  96 141 185 230 284 346 424
#     4  10  22  41  70  92 136 177 224 290 332 407
#     4  10  21  41  68 101 131 176 236 276 343 412
#
# _framework density 22.162879
#
# number of rings (size 3 to 8) (size 9 to 14) (size 15 to 20)
#    0.000    1.500    3.750    0.000    8.750    0.500 
#    4.500    2.500    0.000    0.000    0.000    0.000 
#    0.000    0.000    0.000    0.000    0.000    0.000 
#
# Total GULP energy -178162.679510 kJ/mol
# GULP energy per Si atom -5567.583735 kJ/mol
# Density = 2.211244 g / cm^3
# Si number density = 22.162879 Si / 1000 Ang^3
#
#
#
# Elastic Constant Matrix: (Units=GPa)
#
#
# Indices 1 2 3 4 5 6 
#
# 1 43.4222 3.9846 32.0203 0.0000 18.8535 0.0000
# 2 3.9846 68.7295 10.0623 0.0000 -1.7662 0.0000
# 3 32.0203 10.0623 99.5423 0.0000 18.0270 0.0000
# 4 0.0000 0.0000 0.0000 -325.8459 0.0000 95.7572
# 5 18.8535 -1.7662 18.0270 0.0000 17.7924 0.0000
# 6 0.0000 0.0000 0.0000 95.7572 0.0000 1.5404
#
#
#
# Elastic Compliance Matrix: (Units=1/GPa)
#
#
# Indices 1 2 3 4 5 6 
#
# 1 0.047270 -0.002810 -0.007103 0.000000 -0.043171 0.000000
# 2 -0.002810 0.015131 -0.001760 0.000000 0.006263 0.000000
# 3 -0.007103 -0.001760 0.013689 0.000000 -0.006517 0.000000
# 4 0.000000 0.000000 0.000000 -0.000159 0.000000 0.009901
# 5 -0.043171 0.006263 -0.006517 0.000000 0.109175 0.000000
# 6 0.000000 0.000000 0.000000 0.009901 0.000000 0.033692
#
#
# Mechanical properties :
#
#
# Convention : Reuss Voigt Hill
#
# Bulk Modulus (GPa) = 18.95933 33.75873 26.35903
# Shear Modulus (GPa) = 19.25111 -50.26081 -15.50485
#
# Velocity S-wave (km/s) = 2.95043 -4.76730 -2.64784
# Velocity P-wave (km/s) = 4.49220 3.87785 1.60346
#
# Compressibility (1/GPa) = 0.05274447
#
# Stress axis : x y z
#
# Youngs Moduli (GPa) = 21.15497 66.08829 73.05074
#
# Poissons Ratio (x) = 0.18570 0.51890
# Poissons Ratio (y) = 0.05944 0.12856
# Poissons Ratio (z) = 0.15027 0.11630
#
# Static dielectric constant tensor:
#      x y z
#    x 1.891350 0.000000 0.030820 
#    y 0.000000 1.850650 0.000000 
#    z 0.030820 0.000000 1.955030 
# 
# From -- ./inp_files/58103.got.cif
#   From: 2010.05.17/outbox.cif.g08.bks.cpg/sg14_30_cif.got.tgz:58103.got - 2010.06.03 17:49:19.
