data_PCOD9246341
_publ_section_title
;
Structure prediction by ZEFSAII (Michael W. Deem and Ramdas Pophale) SiO2 
 PCOD9246341
Probable space group: P 21/C
;
_chemical_formula_sum "Si O2"
_cell_formula_units_Z 20
_cell_length_a 25.697276
_cell_length_b 4.892037
_cell_length_c 11.642166
_cell_angle_alpha 90.000000
_cell_angle_beta 31.214798
_cell_angle_gamma 90.000000
_cell_volume 758.487048
_symmetry_space_group_name_H-M "P 21/C"
_symmetry_group_IT_number 14
_symmetry_cell_setting 'monoclinic'
loop_
_space_group_symop_operation_xyz
x,y,z
-x,1/2+y,1/2-z
-x,-y,-z
x,1/2-y,1/2+z
loop_
_atom_site_type_symbol
_atom_site_label
_atom_site_fract_x
_atom_site_fract_y
_atom_site_fract_z
Si Si1 0.560806 0.048883 0.099857
Si Si2 0.910549 0.131579 0.529127
Si Si3 0.667331 0.772939 0.209395
Si Si4 0.876741 0.864865 0.936515
Si Si5 0.708512 0.234001 0.498254
O O1 0.492134 0.317603 0.221196
O O2 0.661995 0.164801 0.966728
O O3 0.584729 0.878441 0.940851
O O4 0.881739 0.329519 0.476380
O O5 0.028467 0.179882 0.327518
O O6 0.896990 0.826168 0.508796
O O7 0.826594 0.199513 0.781186
O O8 0.689310 0.580635 0.058637
O O9 0.651264 0.081766 0.200157
O O10 0.770433 0.784963 0.086597
#
# Coordination Sequence:
#
# PCOD9246341 Si02
#       5
#     4   4   4   4   4
#     4  12  28  48  72  96 136 182 226 292 346 392
#     4  10  21  40  68  99 139 184 222 268 333 405
#     4  12  26  43  72 104 135 176 229 278 340 410
#     4  10  21  40  68  99 139 184 222 268 333 405
#     4  12  26  43  72 104 135 176 229 278 340 410
#
# _framework density 26.368282000000001
#
# number of rings (size 3 to 8) (size 9 to 14) (size 15 to 20)
#    0.000    0.800    2.000    4.800    2.800    6.400 
#    0.000    0.000    0.000    0.000    0.000    0.000 
#    0.000    0.000    0.000    0.000    0.000    0.000 
#
# Total GULP energy -112123.662800 kJ/mol
# GULP energy per Si atom -5606.183140 kJ/mol
# Density = 2.630827 g / cm^3
# Si number density = 26.368282 Si / 1000 Ang^3
#
#
#
# Elastic Constant Matrix: (Units=GPa)
#
#
# Indices 1 2 3 4 5 6 
#
# 1 48.0533 9.7648 6.7090 0.0000 -20.7206 0.0000
# 2 9.7648 93.4838 27.2680 0.0000 -9.7573 0.0000
# 3 6.7090 27.2680 110.4017 0.0000 -3.3602 0.0000
# 4 0.0000 0.0000 0.0000 40.3688 0.0000 4.0353
# 5 -20.7206 -9.7573 -3.3602 0.0000 33.9838 0.0000
# 6 0.0000 0.0000 0.0000 4.0353 0.0000 39.9334
#
#
#
# Elastic Compliance Matrix: (Units=1/GPa)
#
#
# Indices 1 2 3 4 5 6 
#
# 1 0.028461 -0.000911 -0.000987 0.000000 0.016994 0.000000
# 2 -0.000911 0.011878 -0.002800 0.000000 0.002578 0.000000
# 3 -0.000987 -0.002800 0.009796 0.000000 -0.000437 0.000000
# 4 0.000000 0.000000 0.000000 0.025024 0.000000 -0.002529
# 5 0.016994 0.002578 -0.000437 0.000000 0.040484 0.000000
# 6 0.000000 0.000000 0.000000 -0.002529 0.000000 0.025297
#
#
# Mechanical properties :
#
#
# Convention : Reuss Voigt Hill
#
# Bulk Modulus (GPa) = 24.54685 37.71359 31.13022
# Shear Modulus (GPa) = 30.50324 36.73701 33.62012
#
# Velocity S-wave (km/s) = 3.40489 3.73665 3.57462
# Velocity P-wave (km/s) = 4.97867 5.74024 5.37297
#
# Compressibility (1/GPa) = 0.04073842
#
# Stress axis : x y z
#
# Youngs Moduli (GPa) = 35.13579 84.18937 102.08183
#
# Poissons Ratio (x) = 0.07671 0.10078
# Poissons Ratio (y) = 0.03201 0.28582
# Poissons Ratio (z) = 0.03469 0.23572
#
# Static dielectric constant tensor:
#      x y z
#    x 2.080960 0.000000 0.051230 
#    y 0.000000 1.922100 0.000000 
#    z 0.051230 0.000000 2.105180 
# 
# From -- ./inp_files/33431.got.cif
#   From: 2010.05.17/outbox.cif.g08.bks.cpg/sg14_17_cif.got.tgz:33431.got - 2010.06.03 17:49:19.
