data_PCOD9246678
_publ_section_title
;
Structure prediction by ZEFSAII (Michael W. Deem and Ramdas Pophale) SiO2 
 PCOD9246678
Probable space group: P 21/C
;
_chemical_formula_sum "Si O2"
_cell_formula_units_Z 28
_cell_length_a 14.512564
_cell_length_b 9.111122
_cell_length_c 18.600645
_cell_angle_alpha 90.000000
_cell_angle_beta 29.906532
_cell_angle_gamma 90.000000
_cell_volume 1226.265719
_symmetry_space_group_name_H-M "P 21/C"
_symmetry_group_IT_number 14
_symmetry_cell_setting 'monoclinic'
loop_
_space_group_symop_operation_xyz
x,y,z
-x,1/2+y,1/2-z
-x,-y,-z
x,1/2-y,1/2+z
loop_
_atom_site_type_symbol
_atom_site_label
_atom_site_fract_x
_atom_site_fract_y
_atom_site_fract_z
Si Si1 0.772978 0.262704 0.678821
Si Si2 0.698439 0.809671 0.332123
Si Si3 0.631889 0.414133 0.165226
Si Si4 0.030885 0.884988 0.659736
Si Si5 0.287365 0.632557 0.118484
Si Si6 0.235828 0.076296 0.867894
Si Si7 0.097028 0.154266 0.526104
O O1 0.603862 0.182223 0.754939
O O2 0.739616 0.309022 0.782895
O O3 0.825191 0.409535 0.601183
O O4 0.936778 0.145308 0.574975
O O5 0.478970 0.788400 0.466076
O O6 0.780807 0.847549 0.198356
O O7 0.834684 0.689423 0.275105
O O8 0.694911 0.955649 0.384690
O O9 0.452151 0.429168 0.239951
O O10 0.802754 0.337414 0.007326
O O11 0.714225 0.574801 0.125125
O O12 0.117998 0.849363 0.678105
O O13 0.969107 0.559933 0.860352
O O14 0.139917 0.172377 0.994834
#
# Coordination Sequence:
#
# PCOD9246678 Si02
#       7
#     4   4   4   4   4   4   4
#     4  11  23  40  65 103 129 175 226 282 337 405
#     4  10  21  41  70  92 130 179 225 271 340 403
#     4  10  22  40  66  96 133 173 225 280 335 400
#     4  10  23  41  70  96 130 184 223 280 342 407
#     4  10  23  43  67  96 137 177 226 279 337 410
#     4  11  21  40  67  97 130 173 226 278 335 408
#     4  10  23  40  67  90 137 170 222 284 341 395
#
# _framework density 22.833552000000001
#
# number of rings (size 3 to 8) (size 9 to 14) (size 15 to 20)
#    0.857    0.857    1.429    2.571    4.000    1.143 
#    0.000    0.714    0.000    0.000    0.000    0.000 
#    0.000    0.000    0.000    0.000    0.000    0.000 
#
# Total GULP energy -156041.719782 kJ/mol
# GULP energy per Si atom -5572.918564 kJ/mol
# Density = 2.278158 g / cm^3
# Si number density = 22.833552 Si / 1000 Ang^3
#
#
#
# Elastic Constant Matrix: (Units=GPa)
#
#
# Indices 1 2 3 4 5 6 
#
# 1 134.6873 55.5842 29.6673 0.0000 -20.2501 0.0000
# 2 55.5842 84.5497 37.9900 0.0000 0.6038 0.0000
# 3 29.6673 37.9900 88.1108 0.0000 -13.3273 0.0000
# 4 0.0000 0.0000 0.0000 25.2883 0.0000 -0.2922
# 5 -20.2501 0.6038 -13.3273 0.0000 27.2711 0.0000
# 6 0.0000 0.0000 0.0000 -0.2922 0.0000 35.9660
#
#
#
# Elastic Compliance Matrix: (Units=1/GPa)
#
#
# Indices 1 2 3 4 5 6 
#
# 1 0.012192 -0.008563 0.001063 0.000000 0.009762 0.000000
# 2 -0.008563 0.021035 -0.007795 0.000000 -0.010633 0.000000
# 3 0.001063 -0.007795 0.015655 0.000000 0.008613 0.000000
# 4 0.000000 0.000000 0.000000 0.039548 0.000000 0.000321
# 5 0.009762 -0.010633 0.008613 0.000000 0.048362 0.000000
# 6 0.000000 0.000000 0.000000 0.000321 0.000000 0.027807
#
#
# Mechanical properties :
#
#
# Convention : Reuss Voigt Hill
#
# Bulk Modulus (GPa) = 54.66355 61.53676 58.10015
# Shear Modulus (GPa) = 24.84057 29.97882 27.40969
#
# Velocity S-wave (km/s) = 3.30191 3.62737 3.46846
# Velocity P-wave (km/s) = 6.20716 6.67476 6.44520
#
# Compressibility (1/GPa) = 0.01829373
#
# Stress axis : x y z
#
# Youngs Moduli (GPa) = 82.02212 47.54032 63.87836
#
# Poissons Ratio (x) = 0.40707 -0.06793
# Poissons Ratio (y) = 0.70232 0.49791
# Poissons Ratio (z) = -0.08723 0.37056
#
# Static dielectric constant tensor:
#      x y z
#    x 1.843820 0.000000 -0.027120 
#    y 0.000000 1.871610 0.000000 
#    z -0.027120 0.000000 1.936690 
# 
# From -- ./inp_files/68306.got.cif
#   From: 2010.05.17/outbox.cif.g08.bks.cpg/sg14_35_cif.got.tgz:68306.got - 2010.06.03 17:49:19.
