data_PCOD9246868
_publ_section_title
;
Structure prediction by ZEFSAII (Michael W. Deem and Ramdas Pophale) SiO2 
 PCOD9246868
Probable space group: P 21/C
;
_chemical_formula_sum "Si O2"
_cell_formula_units_Z 26
_cell_length_a 8.393363
_cell_length_b 9.807576
_cell_length_c 19.054738
_cell_angle_alpha 90.000000
_cell_angle_beta 47.933202
_cell_angle_gamma 90.000000
_cell_volume 1164.441569
_symmetry_space_group_name_H-M "P 21/C"
_symmetry_group_IT_number 14
_symmetry_cell_setting 'monoclinic'
loop_
_space_group_symop_operation_xyz
x,y,z
-x,1/2+y,1/2-z
-x,-y,-z
x,1/2-y,1/2+z
loop_
_atom_site_type_symbol
_atom_site_label
_atom_site_fract_x
_atom_site_fract_y
_atom_site_fract_z
Si Si1 0.112550 0.088471 0.026034
Si Si2 0.712634 0.056045 0.244093
Si Si3 0.070755 0.069769 0.694289
Si Si4 0.001685 0.381524 0.055663
Si Si5 0.738799 0.844048 0.821462
Si Si6 0.500000 0.500000 0.500000
Si Si7 0.482943 0.790653 0.270750
O O1 0.126947 0.244766 0.997817
O O2 0.945749 0.084817 0.141205
O O3 0.333876 0.022426 0.983691
O O4 0.000000 0.000000 0.000000
O O5 0.748443 0.007324 0.313173
O O6 0.616751 0.929852 0.227528
O O7 0.564195 0.188117 0.279225
O O8 0.085537 0.224432 0.718223
O O9 0.089484 0.069832 0.605278
O O10 0.850690 0.990508 0.776534
O O11 0.754306 0.336455 0.136707
O O12 0.000000 0.500000 0.000000
O O13 0.599271 0.862040 0.932167
O O14 0.600208 0.798096 0.795974
#
# Coordination Sequence:
#
# PCOD9246868 Si02
#       7
#     4   4   4   4   4   2   4
#     4  11  24  43  71 102 140 187 246 289 358 436
#     4  10  21  42  68 102 132 181 237 292 349 434
#     4  11  22  45  69  99 138 184 234 290 356 427
#     4  11  24  45  66  99 149 184 232 305 360 431
#     4  11  23  42  73 100 137 183 235 292 352 430
#     4  12  20  44  72 104 140 186 236 296 352 430
#     4  10  22  41  69  99 136 179 239 289 355 426
#
# _framework density 22.328298
#
# number of rings (size 3 to 8) (size 9 to 14) (size 15 to 20)
#    0.000    1.231    3.077    3.692    0.000    3.692 
#    2.769    7.692    0.000    0.000    0.000    0.000 
#    0.000    0.000    0.000    0.000    0.000    0.000 
#
# Total GULP energy -144807.611321 kJ/mol
# GULP energy per Si atom -5569.523512 kJ/mol
# Density = 2.227748 g / cm^3
# Si number density = 22.328298 Si / 1000 Ang^3
#
#
#
# Elastic Constant Matrix: (Units=GPa)
#
#
# Indices 1 2 3 4 5 6 
#
# 1 167.7281 74.2364 25.3534 0.0000 17.0346 0.0000
# 2 74.2364 128.4809 27.7208 0.0000 -3.7367 0.0000
# 3 25.3534 27.7208 22.3336 0.0000 5.2732 0.0000
# 4 0.0000 0.0000 0.0000 25.2401 0.0000 9.9509
# 5 17.0346 -3.7367 5.2732 0.0000 31.9340 0.0000
# 6 0.0000 0.0000 0.0000 9.9509 0.0000 42.8029
#
#
#
# Elastic Compliance Matrix: (Units=1/GPa)
#
#
# Indices 1 2 3 4 5 6 
#
# 1 0.008997 -0.004613 -0.003358 0.000000 -0.004785 0.000000
# 2 -0.004613 0.013400 -0.012847 0.000000 0.006150 0.000000
# 3 -0.003358 -0.012847 0.067080 0.000000 -0.010789 0.000000
# 4 0.000000 0.000000 0.000000 0.043617 0.000000 -0.010140
# 5 -0.004785 0.006150 -0.010789 0.000000 0.036368 0.000000
# 6 0.000000 0.000000 0.000000 -0.010140 0.000000 0.025720
#
#
# Mechanical properties :
#
#
# Convention : Reuss Voigt Hill
#
# Bulk Modulus (GPa) = 20.90247 63.68489 42.29368
# Shear Modulus (GPa) = 19.78109 32.74418 26.26264
#
# Velocity S-wave (km/s) = 2.97967 3.83363 3.43330
# Velocity P-wave (km/s) = 4.60648 6.94115 5.89064
#
# Compressibility (1/GPa) = 0.04784124
#
# Stress axis : x y z
#
# Youngs Moduli (GPa) = 111.14246 74.62964 14.90746
#
# Poissons Ratio (x) = 0.34429 0.05006
# Poissons Ratio (y) = 0.51274 0.19151
# Poissons Ratio (z) = 0.37323 0.95874
#
# Static dielectric constant tensor:
#      x y z
#    x 1.839880 0.000000 -0.015060 
#    y 0.000000 1.822300 0.000000 
#    z -0.015060 0.000000 1.870990 
# 
# From -- ./inp_files/64768.got.cif
#   From: 2010.05.17/outbox.cif.g08.bks.cpg/sg14_33_cif.got.tgz:64768.got - 2010.06.03 17:49:19.
