data_PCOD9246612
_publ_section_title
;
Structure prediction by ZEFSAII (Michael W. Deem and Ramdas Pophale) SiO2 
 PCOD9246612
Probable space group: P 21/C
;
_chemical_formula_sum "Si O2"
_cell_formula_units_Z 24
_cell_length_a 10.528210
_cell_length_b 11.207063
_cell_length_c 20.952774
_cell_angle_alpha 90.000000
_cell_angle_beta 25.167234
_cell_angle_gamma 90.000000
_cell_volume 1051.342517
_symmetry_space_group_name_H-M "P 21/C"
_symmetry_group_IT_number 14
_symmetry_cell_setting 'monoclinic'
loop_
_space_group_symop_operation_xyz
x,y,z
-x,1/2+y,1/2-z
-x,-y,-z
x,1/2-y,1/2+z
loop_
_atom_site_type_symbol
_atom_site_label
_atom_site_fract_x
_atom_site_fract_y
_atom_site_fract_z
Si Si1 0.004446 0.281562 0.787044
Si Si2 0.080441 0.864185 0.453104
Si Si3 0.338248 0.153848 0.869289
Si Si4 0.949101 0.987633 0.115775
Si Si5 0.193633 0.478626 0.177009
Si Si6 0.400150 0.772837 0.921574
O O1 0.247214 0.286562 0.734167
O O2 0.013538 0.406851 0.746164
O O3 0.055945 0.154291 0.728357
O O4 0.693054 0.274090 0.966313
O O5 0.304995 0.851732 0.290462
O O6 0.277968 0.808597 0.420701
O O7 0.778980 0.786723 0.589915
O O8 0.000000 0.000000 0.500000
O O9 0.245777 0.061111 0.854547
O O10 0.118813 0.110436 0.025068
O O11 0.768667 0.985943 0.263462
O O12 0.225979 0.896237 0.994622
O O13 0.500000 0.500000 0.000000
#
# Coordination Sequence:
#
# PCOD9246612 Si02
#       6
#     4   4   4   4   4   4
#     4  11  23  42  71  96 133 180 230 280 340 416
#     4  11  24  40  69 100 134 181 232 277 348 418
#     4  10  23  43  64  97 137 176 227 282 343 409
#     4   9  22  42  68  90 138 176 226 283 339 405
#     4  11  23  46  67 102 134 181 231 287 345 410
#     4  10  21  41  67  94 128 185 222 270 342 411
#
# _framework density 22.827953999999998
#
# number of rings (size 3 to 8) (size 9 to 14) (size 15 to 20)
#    0.000    1.667    1.667    3.000    9.333    2.667 
#    6.000    0.000    0.000    0.000    0.000    0.000 
#    0.000    0.000    0.000    0.000    0.000    0.000 
#
# Total GULP energy -133972.485613 kJ/mol
# GULP energy per Si atom -5582.186901 kJ/mol
# Density = 2.277600 g / cm^3
# Si number density = 22.827954 Si / 1000 Ang^3
#
#
#
# Elastic Constant Matrix: (Units=GPa)
#
#
# Indices 1 2 3 4 5 6 
#
# 1 22.5264 2.2539 -9.3765 0.0000 11.8305 0.0000
# 2 2.2539 121.3343 20.0562 0.0000 4.5324 0.0000
# 3 -9.3765 20.0562 117.2938 0.0000 19.3188 0.0000
# 4 0.0000 0.0000 0.0000 37.0805 0.0000 3.5004
# 5 11.8305 4.5324 19.3188 0.0000 27.5717 0.0000
# 6 0.0000 0.0000 0.0000 3.5004 0.0000 25.8874
#
#
#
# Elastic Compliance Matrix: (Units=1/GPa)
#
#
# Indices 1 2 3 4 5 6 
#
# 1 0.069655 -0.001882 0.012166 0.000000 -0.038103 0.000000
# 2 -0.001882 0.008537 -0.001709 0.000000 0.000602 0.000000
# 3 0.012166 -0.001709 0.011987 0.000000 -0.013338 0.000000
# 4 0.000000 0.000000 0.000000 0.027317 0.000000 -0.003694
# 5 -0.038103 0.000602 -0.013338 0.000000 0.061865 0.000000
# 6 0.000000 0.000000 0.000000 -0.003694 0.000000 0.039128
#
#
# Mechanical properties :
#
#
# Convention : Reuss Voigt Hill
#
# Bulk Modulus (GPa) = 9.31712 31.89131 20.60421
# Shear Modulus (GPa) = 21.08668 34.65597 27.87132
#
# Velocity S-wave (km/s) = 3.04258 3.90056 3.49797
# Velocity P-wave (km/s) = 4.05381 5.85546 5.03586
#
# Compressibility (1/GPa) = 0.10732931
#
# Stress axis : x y z
#
# Youngs Moduli (GPa) = 14.35637 117.14128 83.42185
#
# Poissons Ratio (x) = 0.22041 -1.01488
# Poissons Ratio (y) = 0.02701 0.14259
# Poissons Ratio (z) = -0.17466 0.20022
#
# Static dielectric constant tensor:
#      x y z
#    x 1.887390 0.000000 0.036910 
#    y 0.000000 1.911940 0.000000 
#    z 0.036910 0.000000 1.847060 
# 
# From -- ./inp_files/73266.got.cif
#   From: 2010.05.17/outbox.cif.g08.bks.cpg/sg14_37_cif.got.tgz:73266.got - 2010.06.03 17:49:19.
