data_PCOD9246032
_publ_section_title
;
Structure prediction by ZEFSAII (Michael W. Deem and Ramdas Pophale) SiO2 
 PCOD9246032
Probable space group: P 21/C
;
_chemical_formula_sum "Si O2"
_cell_formula_units_Z 32
_cell_length_a 11.560497
_cell_length_b 8.912260
_cell_length_c 13.412238
_cell_angle_alpha 90.000000
_cell_angle_beta 115.329180
_cell_angle_gamma 90.000000
_cell_volume 1249.019074
_symmetry_space_group_name_H-M "P 21/C"
_symmetry_group_IT_number 14
_symmetry_cell_setting 'monoclinic'
loop_
_space_group_symop_operation_xyz
x,y,z
-x,1/2+y,1/2-z
-x,-y,-z
x,1/2-y,1/2+z
loop_
_atom_site_type_symbol
_atom_site_label
_atom_site_fract_x
_atom_site_fract_y
_atom_site_fract_z
Si Si1 0.628219 0.684340 0.105813
Si Si2 0.846102 0.736848 0.353909
Si Si3 0.130013 0.620412 0.436502
Si Si4 0.065395 0.532386 0.206127
Si Si5 0.619244 0.790906 0.899913
Si Si6 0.219232 0.923869 0.371970
Si Si7 0.220561 0.777197 0.169623
Si Si8 0.441798 0.546848 0.190909
O O1 0.742339 0.713992 0.226628
O O2 0.679827 0.545964 0.057597
O O3 0.506656 0.633565 0.122763
O O4 0.599199 0.803845 0.010439
O O5 0.768941 0.708835 0.426322
O O6 0.977403 0.645433 0.393176
O O7 0.890857 0.907637 0.355734
O O8 0.139376 0.520358 0.339947
O O9 0.196643 0.775600 0.426066
O O10 0.187699 0.611556 0.567809
O O11 0.094815 0.693263 0.168116
O O12 0.918256 0.503661 0.175982
O O13 0.572891 0.630672 0.834605
O O14 0.541873 0.922653 0.817312
O O15 0.267039 0.873122 0.280618
O O16 0.315984 0.642084 0.175731
#
# Coordination Sequence:
#
# PCOD9246032 Si02
#       8
#     4   4   4   4   4   4   4   4
#     4  11  23  43  67  93 126 174 212 269 319 387
#     4  10  22  40  62  98 129 166 216 256 324 394
#     4  10  22  38  65  96 128 172 204 266 331 379
#     4  10  21  40  59  93 137 160 212 267 309 395
#     4  11  24  43  72  89 133 169 218 272 328 376
#     4  10  22  38  63  95 126 164 219 261 310 398
#     4  11  23  40  65  93 133 170 210 267 327 378
#     4  11  24  45  64 100 125 171 224 268 313 400
#
# _framework density 25.620106
#
# number of rings (size 3 to 8) (size 9 to 14) (size 15 to 20)
#    0.000    1.500    2.500    1.875    1.750    3.500 
#    6.750    1.250    0.000    0.000    0.000    0.000 
#    0.000    0.000    0.000    0.000    0.000    0.000 
#
# Total GULP energy -179093.587280 kJ/mol
# GULP energy per Si atom -5596.674602 kJ/mol
# Density = 2.556179 g / cm^3
# Si number density = 25.620106 Si / 1000 Ang^3
#
#
#
# Elastic Constant Matrix: (Units=GPa)
#
#
# Indices 1 2 3 4 5 6 
#
# 1 95.8802 14.1807 16.3586 0.0000 -9.6364 0.0000
# 2 14.1807 54.3910 2.8536 0.0000 -7.1862 0.0000
# 3 16.3586 2.8536 59.0561 0.0000 1.5810 0.0000
# 4 0.0000 0.0000 0.0000 21.6259 0.0000 3.9981
# 5 -9.6364 -7.1862 1.5810 0.0000 27.8951 0.0000
# 6 0.0000 0.0000 0.0000 3.9981 0.0000 35.5139
#
#
#
# Elastic Compliance Matrix: (Units=1/GPa)
#
#
# Indices 1 2 3 4 5 6 
#
# 1 0.011697 -0.002405 -0.003220 0.000000 0.003604 0.000000
# 2 -0.002405 0.019593 -0.000394 0.000000 0.004239 0.000000
# 3 -0.003220 -0.000394 0.017904 0.000000 -0.002229 0.000000
# 4 0.000000 0.000000 0.000000 0.047224 0.000000 -0.005316
# 5 0.003604 0.004239 -0.002229 0.000000 0.038312 0.000000
# 6 0.000000 0.000000 0.000000 -0.005316 0.000000 0.028756
#
#
# Mechanical properties :
#
#
# Convention : Reuss Voigt Hill
#
# Bulk Modulus (GPa) = 26.91378 30.67925 28.79651
# Shear Modulus (GPa) = 26.60858 28.73595 27.67226
#
# Velocity S-wave (km/s) = 3.22620 3.35269 3.29005
# Velocity P-wave (km/s) = 4.94020 5.19500 5.06920
#
# Compressibility (1/GPa) = 0.03715569
#
# Stress axis : x y z
#
# Youngs Moduli (GPa) = 85.49241 51.03854 55.85402
#
# Poissons Ratio (x) = 0.12272 0.17987
# Poissons Ratio (y) = 0.20557 0.02202
# Poissons Ratio (z) = 0.27532 0.02012
#
# Static dielectric constant tensor:
#      x y z
#    x 1.972970 0.000000 0.007850 
#    y 0.000000 2.009970 0.000000 
#    z 0.007850 0.000000 2.068000 
# 
# From -- ./inp_files/29377.got.cif
#   From: 2010.05.17/outbox.cif.g08.bks.cpg/sg14_15_cif.got.tgz:29377.got - 2010.06.03 17:49:19.
