data_PCOD9246227
_publ_section_title
;
Structure prediction by ZEFSAII (Michael W. Deem and Ramdas Pophale) SiO2 
 PCOD9246227
Probable space group: P 21/C
;
_chemical_formula_sum "Si O2"
_cell_formula_units_Z 32
_cell_length_a 15.156266
_cell_length_b 19.104837
_cell_length_c 9.103859
_cell_angle_alpha 90.000000
_cell_angle_beta 144.602004
_cell_angle_gamma 90.000000
_cell_volume 1526.965119
_symmetry_space_group_name_H-M "P 21/C"
_symmetry_group_IT_number 14
_symmetry_cell_setting 'monoclinic'
loop_
_space_group_symop_operation_xyz
x,y,z
-x,1/2+y,1/2-z
-x,-y,-z
x,1/2-y,1/2+z
loop_
_atom_site_type_symbol
_atom_site_label
_atom_site_fract_x
_atom_site_fract_y
_atom_site_fract_z
Si Si1 0.579697 0.466176 0.251040
Si Si2 0.668936 0.879354 0.413136
Si Si3 0.325470 0.012112 0.813027
Si Si4 0.500567 0.223774 0.010842
Si Si5 0.994013 0.258379 0.241488
Si Si6 0.197215 0.241317 0.273902
Si Si7 0.759213 0.122231 0.479863
Si Si8 0.737807 0.151506 0.787699
O O1 0.436793 0.430725 0.139299
O O2 0.664522 0.510550 0.495786
O O3 0.696075 0.407429 0.349832
O O4 0.500000 0.500000 0.000000
O O5 0.560163 0.815881 0.214869
O O6 0.794531 0.842229 0.683582
O O7 0.725395 0.917786 0.341668
O O8 0.240898 0.947268 0.619341
O O9 0.500000 0.000000 0.000000
O O10 0.353548 0.237476 0.910921
O O11 0.610491 0.168029 0.238098
O O12 0.597288 0.292715 0.102467
O O13 0.150840 0.271996 0.367581
O O14 0.053488 0.237287 0.481281
O O15 0.898165 0.328477 0.123757
O O16 0.885729 0.198110 0.028334
O O17 0.755259 0.115920 0.651254
#
# Coordination Sequence:
#
# PCOD9246227 Si02
#       8
#     4   4   4   4   4   4   4   4
#     4  11  23  40  66 102 133 169 223 275 330 390
#     4  11  22  41  63  97 133 173 220 270 333 389
#     4  10  21  40  65  93 132 174 217 275 321 393
#     4  11  22  36  69  98 130 164 223 278 328 387
#     4  11  26  40  64  95 138 174 215 269 344 391
#     4  12  23  44  62  97 135 177 213 275 333 400
#     4  11  22  40  68  97 128 174 218 270 334 394
#     4  11  23  38  65 101 131 166 220 277 329 397
#
# _framework density 20.956602
#
# number of rings (size 3 to 8) (size 9 to 14) (size 15 to 20)
#    0.000    1.000    6.250    2.250    3.500    0.000 
#    0.000    0.625    0.000    1.500    0.000    0.000 
#    0.000    0.000    0.000    0.000    0.000    0.000 
#
# Total GULP energy -178512.930385 kJ/mol
# GULP energy per Si atom -5578.529075 kJ/mol
# Density = 2.090890 g / cm^3
# Si number density = 20.956602 Si / 1000 Ang^3
#
#
#
# Elastic Constant Matrix: (Units=GPa)
#
#
# Indices 1 2 3 4 5 6 
#
# 1 88.8692 27.3928 33.9097 0.0000 -10.9443 0.0000
# 2 27.3928 49.8709 23.5202 0.0000 -6.5998 0.0000
# 3 33.9097 23.5202 66.5452 0.0000 -14.5446 0.0000
# 4 0.0000 0.0000 0.0000 31.1265 0.0000 -14.9371
# 5 -10.9443 -6.5998 -14.5446 0.0000 41.0595 0.0000
# 6 0.0000 0.0000 0.0000 -14.9371 0.0000 31.1476
#
#
#
# Elastic Compliance Matrix: (Units=1/GPa)
#
#
# Indices 1 2 3 4 5 6 
#
# 1 0.015234 -0.005606 -0.005518 0.000000 0.001205 0.000000
# 2 -0.005606 0.026158 -0.006283 0.000000 0.000485 0.000000
# 3 -0.005518 -0.006283 0.021156 0.000000 0.005013 0.000000
# 4 0.000000 0.000000 0.000000 0.041731 0.000000 0.020012
# 5 0.001205 0.000485 0.005013 0.000000 0.026530 0.000000
# 6 0.000000 0.000000 0.000000 0.020012 0.000000 0.041702
#
#
# Mechanical properties :
#
#
# Convention : Reuss Voigt Hill
#
# Bulk Modulus (GPa) = 36.05671 41.65896 38.85784
# Shear Modulus (GPa) = 23.08718 28.69756 25.89237
#
# Velocity S-wave (km/s) = 3.32274 3.70453 3.51881
# Velocity P-wave (km/s) = 5.65363 6.18222 5.92383
#
# Compressibility (1/GPa) = 0.02773409
#
# Stress axis : x y z
#
# Youngs Moduli (GPa) = 65.64073 38.22886 47.26826
#
# Poissons Ratio (x) = 0.21431 0.26084
# Poissons Ratio (y) = 0.36797 0.29699
# Poissons Ratio (z) = 0.36223 0.24019
#
# Static dielectric constant tensor:
#      x y z
#    x 1.754830 0.000000 -0.029040 
#    y 0.000000 1.779000 0.000000 
#    z -0.029040 0.000000 1.811830 
# 
# From -- ./inp_files/16883.got.cif
#   From: 2010.05.17/outbox.cif.g08.bks.cpg/sg14_9_cif.got.tgz:16883.got - 2010.06.03 17:49:19.
