data_PCOD9246652
_publ_section_title
;
Structure prediction by ZEFSAII (Michael W. Deem and Ramdas Pophale) SiO2 
 PCOD9246652
Probable space group: P 21/C
;
_chemical_formula_sum "Si O2"
_cell_formula_units_Z 20
_cell_length_a 7.298552
_cell_length_b 22.845742
_cell_length_c 4.759649
_cell_angle_alpha 90.000000
_cell_angle_beta 66.454144
_cell_angle_gamma 90.000000
_cell_volume 727.550911
_symmetry_space_group_name_H-M "P 21/C"
_symmetry_group_IT_number 14
_symmetry_cell_setting 'monoclinic'
loop_
_space_group_symop_operation_xyz
x,y,z
-x,1/2+y,1/2-z
-x,-y,-z
x,1/2-y,1/2+z
loop_
_atom_site_type_symbol
_atom_site_label
_atom_site_fract_x
_atom_site_fract_y
_atom_site_fract_z
Si Si1 0.965396 0.249886 0.729869
Si Si2 0.328720 0.324560 0.328860
Si Si3 0.153449 0.561936 0.594238
Si Si4 0.604712 0.175002 0.129730
Si Si5 0.123885 0.433838 0.739686
O O1 0.964178 0.198939 0.479890
O O2 0.139067 0.282345 0.378522
O O3 0.795266 0.216846 0.081337
O O4 0.473318 0.294858 0.469156
O O5 0.253224 0.382580 0.527627
O O6 0.461711 0.335909 0.978112
O O7 0.309629 0.613792 0.530664
O O8 0.224119 0.497427 0.637258
O O9 0.080344 0.562475 0.317731
O O10 0.951025 0.572942 0.897528
#
# Coordination Sequence:
#
# PCOD9246652 Si02
#       5
#     4   4   4   4   4
#     4  12  26  46  68  92 136 178 222 284 338 394
#     4  12  26  43  68 101 135 177 229 281 336 400
#     4  10  21  41  68  96 133 180 222 270 335 401
#     4  12  26  43  68 101 135 177 229 281 336 400
#     4  10  21  41  68  96 133 180 222 270 335 401
#
# _framework density 27.489487
#
# number of rings (size 3 to 8) (size 9 to 14) (size 15 to 20)
#    0.000    0.800    0.000    7.200    0.000    6.400 
#    0.000    0.000    0.000    0.000    0.000    0.000 
#    0.000    0.000    0.000    0.000    0.000    0.000 
#
# Total GULP energy -111944.281680 kJ/mol
# GULP energy per Si atom -5597.214084 kJ/mol
# Density = 2.742692 g / cm^3
# Si number density = 27.489487 Si / 1000 Ang^3
#
#
#
# Elastic Constant Matrix: (Units=GPa)
#
#
# Indices 1 2 3 4 5 6 
#
# 1 171.5199 39.7305 76.3832 0.0000 1.5724 0.0000
# 2 39.7305 180.7601 67.4613 0.0000 -44.5131 0.0000
# 3 76.3832 67.4613 247.8025 0.0000 19.5373 0.0000
# 4 0.0000 0.0000 0.0000 48.1091 0.0000 -5.8534
# 5 1.5724 -44.5131 19.5373 0.0000 83.0854 0.0000
# 6 0.0000 0.0000 0.0000 -5.8534 0.0000 26.9197
#
#
#
# Elastic Compliance Matrix: (Units=1/GPa)
#
#
# Indices 1 2 3 4 5 6 
#
# 1 0.006862 -0.000843 -0.001874 0.000000 -0.000141 0.000000
# 2 -0.000843 0.007683 -0.002198 0.000000 0.004649 0.000000
# 3 -0.001874 -0.002198 0.005402 0.000000 -0.002412 0.000000
# 4 0.000000 0.000000 0.000000 0.021351 0.000000 0.004643
# 5 -0.000141 0.004649 -0.002412 0.000000 0.015096 0.000000
# 6 0.000000 0.000000 0.000000 0.004643 0.000000 0.038157
#
#
# Mechanical properties :
#
#
# Convention : Reuss Voigt Hill
#
# Bulk Modulus (GPa) = 98.86729 107.47029 103.16879
# Shear Modulus (GPa) = 46.40221 59.39000 52.89610
#
# Velocity S-wave (km/s) = 4.11298 4.65312 4.39136
# Velocity P-wave (km/s) = 7.65500 8.24916 7.95763
#
# Compressibility (1/GPa) = 0.01011457
#
# Stress axis : x y z
#
# Youngs Moduli (GPa) = 145.73941 130.16230 185.12278
#
# Poissons Ratio (x) = 0.10977 0.34698
# Poissons Ratio (y) = 0.12291 0.40692
# Poissons Ratio (z) = 0.27316 0.28611
#
# Static dielectric constant tensor:
#      x y z
#    x 2.330260 0.000000 0.019540 
#    y 0.000000 2.046210 0.000000 
#    z 0.019540 0.000000 2.272610 
# 
# From -- ./inp_files/1862.got.cif
#   From: 2010.05.17/outbox.cif.g08.bks.cpg/sg14_1_cif.got.tgz:1862.got - 2010.06.03 17:49:19.
