data_PCOD9246551
_publ_section_title
;
Structure prediction by ZEFSAII (Michael W. Deem and Ramdas Pophale) SiO2 
 PCOD9246551
Probable space group: P 21/C
;
_chemical_formula_sum "Si O2"
_cell_formula_units_Z 24
_cell_length_a 9.125693
_cell_length_b 9.901453
_cell_length_c 12.893444
_cell_angle_alpha 90.000000
_cell_angle_beta 105.474331
_cell_angle_gamma 90.000000
_cell_volume 1122.789004
_symmetry_space_group_name_H-M "P 21/C"
_symmetry_group_IT_number 14
_symmetry_cell_setting 'monoclinic'
loop_
_space_group_symop_operation_xyz
x,y,z
-x,1/2+y,1/2-z
-x,-y,-z
x,1/2-y,1/2+z
loop_
_atom_site_type_symbol
_atom_site_label
_atom_site_fract_x
_atom_site_fract_y
_atom_site_fract_z
Si Si1 0.460619 0.604265 0.900605
Si Si2 0.794049 0.676939 0.905281
Si Si3 0.093138 0.019161 0.768205
Si Si4 0.417682 0.592813 0.397685
Si Si5 0.128398 0.205514 0.348183
Si Si6 0.332149 0.399897 0.731255
O O1 0.619291 0.628557 0.871233
O O2 0.410462 0.750628 0.931734
O O3 0.340159 0.538874 0.797638
O O4 0.500000 0.500000 0.000000
O O5 0.884339 0.589702 0.839646
O O6 0.785419 0.836689 0.874760
O O7 0.850926 0.659353 0.031516
O O8 0.053980 0.147475 0.831596
O O9 0.251181 0.960847 0.840224
O O10 0.972497 0.901658 0.732363
O O11 0.500000 0.500000 0.500000
O O12 0.514960 0.596270 0.308691
O O13 0.291734 0.205245 0.318233
#
# Coordination Sequence:
#
# PCOD9246551 Si02
#       6
#     4   4   4   4   4   4
#     4  11  21  37  70  98 127 169 225 275 328 397
#     4  10  21  41  65  94 133 171 213 279 330 389
#     4  11  24  43  65  95 132 178 217 274 328 401
#     4  11  25  43  67  99 134 172 222 282 341 388
#     4  11  24  43  67  92 136 174 220 268 335 395
#     4  10  22  40  66  95 130 170 219 275 328 388
#
# _framework density 21.375343999999998
#
# number of rings (size 3 to 8) (size 9 to 14) (size 15 to 20)
#    0.000    1.333    3.333    2.500    4.667    0.000 
#    0.000    7.500    3.667    0.000    0.000    0.000 
#    0.000    0.000    0.000    0.000    0.000    0.000 
#
# Total GULP energy -133711.450621 kJ/mol
# GULP energy per Si atom -5571.310443 kJ/mol
# Density = 2.132669 g / cm^3
# Si number density = 21.375344 Si / 1000 Ang^3
#
#
#
# Elastic Constant Matrix: (Units=GPa)
#
#
# Indices 1 2 3 4 5 6 
#
# 1 59.6245 35.0711 32.9775 0.0000 11.5464 0.0000
# 2 35.0711 158.4329 40.2268 0.0000 20.1774 0.0000
# 3 32.9775 40.2268 92.9959 0.0000 11.6045 0.0000
# 4 0.0000 0.0000 0.0000 40.0431 0.0000 5.6629
# 5 11.5464 20.1774 11.6045 0.0000 25.5874 0.0000
# 6 0.0000 0.0000 0.0000 5.6629 0.0000 37.8797
#
#
#
# Elastic Compliance Matrix: (Units=1/GPa)
#
#
# Indices 1 2 3 4 5 6 
#
# 1 0.022903 -0.002811 -0.006246 0.000000 -0.005286 0.000000
# 2 -0.002811 0.007949 -0.001927 0.000000 -0.004126 0.000000
# 3 -0.006246 -0.001927 0.014056 0.000000 -0.002037 0.000000
# 4 0.000000 0.000000 0.000000 0.025512 0.000000 -0.003814
# 5 -0.005286 -0.004126 -0.002037 0.000000 0.045644 0.000000
# 6 0.000000 0.000000 0.000000 -0.003814 0.000000 0.026970
#
#
# Mechanical properties :
#
#
# Convention : Reuss Voigt Hill
#
# Bulk Modulus (GPa) = 43.59197 58.62270 51.10734
# Shear Modulus (GPa) = 28.96059 34.22056 31.59058
#
# Velocity S-wave (km/s) = 3.68484 4.00551 3.84851
# Velocity P-wave (km/s) = 6.20821 6.99121 6.61131
#
# Compressibility (1/GPa) = 0.02294000
#
# Stress axis : x y z
#
# Youngs Moduli (GPa) = 43.66180 125.80689 71.14512
#
# Poissons Ratio (x) = 0.35362 0.44440
# Poissons Ratio (y) = 0.12272 0.13708
# Poissons Ratio (z) = 0.27273 0.24240
#
# Static dielectric constant tensor:
#      x y z
#    x 1.819530 0.000000 -0.024740 
#    y 0.000000 1.832830 0.000000 
#    z -0.024740 0.000000 1.778340 
# 
# From -- ./inp_files/28189.got.cif
#   From: 2010.05.17/outbox.cif.g08.bks.cpg/sg14_15_cif.got.tgz:28189.got - 2010.06.03 17:49:19.
