data_PCOD9246245
_publ_section_title
;
Structure prediction by ZEFSAII (Michael W. Deem and Ramdas Pophale) SiO2 
 PCOD9246245
Probable space group: P 21/C
;
_chemical_formula_sum "Si O2"
_cell_formula_units_Z 30
_cell_length_a 11.815148
_cell_length_b 17.851689
_cell_length_c 5.158010
_cell_angle_alpha 90.000000
_cell_angle_beta 77.131107
_cell_angle_gamma 90.000000
_cell_volume 1060.602935
_symmetry_space_group_name_H-M "P 21/C"
_symmetry_group_IT_number 14
_symmetry_cell_setting 'monoclinic'
loop_
_space_group_symop_operation_xyz
x,y,z
-x,1/2+y,1/2-z
-x,-y,-z
x,1/2-y,1/2+z
loop_
_atom_site_type_symbol
_atom_site_label
_atom_site_fract_x
_atom_site_fract_y
_atom_site_fract_z
Si Si1 0.089680 0.088624 0.059250
Si Si2 0.387570 0.599051 0.225404
Si Si3 0.153132 0.543404 0.184902
Si Si4 0.500000 0.500000 0.500000
Si Si5 0.276268 0.087803 0.331931
Si Si6 0.288660 0.699038 0.643652
Si Si7 0.016803 0.699419 0.770500
Si Si8 0.408537 0.198915 0.587127
O O1 0.193884 0.126132 0.161784
O O2 0.971672 0.080876 0.289707
O O3 0.052423 0.130390 0.814926
O O4 0.132418 0.006323 0.952240
O O5 0.259437 0.600152 0.169226
O O6 0.426844 0.515419 0.265244
O O7 0.370105 0.628738 0.532462
O O8 0.477853 0.648176 0.023244
O O9 0.202146 0.484185 0.957286
O O10 0.603111 0.557245 0.343897
O O11 0.305377 0.144414 0.549271
O O12 0.310099 0.747479 0.885162
O O13 0.153407 0.678082 0.702685
O O14 0.996201 0.762250 0.557025
O O15 0.408795 0.234740 0.870765
#
# Coordination Sequence:
#
# PCOD9246245 Si02
#       8
#     4   4   4   2   4   4   4   4
#     4  11  24  47  69 110 153 193 252 307 374 462
#     4  11  22  44  71 105 143 189 245 317 372 448
#     4  11  25  45  73 110 145 201 247 311 383 455
#     4  10  24  44  64 106 136 188 242 304 372 440
#     4  11  26  45  76 103 153 195 253 308 383 452
#     4  10  21  40  65  99 135 181 237 295 364 428
#     4  10  23  42  68 102 142 191 240 298 366 437
#     4  11  28  49  78 110 146 199 258 318 379 449
#
# _framework density 28.285796999999999
#
# number of rings (size 3 to 8) (size 9 to 14) (size 15 to 20)
#    0.000    1.333    2.667    1.200    3.733    6.400 
#    2.400    0.000    0.000    0.000    0.000    0.000 
#    0.000    0.000    0.000    0.000    0.000    0.000 
#
# Total GULP energy -167942.505486 kJ/mol
# GULP energy per Si atom -5598.083516 kJ/mol
# Density = 2.822142 g / cm^3
# Si number density = 28.285797 Si / 1000 Ang^3
#
#
#
# Elastic Constant Matrix: (Units=GPa)
#
#
# Indices 1 2 3 4 5 6 
#
# 1 156.2066 14.3672 30.9229 0.0000 -4.5186 0.0000
# 2 14.3672 78.6819 36.6414 0.0000 -6.1053 0.0000
# 3 30.9229 36.6414 107.1182 0.0000 -0.7203 0.0000
# 4 0.0000 0.0000 0.0000 54.5082 0.0000 1.1218
# 5 -4.5186 -6.1053 -0.7203 0.0000 43.1059 0.0000
# 6 0.0000 0.0000 0.0000 1.1218 0.0000 38.3904
#
#
#
# Elastic Compliance Matrix: (Units=1/GPa)
#
#
# Indices 1 2 3 4 5 6 
#
# 1 0.006817 -0.000334 -0.001849 0.000000 0.000636 0.000000
# 2 -0.000334 0.015318 -0.005130 0.000000 0.002049 0.000000
# 3 -0.001849 -0.005130 0.011619 0.000000 -0.000726 0.000000
# 4 0.000000 0.000000 0.000000 0.018357 0.000000 -0.000536
# 5 0.000636 0.002049 -0.000726 0.000000 0.023543 0.000000
# 6 0.000000 0.000000 0.000000 -0.000536 0.000000 0.026064
#
#
# Mechanical properties :
#
#
# Convention : Reuss Voigt Hill
#
# Bulk Modulus (GPa) = 52.27903 56.20777 54.24340
# Shear Modulus (GPa) = 40.74290 44.53925 42.64108
#
# Velocity S-wave (km/s) = 3.79938 3.97245 3.88688
# Velocity P-wave (km/s) = 6.14570 6.39961 6.27394
#
# Compressibility (1/GPa) = 0.01912813
#
# Stress axis : x y z
#
# Youngs Moduli (GPa) = 146.69163 65.28184 86.06507
#
# Poissons Ratio (x) = 0.02182 0.15916
# Poissons Ratio (y) = 0.04902 0.44148
# Poissons Ratio (z) = 0.27128 0.33487
#
# Static dielectric constant tensor:
#      x y z
#    x 2.366890 0.000000 0.330160 
#    y 0.000000 1.605970 0.000000 
#    z 0.330160 0.000000 2.955130 
# 
# From -- ./inp_files/2946.got.cif
#   From: 2010.05.17/outbox.cif.g08.bks.cpg/sg14_2_cif.got.tgz:2946.got - 2010.06.03 17:49:19.
