data_PCOD9246544
_publ_section_title
;
Structure prediction by ZEFSAII (Michael W. Deem and Ramdas Pophale) SiO2 
 PCOD9246544
Probable space group: P 21/C
;
_chemical_formula_sum "Si O2"
_cell_formula_units_Z 28
_cell_length_a 22.037595
_cell_length_b 13.713931
_cell_length_c 9.767540
_cell_angle_alpha 90.000000
_cell_angle_beta 152.328560
_cell_angle_gamma 90.000000
_cell_volume 1370.894943
_symmetry_space_group_name_H-M "P 21/C"
_symmetry_group_IT_number 14
_symmetry_cell_setting 'monoclinic'
loop_
_space_group_symop_operation_xyz
x,y,z
-x,1/2+y,1/2-z
-x,-y,-z
x,1/2-y,1/2+z
loop_
_atom_site_type_symbol
_atom_site_label
_atom_site_fract_x
_atom_site_fract_y
_atom_site_fract_z
Si Si1 0.515018 0.496437 0.297793
Si Si2 0.326467 0.839520 0.321405
Si Si3 0.082275 0.288592 0.672075
Si Si4 0.992569 0.142389 0.707316
Si Si5 0.311689 0.071733 0.607240
Si Si6 0.691518 0.337729 0.527980
Si Si7 0.104644 0.558347 0.546699
O O1 0.607920 0.546197 0.596961
O O2 0.411460 0.432237 0.178997
O O3 0.603058 0.431340 0.376366
O O4 0.433684 0.576777 0.053904
O O5 0.363315 0.748879 0.489128
O O6 0.192530 0.882807 0.115238
O O7 0.308322 0.808570 0.129636
O O8 0.064260 0.188719 0.718705
O O9 0.027346 0.290424 0.408129
O O10 0.996787 0.369612 0.583530
O O11 0.229415 0.329515 0.958140
O O12 0.839202 0.143105 0.371220
O O13 0.039419 0.034494 0.842781
O O14 0.204792 0.987451 0.358760
#
# Coordination Sequence:
#
# PCOD9246544 Si02
#       7
#     4   4   4   4   4   4   4
#     4  10  22  43  65  91 128 171 218 255 317 372
#     4  11  26  42  65  96 129 165 220 266 309 386
#     4  11  21  41  62  99 125 163 215 258 324 380
#     4  11  23  39  68  93 129 170 206 268 322 383
#     4   9  20  39  67  91 125 167 206 264 313 379
#     4  12  24  43  67  93 126 175 214 261 325 376
#     4  10  21  41  65  93 131 164 213 263 318 381
#
# _framework density 20.424613999999998
#
# number of rings (size 3 to 8) (size 9 to 14) (size 15 to 20)
#    0.000    1.429    1.429    4.714    6.000    0.571 
#   10.286    0.000    0.000    0.000    0.000    0.000 
#    0.000    0.000    0.000    0.000    0.000    0.000 
#
# Total GULP energy -156622.748464 kJ/mol
# GULP energy per Si atom -5593.669588 kJ/mol
# Density = 2.037813 g / cm^3
# Si number density = 20.424614 Si / 1000 Ang^3
#
#
#
# Elastic Constant Matrix: (Units=GPa)
#
#
# Indices 1 2 3 4 5 6 
#
# 1 169.7300 73.7397 -18.9173 0.0000 -25.0324 0.0000
# 2 73.7397 81.7340 -10.8296 0.0000 -5.3285 0.0000
# 3 -18.9173 -10.8296 126.3499 0.0000 7.6015 0.0000
# 4 0.0000 0.0000 0.0000 14.7800 0.0000 -6.3484
# 5 -25.0324 -5.3285 7.6015 0.0000 36.0477 0.0000
# 6 0.0000 0.0000 0.0000 -6.3484 0.0000 18.7035
#
#
#
# Elastic Compliance Matrix: (Units=1/GPa)
#
#
# Indices 1 2 3 4 5 6 
#
# 1 0.010926 -0.009398 0.000463 0.000000 0.006100 0.000000
# 2 -0.009398 0.020555 0.000572 0.000000 -0.003609 0.000000
# 3 0.000463 0.000572 0.008111 0.000000 -0.001304 0.000000
# 4 0.000000 0.000000 0.000000 0.079207 0.000000 0.026885
# 5 0.006100 -0.003609 -0.001304 0.000000 0.031719 0.000000
# 6 0.000000 0.000000 0.000000 0.026885 0.000000 0.062591
#
#
# Mechanical properties :
#
#
# Convention : Reuss Voigt Hill
#
# Bulk Modulus (GPa) = 43.73449 51.75550 47.74500
# Shear Modulus (GPa) = 21.05639 36.16098 28.60869
#
# Velocity S-wave (km/s) = 3.21430 4.21225 3.74665
# Velocity P-wave (km/s) = 5.93588 7.00373 6.49180
#
# Compressibility (1/GPa) = 0.02286525
#
# Stress axis : x y z
#
# Youngs Moduli (GPa) = 91.52248 48.65105 123.28381
#
# Poissons Ratio (x) = 0.45725 -0.05712
# Poissons Ratio (y) = 0.86017 -0.07048
# Poissons Ratio (z) = -0.04240 -0.02781
#
# Static dielectric constant tensor:
#      x y z
#    x 1.715880 0.000000 0.008660 
#    y 0.000000 1.730590 0.000000 
#    z 0.008660 0.000000 1.704520 
# 
# From -- ./inp_files/19091.got.cif
#   From: 2010.05.17/outbox.cif.g08.bks.cpg/sg14_10_cif.got.tgz:19091.got - 2010.06.03 17:49:19.
