data_PCOD9246113
_publ_section_title
;
Structure prediction by ZEFSAII (Michael W. Deem and Ramdas Pophale) SiO2 
 PCOD9246113
Probable space group: P 21/C
;
_chemical_formula_sum "Si O2"
_cell_formula_units_Z 32
_cell_length_a 15.128151
_cell_length_b 18.609105
_cell_length_c 5.098770
_cell_angle_alpha 90.000000
_cell_angle_beta 120.094238
_cell_angle_gamma 90.000000
_cell_volume 1241.921652
_symmetry_space_group_name_H-M "P 21/C"
_symmetry_group_IT_number 14
_symmetry_cell_setting 'monoclinic'
loop_
_space_group_symop_operation_xyz
x,y,z
-x,1/2+y,1/2-z
-x,-y,-z
x,1/2-y,1/2+z
loop_
_atom_site_type_symbol
_atom_site_label
_atom_site_fract_x
_atom_site_fract_y
_atom_site_fract_z
Si Si1 0.952572 0.438540 0.249722
Si Si2 0.952917 0.697713 0.441474
Si Si3 0.547780 0.788788 0.389264
Si Si4 0.259806 0.374601 0.020757
Si Si5 0.718600 0.064668 0.833432
Si Si6 0.850459 0.958027 0.242517
Si Si7 0.317104 0.796368 0.965476
Si Si8 0.382063 0.514799 0.291098
O O1 0.956108 0.361400 0.394812
O O2 0.037067 0.428447 0.143037
O O3 0.000000 0.500000 0.500000
O O4 0.858907 0.479091 0.975231
O O5 0.955257 0.747242 0.187583
O O6 0.846692 0.650457 0.272494
O O7 0.544517 0.782636 0.699124
O O8 0.653872 0.818631 0.435350
O O9 0.436833 0.822087 0.156405
O O10 0.219793 0.393363 0.256736
O O11 0.327673 0.445875 0.080425
O O12 0.748986 0.139475 0.012947
O O13 0.654216 0.074584 0.472256
O O14 0.810238 0.007407 0.946841
O O15 0.653754 0.027177 0.966700
O O16 0.301616 0.732245 0.151311
O O17 0.500000 0.500000 0.500000
#
# Coordination Sequence:
#
# PCOD9246113 Si02
#       8
#     4   4   4   4   4   4   4   4
#     4  11  23  47  74  98 139 190 234 294 373 457
#     4  12  26  43  68 104 142 179 230 298 365 438
#     4  10  22  37  58  88 128 176 219 263 330 410
#     4  11  22  42  64  99 136 180 229 289 355 418
#     4  11  23  41  63  97 129 167 233 292 326 408
#     4  10  24  42  72 102 130 184 241 291 364 438
#     4  10  21  40  63  88 128 183 228 276 344 413
#     4  11  24  39  63  97 138 181 225 285 346 400
#
# _framework density 25.76652
#
# number of rings (size 3 to 8) (size 9 to 14) (size 15 to 20)
#    0.000    1.250    1.250    4.125    3.500    6.000 
#    0.000    1.250    0.000    0.000    0.000    0.000 
#    0.000    0.000    0.000    0.000    0.000    0.000 
#
# Total GULP energy -178506.178291 kJ/mol
# GULP energy per Si atom -5578.318072 kJ/mol
# Density = 2.570787 g / cm^3
# Si number density = 25.766520 Si / 1000 Ang^3
#
#
#
# Elastic Constant Matrix: (Units=GPa)
#
#
# Indices 1 2 3 4 5 6 
#
# 1 97.4866 9.2167 14.2416 0.0000 -14.5090 0.0000
# 2 9.2167 51.3052 4.2845 0.0000 -9.1504 0.0000
# 3 14.2416 4.2845 98.5556 0.0000 -22.6125 0.0000
# 4 0.0000 0.0000 0.0000 35.7861 0.0000 5.9851
# 5 -14.5090 -9.1504 -22.6125 0.0000 28.7273 0.0000
# 6 0.0000 0.0000 0.0000 5.9851 0.0000 32.6886
#
#
#
# Elastic Compliance Matrix: (Units=1/GPa)
#
#
# Indices 1 2 3 4 5 6 
#
# 1 0.011160 -0.001086 -0.000429 0.000000 0.004953 0.000000
# 2 -0.001086 0.020816 0.000790 0.000000 0.006704 0.000000
# 3 -0.000429 0.000790 0.012426 0.000000 0.009816 0.000000
# 4 0.000000 0.000000 0.000000 0.028827 0.000000 -0.005278
# 5 0.004953 0.006704 0.009816 0.000000 0.047174 0.000000
# 6 0.000000 0.000000 0.000000 -0.005278 0.000000 0.031558
#
#
# Mechanical properties :
#
#
# Convention : Reuss Voigt Hill
#
# Bulk Modulus (GPa) = 23.28099 33.64811 28.46455
# Shear Modulus (GPa) = 29.81010 34.08071 31.94540
#
# Velocity S-wave (km/s) = 3.40506 3.64080 3.52490
# Velocity P-wave (km/s) = 4.95118 5.54627 5.25715
#
# Compressibility (1/GPa) = 0.04295350
#
# Stress axis : x y z
#
# Youngs Moduli (GPa) = 89.60317 48.04011 80.47336
#
# Poissons Ratio (x) = 0.05216 0.03453
# Poissons Ratio (y) = 0.09728 -0.06358
# Poissons Ratio (z) = 0.03845 -0.03796
#
# Static dielectric constant tensor:
#      x y z
#    x 2.112350 0.000000 0.024700 
#    y 0.000000 2.113990 0.000000 
#    z 0.024700 0.000000 2.090910 
# 
# From -- ./inp_files/4253.got.cif
#   From: 2010.05.17/outbox.cif.g08.bks.cpg/sg14_3_cif.got.tgz:4253.got - 2010.06.03 17:49:19.
