data_PCOD9246293
_publ_section_title
;
Structure prediction by ZEFSAII (Michael W. Deem and Ramdas Pophale) SiO2 
 PCOD9246293
Probable space group: P 21/C
;
_chemical_formula_sum "Si O2"
_cell_formula_units_Z 20
_cell_length_a 12.255979
_cell_length_b 7.858981
_cell_length_c 20.741506
_cell_angle_alpha 90.000000
_cell_angle_beta 22.126856
_cell_angle_gamma 90.000000
_cell_volume 752.492745
_symmetry_space_group_name_H-M "P 21/C"
_symmetry_group_IT_number 14
_symmetry_cell_setting 'monoclinic'
loop_
_space_group_symop_operation_xyz
x,y,z
-x,1/2+y,1/2-z
-x,-y,-z
x,1/2-y,1/2+z
loop_
_atom_site_type_symbol
_atom_site_label
_atom_site_fract_x
_atom_site_fract_y
_atom_site_fract_z
Si Si1 0.095802 0.068614 0.771156
Si Si2 0.352109 0.443059 0.878102
Si Si3 0.853991 0.232924 0.583746
Si Si4 0.612150 0.846296 0.059809
Si Si5 0.607328 0.257453 0.455710
O O1 0.350255 0.202950 0.645762
O O2 0.875886 0.158452 0.843304
O O3 0.257139 0.910829 0.650226
O O4 0.869901 0.970494 0.940795
O O5 0.692806 0.413537 0.677444
O O6 0.230635 0.629875 0.934389
O O7 0.298954 0.351168 0.975561
O O8 0.178439 0.314081 0.925127
O O9 0.665614 0.133035 0.742568
O O10 0.524867 0.858416 0.033153
#
# Coordination Sequence:
#
# PCOD9246293 Si02
#       5
#     4   4   4   4   4
#     4  11  23  41  64  95 129 169 215 258 316 379
#     4   9  20  39  64  90 122 157 211 254 316 364
#     4   9  20  38  63  91 119 163 202 258 307 380
#     4  10  21  40  67  90 125 173 200 265 317 369
#     4  11  23  40  66  94 132 168 211 264 310 384
#
# _framework density 26.578327999999999
#
# number of rings (size 3 to 8) (size 9 to 14) (size 15 to 20)
#    1.200    0.800    2.000    1.800    0.000    0.800 
#    0.000    8.000    0.000    0.000    0.000    0.000 
#    0.000    0.000    0.000    0.000    0.000    0.000 
#
# Total GULP energy -111582.058844 kJ/mol
# GULP energy per Si atom -5579.102942 kJ/mol
# Density = 2.651783 g / cm^3
# Si number density = 26.578328 Si / 1000 Ang^3
#
#
#
# Elastic Constant Matrix: (Units=GPa)
#
#
# Indices 1 2 3 4 5 6 
#
# 1 77.0454 -5.2137 9.3053 0.0000 -12.3200 0.0000
# 2 -5.2137 72.0534 24.4001 0.0000 -9.4917 0.0000
# 3 9.3053 24.4001 134.0790 0.0000 -22.6655 0.0000
# 4 0.0000 0.0000 0.0000 50.8812 0.0000 -8.6396
# 5 -12.3200 -9.4917 -22.6655 0.0000 46.3021 0.0000
# 6 0.0000 0.0000 0.0000 -8.6396 0.0000 36.0124
#
#
#
# Elastic Compliance Matrix: (Units=1/GPa)
#
#
# Indices 1 2 3 4 5 6 
#
# 1 0.013763 0.001699 -0.000639 0.000000 0.003697 0.000000
# 2 0.001699 0.015150 -0.002479 0.000000 0.002345 0.000000
# 3 -0.000639 -0.002479 0.008546 0.000000 0.003505 0.000000
# 4 0.000000 0.000000 0.000000 0.020488 0.000000 0.004915
# 5 0.003697 0.002345 0.003505 0.000000 0.024778 0.000000
# 6 0.000000 0.000000 0.000000 0.004915 0.000000 0.028947
#
#
# Mechanical properties :
#
#
# Convention : Reuss Voigt Hill
#
# Bulk Modulus (GPa) = 28.88360 37.79569 33.33964
# Shear Modulus (GPa) = 39.66684 43.61821 41.64253
#
# Velocity S-wave (km/s) = 3.86742 4.05547 3.96256
# Velocity P-wave (km/s) = 5.55279 6.01502 5.78852
#
# Compressibility (1/GPa) = 0.03462173
#
# Stress axis : x y z
#
# Youngs Moduli (GPa) = 72.65956 66.00758 117.00992
#
# Poissons Ratio (x) = -0.11218 0.07482
# Poissons Ratio (y) = -0.12348 0.29002
# Poissons Ratio (z) = 0.04646 0.16361
#
# Static dielectric constant tensor:
#      x y z
#    x 2.098690 0.000000 0.044410 
#    y 0.000000 2.141780 0.000000 
#    z 0.044410 0.000000 2.084120 
# 
# From -- ./inp_files/17493.got.cif
#   From: 2010.05.17/outbox.cif.g08.bks.cpg/sg14_9_cif.got.tgz:17493.got - 2010.06.03 17:49:19.
