data_PCOD9246514
_publ_section_title
;
Structure prediction by ZEFSAII (Michael W. Deem and Ramdas Pophale) SiO2 
 PCOD9246514
Probable space group: P 21/C
;
_chemical_formula_sum "Si O2"
_cell_formula_units_Z 32
_cell_length_a 7.735561
_cell_length_b 25.565833
_cell_length_c 8.512218
_cell_angle_alpha 90.000000
_cell_angle_beta 111.797297
_cell_angle_gamma 90.000000
_cell_volume 1563.068364
_symmetry_space_group_name_H-M "P 21/C"
_symmetry_group_IT_number 14
_symmetry_cell_setting 'monoclinic'
loop_
_space_group_symop_operation_xyz
x,y,z
-x,1/2+y,1/2-z
-x,-y,-z
x,1/2-y,1/2+z
loop_
_atom_site_type_symbol
_atom_site_label
_atom_site_fract_x
_atom_site_fract_y
_atom_site_fract_z
Si Si1 0.585927 0.370284 0.258096
Si Si2 0.062303 0.252030 0.349350
Si Si3 0.185977 0.327163 0.144532
Si Si4 0.165445 0.899535 0.437770
Si Si5 0.671914 0.480189 0.455732
Si Si6 0.879420 0.315939 0.555693
Si Si7 0.950285 0.078691 0.261469
Si Si8 0.285900 0.489370 0.866416
O O1 0.371506 0.358576 0.184236
O O2 0.677111 0.371526 0.115136
O O3 0.620039 0.426225 0.350489
O O4 0.686634 0.329082 0.406686
O O5 0.006606 0.294258 0.459351
O O6 0.888880 0.229603 0.189278
O O7 0.199713 0.280586 0.276169
O O8 0.136771 0.201886 0.466312
O O9 0.020356 0.365300 0.144141
O O10 0.175820 0.906772 0.629417
O O11 0.171553 0.958360 0.373166
O O12 0.500000 0.500000 0.500000
O O13 0.845590 0.466358 0.626092
O O14 0.709195 0.517776 0.320489
O O15 0.955080 0.369749 0.655394
O O16 0.154334 0.057904 0.382401
O O17 0.500000 0.500000 0.000000
#
# Coordination Sequence:
#
# PCOD9246514 Si02
#       8
#     4   4   4   4   4   4   4   4
#     4  10  24  41  66  97 129 167 229 266 332 398
#     4  10  22  42  68  92 128 170 219 265 345 387
#     4  11  23  43  67  94 130 171 214 279 327 397
#     4  11  23  42  68  94 132 176 215 272 334 385
#     4  10  23  41  61  95 136 173 222 270 328 398
#     4  10  21  41  64  95 127 170 214 275 328 397
#     4  11  23  41  66  96 134 178 218 274 335 387
#     4  11  25  41  68 100 132 180 229 268 334 408
#
# _framework density 20.472556000000001
#
# number of rings (size 3 to 8) (size 9 to 14) (size 15 to 20)
#    0.000    1.500    2.500    1.500    5.250    2.000 
#    0.000    5.000    0.000    0.000    0.000    0.000 
#    0.000    0.000    0.000    0.000    0.000    0.000 
#
# Total GULP energy -178458.007150 kJ/mol
# GULP energy per Si atom -5576.812723 kJ/mol
# Density = 2.042596 g / cm^3
# Si number density = 20.472556 Si / 1000 Ang^3
#
#
#
# Elastic Constant Matrix: (Units=GPa)
#
#
# Indices 1 2 3 4 5 6 
#
# 1 104.3161 36.4912 37.2272 0.0000 1.7929 0.0000
# 2 36.4912 55.4619 23.9190 0.0000 3.2054 0.0000
# 3 37.2272 23.9190 91.1639 0.0000 -13.3431 0.0000
# 4 0.0000 0.0000 0.0000 31.6416 0.0000 -1.2876
# 5 1.7929 3.2054 -13.3431 0.0000 28.0349 0.0000
# 6 0.0000 0.0000 0.0000 -1.2876 0.0000 23.8158
#
#
#
# Elastic Compliance Matrix: (Units=1/GPa)
#
#
# Indices 1 2 3 4 5 6 
#
# 1 0.013499 -0.007071 -0.003940 0.000000 -0.001930 0.000000
# 2 -0.007071 0.024774 -0.004257 0.000000 -0.004407 0.000000
# 3 -0.003940 -0.004257 0.014837 0.000000 0.007800 0.000000
# 4 0.000000 0.000000 0.000000 0.031674 0.000000 0.001713
# 5 -0.001930 -0.004407 0.007800 0.000000 0.040009 0.000000
# 6 0.000000 0.000000 0.000000 0.001713 0.000000 0.042082
#
#
# Mechanical properties :
#
#
# Convention : Reuss Voigt Hill
#
# Bulk Modulus (GPa) = 44.30043 49.57964 46.94004
# Shear Modulus (GPa) = 24.39809 26.91876 25.65843
#
# Velocity S-wave (km/s) = 3.45591 3.63005 3.54405
# Velocity P-wave (km/s) = 6.13273 6.46837 6.30279
#
# Compressibility (1/GPa) = 0.02257314
#
# Stress axis : x y z
#
# Youngs Moduli (GPa) = 74.08035 40.36563 67.40062
#
# Poissons Ratio (x) = 0.28543 0.26553
# Poissons Ratio (y) = 0.52383 0.28695
# Poissons Ratio (z) = 0.29184 0.17185
#
# Static dielectric constant tensor:
#      x y z
#    x 1.710560 0.000000 0.007280 
#    y 0.000000 1.753700 0.000000 
#    z 0.007280 0.000000 1.801510 
# 
# From -- ./inp_files/6993.got.cif
#   From: 2010.05.17/outbox.cif.g08.bks.cpg/sg14_4_cif.got.tgz:6993.got - 2010.06.03 17:49:19.
