data_PCOD9246631
_publ_section_title
;
Structure prediction by ZEFSAII (Michael W. Deem and Ramdas Pophale) SiO2 
 PCOD9246631
Probable space group: P 21/C
;
_chemical_formula_sum "Si O2"
_cell_formula_units_Z 20
_cell_length_a 5.030403
_cell_length_b 8.019084
_cell_length_c 18.629729
_cell_angle_alpha 90.000000
_cell_angle_beta 78.917547
_cell_angle_gamma 90.000000
_cell_volume 737.494362
_symmetry_space_group_name_H-M "P 21/C"
_symmetry_group_IT_number 14
_symmetry_cell_setting 'monoclinic'
loop_
_space_group_symop_operation_xyz
x,y,z
-x,1/2+y,1/2-z
-x,-y,-z
x,1/2-y,1/2+z
loop_
_atom_site_type_symbol
_atom_site_label
_atom_site_fract_x
_atom_site_fract_y
_atom_site_fract_z
Si Si1 0.942376 0.453181 0.723976
Si Si2 0.553026 0.737993 0.067392
Si Si3 0.729606 0.142947 0.547684
Si Si4 0.592224 0.737537 0.231681
Si Si5 0.209527 0.157871 0.075885
O O1 0.709584 0.311870 0.729646
O O2 0.757825 0.608221 0.755953
O O3 0.187394 0.408643 0.764846
O O4 0.090341 0.470509 0.638779
O O5 0.685663 0.553685 0.053872
O O6 0.553299 0.778533 0.149774
O O7 0.279155 0.703844 0.035619
O O8 0.707570 0.877709 0.011358
O O9 0.474965 0.248307 0.591115
O O10 0.987315 0.200665 0.576423
#
# Coordination Sequence:
#
# PCOD9246631 Si02
#       5
#     4   4   4   4   4
#     4  12  29  48  70 107 144 199 234 306 363 433
#     4   9  23  39  72 102 142 180 245 286 364 421
#     4   9  20  36  70 106 135 179 226 299 348 431
#     4  12  29  48  73 104 150 191 246 296 367 432
#     4  10  21  41  67  99 139 178 237 288 356 417
#
# _framework density 27.118849999999998
#
# number of rings (size 3 to 8) (size 9 to 14) (size 15 to 20)
#    1.200    0.400    0.000    3.000   11.200    0.800 
#    0.000    1.000    0.000    0.000    0.000    0.000 
#    0.000    0.000    0.000    0.000    0.000    0.000 
#
# Total GULP energy -111800.300848 kJ/mol
# GULP energy per Si atom -5590.015042 kJ/mol
# Density = 2.705713 g / cm^3
# Si number density = 27.118850 Si / 1000 Ang^3
#
#
#
# Elastic Constant Matrix: (Units=GPa)
#
#
# Indices 1 2 3 4 5 6 
#
# 1 142.9699 28.6177 18.0746 0.0000 -2.1738 0.0000
# 2 28.6177 77.8987 1.4837 0.0000 0.6915 0.0000
# 3 18.0746 1.4837 142.3915 0.0000 0.2799 0.0000
# 4 0.0000 0.0000 0.0000 23.9298 0.0000 5.2927
# 5 -2.1738 0.6915 0.2799 0.0000 6.5818 0.0000
# 6 0.0000 0.0000 0.0000 5.2927 0.0000 50.9240
#
#
#
# Elastic Compliance Matrix: (Units=1/GPa)
#
#
# Indices 1 2 3 4 5 6 
#
# 1 0.007729 -0.002847 -0.000957 0.000000 0.002893 0.000000
# 2 -0.002847 0.013900 0.000221 0.000000 -0.002410 0.000000
# 3 -0.000957 0.000221 0.007143 0.000000 -0.000643 0.000000
# 4 0.000000 0.000000 0.000000 0.042772 0.000000 -0.004445
# 5 0.002893 -0.002410 -0.000643 0.000000 0.153170 0.000000
# 6 0.000000 0.000000 0.000000 -0.004445 0.000000 0.020099
#
#
# Mechanical properties :
#
#
# Convention : Reuss Voigt Hill
#
# Bulk Modulus (GPa) = 46.28076 51.06801 48.67438
# Shear Modulus (GPa) = 19.29141 37.29271 28.29206
#
# Velocity S-wave (km/s) = 2.67004 3.71234 3.23346
# Velocity P-wave (km/s) = 5.15833 6.10306 5.65047
#
# Compressibility (1/GPa) = 0.02160725
#
# Stress axis : x y z
#
# Youngs Moduli (GPa) = 129.37722 71.94105 139.99037
#
# Poissons Ratio (x) = 0.20481 0.13399
# Poissons Ratio (y) = 0.36833 -0.03098
# Poissons Ratio (z) = 0.12383 -0.01592
#
# Static dielectric constant tensor:
#      x y z
#    x 2.087800 0.000000 -0.053110 
#    y 0.000000 2.179660 0.000000 
#    z -0.053110 0.000000 2.161820 
# 
# From -- ./inp_files/63052.got.cif
#   From: 2010.05.17/outbox.cif.g08.bks.cpg/sg14_32_cif.got.tgz:63052.got - 2010.06.03 17:49:19.
