data_PCOD9246187
_publ_section_title
;
Structure prediction by ZEFSAII (Michael W. Deem and Ramdas Pophale) SiO2 
 PCOD9246187
Probable space group: P 21/C
;
_chemical_formula_sum "Si O2"
_cell_formula_units_Z 16
_cell_length_a 7.967346
_cell_length_b 8.431679
_cell_length_c 11.206714
_cell_angle_alpha 90.000000
_cell_angle_beta 119.569354
_cell_angle_gamma 90.000000
_cell_volume 654.794410
_symmetry_space_group_name_H-M "P 21/C"
_symmetry_group_IT_number 14
_symmetry_cell_setting 'monoclinic'
loop_
_space_group_symop_operation_xyz
x,y,z
-x,1/2+y,1/2-z
-x,-y,-z
x,1/2-y,1/2+z
loop_
_atom_site_type_symbol
_atom_site_label
_atom_site_fract_x
_atom_site_fract_y
_atom_site_fract_z
Si Si1 0.631157 0.584990 0.445031
Si Si2 0.876600 0.411663 0.056716
Si Si3 0.339840 0.773490 0.194293
Si Si4 0.944299 0.719713 0.195460
O O1 0.500000 0.500000 0.500000
O O2 0.522828 0.726464 0.337093
O O3 0.669678 0.449338 0.360772
O O4 0.811599 0.656083 0.578897
O O5 0.853311 0.546190 0.148573
O O6 0.012689 0.273124 0.155495
O O7 0.686337 0.339647 0.931393
O O8 0.000000 0.500000 0.000000
O O9 0.155596 0.729375 0.210193
#
# Coordination Sequence:
#
# PCOD9246187 Si02
#       4
#     4   4   4   4
#     4  12  25  43  66  97 130 167 215 266 316 382
#     4  10  21  40  64  94 127 167 212 260 314 376
#     4  11  24  43  65  96 130 170 213 263 321 379
#     4  11  23  42  67  93 130 172 211 263 321 377
#
# _framework density 24.435151000000001
#
# number of rings (size 3 to 8) (size 9 to 14) (size 15 to 20)
#    0.000    1.000    0.000    8.250    0.000    6.000 
#    0.000    5.000    0.000    0.000    0.000    0.000 
#    0.000    0.000    0.000    0.000    0.000    0.000 
#
# Total GULP energy -89604.073267 kJ/mol
# GULP energy per Si atom -5600.254579 kJ/mol
# Density = 2.437954 g / cm^3
# Si number density = 24.435151 Si / 1000 Ang^3
#
#
#
# Elastic Constant Matrix: (Units=GPa)
#
#
# Indices 1 2 3 4 5 6 
#
# 1 28.5439 -11.5550 1.6176 0.0000 1.4537 0.0000
# 2 -11.5550 48.8733 -2.9588 0.0000 -9.0349 0.0000
# 3 1.6176 -2.9588 126.0969 0.0000 0.1777 0.0000
# 4 0.0000 0.0000 0.0000 71.1706 0.0000 -1.8307
# 5 1.4537 -9.0349 0.1777 0.0000 22.8431 0.0000
# 6 0.0000 0.0000 0.0000 -1.8307 0.0000 30.8900
#
#
#
# Elastic Compliance Matrix: (Units=1/GPa)
#
#
# Indices 1 2 3 4 5 6 
#
# 1 0.038785 0.009383 -0.000279 0.000000 0.001245 0.000000
# 2 0.009383 0.024377 0.000439 0.000000 0.009041 0.000000
# 3 -0.000279 0.000439 0.007944 0.000000 0.000130 0.000000
# 4 0.000000 0.000000 0.000000 0.014072 0.000000 0.000834
# 5 0.001245 0.009041 0.000130 0.000000 0.047273 0.000000
# 6 0.000000 0.000000 0.000000 0.000834 0.000000 0.032422
#
#
# Mechanical properties :
#
#
# Convention : Reuss Voigt Hill
#
# Bulk Modulus (GPa) = 11.08750 19.74687 15.41719
# Shear Modulus (GPa) = 28.43304 39.40808 33.92056
#
# Velocity S-wave (km/s) = 3.41488 4.02028 3.72988
# Velocity P-wave (km/s) = 4.48284 5.44509 4.98723
#
# Compressibility (1/GPa) = 0.09019162
#
# Stress axis : x y z
#
# Youngs Moduli (GPa) = 25.78347 41.02154 125.87946
#
# Poissons Ratio (x) = -0.38491 0.03514
# Poissons Ratio (y) = -0.24193 -0.05525
# Poissons Ratio (z) = 0.00720 -0.01800
#
# Static dielectric constant tensor:
#      x y z
#    x 1.952310 0.000000 -0.116480 
#    y 0.000000 1.936840 0.000000 
#    z -0.116480 0.000000 2.023010 
# 
# From -- ./inp_files/7316.got.cif
#   From: 2010.05.17/outbox.cif.g08.bks.cpg/sg14_4_cif.got.tgz:7316.got - 2010.06.03 17:49:19.
