data_PCOD9246555
_publ_section_title
;
Structure prediction by ZEFSAII (Michael W. Deem and Ramdas Pophale) SiO2 
 PCOD9246555
Probable space group: P 21/C
;
_chemical_formula_sum "Si O2"
_cell_formula_units_Z 28
_cell_length_a 21.244264
_cell_length_b 8.414097
_cell_length_c 9.345587
_cell_angle_alpha 90.000000
_cell_angle_beta 126.971783
_cell_angle_gamma 90.000000
_cell_volume 1334.644170
_symmetry_space_group_name_H-M "P 21/C"
_symmetry_group_IT_number 14
_symmetry_cell_setting 'monoclinic'
loop_
_space_group_symop_operation_xyz
x,y,z
-x,1/2+y,1/2-z
-x,-y,-z
x,1/2-y,1/2+z
loop_
_atom_site_type_symbol
_atom_site_label
_atom_site_fract_x
_atom_site_fract_y
_atom_site_fract_z
Si Si1 0.098431 0.354328 0.333992
Si Si2 0.742512 0.916934 0.811549
Si Si3 0.739945 0.298338 0.832422
Si Si4 0.346330 0.232872 0.047339
Si Si5 0.155444 0.677715 0.279615
Si Si6 0.407746 0.468042 0.362684
Si Si7 0.005921 0.182603 0.976779
O O1 0.177239 0.327955 0.532259
O O2 0.115316 0.536258 0.314148
O O3 0.076199 0.263498 0.160041
O O4 0.026127 0.309485 0.337357
O O5 0.715470 0.837716 0.627418
O O6 0.688336 0.877863 0.875190
O O7 0.739509 0.108729 0.794702
O O8 0.784534 0.380873 0.760219
O O9 0.655412 0.385061 0.735375
O O10 0.795704 0.295392 0.049495
O O11 0.396707 0.358857 0.207093
O O12 0.386067 0.128508 0.977680
O O13 0.079791 0.752722 0.101944
O O14 0.500000 0.500000 0.500000
O O15 0.000000 0.000000 0.000000
#
# Coordination Sequence:
#
# PCOD9246555 Si02
#       7
#     4   4   4   4   4   4   4
#     4  11  23  39  61  88 125 166 214 270 322 376
#     4  10  21  41  65  96 128 174 221 269 330 399
#     4  11  23  42  67  91 124 171 222 270 329 412
#     4  10  23  41  64  96 133 164 213 268 330 403
#     4  11  24  42  61  89 125 170 220 268 326 397
#     4  11  25  44  68  99 132 170 214 275 343 409
#     4  12  24  39  59  89 124 167 216 272 328 380
#
# _framework density 20.979372999999999
#
# number of rings (size 3 to 8) (size 9 to 14) (size 15 to 20)
#    0.000    1.143    0.000    7.286    0.000    8.000 
#    0.000    2.857    0.000    0.000    0.000    0.000 
#    0.000    0.000    0.000    0.000    0.000    0.000 
#
# Total GULP energy -156157.183184 kJ/mol
# GULP energy per Si atom -5577.042257 kJ/mol
# Density = 2.093162 g / cm^3
# Si number density = 20.979373 Si / 1000 Ang^3
#
#
#
# Elastic Constant Matrix: (Units=GPa)
#
#
# Indices 1 2 3 4 5 6 
#
# 1 67.8967 30.9292 49.7890 0.0000 15.4005 0.0000
# 2 30.9292 62.5153 44.4514 0.0000 9.7272 0.0000
# 3 49.7890 44.4514 139.5360 0.0000 6.4420 0.0000
# 4 0.0000 0.0000 0.0000 33.1030 0.0000 -1.9584
# 5 15.4005 9.7272 6.4420 0.0000 42.2866 0.0000
# 6 0.0000 0.0000 0.0000 -1.9584 0.0000 20.7219
#
#
#
# Elastic Compliance Matrix: (Units=1/GPa)
#
#
# Indices 1 2 3 4 5 6 
#
# 1 0.023462 -0.006333 -0.006070 0.000000 -0.006163 0.000000
# 2 -0.006333 0.023008 -0.004967 0.000000 -0.002229 0.000000
# 3 -0.006070 -0.004967 0.010836 0.000000 0.001702 0.000000
# 4 0.000000 0.000000 0.000000 0.030379 0.000000 0.002871
# 5 -0.006163 -0.002229 0.001702 0.000000 0.026146 0.000000
# 6 0.000000 0.000000 0.000000 0.002871 0.000000 0.048529
#
#
# Mechanical properties :
#
#
# Convention : Reuss Voigt Hill
#
# Bulk Modulus (GPa) = 44.31256 57.80970 51.06113
# Shear Modulus (GPa) = 24.43535 28.87421 26.65478
#
# Velocity S-wave (km/s) = 3.41652 3.71390 3.56831
# Velocity P-wave (km/s) = 6.06063 6.78277 6.43185
#
# Compressibility (1/GPa) = 0.02256697
#
# Stress axis : x y z
#
# Youngs Moduli (GPa) = 42.62204 43.46339 92.28438
#
# Poissons Ratio (x) = 0.27525 0.56014
# Poissons Ratio (y) = 0.26992 0.45837
# Poissons Ratio (z) = 0.25870 0.21588
#
# Static dielectric constant tensor:
#      x y z
#    x 1.591080 0.000000 0.080370 
#    y 0.000000 1.774800 0.000000 
#    z 0.080370 0.000000 1.766950 
# 
# From -- ./inp_files/17595.got.cif
#   From: 2010.05.17/outbox.cif.g08.bks.cpg/sg14_9_cif.got.tgz:17595.got - 2010.06.03 17:49:19.
