data_PCOD9246189
_publ_section_title
;
Structure prediction by ZEFSAII (Michael W. Deem and Ramdas Pophale) SiO2 
 PCOD9246189
Probable space group: P 21/C
;
_chemical_formula_sum "Si O2"
_cell_formula_units_Z 32
_cell_length_a 5.389867
_cell_length_b 10.851978
_cell_length_c 24.115314
_cell_angle_alpha 90.000000
_cell_angle_beta 86.392356
_cell_angle_gamma 90.000000
_cell_volume 1407.726862
_symmetry_space_group_name_H-M "P 21/C"
_symmetry_group_IT_number 14
_symmetry_cell_setting 'monoclinic'
loop_
_space_group_symop_operation_xyz
x,y,z
-x,1/2+y,1/2-z
-x,-y,-z
x,1/2-y,1/2+z
loop_
_atom_site_type_symbol
_atom_site_label
_atom_site_fract_x
_atom_site_fract_y
_atom_site_fract_z
Si Si1 0.255617 0.588234 0.825792
Si Si2 0.249294 0.568321 0.520810
Si Si3 0.098491 0.206583 0.583223
Si Si4 0.208896 0.648725 0.004902
Si Si5 0.222235 0.459275 0.631725
Si Si6 0.967788 0.067789 0.245608
Si Si7 0.469529 0.000930 0.587140
Si Si8 0.529197 0.815747 0.778777
O O1 0.047087 0.534544 0.788382
O O2 0.376403 0.477067 0.859575
O O3 0.444866 0.675926 0.790229
O O4 0.133326 0.675762 0.874086
O O5 0.500000 0.500000 0.500000
O O6 0.282957 0.708454 0.499256
O O7 0.248335 0.569346 0.588192
O O8 0.000000 0.500000 0.500000
O O9 0.152337 0.347793 0.591444
O O10 0.313099 0.121980 0.603919
O O11 0.060940 0.161185 0.520398
O O12 0.344111 0.551644 0.962527
O O13 0.280994 0.598680 0.064302
O O14 0.017765 0.480632 0.682193
O O15 0.445740 0.400028 0.665202
O O16 0.189775 0.170350 0.247616
O O17 0.693551 0.122265 0.252736
#
# Coordination Sequence:
#
# PCOD9246189 Si02
#       8
#     4   4   4   4   4   4   4   4
#     4  11  22  39  65  92 121 172 217 264 328 393
#     4  12  26  40  67  94 133 173 221 264 325 389
#     4  11  19  37  70  92 124 172 220 258 326 394
#     4  10  23  39  60 100 134 171 216 276 324 386
#     4  10  22  40  65  91 130 165 222 262 322 389
#     4  10  24  39  63  91 123 157 217 265 319 374
#     4  10  21  40  64  94 133 169 222 267 331 394
#     4  10  22  41  64  88 126 161 216 258 318 386
#
# _framework density 22.731681999999999
#
# number of rings (size 3 to 8) (size 9 to 14) (size 15 to 20)
#    0.750    0.750    3.750    1.125    5.250    0.000 
#    2.250    0.000    0.000    0.000    0.000    0.000 
#    0.000    0.000    0.000    0.000    0.000    0.000 
#
# Total GULP energy -178222.740360 kJ/mol
# GULP energy per Si atom -5569.460636 kJ/mol
# Density = 2.267994 g / cm^3
# Si number density = 22.731682 Si / 1000 Ang^3
#
#
#
# Elastic Constant Matrix: (Units=GPa)
#
#
# Indices 1 2 3 4 5 6 
#
# 1 88.7673 17.2590 32.8609 0.0000 27.1126 0.0000
# 2 17.2590 67.7248 36.0942 0.0000 19.3835 0.0000
# 3 32.8609 36.0942 63.1095 0.0000 18.6964 0.0000
# 4 0.0000 0.0000 0.0000 18.0091 0.0000 12.2680
# 5 27.1126 19.3835 18.6964 0.0000 36.9227 0.0000
# 6 0.0000 0.0000 0.0000 12.2680 0.0000 30.7515
#
#
#
# Elastic Compliance Matrix: (Units=1/GPa)
#
#
# Indices 1 2 3 4 5 6 
#
# 1 0.016358 0.002324 -0.006973 0.000000 -0.009701 0.000000
# 2 0.002324 0.022714 -0.011956 0.000000 -0.007577 0.000000
# 3 -0.006973 -0.011956 0.026986 0.000000 -0.002268 0.000000
# 4 0.000000 0.000000 0.000000 0.076249 0.000000 -0.030419
# 5 -0.009701 -0.007577 -0.002268 0.000000 0.039333 0.000000
# 6 0.000000 0.000000 0.000000 -0.030419 0.000000 0.044654
#
#
# Mechanical properties :
#
#
# Convention : Reuss Voigt Hill
#
# Bulk Modulus (GPa) = 30.44324 43.55887 37.00106
# Shear Modulus (GPa) = 18.48747 26.02915 22.25831
#
# Velocity S-wave (km/s) = 2.85492 3.38755 3.13257
# Velocity P-wave (km/s) = 4.92838 5.87404 5.42187
#
# Compressibility (1/GPa) = 0.03284801
#
# Stress axis : x y z
#
# Youngs Moduli (GPa) = 61.13286 44.02553 37.05588
#
# Poissons Ratio (x) = -0.10232 0.25838
# Poissons Ratio (y) = -0.14207 0.44305
# Poissons Ratio (z) = 0.42626 0.52639
#
# Static dielectric constant tensor:
#      x y z
#    x 1.919000 0.000000 0.013030 
#    y 0.000000 1.840860 0.000000 
#    z 0.013030 0.000000 1.928150 
# 
# From -- ./inp_files/71256.got.cif
#   From: 2010.05.17/outbox.cif.g08.bks.cpg/sg14_36_cif.got.tgz:71256.got - 2010.06.03 17:49:19.
