data_PCOD9246028
_publ_section_title
;
Structure prediction by ZEFSAII (Michael W. Deem and Ramdas Pophale) SiO2 
 PCOD9246028
Probable space group: P 21/C
;
_chemical_formula_sum "Si O2"
_cell_formula_units_Z 32
_cell_length_a 11.593318
_cell_length_b 5.339051
_cell_length_c 29.618120
_cell_angle_alpha 90.000000
_cell_angle_beta 128.929099
_cell_angle_gamma 90.000000
_cell_volume 1426.154396
_symmetry_space_group_name_H-M "P 21/C"
_symmetry_group_IT_number 14
_symmetry_cell_setting 'monoclinic'
loop_
_space_group_symop_operation_xyz
x,y,z
-x,1/2+y,1/2-z
-x,-y,-z
x,1/2-y,1/2+z
loop_
_atom_site_type_symbol
_atom_site_label
_atom_site_fract_x
_atom_site_fract_y
_atom_site_fract_z
Si Si1 0.821588 0.638409 0.720667
Si Si2 0.751939 0.009717 0.940708
Si Si3 0.306860 0.234419 0.715678
Si Si4 0.649949 0.508920 0.508463
Si Si5 0.823659 0.486356 0.074826
Si Si6 0.650739 0.262009 0.327154
Si Si7 0.018926 0.313286 0.045705
Si Si8 0.165903 0.632161 0.817650
O O1 0.796401 0.670826 0.767445
O O2 0.762038 0.386546 0.682936
O O3 0.998957 0.635442 0.756423
O O4 0.755488 0.885680 0.681794
O O5 0.821315 0.802463 0.924828
O O6 0.690218 0.206222 0.889431
O O7 0.637374 0.935372 0.951592
O O8 0.893793 0.102025 0.004953
O O9 0.284657 0.505930 0.687037
O O10 0.474120 0.228791 0.776542
O O11 0.297871 0.001900 0.679619
O O12 0.500000 0.500000 0.500000
O O13 0.711882 0.225874 0.528701
O O14 0.756903 0.733407 0.553383
O O15 0.969950 0.446782 0.079885
O O16 0.846741 0.405880 0.132106
O O17 0.000000 0.500000 0.000000
#
# Coordination Sequence:
#
# PCOD9246028 Si02
#       8
#     4   4   4   4   4   4   4   4
#     4  10  21  40  59  85 124 154 198 248 298 356
#     4  10  23  39  61  94 124 165 207 254 320 365
#     4  10  22  42  59  90 122 156 203 251 296 367
#     4  11  24  43  62  89 127 161 206 255 301 377
#     4  11  23  40  63  91 123 160 210 251 310 370
#     4  10  23  38  62  90 120 157 205 247 301 364
#     4  10  21  40  61  91 129 157 205 264 302 375
#     4  10  22  37  59  90 116 157 200 245 298 360
#
# _framework density 22.437961999999999
#
# number of rings (size 3 to 8) (size 9 to 14) (size 15 to 20)
#    0.000    1.750    1.250    1.875    3.500    2.000 
#    0.000    0.000    0.000    0.000    0.000    0.000 
#    0.000    0.000    0.000    0.000    0.000    0.000 
#
# Total GULP energy -178568.568274 kJ/mol
# GULP energy per Si atom -5580.267759 kJ/mol
# Density = 2.238689 g / cm^3
# Si number density = 22.437962 Si / 1000 Ang^3
#
#
#
# Elastic Constant Matrix: (Units=GPa)
#
#
# Indices 1 2 3 4 5 6 
#
# 1 91.7131 26.6806 3.9498 0.0000 -17.2453 0.0000
# 2 26.6806 129.6916 19.5862 0.0000 -5.2266 0.0000
# 3 3.9498 19.5862 91.1152 0.0000 -21.0131 0.0000
# 4 0.0000 0.0000 0.0000 35.4233 0.0000 -8.5029
# 5 -17.2453 -5.2266 -21.0131 0.0000 21.8846 0.0000
# 6 0.0000 0.0000 0.0000 -8.5029 0.0000 16.6693
#
#
#
# Elastic Compliance Matrix: (Units=1/GPa)
#
#
# Indices 1 2 3 4 5 6 
#
# 1 0.014116 -0.002830 0.003090 0.000000 0.013415 0.000000
# 2 -0.002830 0.008539 -0.002256 0.000000 -0.002358 0.000000
# 3 0.003090 -0.002256 0.015109 0.000000 0.016404 0.000000
# 4 0.000000 0.000000 0.000000 0.032169 0.000000 0.016409
# 5 0.013415 -0.002358 0.016404 0.000000 0.071453 0.000000
# 6 0.000000 0.000000 0.000000 0.016409 0.000000 0.068361
#
#
# Mechanical properties :
#
#
# Convention : Reuss Voigt Hill
#
# Bulk Modulus (GPa) = 29.61087 45.88369 37.74728
# Shear Modulus (GPa) = 22.22260 32.28234 27.25247
#
# Velocity S-wave (km/s) = 3.15048 3.79718 3.48885
# Velocity P-wave (km/s) = 5.14388 6.30225 5.75229
#
# Compressibility (1/GPa) = 0.03377138
#
# Stress axis : x y z
#
# Youngs Moduli (GPa) = 70.84009 117.11533 66.18453
#
# Poissons Ratio (x) = 0.33145 -0.20452
# Poissons Ratio (y) = 0.20049 0.14934
# Poissons Ratio (z) = -0.21891 0.26427
#
# Static dielectric constant tensor:
#      x y z
#    x 1.852690 0.000000 0.090780 
#    y 0.000000 1.793420 0.000000 
#    z 0.090780 0.000000 1.741460 
# 
# From -- ./inp_files/72850.got.cif
#   From: 2010.05.17/outbox.cif.g08.bks.cpg/sg14_37_cif.got.tgz:72850.got - 2010.06.03 17:49:19.
