data_PCOD9246895
_publ_section_title
;
Structure prediction by ZEFSAII (Michael W. Deem and Ramdas Pophale) SiO2 
 PCOD9246895
Probable space group: P 21/C
;
_chemical_formula_sum "Si O2"
_cell_formula_units_Z 30
_cell_length_a 20.230432
_cell_length_b 7.894869
_cell_length_c 13.127313
_cell_angle_alpha 90.000000
_cell_angle_beta 146.048314
_cell_angle_gamma 90.000000
_cell_volume 1170.965631
_symmetry_space_group_name_H-M "P 21/C"
_symmetry_group_IT_number 14
_symmetry_cell_setting 'monoclinic'
loop_
_space_group_symop_operation_xyz
x,y,z
-x,1/2+y,1/2-z
-x,-y,-z
x,1/2-y,1/2+z
loop_
_atom_site_type_symbol
_atom_site_label
_atom_site_fract_x
_atom_site_fract_y
_atom_site_fract_z
Si Si1 0.500000 0.000000 0.500000
Si Si2 0.919828 0.761318 0.389717
Si Si3 0.722953 0.571130 0.919712
Si Si4 0.655494 0.668149 0.626744
Si Si5 0.071100 0.579827 0.723239
Si Si6 0.523739 0.424153 0.775535
Si Si7 0.872790 0.916972 0.131103
Si Si8 0.358077 0.881766 0.179061
O O1 0.599150 0.847088 0.587287
O O2 0.386954 0.857512 0.333128
O O3 0.793037 0.812608 0.271513
O O4 0.903521 0.570961 0.323682
O O5 0.945433 0.878061 0.325842
O O6 0.025830 0.742988 0.605156
O O7 0.656728 0.554134 0.729280
O O8 0.621374 0.567360 0.875503
O O9 0.813638 0.419524 0.058948
O O10 0.801416 0.740946 0.018247
O O11 0.582155 0.584137 0.441323
O O12 0.960256 0.534386 0.652958
O O13 0.594411 0.253125 0.840521
O O14 0.460999 0.461702 0.803875
O O15 0.768178 0.049307 0.008037
#
# Coordination Sequence:
#
# PCOD9246895 Si02
#       8
#     2   4   4   4   4   4   4   4
#     4  10  22  34  68  98 134 184 230 278 362 432
#     4  10  21  42  69 102 135 192 240 292 365 427
#     4  11  23  42  68  99 141 184 235 303 355 430
#     4  11  21  43  70 104 143 186 234 301 366 430
#     4  10  23  40  70 101 139 191 239 293 369 422
#     4  11  25  39  68 102 144 185 237 290 369 439
#     4  11  21  43  72  97 144 185 243 311 351 426
#     4  11  22  41  63 100 139 187 240 291 363 430
#
# _framework density 25.619882
#
# number of rings (size 3 to 8) (size 9 to 14) (size 15 to 20)
#    0.000    1.333    4.000    1.200    5.600    2.133 
#    0.000    3.333    0.000    0.000    0.000    0.000 
#    0.000    0.000    0.000    0.000    0.000    0.000 
#
# Total GULP energy -167476.166483 kJ/mol
# GULP energy per Si atom -5582.538883 kJ/mol
# Density = 2.556157 g / cm^3
# Si number density = 25.619882 Si / 1000 Ang^3
#
#
#
# Elastic Constant Matrix: (Units=GPa)
#
#
# Indices 1 2 3 4 5 6 
#
# 1 98.5887 2.6870 35.7155 0.0000 8.5456 0.0000
# 2 2.6870 77.2475 32.2265 0.0000 -2.8354 0.0000
# 3 35.7155 32.2265 130.8356 0.0000 -7.3971 0.0000
# 4 0.0000 0.0000 0.0000 29.5380 0.0000 -1.6035
# 5 8.5456 -2.8354 -7.3971 0.0000 40.7492 0.0000
# 6 0.0000 0.0000 0.0000 -1.6035 0.0000 24.9685
#
#
#
# Elastic Compliance Matrix: (Units=1/GPa)
#
#
# Indices 1 2 3 4 5 6 
#
# 1 0.011685 0.000986 -0.003604 0.000000 -0.003036 0.000000
# 2 0.000986 0.014516 -0.003839 0.000000 0.000107 0.000000
# 3 -0.003604 -0.003839 0.009700 0.000000 0.002250 0.000000
# 4 0.000000 0.000000 0.000000 0.033973 0.000000 0.002182
# 5 -0.003036 0.000107 0.002250 0.000000 0.025593 0.000000
# 6 0.000000 0.000000 0.000000 0.002182 0.000000 0.040191
#
#
# Mechanical properties :
#
#
# Convention : Reuss Voigt Hill
#
# Bulk Modulus (GPa) = 43.50281 49.76998 46.63640
# Shear Modulus (GPa) = 32.00313 34.78732 33.39523
#
# Velocity S-wave (km/s) = 3.53817 3.68887 3.61430
# Velocity P-wave (km/s) = 5.80590 6.13287 5.97162
#
# Compressibility (1/GPa) = 0.02298702
#
# Stress axis : x y z
#
# Youngs Moduli (GPa) = 85.57847 68.88741 103.09529
#
# Poissons Ratio (x) = -0.06791 0.37158
# Poissons Ratio (y) = -0.08436 0.39575
# Poissons Ratio (z) = 0.30845 0.26443
#
# Static dielectric constant tensor:
#      x y z
#    x 2.326630 0.000000 -0.396310 
#    y 0.000000 2.153280 0.000000 
#    z -0.396310 0.000000 2.397220 
# 
# From -- ./inp_files/50298.got.cif
#   From: 2010.05.17/outbox.cif.g08.bks.cpg/sg14_26_cif.got.tgz:50298.got - 2010.06.03 17:49:19.
