data_PCOD9246687
_publ_section_title
;
Structure prediction by ZEFSAII (Michael W. Deem and Ramdas Pophale) SiO2 
 PCOD9246687
Probable space group: P 21/C
;
_chemical_formula_sum "Si O2"
_cell_formula_units_Z 28
_cell_length_a 20.469428
_cell_length_b 5.229377
_cell_length_c 13.306311
_cell_angle_alpha 90.000000
_cell_angle_beta 72.221144
_cell_angle_gamma 90.000000
_cell_volume 1356.315501
_symmetry_space_group_name_H-M "P 21/C"
_symmetry_group_IT_number 14
_symmetry_cell_setting 'monoclinic'
loop_
_space_group_symop_operation_xyz
x,y,z
-x,1/2+y,1/2-z
-x,-y,-z
x,1/2-y,1/2+z
loop_
_atom_site_type_symbol
_atom_site_label
_atom_site_fract_x
_atom_site_fract_y
_atom_site_fract_z
Si Si1 0.913287 0.473846 0.335999
Si Si2 0.427892 0.628931 0.007456
Si Si3 0.491972 0.379798 0.687214
Si Si4 0.350452 0.980127 0.189011
Si Si5 0.246661 0.463747 0.562296
Si Si6 0.017368 0.026466 0.608348
Si Si7 0.304286 0.981066 0.436401
O O1 0.832069 0.505577 0.370187
O O2 0.935141 0.207405 0.376903
O O3 0.949343 0.483419 0.209928
O O4 0.945559 0.706805 0.384296
O O5 0.384920 0.730911 0.121655
O O6 0.500000 0.500000 0.000000
O O7 0.451665 0.869542 0.927031
O O8 0.377087 0.473820 0.958812
O O9 0.493372 0.645979 0.745059
O O10 0.416527 0.342274 0.676239
O O11 0.294361 0.080167 0.137422
O O12 0.317539 0.938356 0.312952
O O13 0.272489 0.725265 0.498868
O O14 0.258034 0.225881 0.482521
O O15 0.000000 0.000000 0.500000
#
# Coordination Sequence:
#
# PCOD9246687 Si02
#       7
#     4   4   4   4   4   4   4
#     4  10  22  41  67 100 138 170 215 267 311 381
#     4  11  24  44  66  96 122 167 221 288 344 396
#     4  12  25  41  68  92 122 164 217 283 345 387
#     4  11  26  43  67  93 130 173 222 275 337 400
#     4  11  26  45  63  96 135 177 216 262 325 394
#     4  10  21  41  71 104 133 169 216 264 315 375
#     4  11  26  43  64  91 132 170 223 271 323 400
#
# _framework density 20.644164
#
# number of rings (size 3 to 8) (size 9 to 14) (size 15 to 20)
#    0.000    1.143    1.429    3.429    4.000    5.714 
#    0.000    0.000    0.000    0.000    0.000    0.000 
#    0.000    0.000    0.000    0.000    0.000    0.000 
#
# Total GULP energy -156672.664358 kJ/mol
# GULP energy per Si atom -5595.452299 kJ/mol
# Density = 2.059718 g / cm^3
# Si number density = 20.644164 Si / 1000 Ang^3
#
#
#
# Elastic Constant Matrix: (Units=GPa)
#
#
# Indices 1 2 3 4 5 6 
#
# 1 87.5376 -5.1103 53.2040 0.0000 -17.2012 0.0000
# 2 -5.1103 74.3957 24.5298 0.0000 2.0402 0.0000
# 3 53.2040 24.5298 114.5243 0.0000 8.3799 0.0000
# 4 0.0000 0.0000 0.0000 25.8098 0.0000 -3.1307
# 5 -17.2012 2.0402 8.3799 0.0000 25.6007 0.0000
# 6 0.0000 0.0000 0.0000 -3.1307 0.0000 15.7226
#
#
#
# Elastic Compliance Matrix: (Units=1/GPa)
#
#
# Indices 1 2 3 4 5 6 
#
# 1 0.024289 0.005726 -0.014006 0.000000 0.020448 0.000000
# 2 0.005726 0.015813 -0.006389 0.000000 0.004678 0.000000
# 3 -0.014006 -0.006389 0.017682 0.000000 -0.014690 0.000000
# 4 0.000000 0.000000 0.000000 0.039704 0.000000 0.007906
# 5 0.020448 0.004678 -0.014690 0.000000 0.057236 0.000000
# 6 0.000000 0.000000 0.000000 0.007906 0.000000 0.065177
#
#
# Mechanical properties :
#
#
# Convention : Reuss Voigt Hill
#
# Bulk Modulus (GPa) = 35.15628 46.85607 41.00618
# Shear Modulus (GPa) = 19.32569 27.01556 23.17062
#
# Velocity S-wave (km/s) = 3.06295 3.62142 3.35383
# Velocity P-wave (km/s) = 5.43834 6.34291 5.90796
#
# Compressibility (1/GPa) = 0.02844442
#
# Stress axis : x y z
#
# Youngs Moduli (GPa) = 41.17098 63.23765 56.55441
#
# Poissons Ratio (x) = -0.36209 0.79213
# Poissons Ratio (y) = -0.23574 0.36135
# Poissons Ratio (z) = 0.57666 0.40405
#
# Static dielectric constant tensor:
#      x y z
#    x 1.715430 0.000000 0.009180 
#    y 0.000000 1.771900 0.000000 
#    z 0.009180 0.000000 1.746440 
# 
# From -- ./inp_files/34690.got.cif
#   From: 2010.05.17/outbox.cif.g08.bks.cpg/sg14_18_cif.got.tgz:34690.got - 2010.06.03 17:49:19.
