data_PCOD9246137
_publ_section_title
;
Structure prediction by ZEFSAII (Michael W. Deem and Ramdas Pophale) SiO2 
 PCOD9246137
Probable space group: P 21/C
;
_chemical_formula_sum "Si O2"
_cell_formula_units_Z 32
_cell_length_a 10.587959
_cell_length_b 10.193342
_cell_length_c 26.453962
_cell_angle_alpha 90.000000
_cell_angle_beta 33.300684
_cell_angle_gamma 90.000000
_cell_volume 1567.537211
_symmetry_space_group_name_H-M "P 21/C"
_symmetry_group_IT_number 14
_symmetry_cell_setting 'monoclinic'
loop_
_space_group_symop_operation_xyz
x,y,z
-x,1/2+y,1/2-z
-x,-y,-z
x,1/2-y,1/2+z
loop_
_atom_site_type_symbol
_atom_site_label
_atom_site_fract_x
_atom_site_fract_y
_atom_site_fract_z
Si Si1 0.923099 0.772839 0.162676
Si Si2 0.241795 0.951880 0.583381
Si Si3 0.618537 0.940294 0.713118
Si Si4 0.967588 0.154665 0.608898
Si Si5 0.651707 0.710338 0.099530
Si Si6 0.864940 0.202270 0.246227
Si Si7 0.032906 0.438930 0.256414
Si Si8 0.181859 0.053690 0.898809
O O1 0.740393 0.656435 0.212803
O O2 0.854999 0.864261 0.233015
O O3 0.930214 0.859748 0.109037
O O4 0.160531 0.696669 0.098002
O O5 0.500000 0.000000 0.500000
O O6 0.118879 0.036898 0.581539
O O7 0.155364 0.999004 0.666709
O O8 0.679748 0.882563 0.638282
O O9 0.349363 0.949231 0.815942
O O10 0.729059 0.085186 0.674402
O O11 0.127707 0.207607 0.510729
O O12 0.916523 0.250311 0.672312
O O13 0.406375 0.669210 0.158641
O O14 0.647756 0.855201 0.124826
O O15 0.894432 0.322382 0.275402
O O16 0.038918 0.080100 0.196447
O O17 0.000000 0.000000 0.000000
#
# Coordination Sequence:
#
# PCOD9246137 Si02
#       8
#     4   4   4   4   4   4   4   4
#     4  10  23  41  64  94 131 176 221 274 339 400
#     4  10  21  40  63  94 128 169 227 275 326 400
#     4  10  22  44  64  94 133 175 219 275 336 403
#     4  10  22  39  64  95 128 167 224 272 329 403
#     4  11  23  39  67  94 130 175 224 271 336 400
#     4  11  23  41  65  97 130 178 221 281 335 399
#     4  11  22  40  67  90 132 174 221 272 340 392
#     4  11  25  40  64  98 137 173 219 284 342 404
#
# _framework density 20.414190000000001
#
# number of rings (size 3 to 8) (size 9 to 14) (size 15 to 20)
#    0.000    1.500    2.500    1.875    3.500    1.000 
#    0.000    3.125    0.000    0.000    0.000    0.000 
#    0.000    0.000    0.000    0.000    0.000    0.000 
#
# Total GULP energy -178139.245169 kJ/mol
# GULP energy per Si atom -5566.851412 kJ/mol
# Density = 2.036773 g / cm^3
# Si number density = 20.414190 Si / 1000 Ang^3
#
#
#
# Elastic Constant Matrix: (Units=GPa)
#
#
# Indices 1 2 3 4 5 6 
#
# 1 70.8763 24.5971 23.5027 0.0000 4.7730 0.0000
# 2 24.5971 80.2783 18.4645 0.0000 -1.5883 0.0000
# 3 23.5027 18.4645 97.9030 0.0000 8.3599 0.0000
# 4 0.0000 0.0000 0.0000 19.7294 0.0000 10.4620
# 5 4.7730 -1.5883 8.3599 0.0000 24.7332 0.0000
# 6 0.0000 0.0000 0.0000 10.4620 0.0000 38.4092
#
#
#
# Elastic Compliance Matrix: (Units=1/GPa)
#
#
# Indices 1 2 3 4 5 6 
#
# 1 0.016836 -0.004525 -0.002972 0.000000 -0.002535 0.000000
# 2 -0.004525 0.014309 -0.001818 0.000000 0.002407 0.000000
# 3 -0.002972 -0.001818 0.011565 0.000000 -0.003452 0.000000
# 4 0.000000 0.000000 0.000000 0.059243 0.000000 -0.016137
# 5 -0.002535 0.002407 -0.003452 0.000000 0.042242 0.000000
# 6 0.000000 0.000000 0.000000 -0.016137 0.000000 0.030431
#
#
# Mechanical properties :
#
#
# Convention : Reuss Voigt Hill
#
# Bulk Modulus (GPa) = 41.52735 42.46515 41.99625
# Shear Modulus (GPa) = 24.84086 28.74057 26.79072
#
# Velocity S-wave (km/s) = 3.49211 3.75623 3.62658
# Velocity P-wave (km/s) = 6.05362 6.29756 6.17680
#
# Compressibility (1/GPa) = 0.02408051
#
# Stress axis : x y z
#
# Youngs Moduli (GPa) = 59.39789 69.88673 86.46618
#
# Poissons Ratio (x) = 0.31624 0.25695
# Poissons Ratio (y) = 0.26878 0.15718
# Poissons Ratio (z) = 0.17651 0.12704
#
# Static dielectric constant tensor:
#      x y z
#    x 1.751890 0.000000 -0.005410 
#    y 0.000000 1.883480 0.000000 
#    z -0.005410 0.000000 1.857120 
# 
# From -- ./inp_files/79991.got.cif
#   From: 2010.05.17/outbox.cif.g08.bks.cpg/sg14_40_cif.got.tgz:79991.got - 2010.06.03 17:49:19.
