data_PCOD9246200
_publ_section_title
;
Structure prediction by ZEFSAII (Michael W. Deem and Ramdas Pophale) SiO2 
 PCOD9246200
Probable space group: P 21/C
;
_chemical_formula_sum "Si O2"
_cell_formula_units_Z 28
_cell_length_a 15.161656
_cell_length_b 14.464704
_cell_length_c 9.065745
_cell_angle_alpha 90.000000
_cell_angle_beta 145.651264
_cell_angle_gamma 90.000000
_cell_volume 1121.798174
_symmetry_space_group_name_H-M "P 21/C"
_symmetry_group_IT_number 14
_symmetry_cell_setting 'monoclinic'
loop_
_space_group_symop_operation_xyz
x,y,z
-x,1/2+y,1/2-z
-x,-y,-z
x,1/2-y,1/2+z
loop_
_atom_site_type_symbol
_atom_site_label
_atom_site_fract_x
_atom_site_fract_y
_atom_site_fract_z
Si Si1 0.566118 0.054830 0.790210
Si Si2 0.776003 0.098023 0.331839
Si Si3 0.972644 0.802025 0.497172
Si Si4 0.223538 0.236547 0.047482
Si Si5 0.183618 0.881987 0.287977
Si Si6 0.584804 0.215725 0.589469
Si Si7 0.750184 0.542953 0.288757
O O1 0.600062 0.154315 0.758915
O O2 0.379947 0.049082 0.520396
O O3 0.649318 0.983624 0.794060
O O4 0.645844 0.044781 0.058001
O O5 0.923755 0.115983 0.428662
O O6 0.819495 0.070552 0.556455
O O7 0.697821 0.197882 0.254636
O O8 0.083525 0.711729 0.651654
O O9 0.891293 0.813351 0.542777
O O10 0.828617 0.782884 0.189256
O O11 0.407887 0.248624 0.320573
O O12 0.183978 0.142550 0.084067
O O13 0.353431 0.847359 0.460714
O O14 0.139825 0.958885 0.105282
#
# Coordination Sequence:
#
# PCOD9246200 Si02
#       7
#     4   4   4   4   4   4   4
#     4   9  19  38  63  90 125 159 210 252 305 359
#     4  11  21  37  64  95 119 165 209 252 302 370
#     4  11  24  41  60  93 126 161 206 257 305 374
#     4  11  24  41  63  91 125 159 210 257 315 352
#     4  10  21  40  65  88 125 164 207 247 313 373
#     4   9  20  36  64  91 120 163 209 262 301 357
#     4   9  21  41  62  88 122 167 199 257 308 367
#
# _framework density 24.959927
#
# number of rings (size 3 to 8) (size 9 to 14) (size 15 to 20)
#    0.000    2.000    1.429    2.571   10.000    1.143 
#    0.000    2.143    0.000    0.000    0.000    0.000 
#    0.000    0.000    0.000    0.000    0.000    0.000 
#
# Total GULP energy -156558.078914 kJ/mol
# GULP energy per Si atom -5591.359961 kJ/mol
# Density = 2.490312 g / cm^3
# Si number density = 24.959927 Si / 1000 Ang^3
#
#
#
# Elastic Constant Matrix: (Units=GPa)
#
#
# Indices 1 2 3 4 5 6 
#
# 1 52.4723 18.2443 13.2382 0.0000 13.8507 0.0000
# 2 18.2443 33.0992 5.1379 0.0000 3.9060 0.0000
# 3 13.2382 5.1379 82.1257 0.0000 -10.3731 0.0000
# 4 0.0000 0.0000 0.0000 20.1571 0.0000 1.2462
# 5 13.8507 3.9060 -10.3731 0.0000 33.7938 0.0000
# 6 0.0000 0.0000 0.0000 1.2462 0.0000 16.7310
#
#
#
# Elastic Compliance Matrix: (Units=1/GPa)
#
#
# Indices 1 2 3 4 5 6 
#
# 1 0.028016 -0.013284 -0.005141 0.000000 -0.011525 0.000000
# 2 -0.013284 0.037414 -0.000060 0.000000 0.001102 0.000000
# 3 -0.005141 -0.000060 0.013811 0.000000 0.006353 0.000000
# 4 0.000000 0.000000 0.000000 0.049840 0.000000 -0.003712
# 5 -0.011525 0.001102 0.006353 0.000000 0.036138 0.000000
# 6 0.000000 0.000000 0.000000 -0.003712 0.000000 0.060046
#
#
# Mechanical properties :
#
#
# Convention : Reuss Voigt Hill
#
# Bulk Modulus (GPa) = 23.65697 26.77090 25.21394
# Shear Modulus (GPa) = 18.09468 22.87483 20.48475
#
# Velocity S-wave (km/s) = 2.69541 3.03060 2.86790
# Velocity P-wave (km/s) = 4.38013 4.79530 4.59241
#
# Compressibility (1/GPa) = 0.04227084
#
# Stress axis : x y z
#
# Youngs Moduli (GPa) = 35.69443 26.72806 72.40435
#
# Poissons Ratio (x) = 0.35506 0.37220
# Poissons Ratio (y) = 0.47417 0.00436
# Poissons Ratio (z) = 0.18349 0.00161
#
# Static dielectric constant tensor:
#      x y z
#    x 2.004540 0.000000 0.008800 
#    y 0.000000 2.080940 0.000000 
#    z 0.008800 0.000000 1.969320 
# 
# From -- ./inp_files/16683.got.cif
#   From: 2010.05.17/outbox.cif.g08.bks.cpg/sg14_9_cif.got.tgz:16683.got - 2010.06.03 17:49:19.
