data_PCOD9246719
_publ_section_title
;
Structure prediction by ZEFSAII (Michael W. Deem and Ramdas Pophale) SiO2 
 PCOD9246719
Probable space group: P 21/C
;
_chemical_formula_sum "Si O2"
_cell_formula_units_Z 28
_cell_length_a 27.089566
_cell_length_b 6.738466
_cell_length_c 13.049341
_cell_angle_alpha 90.000000
_cell_angle_beta 27.474338
_cell_angle_gamma 90.000000
_cell_volume 1098.963846
_symmetry_space_group_name_H-M "P 21/C"
_symmetry_group_IT_number 14
_symmetry_cell_setting 'monoclinic'
loop_
_space_group_symop_operation_xyz
x,y,z
-x,1/2+y,1/2-z
-x,-y,-z
x,1/2-y,1/2+z
loop_
_atom_site_type_symbol
_atom_site_label
_atom_site_fract_x
_atom_site_fract_y
_atom_site_fract_z
Si Si1 0.140767 0.869637 0.751944
Si Si2 0.681647 0.052227 0.878586
Si Si3 0.044471 0.353406 0.794158
Si Si4 0.898585 0.032067 0.393514
Si Si5 0.783547 0.676617 0.378967
Si Si6 0.405997 0.308783 0.654533
Si Si7 0.383798 0.695308 0.823959
O O1 0.081276 0.868910 0.752550
O O2 0.258843 0.772651 0.527123
O O3 0.172425 0.098820 0.718036
O O4 0.057045 0.778150 0.983866
O O5 0.791712 0.138487 0.630247
O O6 0.729622 0.902920 0.875553
O O7 0.625377 0.935316 0.889633
O O8 0.612489 0.216630 0.067444
O O9 0.111952 0.432137 0.766038
O O10 0.993420 0.483872 0.799902
O O11 0.124692 0.196775 0.592203
O O12 0.689370 0.667558 0.636458
O O13 0.405787 0.465318 0.750817
O O14 0.520183 0.212451 0.419469
#
# Coordination Sequence:
#
# PCOD9246719 Si02
#       7
#     4   4   4   4   4   4   4
#     4  10  21  42  61  86 130 172 203 259 322 375
#     4  12  23  42  66  97 125 165 222 260 316 387
#     4  11  23  39  62  92 129 170 210 261 318 382
#     4  11  23  38  62  92 127 166 213 260 320 380
#     4  10  23  39  62  92 128 168 211 262 317 376
#     4  10  23  46  64  90 134 165 206 269 323 378
#     4  10  22  42  68  91 122 167 212 265 317 377
#
# _framework density 25.478543999999999
#
# number of rings (size 3 to 8) (size 9 to 14) (size 15 to 20)
#    0.000    1.429    5.714    1.714    4.000    5.714 
#    0.000    2.857    0.000    0.000    0.000    0.000 
#    0.000    0.000    0.000    0.000    0.000    0.000 
#
# Total GULP energy -156322.441235 kJ/mol
# GULP energy per Si atom -5582.944330 kJ/mol
# Density = 2.542055 g / cm^3
# Si number density = 25.478544 Si / 1000 Ang^3
#
#
#
# Elastic Constant Matrix: (Units=GPa)
#
#
# Indices 1 2 3 4 5 6 
#
# 1 128.4836 27.4569 21.2345 0.0000 -0.3909 0.0000
# 2 27.4569 59.6581 21.6235 0.0000 10.4957 0.0000
# 3 21.2345 21.6235 151.4820 0.0000 -12.0615 0.0000
# 4 0.0000 0.0000 0.0000 35.0496 0.0000 6.1265
# 5 -0.3909 10.4957 -12.0615 0.0000 49.3488 0.0000
# 6 0.0000 0.0000 0.0000 6.1265 0.0000 42.6060
#
#
#
# Elastic Compliance Matrix: (Units=1/GPa)
#
#
# Indices 1 2 3 4 5 6 
#
# 1 0.008725 -0.003931 -0.000602 0.000000 0.000758 0.000000
# 2 -0.003931 0.020467 -0.002774 0.000000 -0.005062 0.000000
# 3 -0.000602 -0.002774 0.007270 0.000000 0.002362 0.000000
# 4 0.000000 0.000000 0.000000 0.029267 0.000000 -0.004208
# 5 0.000758 -0.005062 0.002362 0.000000 0.021924 0.000000
# 6 0.000000 0.000000 0.000000 -0.004208 0.000000 0.024076
#
#
# Mechanical properties :
#
#
# Convention : Reuss Voigt Hill
#
# Bulk Modulus (GPa) = 45.76719 53.36149 49.56434
# Shear Modulus (GPa) = 37.41853 43.35481 40.38667
#
# Velocity S-wave (km/s) = 3.83643 4.12955 3.98568
# Velocity P-wave (km/s) = 6.13402 6.61262 6.37781
#
# Compressibility (1/GPa) = 0.02184971
#
# Stress axis : x y z
#
# Youngs Moduli (GPa) = 114.61530 48.85862 137.55598
#
# Poissons Ratio (x) = 0.19206 0.08275
# Poissons Ratio (y) = 0.45053 0.38153
# Poissons Ratio (z) = 0.06895 0.13552
#
# Static dielectric constant tensor:
#      x y z
#    x 2.102530 0.000000 -0.007730 
#    y 0.000000 2.156840 0.000000 
#    z -0.007730 0.000000 2.046080 
# 
# From -- ./inp_files/36155.got.cif
#   From: 2010.05.17/outbox.cif.g08.bks.cpg/sg14_19_cif.got.tgz:36155.got - 2010.06.03 17:49:19.
