data_PCOD9246994
_publ_section_title
;
Structure prediction by ZEFSAII (Michael W. Deem and Ramdas Pophale) SiO2 
 PCOD9246994
Probable space group: P 21/C
;
_chemical_formula_sum "Si O2"
_cell_formula_units_Z 30
_cell_length_a 6.748581
_cell_length_b 10.722139
_cell_length_c 21.670048
_cell_angle_alpha 90.000000
_cell_angle_beta 54.456701
_cell_angle_gamma 90.000000
_cell_volume 1275.867321
_symmetry_space_group_name_H-M "P 21/C"
_symmetry_group_IT_number 14
_symmetry_cell_setting 'monoclinic'
loop_
_space_group_symop_operation_xyz
x,y,z
-x,1/2+y,1/2-z
-x,-y,-z
x,1/2-y,1/2+z
loop_
_atom_site_type_symbol
_atom_site_label
_atom_site_fract_x
_atom_site_fract_y
_atom_site_fract_z
Si Si1 0.299258 0.795505 0.318193
Si Si2 0.500000 0.000000 0.000000
Si Si3 0.520190 0.703946 0.404617
Si Si4 0.672188 0.780294 0.053897
Si Si5 0.187669 0.165822 0.835259
Si Si6 0.804733 0.591103 0.931324
Si Si7 0.184613 0.638028 0.140516
Si Si8 0.027063 0.927074 0.797057
O O1 0.368108 0.745899 0.373494
O O2 0.541606 0.844552 0.241701
O O3 0.182399 0.681904 0.300932
O O4 0.087830 0.897321 0.361054
O O5 0.338471 0.104981 0.991294
O O6 0.387909 0.884112 0.977688
O O7 0.643410 0.822301 0.415427
O O8 0.748455 0.616723 0.342810
O O9 0.793867 0.819362 0.095272
O O10 0.394401 0.737459 0.117047
O O11 0.786254 0.658116 0.000738
O O12 0.058210 0.287073 0.830853
O O13 0.038019 0.047592 0.837931
O O14 0.738453 0.448423 0.930684
O O15 0.138625 0.553902 0.209206
#
# Coordination Sequence:
#
# PCOD9246994 Si02
#       8
#     4   2   4   4   4   4   4   4
#     4  11  23  42  67 102 136 183 232 292 353 419
#     4  10  22  42  74  94 140 182 226 292 344 424
#     4  10  21  43  66 100 136 185 225 291 356 414
#     4  11  25  48  68 107 140 186 239 290 356 428
#     4  12  26  41  73 104 135 186 239 294 349 425
#     4  10  26  42  69  97 144 187 231 287 358 425
#     4  12  25  44  69 101 143 187 238 292 357 425
#     4  11  24  40  65 100 137 176 233 291 353 411
#
# _framework density 23.513415999999999
#
# number of rings (size 3 to 8) (size 9 to 14) (size 15 to 20)
#    0.000    1.067    2.667    2.800    3.733    5.867 
#    0.000    6.000    0.000    0.000    0.000    0.000 
#    0.000    0.000    0.000    0.000    0.000    0.000 
#
# Total GULP energy -167535.996014 kJ/mol
# GULP energy per Si atom -5584.533200 kJ/mol
# Density = 2.345990 g / cm^3
# Si number density = 23.513416 Si / 1000 Ang^3
#
#
#
# Elastic Constant Matrix: (Units=GPa)
#
#
# Indices 1 2 3 4 5 6 
#
# 1 86.2160 17.0298 27.9968 0.0000 6.2124 0.0000
# 2 17.0298 70.3918 2.2292 0.0000 -1.8272 0.0000
# 3 27.9968 2.2292 75.2482 0.0000 10.3013 0.0000
# 4 0.0000 0.0000 0.0000 30.8396 0.0000 0.8957
# 5 6.2124 -1.8272 10.3013 0.0000 35.7029 0.0000
# 6 0.0000 0.0000 0.0000 0.8957 0.0000 19.6838
#
#
#
# Elastic Compliance Matrix: (Units=1/GPa)
#
#
# Indices 1 2 3 4 5 6 
#
# 1 0.013922 -0.003243 -0.004924 0.000000 -0.001168 0.000000
# 2 -0.003243 0.015002 0.000604 0.000000 0.001158 0.000000
# 3 -0.004924 0.000604 0.015598 0.000000 -0.003613 0.000000
# 4 0.000000 0.000000 0.000000 0.032469 0.000000 -0.001478
# 5 -0.001168 0.001158 -0.003613 0.000000 0.029314 0.000000
# 6 0.000000 0.000000 0.000000 -0.001478 0.000000 0.050870
#
#
# Mechanical properties :
#
#
# Convention : Reuss Voigt Hill
#
# Bulk Modulus (GPa) = 34.01837 36.26307 35.14072
# Shear Modulus (GPa) = 27.45744 29.55193 28.50469
#
# Velocity S-wave (km/s) = 3.42092 3.54900 3.48555
# Velocity P-wave (km/s) = 5.48659 5.67888 5.58356
#
# Compressibility (1/GPa) = 0.02939588
#
# Stress axis : x y z
#
# Youngs Moduli (GPa) = 71.82673 66.65943 64.11033
#
# Poissons Ratio (x) = 0.21615 0.31568
# Poissons Ratio (y) = 0.23291 -0.03869
# Poissons Ratio (z) = 0.35368 -0.04023
#
# Static dielectric constant tensor:
#      x y z
#    x 1.835050 0.000000 -0.033500 
#    y 0.000000 1.829630 0.000000 
#    z -0.033500 0.000000 2.004860 
# 
# From -- ./inp_files/63507.got.cif
#   From: 2010.05.17/outbox.cif.g08.bks.cpg/sg14_32_cif.got.tgz:63507.got - 2010.06.03 17:49:19.
