data_PCOD9246684
_publ_section_title
;
Structure prediction by ZEFSAII (Michael W. Deem and Ramdas Pophale) SiO2 
 PCOD9246684
Probable space group: P 21/C
;
_chemical_formula_sum "Si O2"
_cell_formula_units_Z 30
_cell_length_a 19.239094
_cell_length_b 5.091205
_cell_length_c 13.080749
_cell_angle_alpha 90.000000
_cell_angle_beta 69.158236
_cell_angle_gamma 90.000000
_cell_volume 1197.424285
_symmetry_space_group_name_H-M "P 21/C"
_symmetry_group_IT_number 14
_symmetry_cell_setting 'monoclinic'
loop_
_space_group_symop_operation_xyz
x,y,z
-x,1/2+y,1/2-z
-x,-y,-z
x,1/2-y,1/2+z
loop_
_atom_site_type_symbol
_atom_site_label
_atom_site_fract_x
_atom_site_fract_y
_atom_site_fract_z
Si Si1 0.886526 0.718581 0.751833
Si Si2 0.966798 0.052480 0.363861
Si Si3 0.670047 0.208276 0.943970
Si Si4 0.500000 0.000000 0.000000
Si Si5 0.924625 0.175713 0.076943
Si Si6 0.772803 0.468797 0.216586
Si Si7 0.690725 0.779516 0.570805
Si Si8 0.461886 0.300411 0.228525
O O1 0.895415 0.500267 0.831786
O O2 0.910900 0.610167 0.628664
O O3 0.805463 0.826273 0.782026
O O4 0.959576 0.887112 0.741319
O O5 0.937162 0.279566 0.452624
O O6 0.003758 0.820176 0.411428
O O7 0.711065 0.192664 0.811920
O O8 0.584392 0.120611 0.975007
O O9 0.675284 0.491781 0.995601
O O10 0.705175 0.994174 0.004845
O O11 0.467806 0.191925 0.111056
O O12 0.848040 0.313508 0.150871
O O13 0.747333 0.610286 0.126267
O O14 0.617747 0.728520 0.677994
O O15 0.487444 0.601920 0.228889
#
# Coordination Sequence:
#
# PCOD9246684 Si02
#       8
#     4   4   4   2   4   4   4   4
#     4  11  22  44  69 102 139 188 243 306 363 446
#     4  10  21  41  70  99 135 179 243 295 368 432
#     4  12  29  47  79 106 150 198 247 305 370 433
#     4  12  24  48  78 112 142 196 250 306 360 436
#     4  10  23  42  66 101 137 186 233 305 364 434
#     4  11  29  46  67 107 145 193 248 298 375 445
#     4  12  27  50  70 108 149 196 241 304 368 443
#     4  12  24  45  73 109 141 186 245 302 364 431
#
# _framework density 25.053777
#
# number of rings (size 3 to 8) (size 9 to 14) (size 15 to 20)
#    0.000    0.800    5.333    0.400    5.600    2.133 
#    0.000    0.000    0.000    0.000    0.000    0.000 
#    0.000    0.000    0.000    0.000    0.000    0.000 
#
# Total GULP energy -167173.827408 kJ/mol
# GULP energy per Si atom -5572.460914 kJ/mol
# Density = 2.499675 g / cm^3
# Si number density = 25.053777 Si / 1000 Ang^3
#
#
#
# Elastic Constant Matrix: (Units=GPa)
#
#
# Indices 1 2 3 4 5 6 
#
# 1 87.4347 6.5412 8.9602 0.0000 -4.8874 0.0000
# 2 6.5412 48.6870 3.5115 0.0000 -9.1673 0.0000
# 3 8.9602 3.5115 102.9742 0.0000 -17.0664 0.0000
# 4 0.0000 0.0000 0.0000 10.1766 0.0000 9.0665
# 5 -4.8874 -9.1673 -17.0664 0.0000 35.1935 0.0000
# 6 0.0000 0.0000 0.0000 9.0665 0.0000 17.3763
#
#
#
# Elastic Compliance Matrix: (Units=1/GPa)
#
#
# Indices 1 2 3 4 5 6 
#
# 1 0.011671 -0.001345 -0.000825 0.000000 0.000870 0.000000
# 2 -0.001345 0.021758 0.000308 0.000000 0.005630 0.000000
# 3 -0.000825 0.000308 0.010620 0.000000 0.005116 0.000000
# 4 0.000000 0.000000 0.000000 0.183626 0.000000 -0.095812
# 5 0.000870 0.005630 0.005116 0.000000 0.032483 0.000000
# 6 0.000000 0.000000 0.000000 -0.095812 0.000000 0.107542
#
#
# Mechanical properties :
#
#
# Convention : Reuss Voigt Hill
#
# Bulk Modulus (GPa) = 24.79827 30.79130 27.79479
# Shear Modulus (GPa) = 12.99155 27.22147 20.10651
#
# Velocity S-wave (km/s) = 2.27963 3.29982 2.83598
# Velocity P-wave (km/s) = 4.10469 5.18027 4.67352
#
# Compressibility (1/GPa) = 0.04032539
#
# Stress axis : x y z
#
# Youngs Moduli (GPa) = 85.68290 45.96022 94.15890
#
# Poissons Ratio (x) = 0.06180 0.07772
# Poissons Ratio (y) = 0.11521 -0.02902
# Poissons Ratio (z) = 0.07073 -0.01416
#
# Static dielectric constant tensor:
#      x y z
#    x 2.129860 0.000000 0.130130 
#    y 0.000000 2.144230 0.000000 
#    z 0.130130 0.000000 2.033780 
# 
# From -- ./inp_files/48157.got.cif
#   From: 2010.05.17/outbox.cif.g08.bks.cpg/sg14_25_cif.got.tgz:48157.got - 2010.06.03 17:49:19.
