data_PCOD9246755
_publ_section_title
;
Structure prediction by ZEFSAII (Michael W. Deem and Ramdas Pophale) SiO2 
 PCOD9246755
Probable space group: P 21/C
;
_chemical_formula_sum "Si O2"
_cell_formula_units_Z 32
_cell_length_a 5.025940
_cell_length_b 22.735711
_cell_length_c 12.265021
_cell_angle_alpha 90.000000
_cell_angle_beta 110.252113
_cell_angle_gamma 90.000000
_cell_volume 1314.860397
_symmetry_space_group_name_H-M "P 21/C"
_symmetry_group_IT_number 14
_symmetry_cell_setting 'monoclinic'
loop_
_space_group_symop_operation_xyz
x,y,z
-x,1/2+y,1/2-z
-x,-y,-z
x,1/2-y,1/2+z
loop_
_atom_site_type_symbol
_atom_site_label
_atom_site_fract_x
_atom_site_fract_y
_atom_site_fract_z
Si Si1 0.173305 0.339795 0.848850
Si Si2 0.521302 0.707885 0.916733
Si Si3 0.375955 0.947182 0.552678
Si Si4 0.261577 0.173380 0.120691
Si Si5 0.704612 0.080555 0.239936
Si Si6 0.296651 0.555277 0.494329
Si Si7 0.020625 0.134010 0.640329
Si Si8 0.112033 0.390175 0.404687
O O1 0.388313 0.395378 0.897127
O O2 0.142448 0.315393 0.723174
O O3 0.870319 0.368214 0.827381
O O4 0.284854 0.292327 0.947788
O O5 0.530152 0.772911 0.871540
O O6 0.210604 0.686050 0.902173
O O7 0.682722 0.660077 0.862220
O O8 0.318732 0.967745 0.669753
O O9 0.108761 0.918938 0.450940
O O10 0.500000 0.000000 0.500000
O O11 0.417520 0.110851 0.160562
O O12 0.067459 0.162024 0.987685
O O13 0.846403 0.064939 0.145045
O O14 0.500000 0.500000 0.500000
O O15 0.546339 0.602328 0.555094
O O16 0.072187 0.558449 0.560964
O O17 0.021552 0.117820 0.767845
#
# Coordination Sequence:
#
# PCOD9246755 Si02
#       8
#     4   4   4   4   4   4   4   4
#     4  10  21  44  63  93 131 162 222 268 309 399
#     4  11  25  42  66  93 129 169 211 264 325 377
#     4  10  23  41  66  94 129 174 212 269 332 381
#     4  10  24  40  66  92 123 172 210 265 326 373
#     4  10  21  42  63  92 129 163 223 265 315 395
#     4  11  24  41  66  94 126 172 214 265 321 378
#     4  11  25  45  61  99 133 163 216 270 314 393
#     4  11  24  43  63  93 131 163 215 264 313 389
#
# _framework density 24.337183
#
# number of rings (size 3 to 8) (size 9 to 14) (size 15 to 20)
#    0.000    1.500    2.500    1.125    5.250    1.500 
#    0.000    0.000    0.000    0.000    0.000    0.000 
#    0.000    0.000    0.000    0.000    0.000    0.000 
#
# Total GULP energy -178570.643007 kJ/mol
# GULP energy per Si atom -5580.332594 kJ/mol
# Density = 2.428179 g / cm^3
# Si number density = 24.337183 Si / 1000 Ang^3
#
#
#
# Elastic Constant Matrix: (Units=GPa)
#
#
# Indices 1 2 3 4 5 6 
#
# 1 89.2697 -0.2926 11.5744 0.0000 -1.1729 0.0000
# 2 -0.2926 47.4756 9.8746 0.0000 2.6997 0.0000
# 3 11.5744 9.8746 164.1506 0.0000 -15.4010 0.0000
# 4 0.0000 0.0000 0.0000 24.6555 0.0000 -3.0306
# 5 -1.1729 2.6997 -15.4010 0.0000 31.0782 0.0000
# 6 0.0000 0.0000 0.0000 -3.0306 0.0000 25.7188
#
#
#
# Elastic Compliance Matrix: (Units=1/GPa)
#
#
# Indices 1 2 3 4 5 6 
#
# 1 0.011308 0.000238 -0.000811 0.000000 0.000004 0.000000
# 2 0.000238 0.021539 -0.001560 0.000000 -0.002635 0.000000
# 3 -0.000811 -0.001560 0.006558 0.000000 0.003355 0.000000
# 4 0.000000 0.000000 0.000000 0.041155 0.000000 0.004850
# 5 0.000004 -0.002635 0.003355 0.000000 0.034068 0.000000
# 6 0.000000 0.000000 0.000000 0.004850 0.000000 0.039454
#
#
# Mechanical properties :
#
#
# Convention : Reuss Voigt Hill
#
# Bulk Modulus (GPa) = 28.45812 38.13428 33.29620
# Shear Modulus (GPa) = 29.40128 34.93979 32.17053
#
# Velocity S-wave (km/s) = 3.47952 3.79311 3.63969
# Velocity P-wave (km/s) = 5.27839 5.90650 5.60126
#
# Compressibility (1/GPa) = 0.03513936
#
# Stress axis : x y z
#
# Youngs Moduli (GPa) = 88.43267 46.42698 152.49168
#
# Poissons Ratio (x) = -0.01106 0.12372
# Poissons Ratio (y) = -0.02107 0.23785
# Poissons Ratio (z) = 0.07174 0.07241
#
# Static dielectric constant tensor:
#      x y z
#    x 1.992850 0.000000 -0.038430 
#    y 0.000000 2.023790 0.000000 
#    z -0.038430 0.000000 1.988250 
# 
# From -- ./inp_files/22165.got.cif
#   From: 2010.05.17/outbox.cif.g08.bks.cpg/sg14_12_cif.got.tgz:22165.got - 2010.06.03 17:49:19.
