data_PCOD9246499
_publ_section_title
;
Structure prediction by ZEFSAII (Michael W. Deem and Ramdas Pophale) SiO2 
 PCOD9246499
Probable space group: P 21/C
;
_chemical_formula_sum "Si O2"
_cell_formula_units_Z 30
_cell_length_a 5.632443
_cell_length_b 27.494964
_cell_length_c 8.130489
_cell_angle_alpha 90.000000
_cell_angle_beta 98.015233
_cell_angle_gamma 90.000000
_cell_volume 1246.818276
_symmetry_space_group_name_H-M "P 21/C"
_symmetry_group_IT_number 14
_symmetry_cell_setting 'monoclinic'
loop_
_space_group_symop_operation_xyz
x,y,z
-x,1/2+y,1/2-z
-x,-y,-z
x,1/2-y,1/2+z
loop_
_atom_site_type_symbol
_atom_site_label
_atom_site_fract_x
_atom_site_fract_y
_atom_site_fract_z
Si Si1 0.527991 0.382471 0.511499
Si Si2 0.561873 0.811387 0.480220
Si Si3 0.484430 0.534777 0.718734
Si Si4 0.810116 0.596687 0.955938
Si Si5 0.724991 0.709031 0.623445
Si Si6 0.182762 0.559850 0.239834
Si Si7 0.000000 0.000000 0.000000
Si Si8 0.860733 0.154468 0.746410
O O1 0.424309 0.434468 0.434078
O O2 0.362276 0.335070 0.501925
O O3 0.658400 0.393806 0.694592
O O4 0.707937 0.369344 0.377480
O O5 0.724872 0.856535 0.550589
O O6 0.622518 0.761248 0.571203
O O7 0.633216 0.802471 0.296813
O O8 0.290623 0.828964 0.427775
O O9 0.645538 0.486950 0.756139
O O10 0.214092 0.520394 0.652800
O O11 0.569671 0.568074 0.879225
O O12 0.003796 0.566195 0.073138
O O13 0.943217 0.616914 0.805540
O O14 0.009628 0.701835 0.664921
O O15 0.035611 0.547828 0.389828
#
# Coordination Sequence:
#
# PCOD9246499 Si02
#       8
#     4   4   4   4   4   4   2   4
#     4  10  21  41  64  92 124 168 218 264 323 392
#     4  10  23  41  63 100 123 172 216 265 330 395
#     4  11  22  44  64  94 132 170 224 263 331 383
#     4  11  24  43  64  96 137 168 218 273 327 390
#     4  10  22  40  65  89 128 165 218 262 325 387
#     4  11  26  39  64  99 129 172 220 271 321 396
#     4  10  24  40  64  92 132 164 220 264 312 386
#     4  10  21  41  66  85 128 177 202 275 329 372
#
# _framework density 24.061243000000001
#
# number of rings (size 3 to 8) (size 9 to 14) (size 15 to 20)
#    0.000    1.600    4.000    2.000    3.733   11.200 
#    0.000    0.000    0.000    0.000    0.000    0.000 
#    0.000    0.000    0.000    0.000    0.000    0.000 
#
# Total GULP energy -167056.978134 kJ/mol
# GULP energy per Si atom -5568.565938 kJ/mol
# Density = 2.400648 g / cm^3
# Si number density = 24.061243 Si / 1000 Ang^3
#
#
#
# Elastic Constant Matrix: (Units=GPa)
#
#
# Indices 1 2 3 4 5 6 
#
# 1 41.8478 67.1708 33.7446 0.0000 30.1394 0.0000
# 2 67.1708 56.6725 23.4196 0.0000 26.4576 0.0000
# 3 33.7446 23.4196 75.1462 0.0000 33.7999 0.0000
# 4 0.0000 0.0000 0.0000 51.7135 0.0000 16.4233
# 5 30.1394 26.4576 33.7999 0.0000 44.2794 0.0000
# 6 0.0000 0.0000 0.0000 16.4233 0.0000 26.5538
#
#
#
# Elastic Compliance Matrix: (Units=1/GPa)
#
#
# Indices 1 2 3 4 5 6 
#
# 1 -0.025792 0.030746 0.003604 0.000000 -0.003566 0.000000
# 2 0.030746 -0.012052 -0.005903 0.000000 -0.009220 0.000000
# 3 0.003604 -0.005903 0.019867 0.000000 -0.014091 0.000000
# 4 0.000000 0.000000 0.000000 0.024064 0.000000 -0.014883
# 5 -0.003566 -0.009220 -0.014091 0.000000 0.041276 0.000000
# 6 0.000000 0.000000 0.000000 -0.014883 0.000000 0.046865
#
#
# Mechanical properties :
#
#
# Convention : Reuss Voigt Hill
#
# Bulk Modulus (GPa) = 25.69679 46.92627 36.31153
# Shear Modulus (GPa) = 99.39264 27.79809 63.59537
#
# Velocity S-wave (km/s) = 6.43412 3.40267 5.14665
# Velocity P-wave (km/s) = 8.11789 5.91462 7.10221
#
# Compressibility (1/GPa) = 0.03891537
#
# Stress axis : x y z
#
# Youngs Moduli (GPa) = -38.77118 -82.97315 50.33594
#
# Poissons Ratio (x) = 2.55107 -0.18142
# Poissons Ratio (y) = 1.19205 0.29715
# Poissons Ratio (z) = 0.13974 -0.48982
#
# Static dielectric constant tensor:
#      x y z
#    x 2.113020 0.000000 -0.001440 
#    y 0.000000 1.976360 0.000000 
#    z -0.001440 0.000000 1.933970 
# 
# From -- ./inp_files/6983.got.cif
#   From: 2010.05.17/outbox.cif.g08.bks.cpg/sg14_4_cif.got.tgz:6983.got - 2010.06.03 17:49:19.
