data_PCOD9246878
_publ_section_title
;
Structure prediction by ZEFSAII (Michael W. Deem and Ramdas Pophale) SiO2 
 PCOD9246878
Probable space group: P 21/C
;
_chemical_formula_sum "Si O2"
_cell_formula_units_Z 30
_cell_length_a 16.861948
_cell_length_b 10.289817
_cell_length_c 11.747256
_cell_angle_alpha 90.000000
_cell_angle_beta 37.713365
_cell_angle_gamma 90.000000
_cell_volume 1246.805004
_symmetry_space_group_name_H-M "P 21/C"
_symmetry_group_IT_number 14
_symmetry_cell_setting 'monoclinic'
loop_
_space_group_symop_operation_xyz
x,y,z
-x,1/2+y,1/2-z
-x,-y,-z
x,1/2-y,1/2+z
loop_
_atom_site_type_symbol
_atom_site_label
_atom_site_fract_x
_atom_site_fract_y
_atom_site_fract_z
Si Si1 0.079272 0.394427 0.596642
Si Si2 0.130023 0.929357 0.487233
Si Si3 0.000000 0.000000 0.000000
Si Si4 0.337936 0.298554 0.408382
Si Si5 0.589677 0.310894 0.981473
Si Si6 0.256491 0.468198 0.060047
Si Si7 0.775236 0.140696 0.087622
Si Si8 0.277147 0.549044 0.605141
O O1 0.991314 0.355437 0.591365
O O2 0.199699 0.312322 0.500528
O O3 0.128931 0.527545 0.471973
O O4 0.004731 0.438654 0.793194
O O5 0.161367 0.776843 0.460315
O O6 0.160874 0.973654 0.325679
O O7 0.228383 0.002233 0.460073
O O8 0.878784 0.941307 0.222378
O O9 0.445043 0.320072 0.190433
O O10 0.344551 0.160197 0.461781
O O11 0.343724 0.414121 0.494058
O O12 0.674404 0.405871 0.965692
O O13 0.635235 0.359710 0.805764
O O14 0.632121 0.160411 0.944400
O O15 0.765340 0.108377 0.967473
#
# Coordination Sequence:
#
# PCOD9246878 Si02
#       8
#     4   4   2   4   4   4   4   4
#     4  10  23  39  65 100 132 174 223 287 337 405
#     4  10  23  41  67  97 135 172 226 283 351 410
#     4  10  22  44  68  98 136 176 232 282 340 414
#     4  11  26  42  65 107 137 175 234 282 342 407
#     4  11  22  46  69  97 137 185 232 278 343 418
#     4  11  23  44  69 101 135 186 225 292 348 408
#     4  10  21  42  68  94 128 184 231 271 344 414
#     4  10  23  45  65  98 134 181 223 285 344 408
#
# _framework density 24.061502999999998
#
# number of rings (size 3 to 8) (size 9 to 14) (size 15 to 20)
#    0.000    1.600    2.667    0.800    3.733    5.333 
#    7.200    2.000    0.000    0.000    0.000    0.000 
#    0.000    0.000    0.000    0.000    0.000    0.000 
#
# Total GULP energy -167319.319036 kJ/mol
# GULP energy per Si atom -5577.310635 kJ/mol
# Density = 2.400674 g / cm^3
# Si number density = 24.061503 Si / 1000 Ang^3
#
#
#
# Elastic Constant Matrix: (Units=GPa)
#
#
# Indices 1 2 3 4 5 6 
#
# 1 54.6698 -6.1239 38.1265 0.0000 27.1691 0.0000
# 2 -6.1239 109.9521 15.6375 0.0000 2.6432 0.0000
# 3 38.1265 15.6375 191.3081 0.0000 29.8214 0.0000
# 4 0.0000 0.0000 0.0000 28.1448 0.0000 -1.2737
# 5 27.1691 2.6432 29.8214 0.0000 42.0088 0.0000
# 6 0.0000 0.0000 0.0000 -1.2737 0.0000 6.4887
#
#
#
# Elastic Compliance Matrix: (Units=1/GPa)
#
#
# Indices 1 2 3 4 5 6 
#
# 1 0.029234 0.002517 -0.003441 0.000000 -0.016623 0.000000
# 2 0.002517 0.009419 -0.001041 0.000000 -0.001482 0.000000
# 3 -0.003441 -0.001041 0.006343 0.000000 -0.002212 0.000000
# 4 0.000000 0.000000 0.000000 0.035849 0.000000 0.007037
# 5 -0.016623 -0.001482 -0.002212 0.000000 0.036219 0.000000
# 6 0.000000 0.000000 0.000000 0.007037 0.000000 0.155495
#
#
# Mechanical properties :
#
#
# Convention : Reuss Voigt Hill
#
# Bulk Modulus (GPa) = 24.35016 50.13448 37.24232
# Shear Modulus (GPa) = 17.23096 35.88114 26.55605
#
# Velocity S-wave (km/s) = 2.67895 3.86583 3.32576
# Velocity P-wave (km/s) = 4.43970 6.38807 5.50083
#
# Compressibility (1/GPa) = 0.04106749
#
# Stress axis : x y z
#
# Youngs Moduli (GPa) = 34.20646 106.17206 157.66102
#
# Poissons Ratio (x) = -0.26725 0.54247
# Poissons Ratio (y) = -0.08610 0.16405
# Poissons Ratio (z) = 0.11769 0.11048
#
# Static dielectric constant tensor:
#      x y z
#    x 2.167280 0.000000 -0.020810 
#    y 0.000000 2.002360 0.000000 
#    z -0.020810 0.000000 1.942260 
# 
# From -- ./inp_files/35260.got.cif
#   From: 2010.05.17/outbox.cif.g08.bks.cpg/sg14_18_cif.got.tgz:35260.got - 2010.06.03 17:49:19.
