data_PCOD9246942
_publ_section_title
;
Structure prediction by ZEFSAII (Michael W. Deem and Ramdas Pophale) SiO2 
 PCOD9246942
Probable space group: P 21/C
;
_chemical_formula_sum "Si O2"
_cell_formula_units_Z 32
_cell_length_a 11.630469
_cell_length_b 10.952340
_cell_length_c 14.349266
_cell_angle_alpha 90.000000
_cell_angle_beta 45.635673
_cell_angle_gamma 90.000000
_cell_volume 1306.724656
_symmetry_space_group_name_H-M "P 21/C"
_symmetry_group_IT_number 14
_symmetry_cell_setting 'monoclinic'
loop_
_space_group_symop_operation_xyz
x,y,z
-x,1/2+y,1/2-z
-x,-y,-z
x,1/2-y,1/2+z
loop_
_atom_site_type_symbol
_atom_site_label
_atom_site_fract_x
_atom_site_fract_y
_atom_site_fract_z
Si Si1 0.494037 0.322409 0.936266
Si Si2 0.180587 0.404870 0.799569
Si Si3 0.945975 0.078505 0.875549
Si Si4 0.592518 0.990452 0.683180
Si Si5 0.150853 0.814952 0.464488
Si Si6 0.322143 0.396419 0.426623
Si Si7 0.713857 0.863262 0.274939
Si Si8 0.190499 0.836864 0.230107
O O1 0.422696 0.378678 0.070826
O O2 0.490252 0.422820 0.855874
O O3 0.384499 0.215066 0.952725
O O4 0.664554 0.258411 0.861890
O O5 0.256307 0.417953 0.859820
O O6 0.232483 0.275049 0.734151
O O7 0.245608 0.521437 0.707734
O O8 0.987527 0.398576 0.911382
O O9 0.928966 0.151848 0.788105
O O10 0.131331 0.053511 0.792037
O O11 0.871158 0.177425 0.989195
O O12 0.840291 0.957238 0.944762
O O13 0.675419 0.122975 0.617031
O O14 0.463727 0.002531 0.839455
O O15 0.118091 0.813926 0.372722
O O16 0.313723 0.366590 0.320390
#
# Coordination Sequence:
#
# PCOD9246942 Si02
#       8
#     4   4   4   4   4   4   4   4
#     4  12  26  42  71 106 137 181 232 290 345 409
#     4  10  21  42  72  95 138 186 236 280 335 411
#     4  11  27  45  70 100 140 183 229 284 348 416
#     4  11  23  42  70  95 137 182 227 289 345 400
#     4  10  23  45  68 101 139 188 232 287 342 411
#     4  12  25  46  73  97 143 179 230 290 346 410
#     4  11  27  44  67 104 138 184 225 284 356 409
#     4  11  23  42  72 104 133 181 237 282 336 417
#
# _framework density 24.488710000000001
#
# number of rings (size 3 to 8) (size 9 to 14) (size 15 to 20)
#    0.000    1.000    3.750    3.375    7.000    1.500 
#    2.250    0.000    0.000    0.000    0.000    0.000 
#    0.000    0.000    0.000    0.000    0.000    0.000 
#
# Total GULP energy -178891.640601 kJ/mol
# GULP energy per Si atom -5590.363769 kJ/mol
# Density = 2.443297 g / cm^3
# Si number density = 24.488710 Si / 1000 Ang^3
#
#
#
# Elastic Constant Matrix: (Units=GPa)
#
#
# Indices 1 2 3 4 5 6 
#
# 1 96.3052 -4.8662 11.0590 0.0000 13.4212 0.0000
# 2 -4.8662 59.3738 13.5827 0.0000 0.8226 0.0000
# 3 11.0590 13.5827 60.2239 0.0000 5.8780 0.0000
# 4 0.0000 0.0000 0.0000 18.3158 0.0000 0.2409
# 5 13.4212 0.8226 5.8780 0.0000 44.6969 0.0000
# 6 0.0000 0.0000 0.0000 0.2409 0.0000 28.7972
#
#
#
# Elastic Compliance Matrix: (Units=1/GPa)
#
#
# Indices 1 2 3 4 5 6 
#
# 1 0.011124 0.001426 -0.002062 0.000000 -0.003095 0.000000
# 2 0.001426 0.017943 -0.004290 0.000000 -0.000194 0.000000
# 3 -0.002062 -0.004290 0.018115 0.000000 -0.001684 0.000000
# 4 0.000000 0.000000 0.000000 0.054604 0.000000 -0.000457
# 5 -0.003095 -0.000194 -0.001684 0.000000 0.023527 0.000000
# 6 0.000000 0.000000 0.000000 -0.000457 0.000000 0.034729
#
#
# Mechanical properties :
#
#
# Convention : Reuss Voigt Hill
#
# Bulk Modulus (GPa) = 26.78735 28.38377 27.58556
# Shear Modulus (GPa) = 27.42156 31.43713 29.42934
#
# Velocity S-wave (km/s) = 3.34992 3.58682 3.47039
# Velocity P-wave (km/s) = 5.09166 5.36371 5.22945
#
# Compressibility (1/GPa) = 0.03733106
#
# Stress axis : x y z
#
# Youngs Moduli (GPa) = 89.89653 55.73079 55.20193
#
# Poissons Ratio (x) = -0.07949 0.11384
# Poissons Ratio (y) = -0.12823 0.23681
# Poissons Ratio (z) = 0.18539 0.23908
#
# Static dielectric constant tensor:
#      x y z
#    x 2.027990 0.000000 -0.022070 
#    y 0.000000 2.009410 0.000000 
#    z -0.022070 0.000000 1.935090 
# 
# From -- ./inp_files/44623.got.cif
#   From: 2010.05.17/outbox.cif.g08.bks.cpg/sg14_23_cif.got.tgz:44623.got - 2010.06.03 17:49:19.
