data_PCOD9246836
_publ_section_title
;
Structure prediction by ZEFSAII (Michael W. Deem and Ramdas Pophale) SiO2 
 PCOD9246836
Probable space group: P 21/C
;
_chemical_formula_sum "Si O2"
_cell_formula_units_Z 28
_cell_length_a 5.365325
_cell_length_b 11.226335
_cell_length_c 20.228487
_cell_angle_alpha 90.000000
_cell_angle_beta 114.075771
_cell_angle_gamma 90.000000
_cell_volume 1112.426766
_symmetry_space_group_name_H-M "P 21/C"
_symmetry_group_IT_number 14
_symmetry_cell_setting 'monoclinic'
loop_
_space_group_symop_operation_xyz
x,y,z
-x,1/2+y,1/2-z
-x,-y,-z
x,1/2-y,1/2+z
loop_
_atom_site_type_symbol
_atom_site_label
_atom_site_fract_x
_atom_site_fract_y
_atom_site_fract_z
Si Si1 0.590022 0.841667 0.246738
Si Si2 0.442320 0.312201 0.548394
Si Si3 0.046428 0.695498 0.227581
Si Si4 0.005315 0.702018 0.597366
Si Si5 0.778617 0.994601 0.159601
Si Si6 0.292703 0.632250 0.025585
Si Si7 0.712048 0.587728 0.896704
O O1 0.339400 0.754294 0.238223
O O2 0.642975 0.931610 0.313011
O O3 0.871697 0.771287 0.261864
O O4 0.558490 0.911871 0.173838
O O5 0.630944 0.417520 0.593002
O O6 0.557520 0.223567 0.505584
O O7 0.386923 0.222718 0.602282
O O8 0.165540 0.350369 0.483112
O O9 0.891014 0.702703 0.140490
O O10 0.085094 0.570943 0.267613
O O11 0.209091 0.788562 0.580135
O O12 0.993691 0.587092 0.644659
O O13 0.417060 0.510915 0.068971
O O14 0.026444 0.592302 0.953769
#
# Coordination Sequence:
#
# PCOD9246836 Si02
#       7
#     4   4   4   4   4   4   4
#     4  11  25  46  70 103 138 187 242 296 359 429
#     4  11  22  44  68 102 139 182 240 292 370 433
#     4  11  25  47  70 102 144 186 243 291 364 431
#     4  10  25  43  64 106 137 187 236 299 359 434
#     4  11  24  46  71 103 143 193 235 308 361 440
#     4  10  22  40  70  98 141 183 240 294 361 435
#     4  10  21  42  67 100 135 185 240 300 357 428
#
# _framework density 25.170197000000002
#
# number of rings (size 3 to 8) (size 9 to 14) (size 15 to 20)
#    0.000    1.429    1.429    2.571    4.000    2.857 
#   15.429    0.000    0.000    0.000    0.000    0.000 
#    0.000    0.000    0.000    0.000    0.000    0.000 
#
# Total GULP energy -156209.387056 kJ/mol
# GULP energy per Si atom -5578.906681 kJ/mol
# Density = 2.511291 g / cm^3
# Si number density = 25.170197 Si / 1000 Ang^3
#
#
#
# Elastic Constant Matrix: (Units=GPa)
#
#
# Indices 1 2 3 4 5 6 
#
# 1 74.5814 11.5231 2.4887 0.0000 -7.4486 0.0000
# 2 11.5231 81.0442 22.6612 0.0000 6.4722 0.0000
# 3 2.4887 22.6612 113.8718 0.0000 -10.1304 0.0000
# 4 0.0000 0.0000 0.0000 38.3715 0.0000 -17.4132
# 5 -7.4486 6.4722 -10.1304 0.0000 14.4016 0.0000
# 6 0.0000 0.0000 0.0000 -17.4132 0.0000 29.7444
#
#
#
# Elastic Compliance Matrix: (Units=1/GPa)
#
#
# Indices 1 2 3 4 5 6 
#
# 1 0.014869 -0.003252 0.001212 0.000000 0.010005 0.000000
# 2 -0.003252 0.014757 -0.003846 0.000000 -0.011019 0.000000
# 3 0.001212 -0.003846 0.010380 0.000000 0.009657 0.000000
# 4 0.000000 0.000000 0.000000 0.035489 0.000000 0.020777
# 5 0.010005 -0.011019 0.009657 0.000000 0.086356 0.000000
# 6 0.000000 0.000000 0.000000 0.020777 0.000000 0.045783
#
#
# Mechanical properties :
#
#
# Convention : Reuss Voigt Hill
#
# Bulk Modulus (GPa) = 35.41783 38.09371 36.75577
# Shear Modulus (GPa) = 21.85146 32.02514 26.93830
#
# Velocity S-wave (km/s) = 2.94963 3.57086 3.27501
# Velocity P-wave (km/s) = 5.06975 5.67175 5.37917
#
# Compressibility (1/GPa) = 0.02823437
#
# Stress axis : x y z
#
# Youngs Moduli (GPa) = 67.25227 67.76582 96.34136
#
# Poissons Ratio (x) = 0.22038 -0.11679
# Poissons Ratio (y) = 0.21871 0.37052
# Poissons Ratio (z) = -0.08153 0.26062
#
# Static dielectric constant tensor:
#      x y z
#    x 2.106100 0.000000 0.084470 
#    y 0.000000 1.993420 0.000000 
#    z 0.084470 0.000000 2.087920 
# 
# From -- ./inp_files/63362.got.cif
#   From: 2010.05.17/outbox.cif.g08.bks.cpg/sg14_32_cif.got.tgz:63362.got - 2010.06.03 17:49:19.
