data_PCOD9246215
_publ_section_title
;
Structure prediction by ZEFSAII (Michael W. Deem and Ramdas Pophale) SiO2 
 PCOD9246215
Probable space group: P 21/C
;
_chemical_formula_sum "Si O2"
_cell_formula_units_Z 24
_cell_length_a 11.631558
_cell_length_b 15.767345
_cell_length_c 10.740353
_cell_angle_alpha 90.000000
_cell_angle_beta 34.285062
_cell_angle_gamma 90.000000
_cell_volume 1109.591139
_symmetry_space_group_name_H-M "P 21/C"
_symmetry_group_IT_number 14
_symmetry_cell_setting 'monoclinic'
loop_
_space_group_symop_operation_xyz
x,y,z
-x,1/2+y,1/2-z
-x,-y,-z
x,1/2-y,1/2+z
loop_
_atom_site_type_symbol
_atom_site_label
_atom_site_fract_x
_atom_site_fract_y
_atom_site_fract_z
Si Si1 0.299968 0.858686 0.863336
Si Si2 0.669113 0.624204 0.366337
Si Si3 0.332346 0.893932 0.548050
Si Si4 0.438728 0.494853 0.743798
Si Si5 0.602787 0.754824 0.232509
Si Si6 0.008193 0.272736 0.764687
O O1 0.305434 0.895283 0.719363
O O2 0.470917 0.786093 0.738625
O O3 0.370010 0.934748 0.891457
O O4 0.091545 0.809533 0.081773
O O5 0.525529 0.576057 0.592789
O O6 0.704399 0.556193 0.224148
O O7 0.554631 0.699555 0.396979
O O8 0.862934 0.666879 0.258056
O O9 0.328391 0.979052 0.470368
O O10 0.547108 0.849728 0.320352
O O11 0.167880 0.829019 0.639091
O O12 0.834471 0.746078 0.983419
#
# Coordination Sequence:
#
# PCOD9246215 Si02
#       6
#     4   4   4   4   4   4
#     4  10  23  41  64  92 130 167 214 261 317 379
#     4  10  21  42  66  90 128 165 213 259 312 381
#     4  11  22  38  65  92 129 169 211 259 319 376
#     4  10  22  43  64  94 130 169 205 266 325 366
#     4  10  21  40  65  92 124 173 213 262 311 374
#     4  11  22  40  64  99 122 169 218 258 314 382
#
# _framework density 21.629587999999998
#
# number of rings (size 3 to 8) (size 9 to 14) (size 15 to 20)
#    0.000    1.667    1.667    2.500    2.333    0.667 
#   12.000    0.833    0.000    0.000    0.000    0.000 
#    0.000    0.000    0.000    0.000    0.000    0.000 
#
# Total GULP energy -133944.100617 kJ/mol
# GULP energy per Si atom -5581.004192 kJ/mol
# Density = 2.158036 g / cm^3
# Si number density = 21.629588 Si / 1000 Ang^3
#
#
#
# Elastic Constant Matrix: (Units=GPa)
#
#
# Indices 1 2 3 4 5 6 
#
# 1 111.5644 26.7570 14.7971 0.0000 26.1517 0.0000
# 2 26.7570 58.2734 12.6277 0.0000 14.5020 0.0000
# 3 14.7971 12.6277 52.8108 0.0000 9.6054 0.0000
# 4 0.0000 0.0000 0.0000 17.9210 0.0000 0.8172
# 5 26.1517 14.5020 9.6054 0.0000 20.5279 0.0000
# 6 0.0000 0.0000 0.0000 0.8172 0.0000 51.9572
#
#
#
# Elastic Compliance Matrix: (Units=1/GPa)
#
#
# Indices 1 2 3 4 5 6 
#
# 1 0.013026 -0.002195 -0.000425 0.000000 -0.014845 0.000000
# 2 -0.002195 0.021502 -0.002483 0.000000 -0.011232 0.000000
# 3 -0.000425 -0.002483 0.021020 0.000000 -0.007540 0.000000
# 4 0.000000 0.000000 0.000000 0.055840 0.000000 -0.000878
# 5 -0.014845 -0.011232 -0.007540 0.000000 0.079090 0.000000
# 6 0.000000 0.000000 0.000000 -0.000878 0.000000 0.019260
#
#
# Mechanical properties :
#
#
# Convention : Reuss Voigt Hill
#
# Bulk Modulus (GPa) = 22.05486 36.77915 29.41701
# Shear Modulus (GPa) = 21.27139 29.31233 25.29186
#
# Velocity S-wave (km/s) = 3.13939 3.68529 3.42324
# Velocity P-wave (km/s) = 4.83319 5.92870 5.40875
#
# Compressibility (1/GPa) = 0.04534147
#
# Stress axis : x y z
#
# Youngs Moduli (GPa) = 76.76932 46.50834 47.57434
#
# Poissons Ratio (x) = 0.10206 0.02022
# Poissons Ratio (y) = 0.16847 0.11815
# Poissons Ratio (z) = 0.03262 0.11550
#
# Static dielectric constant tensor:
#      x y z
#    x 1.801680 0.000000 0.003690 
#    y 0.000000 1.808650 0.000000 
#    z 0.003690 0.000000 1.782130 
# 
# From -- ./inp_files/30362.got.cif
#   From: 2010.05.17/outbox.cif.g08.bks.cpg/sg14_16_cif.got.tgz:30362.got - 2010.06.03 17:49:19.
