data_PCOD9246348
_publ_section_title
;
Structure prediction by ZEFSAII (Michael W. Deem and Ramdas Pophale) SiO2 
 PCOD9246348
Probable space group: P 21/C
;
_chemical_formula_sum "Si O2"
_cell_formula_units_Z 32
_cell_length_a 31.536630
_cell_length_b 5.490267
_cell_length_c 17.052837
_cell_angle_alpha 90.000000
_cell_angle_beta 32.612697
_cell_angle_gamma 90.000000
_cell_volume 1591.328640
_symmetry_space_group_name_H-M "P 21/C"
_symmetry_group_IT_number 14
_symmetry_cell_setting 'monoclinic'
loop_
_space_group_symop_operation_xyz
x,y,z
-x,1/2+y,1/2-z
-x,-y,-z
x,1/2-y,1/2+z
loop_
_atom_site_type_symbol
_atom_site_label
_atom_site_fract_x
_atom_site_fract_y
_atom_site_fract_z
Si Si1 0.407226 0.962914 0.137945
Si Si2 0.328975 0.027551 0.707724
Si Si3 0.823293 0.045393 0.790725
Si Si4 0.810975 0.679807 0.471937
Si Si5 0.285273 0.558985 0.958228
Si Si6 0.756119 0.850019 0.319867
Si Si7 0.037422 0.048633 0.169171
Si Si8 0.070600 0.593641 0.442618
O O1 0.381140 0.716724 0.132624
O O2 0.373771 0.216483 0.154095
O O3 0.367055 0.920734 0.285964
O O4 0.500000 0.000000 0.000000
O O5 0.286341 0.051539 0.690151
O O6 0.261421 0.022065 0.880526
O O7 0.903646 0.146426 0.630809
O O8 0.843036 0.880828 0.835397
O O9 0.776982 0.934072 0.788710
O O10 0.760109 0.220439 0.930937
O O11 0.773371 0.944599 0.515845
O O12 0.880476 0.646828 0.424529
O O13 0.291893 0.384572 0.024274
O O14 0.843571 0.962451 0.195154
O O15 0.987348 0.301864 0.244758
O O16 0.044505 0.937160 0.071912
O O17 0.000000 0.500000 0.500000
#
# Coordination Sequence:
#
# PCOD9246348 Si02
#       8
#     4   4   4   4   4   4   4   4
#     4  11  24  44  71 104 138 176 216 277 344 410
#     4  11  23  42  70 100 138 172 231 275 329 410
#     4  10  21  40  69  89 132 174 233 272 346 397
#     4  10  21  41  64  94 127 181 227 282 328 404
#     4   9  21  40  67  95 131 172 224 266 338 406
#     4  10  23  40  66 100 126 184 228 284 326 406
#     4  12  29  42  62  93 136 174 231 287 347 391
#     4  11  25  41  61  93 135 179 230 287 347 397
#
# _framework density 20.108981
#
# number of rings (size 3 to 8) (size 9 to 14) (size 15 to 20)
#    0.000    1.500    2.500    1.125   12.250    0.500 
#    0.000    1.250    0.000    0.000    0.000    0.000 
#    0.000    0.000    0.000    0.000    0.000    0.000 
#
# Total GULP energy -178176.995893 kJ/mol
# GULP energy per Si atom -5568.031122 kJ/mol
# Density = 2.006321 g / cm^3
# Si number density = 20.108981 Si / 1000 Ang^3
#
#
#
# Elastic Constant Matrix: (Units=GPa)
#
#
# Indices 1 2 3 4 5 6 
#
# 1 121.7951 37.1478 53.8426 0.0000 -4.6890 0.0000
# 2 37.1478 79.0639 29.6150 0.0000 -13.0122 0.0000
# 3 53.8426 29.6150 88.2799 0.0000 -10.6113 0.0000
# 4 0.0000 0.0000 0.0000 24.5807 0.0000 -0.3998
# 5 -4.6890 -13.0122 -10.6113 0.0000 27.1360 0.0000
# 6 0.0000 0.0000 0.0000 -0.3998 0.0000 26.9823
#
#
#
# Elastic Compliance Matrix: (Units=1/GPa)
#
#
# Indices 1 2 3 4 5 6 
#
# 1 0.012062 -0.003625 -0.006400 0.000000 -0.002157 0.000000
# 2 -0.003625 0.016316 -0.002516 0.000000 0.006214 0.000000
# 3 -0.006400 -0.002516 0.016576 0.000000 0.004170 0.000000
# 4 0.000000 0.000000 0.000000 0.040692 0.000000 0.000603
# 5 -0.002157 0.006214 0.004170 0.000000 0.041089 0.000000
# 6 0.000000 0.000000 0.000000 0.000603 0.000000 0.037070
#
#
# Mechanical properties :
#
#
# Convention : Reuss Voigt Hill
#
# Bulk Modulus (GPa) = 50.31935 58.92775 54.62355
# Shear Modulus (GPa) = 25.57382 26.97536 26.27459
#
# Velocity S-wave (km/s) = 3.57004 3.66657 3.61863
# Velocity P-wave (km/s) = 6.48624 6.87697 6.68446
#
# Compressibility (1/GPa) = 0.01987307
#
# Stress axis : x y z
#
# Youngs Moduli (GPa) = 82.90156 61.28879 60.32739
#
# Poissons Ratio (x) = 0.22218 0.38610
# Poissons Ratio (y) = 0.30053 0.15176
# Poissons Ratio (z) = 0.53058 0.15418
#
# Static dielectric constant tensor:
#      x y z
#    x 1.701900 0.000000 0.019850 
#    y 0.000000 1.948250 0.000000 
#    z 0.019850 0.000000 1.706140 
# 
# From -- ./inp_files/62448.got.cif
#   From: 2010.05.17/outbox.cif.g08.bks.cpg/sg14_32_cif.got.tgz:62448.got - 2010.06.03 17:49:19.
