data_PCOD9246827
_publ_section_title
;
Structure prediction by ZEFSAII (Michael W. Deem and Ramdas Pophale) SiO2 
 PCOD9246827
Probable space group: P 21/C
;
_chemical_formula_sum "Si O2"
_cell_formula_units_Z 20
_cell_length_a 20.968286
_cell_length_b 7.485116
_cell_length_c 15.258513
_cell_angle_alpha 90.000000
_cell_angle_beta 162.453910
_cell_angle_gamma 90.000000
_cell_volume 721.974648
_symmetry_space_group_name_H-M "P 21/C"
_symmetry_group_IT_number 14
_symmetry_cell_setting 'monoclinic'
loop_
_space_group_symop_operation_xyz
x,y,z
-x,1/2+y,1/2-z
-x,-y,-z
x,1/2-y,1/2+z
loop_
_atom_site_type_symbol
_atom_site_label
_atom_site_fract_x
_atom_site_fract_y
_atom_site_fract_z
Si Si1 0.588753 0.499161 0.327451
Si Si2 0.378519 0.379327 0.226947
Si Si3 0.818036 0.269722 0.209107
Si Si4 0.601903 0.241298 0.689798
Si Si5 0.000749 0.640482 0.377247
O O1 0.532429 0.478706 0.357931
O O2 0.814342 0.394782 0.637021
O O3 0.497015 0.357341 0.134621
O O4 0.426614 0.661799 0.092143
O O5 0.452792 0.279534 0.411641
O O6 0.287737 0.567918 0.146845
O O7 0.195746 0.275327 0.933334
O O8 0.934038 0.243425 0.453039
O O9 0.921622 0.447104 0.304550
O O10 0.790831 0.115499 0.905826
#
# Coordination Sequence:
#
# PCOD9246827 Si02
#       5
#     4   4   4   4   4
#     4  11  20  43  67  98 139 177 221 276 341 392
#     4  10  23  43  64 100 142 172 224 279 337 397
#     4  10  22  41  69  97 136 178 220 281 331 399
#     4  11  22  41  70  97 135 183 219 279 337 397
#     4  10  21  42  66  96 134 173 232 268 325 404
#
# _framework density 27.701803000000002
#
# number of rings (size 3 to 8) (size 9 to 14) (size 15 to 20)
#    0.000    1.600    6.000    0.000    0.000    2.400 
#   10.800    0.000    0.000   22.800    0.000    0.000 
#    0.000    0.000    0.000    0.000    0.000    0.000 
#
# Total GULP energy -111402.295313 kJ/mol
# GULP energy per Si atom -5570.114766 kJ/mol
# Density = 2.763875 g / cm^3
# Si number density = 27.701803 Si / 1000 Ang^3
#
#
#
# Elastic Constant Matrix: (Units=GPa)
#
#
# Indices 1 2 3 4 5 6 
#
# 1 74.6215 34.8110 29.3003 0.0000 -54.8042 0.0000
# 2 34.8110 340.0066 87.4748 0.0000 -52.4705 0.0000
# 3 29.3003 87.4748 155.4447 0.0000 -54.9158 0.0000
# 4 0.0000 0.0000 0.0000 33.5281 0.0000 -8.8020
# 5 -54.8042 -52.4705 -54.9158 0.0000 64.7464 0.0000
# 6 0.0000 0.0000 0.0000 -8.8020 0.0000 6.6613
#
#
#
# Elastic Compliance Matrix: (Units=1/GPa)
#
#
# Indices 1 2 3 4 5 6 
#
# 1 0.039227 0.000394 0.006036 0.000000 0.038643 0.000000
# 2 0.000394 0.003569 -0.001346 0.000000 0.002084 0.000000
# 3 0.006036 -0.001346 0.010670 0.000000 0.013067 0.000000
# 4 0.000000 0.000000 0.000000 0.045667 0.000000 0.060342
# 5 0.038643 0.002084 0.013067 0.000000 0.060926 0.000000
# 6 0.000000 0.000000 0.000000 0.060342 0.000000 0.229853
#
#
# Mechanical properties :
#
#
# Convention : Reuss Voigt Hill
#
# Bulk Modulus (GPa) = 15.71504 97.02721 56.37113
# Shear Modulus (GPa) = 12.47020 48.88629 30.67824
#
# Velocity S-wave (km/s) = 2.12400 4.20543 3.33144
# Velocity P-wave (km/s) = 3.42058 7.66045 5.93224
#
# Compressibility (1/GPa) = 0.06363330
#
# Stress axis : x y z
#
# Youngs Moduli (GPa) = 25.49235 280.21167 93.72414
#
# Poissons Ratio (x) = -0.11050 -0.56570
# Poissons Ratio (y) = -0.01005 0.12619
# Poissons Ratio (z) = -0.15387 0.37727
#
# Static dielectric constant tensor:
#      x y z
#    x 2.532970 0.000000 0.370840 
#    y 0.000000 2.273850 0.000000 
#    z 0.370840 0.000000 2.489410 
# 
# From -- ./inp_files/50165.got.cif
#   From: 2010.05.17/outbox.cif.g08.bks.cpg/sg14_26_cif.got.tgz:50165.got - 2010.06.03 17:49:19.
