data_PCOD9246326
_publ_section_title
;
Structure prediction by ZEFSAII (Michael W. Deem and Ramdas Pophale) SiO2 
 PCOD9246326
Probable space group: P 21/C
;
_chemical_formula_sum "Si O2"
_cell_formula_units_Z 24
_cell_length_a 11.937485
_cell_length_b 11.817496
_cell_length_c 12.869800
_cell_angle_alpha 90.000000
_cell_angle_beta 146.646946
_cell_angle_gamma 90.000000
_cell_volume 998.187395
_symmetry_space_group_name_H-M "P 21/C"
_symmetry_group_IT_number 14
_symmetry_cell_setting 'monoclinic'
loop_
_space_group_symop_operation_xyz
x,y,z
-x,1/2+y,1/2-z
-x,-y,-z
x,1/2-y,1/2+z
loop_
_atom_site_type_symbol
_atom_site_label
_atom_site_fract_x
_atom_site_fract_y
_atom_site_fract_z
Si Si1 0.370312 0.950970 0.673762
Si Si2 0.328979 0.477272 0.781221
Si Si3 0.391077 0.632167 0.519012
Si Si4 0.057006 0.469423 0.163666
Si Si5 0.707589 0.766032 0.632849
Si Si6 0.359517 0.793763 0.222180
O O1 0.558293 0.940334 0.738904
O O2 0.319598 0.838317 0.699006
O O3 0.163745 0.978443 0.453047
O O4 0.437728 0.043873 0.809357
O O5 0.207141 0.372844 0.736828
O O6 0.247969 0.603852 0.695236
O O7 0.500000 0.500000 0.000000
O O8 0.213277 0.560209 0.329993
O O9 0.504367 0.724470 0.537531
O O10 0.318394 0.686491 0.569295
O O11 0.148380 0.343696 0.254835
O O12 0.000000 0.500000 0.000000
O O13 0.601862 0.801371 0.441612
#
# Coordination Sequence:
#
# PCOD9246326 Si02
#       6
#     4   4   4   4   4   4
#     4  11  21  42  67  97 130 176 219 274 333 390
#     4   9  21  40  66  91 129 180 217 265 337 398
#     4  11  22  42  67  92 135 175 222 274 330 399
#     4  12  24  38  67 106 131 168 228 279 331 396
#     4  11  20  42  68  93 134 176 217 277 337 399
#     4  10  21  40  68  90 129 178 216 265 338 389
#
# _framework density 24.043583000000002
#
# number of rings (size 3 to 8) (size 9 to 14) (size 15 to 20)
#    0.000    1.333    5.000    1.500    0.000    0.000 
#    9.000    4.167    0.000    0.000    0.000    0.000 
#    0.000    0.000    0.000    0.000    0.000    0.000 
#
# Total GULP energy -133954.183722 kJ/mol
# GULP energy per Si atom -5581.424322 kJ/mol
# Density = 2.398886 g / cm^3
# Si number density = 24.043583 Si / 1000 Ang^3
#
#
#
# Elastic Constant Matrix: (Units=GPa)
#
#
# Indices 1 2 3 4 5 6 
#
# 1 25.3739 7.0643 11.8817 0.0000 -16.5888 0.0000
# 2 7.0643 137.7963 13.0735 0.0000 -0.1373 0.0000
# 3 11.8817 13.0735 98.5319 0.0000 1.0633 0.0000
# 4 0.0000 0.0000 0.0000 14.3466 0.0000 -27.7992
# 5 -16.5888 -0.1373 1.0633 0.0000 32.9723 0.0000
# 6 0.0000 0.0000 0.0000 -27.7992 0.0000 18.0335
#
#
#
# Elastic Compliance Matrix: (Units=1/GPa)
#
#
# Indices 1 2 3 4 5 6 
#
# 1 0.065563 -0.002576 -0.007923 0.000000 0.033231 0.000000
# 2 -0.002576 0.007451 -0.000665 0.000000 -0.001244 0.000000
# 3 -0.007923 -0.000665 0.011240 0.000000 -0.004351 0.000000
# 4 0.000000 0.000000 0.000000 -0.035079 0.000000 -0.054076
# 5 0.033231 -0.001244 -0.004351 0.000000 0.047182 0.000000
# 6 0.000000 0.000000 0.000000 -0.054076 0.000000 -0.027907
#
#
# Mechanical properties :
#
#
# Convention : Reuss Voigt Hill
#
# Bulk Modulus (GPa) = 16.14825 36.19344 26.17085
# Shear Modulus (GPa) = 44.87563 28.38264 36.62914
#
# Velocity S-wave (km/s) = 4.32491 3.43952 3.90737
# Velocity P-wave (km/s) = 5.62766 5.55515 5.59152
#
# Compressibility (1/GPa) = 0.06192621
#
# Stress axis : x y z
#
# Youngs Moduli (GPa) = 15.25247 134.21054 88.97189
#
# Poissons Ratio (x) = 0.34578 0.70491
# Poissons Ratio (y) = 0.03930 0.05912
# Poissons Ratio (z) = 0.12084 0.08918
#
# Static dielectric constant tensor:
#      x y z
#    x 2.033740 0.000000 0.012230 
#    y 0.000000 1.990060 0.000000 
#    z 0.012230 0.000000 1.937120 
# 
# From -- ./inp_files/47183.got.cif
#   From: 2010.05.17/outbox.cif.g08.bks.cpg/sg14_24_cif.got.tgz:47183.got - 2010.06.03 17:49:19.
