data_PCOD9246670
_publ_section_title
;
Structure prediction by ZEFSAII (Michael W. Deem and Ramdas Pophale) SiO2 
 PCOD9246670
Probable space group: P 21/C
;
_chemical_formula_sum "Si O2"
_cell_formula_units_Z 24
_cell_length_a 10.671639
_cell_length_b 15.482207
_cell_length_c 10.212002
_cell_angle_alpha 90.000000
_cell_angle_beta 138.551198
_cell_angle_gamma 90.000000
_cell_volume 1116.864341
_symmetry_space_group_name_H-M "P 21/C"
_symmetry_group_IT_number 14
_symmetry_cell_setting 'monoclinic'
loop_
_space_group_symop_operation_xyz
x,y,z
-x,1/2+y,1/2-z
-x,-y,-z
x,1/2-y,1/2+z
loop_
_atom_site_type_symbol
_atom_site_label
_atom_site_fract_x
_atom_site_fract_y
_atom_site_fract_z
Si Si1 0.462532 0.464814 0.116199
Si Si2 0.257764 0.421772 0.348390
Si Si3 0.022125 0.209578 0.509613
Si Si4 0.883101 0.015465 0.040288
Si Si5 0.866669 0.665701 0.174305
Si Si6 0.664836 0.091489 0.256722
O O1 0.670057 0.453295 0.342191
O O2 0.358935 0.537644 0.125645
O O3 0.500000 0.500000 0.000000
O O4 0.339201 0.377428 0.007519
O O5 0.157272 0.368773 0.158216
O O6 0.136550 0.431390 0.384958
O O7 0.283490 0.517476 0.308898
O O8 0.456067 0.380567 0.546920
O O9 0.066379 0.225155 0.392800
O O10 0.089823 0.286335 0.655960
O O11 0.812924 0.170095 0.371607
O O12 0.995262 0.084099 0.213250
O O13 0.000000 0.000000 0.000000
#
# Coordination Sequence:
#
# PCOD9246670 Si02
#       6
#     4   4   4   4   4   4
#     4  11  23  41  70 100 130 167 232 285 325 399
#     4  10  21  41  71  94 125 168 231 280 329 400
#     4  12  26  42  67  95 144 178 220 276 349 410
#     4  11  23  41  71 100 128 169 231 282 335 398
#     4  12  27  43  63 102 138 179 221 280 342 405
#     4  10  21  41  69  97 121 173 225 278 331 399
#
# _framework density 21.488731999999999
#
# number of rings (size 3 to 8) (size 9 to 14) (size 15 to 20)
#    0.000    1.000    5.000    1.500    2.333    1.333 
#    0.000    0.000    0.000    0.000    0.000    0.000 
#    0.000    0.000    0.000    0.000    0.000    0.000 
#
# Total GULP energy -134049.439065 kJ/mol
# GULP energy per Si atom -5585.393294 kJ/mol
# Density = 2.143982 g / cm^3
# Si number density = 21.488732 Si / 1000 Ang^3
#
#
#
# Elastic Constant Matrix: (Units=GPa)
#
#
# Indices 1 2 3 4 5 6 
#
# 1 121.2687 24.8899 21.9931 0.0000 -15.0027 0.0000
# 2 24.8899 29.0033 19.5031 0.0000 8.5171 0.0000
# 3 21.9931 19.5031 90.7893 0.0000 -0.6577 0.0000
# 4 0.0000 0.0000 0.0000 30.8410 0.0000 -18.3839
# 5 -15.0027 8.5171 -0.6577 0.0000 31.4708 0.0000
# 6 0.0000 0.0000 0.0000 -18.3839 0.0000 19.0861
#
#
#
# Elastic Compliance Matrix: (Units=1/GPa)
#
#
# Indices 1 2 3 4 5 6 
#
# 1 0.012089 -0.013069 -0.000054 0.000000 0.009299 0.000000
# 2 -0.013069 0.058709 -0.009608 0.000000 -0.022320 0.000000
# 3 -0.000054 -0.009608 0.013112 0.000000 0.002849 0.000000
# 4 0.000000 0.000000 0.000000 0.076141 0.000000 0.073340
# 5 0.009299 -0.022320 0.002849 0.000000 0.042308 0.000000
# 6 0.000000 0.000000 0.000000 0.073340 0.000000 0.123036
#
#
# Mechanical properties :
#
#
# Convention : Reuss Voigt Hill
#
# Bulk Modulus (GPa) = 26.00791 41.53705 33.77248
# Shear Modulus (GPa) = 13.03195 27.92459 20.47827
#
# Velocity S-wave (km/s) = 2.46530 3.60877 3.09038
# Velocity P-wave (km/s) = 4.49810 6.06102 5.33708
#
# Compressibility (1/GPa) = 0.03844984
#
# Stress axis : x y z
#
# Youngs Moduli (GPa) = 82.72293 17.03311 76.26582
#
# Poissons Ratio (x) = 0.22260 0.00409
# Poissons Ratio (y) = 1.08108 0.73273
# Poissons Ratio (z) = 0.00444 0.16365
#
# Static dielectric constant tensor:
#      x y z
#    x 1.741540 0.000000 0.071030 
#    y 0.000000 1.806330 0.000000 
#    z 0.071030 0.000000 1.735690 
# 
# From -- ./inp_files/29883.got.cif
#   From: 2010.05.17/outbox.cif.g08.bks.cpg/sg14_15_cif.got.tgz:29883.got - 2010.06.03 17:49:19.
