data_PCOD9246523
_publ_section_title
;
Structure prediction by ZEFSAII (Michael W. Deem and Ramdas Pophale) SiO2 
 PCOD9246523
Probable space group: P 21/C
;
_chemical_formula_sum "Si O2"
_cell_formula_units_Z 28
_cell_length_a 17.640900
_cell_length_b 5.201144
_cell_length_c 13.337813
_cell_angle_alpha 90.000000
_cell_angle_beta 80.297565
_cell_angle_gamma 90.000000
_cell_volume 1206.277896
_symmetry_space_group_name_H-M "P 21/C"
_symmetry_group_IT_number 14
_symmetry_cell_setting 'monoclinic'
loop_
_space_group_symop_operation_xyz
x,y,z
-x,1/2+y,1/2-z
-x,-y,-z
x,1/2-y,1/2+z
loop_
_atom_site_type_symbol
_atom_site_label
_atom_site_fract_x
_atom_site_fract_y
_atom_site_fract_z
Si Si1 0.617015 0.313568 0.670285
Si Si2 0.834606 0.794730 0.695661
Si Si3 0.732325 0.500303 0.048157
Si Si4 0.173892 0.704113 0.160537
Si Si5 0.003689 0.882687 0.686916
Si Si6 0.467109 0.075706 0.659827
Si Si7 0.577225 0.798197 0.021801
O O1 0.698589 0.191787 0.639843
O O2 0.541978 0.141024 0.709322
O O3 0.607254 0.523118 0.757066
O O4 0.595596 0.433546 0.568118
O O5 0.822830 0.528903 0.758933
O O6 0.924974 0.826723 0.646592
O O7 0.787042 0.819280 0.602888
O O8 0.817840 0.027046 0.780278
O O9 0.654462 0.637677 0.027648
O O10 0.769508 0.357956 0.944658
O O11 0.088164 0.690629 0.130458
O O12 0.995821 0.682821 0.782639
O O13 0.439493 0.294386 0.590719
O O14 0.503542 0.844331 0.586822
#
# Coordination Sequence:
#
# PCOD9246523 Si02
#       7
#     4   4   4   4   4   4   4
#     4  11  22  42  63  92 123 163 221 267 327 400
#     4  10  23  42  69  95 136 178 218 271 323 386
#     4  11  27  39  61 100 129 172 218 263 339 404
#     4  10  23  43  66  97 137 175 219 275 324 382
#     4   8  16  37  65  94 125 174 224 262 316 381
#     4  10  21  41  65  86 116 164 210 274 317 381
#     4  10  23  40  60  89 123 160 216 261 329 389
#
# _framework density 23.211897
#
# number of rings (size 3 to 8) (size 9 to 14) (size 15 to 20)
#    0.000    2.000    1.429    0.429    6.000    0.571 
#    0.000    0.000    0.000   10.286    0.000    0.000 
#    0.000    0.000    0.000    0.000    0.000    0.000 
#
# Total GULP energy -156168.748771 kJ/mol
# GULP energy per Si atom -5577.455313 kJ/mol
# Density = 2.315907 g / cm^3
# Si number density = 23.211897 Si / 1000 Ang^3
#
#
#
# Elastic Constant Matrix: (Units=GPa)
#
#
# Indices 1 2 3 4 5 6 
#
# 1 104.9611 11.1309 29.9859 0.0000 -6.5362 0.0000
# 2 11.1309 77.1323 0.8099 0.0000 1.8182 0.0000
# 3 29.9859 0.8099 56.9382 0.0000 -4.2531 0.0000
# 4 0.0000 0.0000 0.0000 22.7290 0.0000 7.0505
# 5 -6.5362 1.8182 -4.2531 0.0000 29.9882 0.0000
# 6 0.0000 0.0000 0.0000 7.0505 0.0000 7.0587
#
#
#
# Elastic Compliance Matrix: (Units=1/GPa)
#
#
# Indices 1 2 3 4 5 6 
#
# 1 0.011497 -0.001639 -0.005899 0.000000 0.001768 0.000000
# 2 -0.001639 0.013220 0.000595 0.000000 -0.001074 0.000000
# 3 -0.005899 0.000595 0.020783 0.000000 0.001626 0.000000
# 4 0.000000 0.000000 0.000000 0.063748 0.000000 -0.063673
# 5 0.001768 -0.001074 0.001626 0.000000 0.034028 0.000000
# 6 0.000000 0.000000 0.000000 -0.063673 0.000000 0.205267
#
#
# Mechanical properties :
#
#
# Convention : Reuss Voigt Hill
#
# Bulk Modulus (GPa) = 31.63243 35.87609 33.75426
# Shear Modulus (GPa) = 13.40607 25.09553 19.25080
#
# Velocity S-wave (km/s) = 2.40584 3.29165 2.88297
# Velocity P-wave (km/s) = 4.62327 5.47139 5.06511
#
# Compressibility (1/GPa) = 0.03161312
#
# Stress axis : x y z
#
# Youngs Moduli (GPa) = 86.98263 75.64118 48.11720
#
# Poissons Ratio (x) = 0.12396 0.28385
# Poissons Ratio (y) = 0.14255 -0.02862
# Poissons Ratio (z) = 0.51312 -0.04499
#
# Static dielectric constant tensor:
#      x y z
#    x 1.916440 0.000000 -0.040590 
#    y 0.000000 1.978530 0.000000 
#    z -0.040590 0.000000 1.931510 
# 
# From -- ./inp_files/47955.got.cif
#   From: 2010.05.17/outbox.cif.g08.bks.cpg/sg14_24_cif.got.tgz:47955.got - 2010.06.03 17:49:19.
