data_PCOD9246242
_publ_section_title
;
Structure prediction by ZEFSAII (Michael W. Deem and Ramdas Pophale) SiO2 
 PCOD9246242
Probable space group: P 21/C
;
_chemical_formula_sum "Si O2"
_cell_formula_units_Z 28
_cell_length_a 6.509978
_cell_length_b 22.285464
_cell_length_c 8.218990
_cell_angle_alpha 90.000000
_cell_angle_beta 87.885553
_cell_angle_gamma 90.000000
_cell_volume 1191.581774
_symmetry_space_group_name_H-M "P 21/C"
_symmetry_group_IT_number 14
_symmetry_cell_setting 'monoclinic'
loop_
_space_group_symop_operation_xyz
x,y,z
-x,1/2+y,1/2-z
-x,-y,-z
x,1/2-y,1/2+z
loop_
_atom_site_type_symbol
_atom_site_label
_atom_site_fract_x
_atom_site_fract_y
_atom_site_fract_z
Si Si1 0.869523 0.731216 0.640214
Si Si2 0.001383 0.370635 0.601267
Si Si3 0.620400 0.945297 0.788708
Si Si4 0.538229 0.829559 0.324528
Si Si5 0.306270 0.870466 0.609011
Si Si6 0.673830 0.424871 0.391757
Si Si7 0.040266 0.342568 0.077084
O O1 0.647365 0.726107 0.733585
O O2 0.889915 0.685263 0.489271
O O3 0.912621 0.796387 0.571250
O O4 0.019751 0.702608 0.772901
O O5 0.809729 0.352722 0.722197
O O6 0.895570 0.411612 0.464813
O O7 0.170705 0.407767 0.695456
O O8 0.474088 0.919740 0.651639
O O9 0.670148 0.015465 0.783550
O O10 0.487605 0.934792 0.957001
O O11 0.417853 0.819862 0.495921
O O12 0.406293 0.867990 0.205101
O O13 0.744348 0.867807 0.365472
O O14 0.124466 0.888175 0.488185
#
# Coordination Sequence:
#
# PCOD9246242 Si02
#       7
#     4   4   4   4   4   4   4
#     4  10  22  43  67  86 132 160 214 264 326 371
#     4  11  21  41  66  96 129 171 210 277 305 386
#     4  10  21  40  65  99 127 175 215 268 312 394
#     4  10  23  43  62  94 130 167 206 276 312 394
#     4  11  23  40  65  94 134 163 218 257 323 380
#     4  10  21  40  67  95 131 169 224 255 331 379
#     4  10  22  43  62  92 125 164 211 270 310 384
#
# _framework density 23.498180000000001
#
# number of rings (size 3 to 8) (size 9 to 14) (size 15 to 20)
#    0.857    0.857    1.429    3.000    0.000    0.571 
#    7.714    1.429    0.000    0.000    0.000    0.000 
#    0.000    0.000    0.000    0.000    0.000    0.000 
#
# Total GULP energy -156188.053938 kJ/mol
# GULP energy per Si atom -5578.144783 kJ/mol
# Density = 2.344470 g / cm^3
# Si number density = 23.498180 Si / 1000 Ang^3
#
#
#
# Elastic Constant Matrix: (Units=GPa)
#
#
# Indices 1 2 3 4 5 6 
#
# 1 100.2760 22.3506 16.2808 0.0000 18.6811 0.0000
# 2 22.3506 61.5965 16.4211 0.0000 0.2926 0.0000
# 3 16.2808 16.4211 63.2876 0.0000 2.4271 0.0000
# 4 0.0000 0.0000 0.0000 24.5242 0.0000 5.0394
# 5 18.6811 0.2926 2.4271 0.0000 61.3327 0.0000
# 6 0.0000 0.0000 0.0000 5.0394 0.0000 22.3019
#
#
#
# Elastic Compliance Matrix: (Units=1/GPa)
#
#
# Indices 1 2 3 4 5 6 
#
# 1 0.011769 -0.003741 -0.001923 0.000000 -0.003491 0.000000
# 2 -0.003741 0.018631 -0.003918 0.000000 0.001206 0.000000
# 3 -0.001923 -0.003918 0.017315 0.000000 -0.000081 0.000000
# 4 0.000000 0.000000 0.000000 0.042762 0.000000 -0.009663
# 5 -0.003491 0.001206 -0.000081 0.000000 0.017365 0.000000
# 6 0.000000 0.000000 0.000000 -0.009663 0.000000 0.047023
#
#
# Mechanical properties :
#
#
# Convention : Reuss Voigt Hill
#
# Bulk Modulus (GPa) = 35.02517 37.25168 36.13842
# Shear Modulus (GPa) = 27.24118 32.97227 30.10672
#
# Velocity S-wave (km/s) = 3.40853 3.74997 3.58332
# Velocity P-wave (km/s) = 5.51621 5.88533 5.70376
#
# Compressibility (1/GPa) = 0.02855090
#
# Stress axis : x y z
#
# Youngs Moduli (GPa) = 84.96998 53.67407 57.75251
#
# Poissons Ratio (x) = 0.20080 0.11106
# Poissons Ratio (y) = 0.31789 0.22627
# Poissons Ratio (z) = 0.16340 0.21029
#
# Static dielectric constant tensor:
#      x y z
#    x 1.962350 0.000000 -0.020920 
#    y 0.000000 1.860590 0.000000 
#    z -0.020920 0.000000 1.954090 
# 
# From -- ./inp_files/6550.got.cif
#   From: 2010.05.17/outbox.cif.g08.bks.cpg/sg14_4_cif.got.tgz:6550.got - 2010.06.03 17:49:19.
