data_PCOD9246613
_publ_section_title
;
Structure prediction by ZEFSAII (Michael W. Deem and Ramdas Pophale) SiO2 
 PCOD9246613
Probable space group: P 21/C
;
_chemical_formula_sum "Si O2"
_cell_formula_units_Z 20
_cell_length_a 12.882696
_cell_length_b 7.278495
_cell_length_c 15.844485
_cell_angle_alpha 90.000000
_cell_angle_beta 29.589882
_cell_angle_gamma 90.000000
_cell_volume 733.613443
_symmetry_space_group_name_H-M "P 21/C"
_symmetry_group_IT_number 14
_symmetry_cell_setting 'monoclinic'
loop_
_space_group_symop_operation_xyz
x,y,z
-x,1/2+y,1/2-z
-x,-y,-z
x,1/2-y,1/2+z
loop_
_atom_site_type_symbol
_atom_site_label
_atom_site_fract_x
_atom_site_fract_y
_atom_site_fract_z
Si Si1 0.097335 0.262183 0.357955
Si Si2 0.797748 0.325803 0.217807
Si Si3 0.613944 0.566117 0.575296
Si Si4 0.501655 0.863162 0.347647
Si Si5 0.926529 0.324676 0.807758
O O1 0.306810 0.382393 0.222402
O O2 0.946779 0.275952 0.545293
O O3 0.973726 0.293874 0.359179
O O4 0.150209 0.043854 0.319100
O O5 0.559599 0.316196 0.353282
O O6 0.844965 0.256276 0.277333
O O7 0.552444 0.353470 0.608015
O O8 0.586838 0.604048 0.693704
O O9 0.840807 0.607411 0.378223
O O10 0.271677 0.953396 0.523511
#
# Coordination Sequence:
#
# PCOD9246613 Si02
#       5
#     4   4   4   4   4
#     4  10  21  41  67  94 131 180 227 273 336 411
#     4  10  21  41  67  94 131 180 227 273 336 411
#     4  11  24  43  69 100 136 179 228 280 338 408
#     4  11  24  43  69 100 136 179 228 280 338 408
#     4  12  22  38  68 100 128 174 224 280 330 396
#
# _framework density 27.262311
#
# number of rings (size 3 to 8) (size 9 to 14) (size 15 to 20)
#    0.000    1.200    4.000    2.400    0.000    4.800 
#    0.000    6.000    0.000   12.000    0.000    0.000 
#    0.000    0.000    0.000    0.000    0.000    0.000 
#
# Total GULP energy -112159.690091 kJ/mol
# GULP energy per Si atom -5607.984505 kJ/mol
# Density = 2.720026 g / cm^3
# Si number density = 27.262311 Si / 1000 Ang^3
#
#
#
# Elastic Constant Matrix: (Units=GPa)
#
#
# Indices 1 2 3 4 5 6 
#
# 1 228.1753 14.4128 88.1488 0.0000 -2.6028 0.0000
# 2 14.4128 46.3853 20.0423 0.0000 -4.5802 0.0000
# 3 88.1488 20.0423 207.3980 0.0000 3.0501 0.0000
# 4 0.0000 0.0000 0.0000 30.6561 0.0000 -4.2004
# 5 -2.6028 -4.5802 3.0501 0.0000 68.4476 0.0000
# 6 0.0000 0.0000 0.0000 -4.2004 0.0000 37.9648
#
#
#
# Elastic Compliance Matrix: (Units=1/GPa)
#
#
# Indices 1 2 3 4 5 6 
#
# 1 0.005269 -0.000671 -0.002179 0.000000 0.000253 0.000000
# 2 -0.000671 0.022761 -0.001938 0.000000 0.001584 0.000000
# 3 -0.002179 -0.001938 0.005942 0.000000 -0.000477 0.000000
# 4 0.000000 0.000000 0.000000 0.033122 0.000000 0.003665
# 5 0.000253 0.001584 -0.000477 0.000000 0.014747 0.000000
# 6 0.000000 0.000000 0.000000 0.003665 0.000000 0.026746
#
#
# Mechanical properties :
#
#
# Convention : Reuss Voigt Hill
#
# Bulk Modulus (GPa) = 40.98767 80.79626 60.89197
# Shear Modulus (GPa) = 39.59046 51.37069 45.48058
#
# Velocity S-wave (km/s) = 3.81491 4.34558 4.08886
# Velocity P-wave (km/s) = 5.87128 7.40808 6.68400
#
# Compressibility (1/GPa) = 0.02439758
#
# Stress axis : x y z
#
# Youngs Moduli (GPa) = 189.77258 43.93549 168.29857
#
# Poissons Ratio (x) = 0.02948 0.36664
# Poissons Ratio (y) = 0.12735 0.32609
# Poissons Ratio (z) = 0.41342 0.08513
#
# Static dielectric constant tensor:
#      x y z
#    x 2.014510 0.000000 -0.045350 
#    y 0.000000 2.286080 0.000000 
#    z -0.045350 0.000000 2.131210 
# 
# From -- ./inp_files/28887.got.cif
#   From: 2010.05.17/outbox.cif.g08.bks.cpg/sg14_15_cif.got.tgz:28887.got - 2010.06.03 17:49:19.
