data_PCOD9246882
_publ_section_title
;
Structure prediction by ZEFSAII (Michael W. Deem and Ramdas Pophale) SiO2 
 PCOD9246882
Probable space group: P 21/C
;
_chemical_formula_sum "Si O2"
_cell_formula_units_Z 20
_cell_length_a 7.598138
_cell_length_b 9.078189
_cell_length_c 12.173024
_cell_angle_alpha 90.000000
_cell_angle_beta 80.705621
_cell_angle_gamma 90.000000
_cell_volume 828.639271
_symmetry_space_group_name_H-M "P 21/C"
_symmetry_group_IT_number 14
_symmetry_cell_setting 'monoclinic'
loop_
_space_group_symop_operation_xyz
x,y,z
-x,1/2+y,1/2-z
-x,-y,-z
x,1/2-y,1/2+z
loop_
_atom_site_type_symbol
_atom_site_label
_atom_site_fract_x
_atom_site_fract_y
_atom_site_fract_z
Si Si1 0.410440 0.618525 0.176457
Si Si2 0.308543 0.571806 0.965182
Si Si3 0.849446 0.178445 0.722800
Si Si4 0.055311 0.048672 0.116896
Si Si5 0.465824 0.378461 0.595162
O O1 0.585338 0.569326 0.091223
O O2 0.344995 0.784614 0.204874
O O3 0.457268 0.568642 0.294792
O O4 0.270064 0.559060 0.098331
O O5 0.155892 0.591738 0.890952
O O6 0.428427 0.723901 0.938397
O O7 0.918924 0.336333 0.680815
O O8 0.950653 0.095671 0.807419
O O9 0.249733 0.125869 0.114390
O O10 0.000000 0.000000 0.000000
O O11 0.500000 0.500000 0.500000
#
# Coordination Sequence:
#
# PCOD9246882 Si02
#       5
#     4   4   4   4   4
#     4  10  21  42  68  95 129 169 231 281 328 396
#     4  10  22  41  70  96 128 172 230 285 327 395
#     4  11  24  44  67  99 142 176 228 275 351 406
#     4  12  26  45  66 100 145 181 222 279 350 416
#     4  11  23  40  68  93 130 175 227 272 328 397
#
# _framework density 24.135956
#
# number of rings (size 3 to 8) (size 9 to 14) (size 15 to 20)
#    0.000    1.200    2.000    4.800    5.600    1.600 
#    0.000    2.000    0.000    0.000    0.000    0.000 
#    0.000    0.000    0.000    0.000    0.000    0.000 
#
# Total GULP energy -111436.760802 kJ/mol
# GULP energy per Si atom -5571.838040 kJ/mol
# Density = 2.408102 g / cm^3
# Si number density = 24.135956 Si / 1000 Ang^3
#
#
#
# Elastic Constant Matrix: (Units=GPa)
#
#
# Indices 1 2 3 4 5 6 
#
# 1 74.8152 27.9463 49.3335 0.0000 19.1190 0.0000
# 2 27.9463 81.4925 56.7775 0.0000 11.9386 0.0000
# 3 49.3335 56.7775 264.0450 0.0000 63.0923 0.0000
# 4 0.0000 0.0000 0.0000 35.5925 0.0000 9.2859
# 5 19.1190 11.9386 63.0923 0.0000 46.3305 0.0000
# 6 0.0000 0.0000 0.0000 9.2859 0.0000 47.7265
#
#
#
# Elastic Compliance Matrix: (Units=1/GPa)
#
#
# Indices 1 2 3 4 5 6 
#
# 1 0.016852 -0.004315 -0.001222 0.000000 -0.004177 0.000000
# 2 -0.004315 0.015556 -0.002974 0.000000 0.001823 0.000000
# 3 -0.001222 -0.002974 0.006450 0.000000 -0.007513 0.000000
# 4 0.000000 0.000000 0.000000 0.029598 0.000000 -0.005759
# 5 -0.004177 0.001823 -0.007513 0.000000 0.033070 0.000000
# 6 0.000000 0.000000 0.000000 -0.005759 0.000000 0.022073
#
#
# Mechanical properties :
#
#
# Convention : Reuss Voigt Hill
#
# Bulk Modulus (GPa) = 45.79929 76.49636 61.14782
# Shear Modulus (GPa) = 33.80623 45.01626 39.41125
#
# Velocity S-wave (km/s) = 3.74660 4.32338 4.04528
# Velocity P-wave (km/s) = 6.14270 7.52894 6.87087
#
# Compressibility (1/GPa) = 0.02183440
#
# Stress axis : x y z
#
# Youngs Moduli (GPa) = 59.34073 64.28332 155.02828
#
# Poissons Ratio (x) = 0.27740 0.18951
# Poissons Ratio (y) = 0.25607 0.46109
# Poissons Ratio (z) = 0.07254 0.19119
#
# Static dielectric constant tensor:
#      x y z
#    x 2.214890 0.000000 -0.069830 
#    y 0.000000 1.824040 0.000000 
#    z -0.069830 0.000000 2.038430 
# 
# From -- ./inp_files/23021.got.cif
#   From: 2010.05.17/outbox.cif.g08.bks.cpg/sg14_12_cif.got.tgz:23021.got - 2010.06.03 17:49:19.
