data_PCOD9246313
_publ_section_title
;
Structure prediction by ZEFSAII (Michael W. Deem and Ramdas Pophale) SiO2 
 PCOD9246313
Probable space group: P 21/C
;
_chemical_formula_sum "Si O2"
_cell_formula_units_Z 28
_cell_length_a 12.255341
_cell_length_b 8.848223
_cell_length_c 13.741349
_cell_angle_alpha 90.000000
_cell_angle_beta 66.884595
_cell_angle_gamma 90.000000
_cell_volume 1370.454308
_symmetry_space_group_name_H-M "P 21/C"
_symmetry_group_IT_number 14
_symmetry_cell_setting 'monoclinic'
loop_
_space_group_symop_operation_xyz
x,y,z
-x,1/2+y,1/2-z
-x,-y,-z
x,1/2-y,1/2+z
loop_
_atom_site_type_symbol
_atom_site_label
_atom_site_fract_x
_atom_site_fract_y
_atom_site_fract_z
Si Si1 0.217539 0.861205 0.420259
Si Si2 0.804242 0.825465 0.682010
Si Si3 0.031044 0.873168 0.068622
Si Si4 0.636320 0.707115 0.576355
Si Si5 0.754439 0.002959 0.891789
Si Si6 0.642336 0.994825 0.453129
Si Si7 0.357056 0.768138 0.692732
O O1 0.110806 0.756409 0.491232
O O2 0.299747 0.902784 0.483128
O O3 0.296811 0.770657 0.315162
O O4 0.173119 0.016908 0.385145
O O5 0.705812 0.741915 0.650946
O O6 0.761395 0.881590 0.802087
O O7 0.915999 0.713948 0.648603
O O8 0.113576 0.953947 0.119742
O O9 0.000000 0.000000 0.000000
O O10 0.677664 0.552807 0.511148
O O11 0.497667 0.734403 0.645224
O O12 0.673919 0.829844 0.480946
O O13 0.695063 0.149516 0.866067
O O14 0.675041 0.065977 0.337537
O O15 0.500000 0.000000 0.500000
#
# Coordination Sequence:
#
# PCOD9246313 Si02
#       7
#     4   4   4   4   4   4   4
#     4  10  22  42  65  93 131 169 214 270 330 384
#     4  10  24  44  64  93 131 175 215 268 329 386
#     4  12  24  44  67  95 128 169 229 271 322 387
#     4  10  21  41  63  97 134 166 211 266 325 395
#     4  11  23  42  65  98 128 169 218 271 331 381
#     4   9  19  38  60  89 126 167 210 253 315 389
#     4  10  21  40  67  97 127 168 213 265 331 389
#
# _framework density 20.431179
#
# number of rings (size 3 to 8) (size 9 to 14) (size 15 to 20)
#    0.000    1.714    2.857    0.857    0.000    5.714 
#   15.429    0.000    0.000    0.000    0.000    0.000 
#    0.000    0.000    0.000    0.000    0.000    0.000 
#
# Total GULP energy -156283.290172 kJ/mol
# GULP energy per Si atom -5581.546078 kJ/mol
# Density = 2.038468 g / cm^3
# Si number density = 20.431179 Si / 1000 Ang^3
#
#
#
# Elastic Constant Matrix: (Units=GPa)
#
#
# Indices 1 2 3 4 5 6 
#
# 1 91.0092 -2.4106 14.3449 0.0000 17.7669 0.0000
# 2 -2.4106 14.3159 8.0795 0.0000 5.5464 0.0000
# 3 14.3449 8.0795 32.4501 0.0000 5.5671 0.0000
# 4 0.0000 0.0000 0.0000 39.8013 0.0000 -1.8057
# 5 17.7669 5.5464 5.5671 0.0000 17.8006 0.0000
# 6 0.0000 0.0000 0.0000 -1.8057 0.0000 30.5353
#
#
#
# Elastic Compliance Matrix: (Units=1/GPa)
#
#
# Indices 1 2 3 4 5 6 
#
# 1 0.016049 0.013893 -0.007463 0.000000 -0.018013 0.000000
# 2 0.013893 0.100705 -0.024783 0.000000 -0.037494 0.000000
# 3 -0.007463 -0.024783 0.039820 0.000000 0.002718 0.000000
# 4 0.000000 0.000000 0.000000 0.025192 0.000000 0.001490
# 5 -0.018013 -0.037494 0.002718 0.000000 0.084990 0.000000
# 6 0.000000 0.000000 0.000000 0.001490 0.000000 0.032837
#
#
# Mechanical properties :
#
#
# Convention : Reuss Voigt Hill
#
# Bulk Modulus (GPa) = 8.34252 19.75588 14.04920
# Shear Modulus (GPa) = 13.28887 25.47819 19.38353
#
# Velocity S-wave (km/s) = 2.55310 3.53515 3.08348
# Velocity P-wave (km/s) = 3.57536 5.13357 4.42362
#
# Compressibility (1/GPa) = 0.11986792
#
# Stress axis : x y z
#
# Youngs Moduli (GPa) = 62.30972 9.93002 25.11301
#
# Poissons Ratio (x) = -0.13796 0.18743
# Poissons Ratio (y) = -0.86569 0.62237
# Poissons Ratio (z) = 0.46504 0.24609
#
# Static dielectric constant tensor:
#      x y z
#    x 1.687590 0.000000 0.009430 
#    y 0.000000 1.789310 0.000000 
#    z 0.009430 0.000000 1.693330 
# 
# From -- ./inp_files/43365.got.cif
#   From: 2010.05.17/outbox.cif.g08.bks.cpg/sg14_22_cif.got.tgz:43365.got - 2010.06.03 17:49:19.
