data_PCOD9246564
_publ_section_title
;
Structure prediction by ZEFSAII (Michael W. Deem and Ramdas Pophale) SiO2 
 PCOD9246564
Probable space group: P 21/C
;
_chemical_formula_sum "Si O2"
_cell_formula_units_Z 32
_cell_length_a 9.364480
_cell_length_b 18.304490
_cell_length_c 11.359615
_cell_angle_alpha 90.000000
_cell_angle_beta 121.559188
_cell_angle_gamma 90.000000
_cell_volume 1659.187452
_symmetry_space_group_name_H-M "P 21/C"
_symmetry_group_IT_number 14
_symmetry_cell_setting 'monoclinic'
loop_
_space_group_symop_operation_xyz
x,y,z
-x,1/2+y,1/2-z
-x,-y,-z
x,1/2-y,1/2+z
loop_
_atom_site_type_symbol
_atom_site_label
_atom_site_fract_x
_atom_site_fract_y
_atom_site_fract_z
Si Si1 0.004844 0.652996 0.495690
Si Si2 0.645356 0.344209 0.734702
Si Si3 0.712655 0.189593 0.691213
Si Si4 0.659965 0.467454 0.129347
Si Si5 0.219626 0.555149 0.407293
Si Si6 0.999616 0.036205 0.628486
Si Si7 0.324478 0.439044 0.632759
Si Si8 0.078165 0.690049 0.951224
O O1 0.130945 0.668192 0.657714
O O2 0.097535 0.599003 0.443684
O O3 0.982839 0.734539 0.434578
O O4 0.833612 0.613798 0.458153
O O5 0.612423 0.258959 0.695039
O O6 0.687161 0.384484 0.630520
O O7 0.491299 0.390464 0.719402
O O8 0.808035 0.339092 0.890317
O O9 0.612083 0.114957 0.642780
O O10 0.791656 0.206200 0.598042
O O11 0.815025 0.465498 0.106540
O O12 0.707897 0.515136 0.262869
O O13 0.500000 0.500000 0.000000
O O14 0.331447 0.499511 0.532373
O O15 0.118083 0.506649 0.269176
O O16 0.039164 0.122256 0.633909
O O17 0.000000 0.000000 0.500000
#
# Coordination Sequence:
#
# PCOD9246564 Si02
#       8
#     4   4   4   4   4   4   4   4
#     4  11  22  41  67  89 121 166 214 256 308 376
#     4  11  24  41  62  91 130 163 204 263 323 372
#     4  10  21  42  65  87 118 172 211 246 317 390
#     4  11  23  40  63  90 126 165 205 259 317 371
#     4  12  22  42  64  91 126 169 210 255 315 379
#     4  11  22  40  63  95 123 161 212 255 307 381
#     4  12  23  41  62  97 124 161 211 269 306 369
#     4  10  21  41  66  88 123 168 209 251 319 380
#
# _framework density 19.286548
#
# number of rings (size 3 to 8) (size 9 to 14) (size 15 to 20)
#    0.000    1.000    5.000    3.750    0.000    0.000 
#    2.250    3.750    0.000    0.000    0.000    0.000 
#    0.000    0.000    0.000    0.000    0.000    0.000 
#
# Total GULP energy -178655.864073 kJ/mol
# GULP energy per Si atom -5582.995752 kJ/mol
# Density = 1.924265 g / cm^3
# Si number density = 19.286548 Si / 1000 Ang^3
#
#
#
# Elastic Constant Matrix: (Units=GPa)
#
#
# Indices 1 2 3 4 5 6 
#
# 1 37.1842 27.2829 6.0392 0.0000 -11.3661 0.0000
# 2 27.2829 161.9815 39.8824 0.0000 3.7293 0.0000
# 3 6.0392 39.8824 75.9429 0.0000 -12.6315 0.0000
# 4 0.0000 0.0000 0.0000 29.2076 0.0000 -3.5662
# 5 -11.3661 3.7293 -12.6315 0.0000 21.9674 0.0000
# 6 0.0000 0.0000 0.0000 -3.5662 0.0000 29.9787
#
#
#
# Elastic Compliance Matrix: (Units=1/GPa)
#
#
# Indices 1 2 3 4 5 6 
#
# 1 0.040199 -0.008748 0.005644 0.000000 0.025530 0.000000
# 2 -0.008748 0.009277 -0.005740 0.000000 -0.009402 0.000000
# 3 0.005644 -0.005740 0.018114 0.000000 0.014310 0.000000
# 4 0.000000 0.000000 0.000000 0.034742 0.000000 0.004133
# 5 0.025530 -0.009402 0.014310 0.000000 0.068556 0.000000
# 6 0.000000 0.000000 0.000000 0.004133 0.000000 0.033849
#
#
# Mechanical properties :
#
#
# Convention : Reuss Voigt Hill
#
# Bulk Modulus (GPa) = 20.03985 46.83530 33.43758
# Shear Modulus (GPa) = 20.91545 29.69102 25.30324
#
# Velocity S-wave (km/s) = 3.29668 3.92786 3.62603
# Velocity P-wave (km/s) = 4.99039 6.70130 5.90811
#
# Compressibility (1/GPa) = 0.04990057
#
# Stress axis : x y z
#
# Youngs Moduli (GPa) = 24.87637 107.79675 55.20735
#
# Poissons Ratio (x) = 0.94302 -0.31158
# Poissons Ratio (y) = 0.21762 0.31688
# Poissons Ratio (z) = -0.14040 0.61874
#
# Static dielectric constant tensor:
#      x y z
#    x 1.652510 0.000000 -0.024320 
#    y 0.000000 1.826500 0.000000 
#    z -0.024320 0.000000 1.701430 
# 
# From -- ./inp_files/26296.got.cif
#   From: 2010.05.17/outbox.cif.g08.bks.cpg/sg14_14_cif.got.tgz:26296.got - 2010.06.03 17:49:19.
