data_PCOD9246251
_publ_section_title
;
Structure prediction by ZEFSAII (Michael W. Deem and Ramdas Pophale) SiO2 
 PCOD9246251
Probable space group: P 21/C
;
_chemical_formula_sum "Si O2"
_cell_formula_units_Z 32
_cell_length_a 26.216003
_cell_length_b 8.606936
_cell_length_c 20.646748
_cell_angle_alpha 90.000000
_cell_angle_beta 18.565390
_cell_angle_gamma 90.000000
_cell_volume 1483.275031
_symmetry_space_group_name_H-M "P 21/C"
_symmetry_group_IT_number 14
_symmetry_cell_setting 'monoclinic'
loop_
_space_group_symop_operation_xyz
x,y,z
-x,1/2+y,1/2-z
-x,-y,-z
x,1/2-y,1/2+z
loop_
_atom_site_type_symbol
_atom_site_label
_atom_site_fract_x
_atom_site_fract_y
_atom_site_fract_z
Si Si1 0.625628 0.128400 0.005119
Si Si2 0.167429 0.801383 0.122373
Si Si3 0.849344 0.830381 0.061939
Si Si4 0.514149 0.172412 0.517351
Si Si5 0.838168 0.583254 0.170729
Si Si6 0.736267 0.104868 0.669659
Si Si7 0.701391 0.975002 0.576973
Si Si8 0.057373 0.623779 0.622410
O O1 0.601421 0.267635 0.980041
O O2 0.462573 0.109662 0.242708
O O3 0.764004 0.146301 0.891909
O O4 0.687606 0.970159 0.895303
O O5 0.985982 0.749051 0.354395
O O6 0.151465 0.908239 0.077344
O O7 0.273027 0.648851 0.980153
O O8 0.673005 0.796990 0.248558
O O9 0.858518 0.762883 0.124381
O O10 0.886373 0.011319 0.003443
O O11 0.599948 0.281523 0.361146
O O12 0.500000 0.000000 0.500000
O O13 0.798185 0.501610 0.151555
O O14 0.000000 0.500000 0.000000
O O15 0.676878 0.003157 0.682407
O O16 0.885253 0.205307 0.464620
O O17 0.867821 0.891018 0.360448
#
# Coordination Sequence:
#
# PCOD9246251 Si02
#       8
#     4   4   4   4   4   4   4   4
#     4  11  23  41  62  93 132 163 206 266 319 369
#     4  10  22  40  62  96 128 163 211 262 314 374
#     4  11  21  40  66  93 122 168 216 252 315 376
#     4  11  22  39  65  93 122 162 211 262 307 373
#     4  11  22  39  65  91 124 161 203 265 315 366
#     4  10  21  41  62  92 120 159 212 255 306 373
#     4  10  22  40  63  89 123 167 208 255 309 378
#     4  10  21  40  66  88 124 164 212 254 299 386
#
# _framework density 21.573881
#
# number of rings (size 3 to 8) (size 9 to 14) (size 15 to 20)
#    0.000    1.500    2.500    3.000    0.000    3.000 
#    2.250    3.750    0.000    0.000    0.000    0.000 
#    0.000    0.000    0.000    0.000    0.000    0.000 
#
# Total GULP energy -178275.739091 kJ/mol
# GULP energy per Si atom -5571.116847 kJ/mol
# Density = 2.152478 g / cm^3
# Si number density = 21.573881 Si / 1000 Ang^3
#
#
#
# Elastic Constant Matrix: (Units=GPa)
#
#
# Indices 1 2 3 4 5 6 
#
# 1 52.5606 8.1283 10.5586 0.0000 1.9646 0.0000
# 2 8.1283 64.1315 14.9733 0.0000 1.3296 0.0000
# 3 10.5586 14.9733 95.2615 0.0000 -6.5430 0.0000
# 4 0.0000 0.0000 0.0000 30.1282 0.0000 6.7052
# 5 1.9646 1.3296 -6.5430 0.0000 24.0428 0.0000
# 6 0.0000 0.0000 0.0000 6.7052 0.0000 19.7631
#
#
#
# Elastic Compliance Matrix: (Units=1/GPa)
#
#
# Indices 1 2 3 4 5 6 
#
# 1 0.019818 -0.001996 -0.002024 0.000000 -0.002060 0.000000
# 2 -0.001996 0.016450 -0.002462 0.000000 -0.001416 0.000000
# 3 -0.002024 -0.002462 0.011341 0.000000 0.003388 0.000000
# 4 0.000000 0.000000 0.000000 0.035902 0.000000 -0.012181
# 5 -0.002060 -0.001416 0.003388 0.000000 0.042761 0.000000
# 6 0.000000 0.000000 0.000000 -0.012181 0.000000 0.054732
#
#
# Mechanical properties :
#
#
# Convention : Reuss Voigt Hill
#
# Bulk Modulus (GPa) = 28.86440 31.03045 29.94742
# Shear Modulus (GPa) = 24.32876 26.67306 25.50091
#
# Velocity S-wave (km/s) = 3.36176 3.52000 3.44179
# Velocity P-wave (km/s) = 5.33638 5.56194 5.45032
#
# Compressibility (1/GPa) = 0.03464475
#
# Stress axis : x y z
#
# Youngs Moduli (GPa) = 50.45908 60.78982 88.17242
#
# Poissons Ratio (x) = 0.12137 0.17848
# Poissons Ratio (y) = 0.10074 0.21705
# Poissons Ratio (z) = 0.10214 0.14964
#
# Static dielectric constant tensor:
#      x y z
#    x 1.857390 0.000000 -0.003740 
#    y 0.000000 1.897300 0.000000 
#    z -0.003740 0.000000 1.824010 
# 
# From -- ./inp_files/70491.got.cif
#   From: 2010.05.17/outbox.cif.g08.bks.cpg/sg14_36_cif.got.tgz:70491.got - 2010.06.03 17:49:19.
