data_PCOD9246191
_publ_section_title
;
Structure prediction by ZEFSAII (Michael W. Deem and Ramdas Pophale) SiO2 
 PCOD9246191
Probable space group: P 21/C
;
_chemical_formula_sum "Si O2"
_cell_formula_units_Z 32
_cell_length_a 9.436627
_cell_length_b 5.245662
_cell_length_c 28.402363
_cell_angle_alpha 90.000000
_cell_angle_beta 113.176789
_cell_angle_gamma 90.000000
_cell_volume 1292.487629
_symmetry_space_group_name_H-M "P 21/C"
_symmetry_group_IT_number 14
_symmetry_cell_setting 'monoclinic'
loop_
_space_group_symop_operation_xyz
x,y,z
-x,1/2+y,1/2-z
-x,-y,-z
x,1/2-y,1/2+z
loop_
_atom_site_type_symbol
_atom_site_label
_atom_site_fract_x
_atom_site_fract_y
_atom_site_fract_z
Si Si1 0.468531 0.366235 0.129109
Si Si2 0.177387 0.662074 0.067884
Si Si3 0.366032 0.011389 0.041375
Si Si4 0.434827 0.205944 0.222027
Si Si5 0.077680 0.450933 0.319698
Si Si6 0.113762 0.445642 0.212323
Si Si7 0.170841 0.115485 0.464787
Si Si8 0.654982 0.680926 0.096135
O O1 0.310418 0.523372 0.114038
O O2 0.460785 0.237061 0.077231
O O3 0.473696 0.172900 0.172136
O O4 0.611372 0.551334 0.140290
O O5 0.009389 0.654425 0.067327
O O6 0.239726 0.941764 0.064841
O O7 0.176430 0.539605 0.014691
O O8 0.492632 0.790234 0.054222
O O9 0.263942 0.120543 0.986242
O O10 0.553666 0.428006 0.253752
O O11 0.273688 0.344847 0.211930
O O12 0.125059 0.439811 0.270765
O O13 0.219938 0.390526 0.372347
O O14 0.008866 0.729948 0.318713
O O15 0.950180 0.225206 0.309611
O O16 0.261247 0.008401 0.432082
#
# Coordination Sequence:
#
# PCOD9246191 Si02
#       8
#     4   4   4   4   4   4   4   4
#     4  10  25  41  63  95 133 174 227 284 334 415
#     4   9  21  41  65  92 134 170 225 283 339 413
#     4  10  22  40  62  93 132 175 224 282 341 410
#     4  12  27  44  74 101 138 184 228 282 348 415
#     4  10  23  42  67  97 133 174 219 287 334 408
#     4  10  23  44  66  96 135 172 225 276 345 403
#     4  10  21  40  64  95 129 177 221 280 350 403
#     4  11  24  38  65  94 133 175 228 279 344 408
#
# _framework density 24.758458999999998
#
# number of rings (size 3 to 8) (size 9 to 14) (size 15 to 20)
#    0.000    1.750    0.000    2.250    8.750    7.500 
#    0.000    0.000    0.000    0.000    0.000    0.000 
#    0.000    0.000    0.000    0.000    0.000    0.000 
#
# Total GULP energy -178829.853175 kJ/mol
# GULP energy per Si atom -5588.432912 kJ/mol
# Density = 2.470211 g / cm^3
# Si number density = 24.758459 Si / 1000 Ang^3
#
#
#
# Elastic Constant Matrix: (Units=GPa)
#
#
# Indices 1 2 3 4 5 6 
#
# 1 133.2509 -0.9695 23.6124 0.0000 2.0237 0.0000
# 2 -0.9695 62.4155 6.7650 0.0000 3.8407 0.0000
# 3 23.6124 6.7650 63.5294 0.0000 -1.4998 0.0000
# 4 0.0000 0.0000 0.0000 21.7716 0.0000 6.3917
# 5 2.0237 3.8407 -1.4998 0.0000 20.9802 0.0000
# 6 0.0000 0.0000 0.0000 6.3917 0.0000 21.8366
#
#
#
# Elastic Compliance Matrix: (Units=1/GPa)
#
#
# Indices 1 2 3 4 5 6 
#
# 1 0.008071 0.000527 -0.003082 0.000000 -0.001095 0.000000
# 2 0.000527 0.016446 -0.002023 0.000000 -0.003206 0.000000
# 3 -0.003082 -0.002023 0.017146 0.000000 0.001893 0.000000
# 4 0.000000 0.000000 0.000000 0.050249 0.000000 -0.014708
# 5 -0.001095 -0.003206 0.001893 0.000000 0.048492 0.000000
# 6 0.000000 0.000000 0.000000 -0.014708 0.000000 0.050100
#
#
# Mechanical properties :
#
#
# Convention : Reuss Voigt Hill
#
# Bulk Modulus (GPa) = 30.76149 35.33463 33.04806
# Shear Modulus (GPa) = 23.75333 28.23687 25.99510
#
# Velocity S-wave (km/s) = 3.10078 3.38078 3.24381
# Velocity P-wave (km/s) = 5.02707 5.43528 5.23516
#
# Compressibility (1/GPa) = 0.03250818
#
# Stress axis : x y z
#
# Youngs Moduli (GPa) = 123.89710 60.80371 58.32163
#
# Poissons Ratio (x) = -0.03203 0.17974
# Poissons Ratio (y) = -0.06527 0.11797
# Poissons Ratio (z) = 0.38183 0.12299
#
# Static dielectric constant tensor:
#      x y z
#    x 1.947570 0.000000 -0.015140 
#    y 0.000000 2.024220 0.000000 
#    z -0.015140 0.000000 2.011810 
# 
# From -- ./inp_files/79280.got.cif
#   From: 2010.05.17/outbox.cif.g08.bks.cpg/sg14_40_cif.got.tgz:79280.got - 2010.06.03 17:49:19.
