data_PCOD9246594
_publ_section_title
;
Structure prediction by ZEFSAII (Michael W. Deem and Ramdas Pophale) SiO2 
 PCOD9246594
Probable space group: P 21/C
;
_chemical_formula_sum "Si O2"
_cell_formula_units_Z 30
_cell_length_a 12.137187
_cell_length_b 9.046710
_cell_length_c 16.212521
_cell_angle_alpha 90.000000
_cell_angle_beta 38.445246
_cell_angle_gamma 90.000000
_cell_volume 1106.844361
_symmetry_space_group_name_H-M "P 21/C"
_symmetry_group_IT_number 14
_symmetry_cell_setting 'monoclinic'
loop_
_space_group_symop_operation_xyz
x,y,z
-x,1/2+y,1/2-z
-x,-y,-z
x,1/2-y,1/2+z
loop_
_atom_site_type_symbol
_atom_site_label
_atom_site_fract_x
_atom_site_fract_y
_atom_site_fract_z
Si Si1 0.572172 0.340698 0.118342
Si Si2 0.605236 0.605047 0.616615
Si Si3 0.114462 0.649261 0.548500
Si Si4 0.982622 0.916302 0.715168
Si Si5 0.139067 0.574054 0.302479
Si Si6 0.887741 0.841124 0.490800
Si Si7 0.500000 0.500000 0.000000
Si Si8 0.685576 0.929517 0.774074
O O1 0.466781 0.428180 0.249472
O O2 0.610455 0.426793 0.012161
O O3 0.447349 0.206781 0.160895
O O4 0.741487 0.271105 0.067176
O O5 0.750049 0.481999 0.513827
O O6 0.712756 0.756932 0.558170
O O7 0.432742 0.577119 0.662713
O O8 0.037375 0.747309 0.667014
O O9 0.942391 0.574652 0.606412
O O10 0.777173 0.919984 0.808976
O O11 0.041663 0.944599 0.771828
O O12 0.062067 0.032682 0.603382
O O13 0.343917 0.556070 0.159537
O O14 0.051766 0.722474 0.392409
O O15 0.828492 0.904857 0.615364
#
# Coordination Sequence:
#
# PCOD9246594 Si02
#       8
#     4   4   4   4   4   4   2   4
#     4  10  21  41  66  99 133 176 224 277 334 403
#     4   9  21  44  68  99 135 174 225 278 330 402
#     4  10  21  42  69  93 140 179 216 277 335 391
#     4  12  22  40  66 102 136 175 222 282 338 393
#     4  11  25  44  67  97 138 181 224 281 333 408
#     4  10  23  43  68  98 134 177 229 267 340 401
#     4  12  24  42  66  94 134 176 234 268 344 396
#     4  10  22  41  69 101 134 173 227 279 340 396
#
# _framework density 27.10408
#
# number of rings (size 3 to 8) (size 9 to 14) (size 15 to 20)
#    0.000    1.600    1.333    2.800    0.000    1.067 
#    2.400   10.000    0.000    0.000    0.000    0.000 
#    0.000    0.000    0.000    0.000    0.000    0.000 
#
# Total GULP energy -167125.073114 kJ/mol
# GULP energy per Si atom -5570.835770 kJ/mol
# Density = 2.704239 g / cm^3
# Si number density = 27.104080 Si / 1000 Ang^3
#
#
#
# Elastic Constant Matrix: (Units=GPa)
#
#
# Indices 1 2 3 4 5 6 
#
# 1 96.2060 20.9253 23.3166 0.0000 -5.7736 0.0000
# 2 20.9253 96.9811 39.8333 0.0000 2.2541 0.0000
# 3 23.3166 39.8333 145.4506 0.0000 -16.5174 0.0000
# 4 0.0000 0.0000 0.0000 41.9205 0.0000 -17.9543
# 5 -5.7736 2.2541 -16.5174 0.0000 39.7724 0.0000
# 6 0.0000 0.0000 0.0000 -17.9543 0.0000 18.6948
#
#
#
# Elastic Compliance Matrix: (Units=1/GPa)
#
#
# Indices 1 2 3 4 5 6 
#
# 1 0.011170 -0.001987 -0.001101 0.000000 0.001277 0.000000
# 2 -0.001987 0.012138 -0.003271 0.000000 -0.002335 0.000000
# 3 -0.001101 -0.003271 0.008344 0.000000 0.003491 0.000000
# 4 0.000000 0.000000 0.000000 0.040523 0.000000 0.038918
# 5 0.001277 -0.002335 0.003491 0.000000 0.026910 0.000000
# 6 0.000000 0.000000 0.000000 0.038918 0.000000 0.090867
#
#
# Mechanical properties :
#
#
# Convention : Reuss Voigt Hill
#
# Bulk Modulus (GPa) = 52.81805 56.30979 54.56392
# Shear Modulus (GPa) = 23.92552 37.04838 30.48695
#
# Velocity S-wave (km/s) = 2.97430 3.70116 3.35746
# Velocity P-wave (km/s) = 5.59685 6.25182 5.93338
#
# Compressibility (1/GPa) = 0.01893292
#
# Stress axis : x y z
#
# Youngs Moduli (GPa) = 89.52388 82.38780 119.84903
#
# Poissons Ratio (x) = 0.16374 0.13200
# Poissons Ratio (y) = 0.17793 0.39198
# Poissons Ratio (z) = 0.09860 0.26946
#
# Static dielectric constant tensor:
#      x y z
#    x 2.018300 0.000000 0.009360 
#    y 0.000000 2.167690 0.000000 
#    z 0.009360 0.000000 2.140850 
# 
# From -- ./inp_files/68354.got.cif
#   From: 2010.05.17/outbox.cif.g08.bks.cpg/sg14_35_cif.got.tgz:68354.got - 2010.06.03 17:49:19.
