data_PCOD9246515
_publ_section_title
;
Structure prediction by ZEFSAII (Michael W. Deem and Ramdas Pophale) SiO2 
 PCOD9246515
Probable space group: P 21/C
;
_chemical_formula_sum "Si O2"
_cell_formula_units_Z 24
_cell_length_a 13.626145
_cell_length_b 7.303312
_cell_length_c 9.750742
_cell_angle_alpha 90.000000
_cell_angle_beta 88.106741
_cell_angle_gamma 90.000000
_cell_volume 969.825020
_symmetry_space_group_name_H-M "P 21/C"
_symmetry_group_IT_number 14
_symmetry_cell_setting 'monoclinic'
loop_
_space_group_symop_operation_xyz
x,y,z
-x,1/2+y,1/2-z
-x,-y,-z
x,1/2-y,1/2+z
loop_
_atom_site_type_symbol
_atom_site_label
_atom_site_fract_x
_atom_site_fract_y
_atom_site_fract_z
Si Si1 0.165649 0.644709 0.864155
Si Si2 0.631837 0.315136 0.238688
Si Si3 0.502746 0.224907 0.990986
Si Si4 0.183903 0.235216 0.863866
Si Si5 0.701209 0.819319 0.894541
Si Si6 0.037046 0.840010 0.097678
O O1 0.261914 0.759739 0.814783
O O2 0.203638 0.445318 0.905245
O O3 0.101071 0.623147 0.729444
O O4 0.100345 0.715523 0.992008
O O5 0.565951 0.314658 0.107548
O O6 0.559014 0.219125 0.350513
O O7 0.660339 0.504453 0.314035
O O8 0.389213 0.271383 0.020989
O O9 0.500000 0.000000 0.000000
O O10 0.244723 0.199554 0.723250
O O11 0.068023 0.231228 0.843776
O O12 0.220555 0.121982 0.993147
O O13 0.000000 0.000000 0.000000
#
# Coordination Sequence:
#
# PCOD9246515 Si02
#       6
#     4   4   4   4   4   4
#     4  11  24  42  63  95 130 174 218 268 325 386
#     4  10  21  41  64  95 132 169 216 265 319 384
#     4  10  21  41  66  95 130 171 213 265 322 382
#     4  11  23  43  65  93 131 172 218 267 324 387
#     4  10  22  41  65  95 128 172 217 267 322 384
#     4  12  24  42  67  97 131 170 218 272 327 389
#
# _framework density 24.746731
#
# number of rings (size 3 to 8) (size 9 to 14) (size 15 to 20)
#    0.000    1.333    0.000    6.500    0.000    2.667 
#    0.000   23.333    0.000    0.000    0.000    0.000 
#    0.000    0.000    0.000    0.000    0.000    0.000 
#
# Total GULP energy -134152.166920 kJ/mol
# GULP energy per Si atom -5589.673622 kJ/mol
# Density = 2.469041 g / cm^3
# Si number density = 24.746731 Si / 1000 Ang^3
#
#
#
# Elastic Constant Matrix: (Units=GPa)
#
#
# Indices 1 2 3 4 5 6 
#
# 1 183.1860 13.7280 36.1826 0.0000 -17.3477 0.0000
# 2 13.7280 58.7219 7.6276 0.0000 -3.1982 0.0000
# 3 36.1826 7.6276 95.9649 0.0000 -5.5038 0.0000
# 4 0.0000 0.0000 0.0000 20.9991 0.0000 22.9832
# 5 -17.3477 -3.1982 -5.5038 0.0000 55.2443 0.0000
# 6 0.0000 0.0000 0.0000 22.9832 0.0000 -4.5047
#
#
#
# Elastic Compliance Matrix: (Units=1/GPa)
#
#
# Indices 1 2 3 4 5 6 
#
# 1 0.006115 -0.001064 -0.002126 0.000000 0.001647 0.000000
# 2 -0.001064 0.017433 -0.000951 0.000000 0.000580 0.000000
# 3 -0.002126 -0.000951 0.011321 0.000000 0.000405 0.000000
# 4 0.000000 0.000000 0.000000 0.007233 0.000000 0.036902
# 5 0.001647 0.000580 0.000405 0.000000 0.018692 0.000000
# 6 0.000000 0.000000 0.000000 0.036902 0.000000 -0.033716
#
#
# Mechanical properties :
#
#
# Convention : Reuss Voigt Hill
#
# Bulk Modulus (GPa) = 37.61356 50.32769 43.97063
# Shear Modulus (GPa) = 113.06346 33.03671 73.05009
#
# Velocity S-wave (km/s) = 6.76664 3.65772 5.43904
# Velocity P-wave (km/s) = 8.73397 6.18222 7.56644
#
# Compressibility (1/GPa) = 0.02658616
#
# Stress axis : x y z
#
# Youngs Moduli (GPa) = 163.54321 57.36166 88.33072
#
# Poissons Ratio (x) = 0.06101 0.18783
# Poissons Ratio (y) = 0.17394 0.08403
# Poissons Ratio (z) = 0.34777 0.05457
#
# Static dielectric constant tensor:
#      x y z
#    x 2.055880 0.000000 -0.066410 
#    y 0.000000 2.077950 0.000000 
#    z -0.066410 0.000000 1.916140 
# 
# From -- ./inp_files/15042.got.cif
#   From: 2010.05.17/outbox.cif.g08.bks.cpg/sg14_8_cif.got.tgz:15042.got - 2010.06.03 17:49:19.
