data_PCOD9246389
_publ_section_title
;
Structure prediction by ZEFSAII (Michael W. Deem and Ramdas Pophale) SiO2 
 PCOD9246389
Probable space group: P 21/C
;
_chemical_formula_sum "Si O2"
_cell_formula_units_Z 20
_cell_length_a 15.046397
_cell_length_b 14.188116
_cell_length_c 5.282807
_cell_angle_alpha 90.000000
_cell_angle_beta 46.026403
_cell_angle_gamma 90.000000
_cell_volume 811.613490
_symmetry_space_group_name_H-M "P 21/C"
_symmetry_group_IT_number 14
_symmetry_cell_setting 'monoclinic'
loop_
_space_group_symop_operation_xyz
x,y,z
-x,1/2+y,1/2-z
-x,-y,-z
x,1/2-y,1/2+z
loop_
_atom_site_type_symbol
_atom_site_label
_atom_site_fract_x
_atom_site_fract_y
_atom_site_fract_z
Si Si1 0.786092 0.085422 0.800751
Si Si2 0.139922 0.015135 0.821840
Si Si3 0.346484 0.227346 0.438804
Si Si4 0.965034 0.803055 0.749001
Si Si5 0.491363 0.609132 0.095045
O O1 0.895905 0.154032 0.498789
O O2 0.782893 0.005482 0.585305
O O3 0.650997 0.130031 0.074181
O O4 0.819406 0.047842 0.017027
O O5 0.130736 0.117937 0.963984
O O6 0.000000 0.000000 0.000000
O O7 0.275462 0.235971 0.321994
O O8 0.451934 0.189753 0.700759
O O9 0.417276 0.130471 0.349966
O O10 0.958681 0.780273 0.465393
O O11 0.500000 0.500000 0.000000
#
# Coordination Sequence:
#
# PCOD9246389 Si02
#       5
#     4   4   4   4   4
#     4  11  23  36  64  91 121 162 211 246 314 380
#     4  10  21  41  56  87 124 157 200 247 303 390
#     4   8  20  38  60  88 125 150 220 258 301 369
#     4  11  21  34  63  85 119 155 196 258 320 342
#     4  10  23  41  67  93 133 172 206 266 323 362
#
# _framework density 24.642272999999999
#
# number of rings (size 3 to 8) (size 9 to 14) (size 15 to 20)
#    1.200    0.800    0.000    6.000    5.600    0.800 
#    0.000    0.000   13.200    0.000    0.000    0.000 
#    0.000    0.000    0.000    0.000    0.000    0.000 
#
# Total GULP energy -111635.482672 kJ/mol
# GULP energy per Si atom -5581.774134 kJ/mol
# Density = 2.458619 g / cm^3
# Si number density = 24.642273 Si / 1000 Ang^3
#
#
#
# Elastic Constant Matrix: (Units=GPa)
#
#
# Indices 1 2 3 4 5 6 
#
# 1 140.6145 32.2681 49.8229 0.0000 22.3839 0.0000
# 2 32.2681 90.6112 4.0622 0.0000 4.4862 0.0000
# 3 49.8229 4.0622 97.2622 0.0000 10.5494 0.0000
# 4 0.0000 0.0000 0.0000 35.4701 0.0000 4.2562
# 5 22.3839 4.4862 10.5494 0.0000 52.7040 0.0000
# 6 0.0000 0.0000 0.0000 4.2562 0.0000 54.4131
#
#
#
# Elastic Compliance Matrix: (Units=1/GPa)
#
#
# Indices 1 2 3 4 5 6 
#
# 1 0.009974 -0.003193 -0.004647 0.000000 -0.003034 0.000000
# 2 -0.003193 0.012118 0.001119 0.000000 0.000101 0.000000
# 3 -0.004647 0.001119 0.012687 0.000000 -0.000661 0.000000
# 4 0.000000 0.000000 0.000000 0.028460 0.000000 -0.002226
# 5 -0.003034 0.000101 -0.000661 0.000000 0.020386 0.000000
# 6 0.000000 0.000000 0.000000 -0.002226 0.000000 0.018552
#
#
# Mechanical properties :
#
#
# Convention : Reuss Voigt Hill
#
# Bulk Modulus (GPa) = 46.86850 55.64380 51.25615
# Shear Modulus (GPa) = 40.73928 44.67308 42.70618
#
# Velocity S-wave (km/s) = 4.07040 4.26239 4.16750
# Velocity P-wave (km/s) = 6.41496 6.84497 6.63345
#
# Compressibility (1/GPa) = 0.02133629
#
# Stress axis : x y z
#
# Youngs Moduli (GPa) = 100.26216 82.52043 78.82238
#
# Poissons Ratio (x) = 0.26351 0.36626
# Poissons Ratio (y) = 0.32017 -0.08818
# Poissons Ratio (z) = 0.46589 -0.09232
#
# Static dielectric constant tensor:
#      x y z
#    x 1.955350 0.000000 0.004290 
#    y 0.000000 2.039000 0.000000 
#    z 0.004290 0.000000 2.015310 
# 
# From -- ./inp_files/4386.got.cif
#   From: 2010.05.17/outbox.cif.g08.bks.cpg/sg14_3_cif.got.tgz:4386.got - 2010.06.03 17:49:19.
