data_PCOD9246405
_publ_section_title
;
Structure prediction by ZEFSAII (Michael W. Deem and Ramdas Pophale) SiO2 
 PCOD9246405
Probable space group: P 21/C
;
_chemical_formula_sum "Si O2"
_cell_formula_units_Z 32
_cell_length_a 15.353232
_cell_length_b 11.448263
_cell_length_c 9.239622
_cell_angle_alpha 90.000000
_cell_angle_beta 64.807498
_cell_angle_gamma 90.000000
_cell_volume 1469.555291
_symmetry_space_group_name_H-M "P 21/C"
_symmetry_group_IT_number 14
_symmetry_cell_setting 'monoclinic'
loop_
_space_group_symop_operation_xyz
x,y,z
-x,1/2+y,1/2-z
-x,-y,-z
x,1/2-y,1/2+z
loop_
_atom_site_type_symbol
_atom_site_label
_atom_site_fract_x
_atom_site_fract_y
_atom_site_fract_z
Si Si1 0.349246 0.802558 0.280177
Si Si2 0.475396 0.453312 0.358516
Si Si3 0.883703 0.970423 0.922363
Si Si4 0.582186 0.423142 0.870624
Si Si5 0.708454 0.698053 0.595927
Si Si6 0.264172 0.092909 0.610388
Si Si7 0.100316 0.938459 0.759217
Si Si8 0.213627 0.698193 0.626646
O O1 0.427037 0.896293 0.274990
O O2 0.409743 0.714672 0.132425
O O3 0.288012 0.737172 0.447141
O O4 0.270520 0.849347 0.225328
O O5 0.500000 0.500000 0.500000
O O6 0.436685 0.556588 0.285860
O O7 0.388354 0.361897 0.397494
O O8 0.851695 0.091064 0.874179
O O9 0.892383 0.008603 0.084198
O O10 0.988716 0.930062 0.797001
O O11 0.801313 0.871580 0.966614
O O12 0.677925 0.481004 0.868147
O O13 0.500000 0.500000 0.000000
O O14 0.722940 0.678528 0.758441
O O15 0.701411 0.831163 0.549054
O O16 0.162393 0.037887 0.635025
O O17 0.151410 0.813006 0.709693
#
# Coordination Sequence:
#
# PCOD9246405 Si02
#       8
#     4   4   4   4   4   4   4   4
#     4  12  23  40  65  94 129 170 216 270 316 385
#     4  11  24  39  60  90 127 169 211 259 316 377
#     4  10  22  43  68  92 128 168 211 268 328 387
#     4  11  22  39  61  89 126 169 213 256 320 378
#     4  10  22  41  62  90 128 166 208 258 318 375
#     4  10  21  41  60  89 124 162 207 258 315 384
#     4  10  22  42  68  91 126 170 208 265 334 381
#     4  12  22  43  66  98 125 170 220 264 328 385
#
# _framework density 21.775293000000001
#
# number of rings (size 3 to 8) (size 9 to 14) (size 15 to 20)
#    0.000    1.250    2.500    4.500    1.750    4.000 
#    2.250    0.625    0.000    0.000    0.000    0.000 
#    0.000    0.000    0.000    0.000    0.000    0.000 
#
# Total GULP energy -178549.871100 kJ/mol
# GULP energy per Si atom -5579.683472 kJ/mol
# Density = 2.172573 g / cm^3
# Si number density = 21.775293 Si / 1000 Ang^3
#
#
#
# Elastic Constant Matrix: (Units=GPa)
#
#
# Indices 1 2 3 4 5 6 
#
# 1 123.7109 14.6053 18.1337 0.0000 -17.4168 0.0000
# 2 14.6053 41.8269 -6.8969 0.0000 2.0969 0.0000
# 3 18.1337 -6.8969 27.0385 0.0000 -5.0870 0.0000
# 4 0.0000 0.0000 0.0000 38.1057 0.0000 1.5529
# 5 -17.4168 2.0969 -5.0870 0.0000 25.1593 0.0000
# 6 0.0000 0.0000 0.0000 1.5529 0.0000 23.0305
#
#
#
# Elastic Compliance Matrix: (Units=1/GPa)
#
#
# Indices 1 2 3 4 5 6 
#
# 1 0.010666 -0.005246 -0.007297 0.000000 0.006345 0.000000
# 2 -0.005246 0.027554 0.009804 0.000000 -0.003946 0.000000
# 3 -0.007297 0.009804 0.044986 0.000000 0.003227 0.000000
# 4 0.000000 0.000000 0.000000 0.026315 0.000000 -0.001774
# 5 0.006345 -0.003946 0.003227 0.000000 0.045121 0.000000
# 6 0.000000 0.000000 0.000000 -0.001774 0.000000 0.043540
#
#
# Mechanical properties :
#
#
# Convention : Reuss Voigt Hill
#
# Bulk Modulus (GPa) = 12.86532 27.14006 20.00269
# Shear Modulus (GPa) = 21.77993 28.37470 25.07732
#
# Velocity S-wave (km/s) = 3.16605 3.61372 3.39726
# Velocity P-wave (km/s) = 4.39160 5.46834 4.95928
#
# Compressibility (1/GPa) = 0.07772833
#
# Stress axis : x y z
#
# Youngs Moduli (GPa) = 93.75924 36.29222 22.22904
#
# Poissons Ratio (x) = 0.19037 0.16221
# Poissons Ratio (y) = 0.49182 -0.21794
# Poissons Ratio (z) = 0.68419 -0.35581
#
# Static dielectric constant tensor:
#      x y z
#    x 1.833100 0.000000 -0.053580 
#    y 0.000000 1.922450 0.000000 
#    z -0.053580 0.000000 1.949810 
# 
# From -- ./inp_files/15763.got.cif
#   From: 2010.05.17/outbox.cif.g08.bks.cpg/sg14_8_cif.got.tgz:15763.got - 2010.06.03 17:49:19.
