data_PCOD9246541
_publ_section_title
;
Structure prediction by ZEFSAII (Michael W. Deem and Ramdas Pophale) SiO2 
 PCOD9246541
Probable space group: P 21/C
;
_chemical_formula_sum "Si O2"
_cell_formula_units_Z 32
_cell_length_a 8.115218
_cell_length_b 15.303844
_cell_length_c 12.167382
_cell_angle_alpha 90.000000
_cell_angle_beta 98.902071
_cell_angle_gamma 90.000000
_cell_volume 1492.913715
_symmetry_space_group_name_H-M "P 21/C"
_symmetry_group_IT_number 14
_symmetry_cell_setting 'monoclinic'
loop_
_space_group_symop_operation_xyz
x,y,z
-x,1/2+y,1/2-z
-x,-y,-z
x,1/2-y,1/2+z
loop_
_atom_site_type_symbol
_atom_site_label
_atom_site_fract_x
_atom_site_fract_y
_atom_site_fract_z
Si Si1 0.882319 0.157285 0.238827
Si Si2 0.296354 0.673545 0.877533
Si Si3 0.621755 0.518178 0.118211
Si Si4 0.052786 0.096464 0.036695
Si Si5 0.588217 0.038240 0.183780
Si Si6 0.972303 0.224323 0.473866
Si Si7 0.332244 0.189994 0.499872
Si Si8 0.593671 0.878092 0.028463
O O1 0.775155 0.246268 0.202541
O O2 0.002141 0.128770 0.152107
O O3 0.762778 0.074571 0.243756
O O4 0.976466 0.179047 0.358245
O O5 0.271886 0.570199 0.849745
O O6 0.498016 0.679701 0.911040
O O7 0.187743 0.690816 0.976583
O O8 0.531509 0.539350 0.223810
O O9 0.500000 0.500000 0.000000
O O10 0.697770 0.607626 0.081061
O O11 0.962512 0.171378 0.955862
O O12 0.246431 0.098945 0.029054
O O13 0.000000 0.000000 0.000000
O O14 0.585782 0.942104 0.130687
O O15 0.552430 0.100326 0.073230
O O16 0.156837 0.206982 0.544936
O O17 0.379775 0.277862 0.437890
#
# Coordination Sequence:
#
# PCOD9246541 Si02
#       8
#     4   4   4   4   4   4   4   4
#     4  11  21  40  65  95 129 171 210 270 330 384
#     4  10  22  44  63  90 131 170 213 266 318 387
#     4  10  23  40  63  94 128 171 218 260 323 397
#     4  10  21  41  65  92 136 162 214 278 323 389
#     4  11  22  38  67  97 124 170 220 266 331 391
#     4  10  24  40  65  98 129 171 217 261 334 393
#     4  10  21  44  62  90 132 170 210 271 320 381
#     4  10  22  40  64  98 124 167 222 268 329 386
#
# _framework density 21.434595000000002
#
# number of rings (size 3 to 8) (size 9 to 14) (size 15 to 20)
#    0.000    1.750    2.500    1.500    1.750    3.500 
#    0.000    5.000    0.000    0.000    0.000    0.000 
#    0.000    0.000    0.000    0.000    0.000    0.000 
#
# Total GULP energy -178256.276260 kJ/mol
# GULP energy per Si atom -5570.508633 kJ/mol
# Density = 2.138581 g / cm^3
# Si number density = 21.434595 Si / 1000 Ang^3
#
#
#
# Elastic Constant Matrix: (Units=GPa)
#
#
# Indices 1 2 3 4 5 6 
#
# 1 61.1372 9.8316 17.0023 0.0000 3.5566 0.0000
# 2 9.8316 98.7711 6.6942 0.0000 4.4942 0.0000
# 3 17.0023 6.6942 51.2460 0.0000 4.9671 0.0000
# 4 0.0000 0.0000 0.0000 1.2651 0.0000 -9.9661
# 5 3.5566 4.4942 4.9671 0.0000 14.2379 0.0000
# 6 0.0000 0.0000 0.0000 -9.9661 0.0000 26.6874
#
#
#
# Elastic Compliance Matrix: (Units=1/GPa)
#
#
# Indices 1 2 3 4 5 6 
#
# 1 0.018277 -0.001336 -0.005680 0.000000 -0.002162 0.000000
# 2 -0.001336 0.010426 -0.000654 0.000000 -0.002729 0.000000
# 3 -0.005680 -0.000654 0.022072 0.000000 -0.006075 0.000000
# 4 0.000000 0.000000 0.000000 -0.407057 0.000000 -0.152011
# 5 -0.002162 -0.002729 -0.006075 0.000000 0.073756 0.000000
# 6 0.000000 0.000000 0.000000 -0.152011 0.000000 -0.019296
#
#
# Mechanical properties :
#
#
# Convention : Reuss Voigt Hill
#
# Bulk Modulus (GPa) = 28.22035 30.91229 29.56632
# Shear Modulus (GPa) = -18.20367 20.27981 1.03807
#
# Velocity S-wave (km/s) = -2.91738 3.07925 0.69667
# Velocity P-wave (km/s) = 1.35877 5.20532 3.80405
#
# Compressibility (1/GPa) = 0.03543543
#
# Stress axis : x y z
#
# Youngs Moduli (GPa) = 54.71405 95.91494 45.30539
#
# Poissons Ratio (x) = 0.12814 0.25732
# Poissons Ratio (y) = 0.07309 0.02964
# Poissons Ratio (z) = 0.31076 0.06275
#
# Static dielectric constant tensor:
#      x y z
#    x 1.783850 0.000000 0.003530 
#    y 0.000000 1.776630 0.000000 
#    z 0.003530 0.000000 1.721780 
# 
# From -- ./inp_files/25515.got.cif
#   From: 2010.05.17/outbox.cif.g08.bks.cpg/sg14_13_cif.got.tgz:25515.got - 2010.06.03 17:49:19.
