data_PCOD9246780
_publ_section_title
;
Structure prediction by ZEFSAII (Michael W. Deem and Ramdas Pophale) SiO2 
 PCOD9246780
Probable space group: P 21/C
;
_chemical_formula_sum "Si O2"
_cell_formula_units_Z 32
_cell_length_a 20.511662
_cell_length_b 7.922211
_cell_length_c 26.674083
_cell_angle_alpha 90.000000
_cell_angle_beta 18.914713
_cell_angle_gamma 90.000000
_cell_volume 1405.065763
_symmetry_space_group_name_H-M "P 21/C"
_symmetry_group_IT_number 14
_symmetry_cell_setting 'monoclinic'
loop_
_space_group_symop_operation_xyz
x,y,z
-x,1/2+y,1/2-z
-x,-y,-z
x,1/2-y,1/2+z
loop_
_atom_site_type_symbol
_atom_site_label
_atom_site_fract_x
_atom_site_fract_y
_atom_site_fract_z
Si Si1 0.110933 0.011162 0.612196
Si Si2 0.948014 0.383794 0.733332
Si Si3 0.928046 0.219523 0.001540
Si Si4 0.415096 0.725342 0.073518
Si Si5 0.213174 0.418268 0.734262
Si Si6 0.474023 0.151864 0.711758
Si Si7 0.712000 0.061381 0.071530
Si Si8 0.267082 0.539260 0.271996
O O1 0.325318 0.961967 0.433916
O O2 0.103418 0.934600 0.673051
O O3 0.933377 0.936683 0.706896
O O4 0.073172 0.209961 0.642620
O O5 0.093276 0.522540 0.603032
O O6 0.749591 0.347872 0.845031
O O7 0.072790 0.373639 0.883465
O O8 0.766832 0.196378 0.074896
O O9 0.817142 0.198026 0.134761
O O10 0.072170 0.054295 0.891719
O O11 0.416378 0.603505 0.120653
O O12 0.330166 0.906291 0.154023
O O13 0.625401 0.770856 0.894419
O O14 0.540635 0.346710 0.663795
O O15 0.351320 0.102349 0.850747
O O16 0.358112 0.090507 0.746397
#
# Coordination Sequence:
#
# PCOD9246780 Si02
#       8
#     4   4   4   4   4   4   4   4
#     4  11  24  41  63  98 132 174 220 269 321 392
#     4  11  24  42  67  95 133 175 218 268 329 387
#     4  10  21  42  64  93 128 170 212 272 321 385
#     4  10  23  44  67  98 131 175 219 268 323 389
#     4  10  23  43  65  94 138 171 217 270 324 383
#     4  11  24  41  66  96 129 170 222 270 329 391
#     4  11  22  45  66  93 130 173 217 272 333 394
#     4  10  23  40  67  97 127 166 227 262 320 393
#
# _framework density 22.774735
#
# number of rings (size 3 to 8) (size 9 to 14) (size 15 to 20)
#    0.000    1.500    2.500    1.500    3.500    1.000 
#    2.250    0.000    0.000    0.000    0.000    0.000 
#    0.000    0.000    0.000    0.000    0.000    0.000 
#
# Total GULP energy -179016.470779 kJ/mol
# GULP energy per Si atom -5594.264712 kJ/mol
# Density = 2.272290 g / cm^3
# Si number density = 22.774735 Si / 1000 Ang^3
#
#
#
# Elastic Constant Matrix: (Units=GPa)
#
#
# Indices 1 2 3 4 5 6 
#
# 1 72.0393 22.4016 5.0089 0.0000 1.0309 0.0000
# 2 22.4016 53.8805 -3.0988 0.0000 4.8433 0.0000
# 3 5.0089 -3.0988 44.8375 0.0000 -2.5678 0.0000
# 4 0.0000 0.0000 0.0000 49.8599 0.0000 -3.1971
# 5 1.0309 4.8433 -2.5678 0.0000 22.5235 0.0000
# 6 0.0000 0.0000 0.0000 -3.1971 0.0000 22.1575
#
#
#
# Elastic Compliance Matrix: (Units=1/GPa)
#
#
# Indices 1 2 3 4 5 6 
#
# 1 0.016177 -0.006899 -0.002256 0.000000 0.000486 0.000000
# 2 -0.006899 0.021920 0.002047 0.000000 -0.004164 0.000000
# 3 -0.002256 0.002047 0.022826 0.000000 0.002265 0.000000
# 4 0.000000 0.000000 0.000000 0.020244 0.000000 0.002921
# 5 0.000486 -0.004164 0.002265 0.000000 0.045530 0.000000
# 6 0.000000 0.000000 0.000000 0.002921 0.000000 0.045553
#
#
# Mechanical properties :
#
#
# Convention : Reuss Voigt Hill
#
# Bulk Modulus (GPa) = 21.41026 24.37563 22.89294
# Shear Modulus (GPa) = 24.74838 28.67122 26.70980
#
# Velocity S-wave (km/s) = 3.30003 3.55195 3.42831
# Velocity P-wave (km/s) = 4.89301 5.24862 5.07393
#
# Compressibility (1/GPa) = 0.04670659
#
# Stress axis : x y z
#
# Youngs Moduli (GPa) = 61.81775 45.62032 43.80972
#
# Poissons Ratio (x) = 0.31474 0.09884
# Poissons Ratio (y) = 0.42649 -0.08969
# Poissons Ratio (z) = 0.13947 -0.09339
#
# Static dielectric constant tensor:
#      x y z
#    x 1.829980 0.000000 -0.001470 
#    y 0.000000 1.871240 0.000000 
#    z -0.001470 0.000000 1.813080 
# 
# From -- ./inp_files/77990.got.cif
#   From: 2010.05.17/outbox.cif.g08.bks.cpg/sg14_39_cif.got.tgz:77990.got - 2010.06.03 17:49:19.
