data_PCOD9246922
_publ_section_title
;
Structure prediction by ZEFSAII (Michael W. Deem and Ramdas Pophale) SiO2 
 PCOD9246922
Probable space group: P 21/C
;
_chemical_formula_sum "Si O2"
_cell_formula_units_Z 16
_cell_length_a 7.765246
_cell_length_b 7.986230
_cell_length_c 20.932896
_cell_angle_alpha 90.000000
_cell_angle_beta 152.681143
_cell_angle_gamma 90.000000
_cell_volume 595.777559
_symmetry_space_group_name_H-M "P 21/C"
_symmetry_group_IT_number 14
_symmetry_cell_setting 'monoclinic'
loop_
_space_group_symop_operation_xyz
x,y,z
-x,1/2+y,1/2-z
-x,-y,-z
x,1/2-y,1/2+z
loop_
_atom_site_type_symbol
_atom_site_label
_atom_site_fract_x
_atom_site_fract_y
_atom_site_fract_z
Si Si1 0.353246 0.929824 0.572726
Si Si2 0.731894 0.090642 0.807585
Si Si3 0.520219 0.449656 0.432266
Si Si4 0.909217 0.047154 0.320634
O O1 0.385890 0.742160 0.555271
O O2 0.671805 0.958908 0.730489
O O3 0.000000 0.000000 0.500000
O O4 0.287668 0.036170 0.486476
O O5 0.751359 0.268464 0.780271
O O6 0.385627 0.076344 0.741352
O O7 0.119145 0.056360 0.971218
O O8 0.500000 0.500000 0.500000
O O9 0.145139 0.502475 0.270838
#
# Coordination Sequence:
#
# PCOD9246922 Si02
#       4
#     4   4   4   4
#     4  10  21  42  70  97 128 177 237 290 331 398
#     4  11  22  41  68  97 127 173 231 285 332 400
#     4  12  26  42  63  99 141 179 217 278 353 416
#     4  11  22  41  68  97 127 173 231 285 332 400
#
# _framework density 26.855661000000001
#
# number of rings (size 3 to 8) (size 9 to 14) (size 15 to 20)
#    0.000    1.000    0.000    9.750    0.000    4.000 
#    0.000    3.750    0.000    0.000    0.000    0.000 
#    0.000    0.000    0.000    0.000    0.000    0.000 
#
# Total GULP energy -89465.404760 kJ/mol
# GULP energy per Si atom -5591.587797 kJ/mol
# Density = 2.679454 g / cm^3
# Si number density = 26.855661 Si / 1000 Ang^3
#
#
#
# Elastic Constant Matrix: (Units=GPa)
#
#
# Indices 1 2 3 4 5 6 
#
# 1 125.1289 14.2603 28.5716 0.0000 -42.3660 0.0000
# 2 14.2603 171.7418 10.7530 0.0000 -25.1368 0.0000
# 3 28.5716 10.7530 167.6175 0.0000 -31.1637 0.0000
# 4 0.0000 0.0000 0.0000 47.0610 0.0000 -16.5600
# 5 -42.3660 -25.1368 -31.1637 0.0000 59.6498 0.0000
# 6 0.0000 0.0000 0.0000 -16.5600 0.0000 17.5158
#
#
#
# Elastic Compliance Matrix: (Units=1/GPa)
#
#
# Indices 1 2 3 4 5 6 
#
# 1 0.010561 0.000229 -0.000446 0.000000 0.007364 0.000000
# 2 0.000229 0.006212 0.000088 0.000000 0.002826 0.000000
# 3 -0.000446 0.000088 0.006628 0.000000 0.003183 0.000000
# 4 0.000000 0.000000 0.000000 0.031842 0.000000 0.030105
# 5 0.007364 0.002826 0.003183 0.000000 0.024849 0.000000
# 6 0.000000 0.000000 0.000000 0.030105 0.000000 0.085553
#
#
# Mechanical properties :
#
#
# Convention : Reuss Voigt Hill
#
# Bulk Modulus (GPa) = 43.20923 63.51753 53.36338
# Shear Modulus (GPa) = 28.79887 52.23888 40.51887
#
# Velocity S-wave (km/s) = 3.27824 4.41519 3.88850
# Velocity P-wave (km/s) = 5.51847 7.04945 6.33041
#
# Compressibility (1/GPa) = 0.02314320
#
# Stress axis : x y z
#
# Youngs Moduli (GPa) = 94.68917 160.98291 150.87178
#
# Poissons Ratio (x) = -0.03685 0.06724
# Poissons Ratio (y) = -0.02167 -0.01327
# Poissons Ratio (z) = 0.04220 -0.01416
#
# Static dielectric constant tensor:
#      x y z
#    x 2.225470 0.000000 0.046940 
#    y 0.000000 2.055180 0.000000 
#    z 0.046940 0.000000 2.166740 
# 
# From -- ./inp_files/11947.got.cif
#   From: 2010.05.17/outbox.cif.g08.bks.cpg/sg14_6_cif.got.tgz:11947.got - 2010.06.03 17:49:19.
