data_PCOD9246030
_publ_section_title
;
Structure prediction by ZEFSAII (Michael W. Deem and Ramdas Pophale) SiO2 
 PCOD9246030
Probable space group: P 21/C
;
_chemical_formula_sum "Si O2"
_cell_formula_units_Z 32
_cell_length_a 29.651575
_cell_length_b 11.306895
_cell_length_c 9.557748
_cell_angle_alpha 90.000000
_cell_angle_beta 28.427190
_cell_angle_gamma 90.000000
_cell_volume 1525.427618
_symmetry_space_group_name_H-M "P 21/C"
_symmetry_group_IT_number 14
_symmetry_cell_setting 'monoclinic'
loop_
_space_group_symop_operation_xyz
x,y,z
-x,1/2+y,1/2-z
-x,-y,-z
x,1/2-y,1/2+z
loop_
_atom_site_type_symbol
_atom_site_label
_atom_site_fract_x
_atom_site_fract_y
_atom_site_fract_z
Si Si1 0.203027 0.263044 0.142943
Si Si2 0.472833 0.844765 0.805815
Si Si3 0.111417 0.865864 0.149411
Si Si4 0.341041 0.424265 0.355234
Si Si5 0.622381 0.306000 0.728397
Si Si6 0.330231 0.037066 0.204863
Si Si7 0.106013 0.138842 0.162342
Si Si8 0.201176 0.678816 0.118438
O O1 0.164699 0.231551 0.095189
O O2 0.122827 0.320638 0.457913
O O3 0.243209 0.139517 0.089781
O O4 0.290076 0.355490 0.904298
O O5 0.575269 0.867300 0.463836
O O6 0.406602 0.808001 0.854444
O O7 0.464395 0.745344 0.945424
O O8 0.422792 0.964379 0.000532
O O9 0.168937 0.772573 0.088909
O O10 0.002582 0.857107 0.494164
O O11 0.141199 0.003505 0.087230
O O12 0.122569 0.841153 0.952912
O O13 0.348635 0.563088 0.305495
O O14 0.355059 0.416693 0.483191
O O15 0.710808 0.226178 0.529517
O O16 0.242590 0.942387 0.439122
#
# Coordination Sequence:
#
# PCOD9246030 Si02
#       8
#     4   4   4   4   4   4   4   4
#     4  12  23  42  63  89 126 171 202 260 313 378
#     4  10  23  38  63  86 126 156 204 259 302 365
#     4  11  23  42  65  95 122 166 203 273 302 382
#     4  11  23  38  65  86 125 166 208 248 311 375
#     4  10  21  40  59  92 117 160 203 255 302 373
#     4  10  21  40  61  88 122 164 199 257 305 372
#     4  11  25  42  63  92 132 157 216 255 319 369
#     4  11  21  40  68  87 125 161 211 250 326 363
#
# _framework density 20.977725
#
# number of rings (size 3 to 8) (size 9 to 14) (size 15 to 20)
#    0.000    1.250    2.500    5.250    3.500    0.000 
#    0.000    1.250    0.000    0.000    0.000    0.000 
#    0.000    0.000    0.000    0.000    0.000    0.000 
#
# Total GULP energy -178678.967987 kJ/mol
# GULP energy per Si atom -5583.717750 kJ/mol
# Density = 2.092998 g / cm^3
# Si number density = 20.977725 Si / 1000 Ang^3
#
#
#
# Elastic Constant Matrix: (Units=GPa)
#
#
# Indices 1 2 3 4 5 6 
#
# 1 23.9690 7.9804 -10.6287 0.0000 9.7012 0.0000
# 2 7.9804 54.1252 19.3710 0.0000 13.6691 0.0000
# 3 -10.6287 19.3710 102.9883 0.0000 26.2379 0.0000
# 4 0.0000 0.0000 0.0000 34.6224 0.0000 -1.5117
# 5 9.7012 13.6691 26.2379 0.0000 27.7771 0.0000
# 6 0.0000 0.0000 0.0000 -1.5117 0.0000 21.3475
#
#
#
# Elastic Compliance Matrix: (Units=1/GPa)
#
#
# Indices 1 2 3 4 5 6 
#
# 1 0.066350 -0.006854 0.017358 0.000000 -0.036196 0.000000
# 2 -0.006854 0.022046 -0.003556 0.000000 -0.005097 0.000000
# 3 0.017358 -0.003556 0.017474 0.000000 -0.020818 0.000000
# 4 0.000000 0.000000 0.000000 0.028973 0.000000 0.002052
# 5 -0.036196 -0.005097 -0.020818 0.000000 0.070815 0.000000
# 6 0.000000 0.000000 0.000000 0.002052 0.000000 0.046989
#
#
# Mechanical properties :
#
#
# Convention : Reuss Voigt Hill
#
# Bulk Modulus (GPa) = 8.34954 23.83643 16.09298
# Shear Modulus (GPa) = 17.94227 27.70670 22.82449
#
# Velocity S-wave (km/s) = 2.92773 3.63818 3.30212
# Velocity P-wave (km/s) = 3.92653 5.38849 4.71452
#
# Compressibility (1/GPa) = 0.11976706
#
# Stress axis : x y z
#
# Youngs Moduli (GPa) = 15.07160 45.35992 57.22856
#
# Poissons Ratio (x) = 0.31090 -0.99339
# Poissons Ratio (y) = 0.10330 0.20348
# Poissons Ratio (z) = -0.26162 0.16128
#
# Static dielectric constant tensor:
#      x y z
#    x 1.716270 0.000000 -0.001940 
#    y 0.000000 1.767290 0.000000 
#    z -0.001940 0.000000 1.779480 
# 
# From -- ./inp_files/15770.got.cif
#   From: 2010.05.17/outbox.cif.g08.bks.cpg/sg14_8_cif.got.tgz:15770.got - 2010.06.03 17:49:19.
