data_PCOD9246119
_publ_section_title
;
Structure prediction by ZEFSAII (Michael W. Deem and Ramdas Pophale) SiO2 
 PCOD9246119
Probable space group: P 21/C
;
_chemical_formula_sum "Si O2"
_cell_formula_units_Z 28
_cell_length_a 6.950772
_cell_length_b 9.729233
_cell_length_c 26.779998
_cell_angle_alpha 90.000000
_cell_angle_beta 135.859760
_cell_angle_gamma 90.000000
_cell_volume 1261.222003
_symmetry_space_group_name_H-M "P 21/C"
_symmetry_group_IT_number 14
_symmetry_cell_setting 'monoclinic'
loop_
_space_group_symop_operation_xyz
x,y,z
-x,1/2+y,1/2-z
-x,-y,-z
x,1/2-y,1/2+z
loop_
_atom_site_type_symbol
_atom_site_label
_atom_site_fract_x
_atom_site_fract_y
_atom_site_fract_z
Si Si1 0.398945 0.254545 0.830297
Si Si2 0.448045 0.477435 0.690312
Si Si3 0.792754 0.255355 0.691029
Si Si4 0.437499 0.034983 0.673227
Si Si5 0.961653 0.780837 0.927388
Si Si6 0.373005 0.145640 0.038740
Si Si7 0.420638 0.335634 0.440860
O O1 0.579228 0.389898 0.857385
O O2 0.305096 0.232762 0.869866
O O3 0.117723 0.269875 0.746297
O O4 0.553110 0.119761 0.839638
O O5 0.663243 0.376593 0.701548
O O6 0.534551 0.506879 0.762869
O O7 0.158465 0.396338 0.632500
O O8 0.624159 0.263212 0.607866
O O9 0.708733 0.114621 0.703116
O O10 0.191142 0.139512 0.614533
O O11 0.857033 0.836036 0.961851
O O12 0.285395 0.768817 0.990683
O O13 0.502061 0.993244 0.057841
O O14 0.259441 0.177140 0.962617
#
# Coordination Sequence:
#
# PCOD9246119 Si02
#       7
#     4   4   4   4   4   4   4
#     4  12  22  38  62  95 122 156 214 250 305 376
#     4  10  21  40  63  91 116 167 210 247 308 362
#     4  10  22  41  61  90 126 159 202 264 300 362
#     4  10  23  38  61  92 125 161 201 256 319 361
#     4  10  22  43  60  89 131 159 202 261 306 368
#     4   9  21  40  61  91 116 163 213 251 301 361
#     4  11  22  38  67  92 118 168 207 255 308 367
#
# _framework density 22.200690999999999
#
# number of rings (size 3 to 8) (size 9 to 14) (size 15 to 20)
#    0.000    2.000    2.857    3.000    4.000    1.714 
#    2.571    2.857    0.000    0.000    0.000    0.000 
#    0.000    0.000    0.000    0.000    0.000    0.000 
#
# Total GULP energy -156529.789137 kJ/mol
# GULP energy per Si atom -5590.349612 kJ/mol
# Density = 2.215016 g / cm^3
# Si number density = 22.200691 Si / 1000 Ang^3
#
#
#
# Elastic Constant Matrix: (Units=GPa)
#
#
# Indices 1 2 3 4 5 6 
#
# 1 35.3719 6.5305 15.9105 0.0000 -22.4514 0.0000
# 2 6.5305 121.2756 9.1853 0.0000 -18.8442 0.0000
# 3 15.9105 9.1853 55.1454 0.0000 -34.9230 0.0000
# 4 0.0000 0.0000 0.0000 23.8358 0.0000 -5.5743
# 5 -22.4514 -18.8442 -34.9230 0.0000 61.0158 0.0000
# 6 0.0000 0.0000 0.0000 -5.5743 0.0000 8.1560
#
#
#
# Elastic Compliance Matrix: (Units=1/GPa)
#
#
# Indices 1 2 3 4 5 6 
#
# 1 0.037253 0.000085 -0.003239 0.000000 0.011880 0.000000
# 2 0.000085 0.008667 0.000387 0.000000 0.002930 0.000000
# 3 -0.003239 0.000387 0.028743 0.000000 0.015379 0.000000
# 4 0.000000 0.000000 0.000000 0.049935 0.000000 0.034129
# 5 0.011880 0.002930 0.015379 0.000000 0.030468 0.000000
# 6 0.000000 0.000000 0.000000 0.034129 0.000000 0.145935
#
#
# Mechanical properties :
#
#
# Convention : Reuss Voigt Hill
#
# Bulk Modulus (GPa) = 14.46539 30.56060 22.51300
# Shear Modulus (GPa) = 15.17091 30.61262 22.89176
#
# Velocity S-wave (km/s) = 2.61694 3.71739 3.21460
# Velocity P-wave (km/s) = 3.95740 5.67634 4.89295
#
# Compressibility (1/GPa) = 0.06913052
#
# Stress axis : x y z
#
# Youngs Moduli (GPa) = 26.84363 115.38026 34.79050
#
# Poissons Ratio (x) = -0.00984 0.11268
# Poissons Ratio (y) = -0.00229 -0.01347
# Poissons Ratio (z) = 0.08694 -0.04466
#
# Static dielectric constant tensor:
#      x y z
#    x 1.849610 0.000000 -0.016630 
#    y 0.000000 1.798710 0.000000 
#    z -0.016630 0.000000 1.819960 
# 
# From -- ./inp_files/65028.got.cif
#   From: 2010.05.17/outbox.cif.g08.bks.cpg/sg14_33_cif.got.tgz:65028.got - 2010.06.03 17:49:19.
