data_PCOD9246508
_publ_section_title
;
Structure prediction by ZEFSAII (Michael W. Deem and Ramdas Pophale) SiO2 
 PCOD9246508
Probable space group: P 21/C
;
_chemical_formula_sum "Si O2"
_cell_formula_units_Z 24
_cell_length_a 7.483922
_cell_length_b 20.030826
_cell_length_c 9.593734
_cell_angle_alpha 90.000000
_cell_angle_beta 55.848180
_cell_angle_gamma 90.000000
_cell_volume 1190.177041
_symmetry_space_group_name_H-M "P 21/C"
_symmetry_group_IT_number 14
_symmetry_cell_setting 'monoclinic'
loop_
_space_group_symop_operation_xyz
x,y,z
-x,1/2+y,1/2-z
-x,-y,-z
x,1/2-y,1/2+z
loop_
_atom_site_type_symbol
_atom_site_label
_atom_site_fract_x
_atom_site_fract_y
_atom_site_fract_z
Si Si1 0.980531 0.898114 0.666968
Si Si2 0.880380 0.339397 0.175813
Si Si3 0.694809 0.473429 0.320052
Si Si4 0.554433 0.062001 0.570205
Si Si5 0.209693 0.273446 0.592148
Si Si6 0.440407 0.303622 0.209665
O O1 0.867359 0.842778 0.809561
O O2 0.973550 0.875378 0.507781
O O3 0.233659 0.903714 0.587923
O O4 0.876593 0.970014 0.737351
O O5 0.787825 0.399425 0.312322
O O6 0.675089 0.308949 0.180663
O O7 0.019868 0.281630 0.184732
O O8 0.500000 0.500000 0.500000
O O9 0.613112 0.464805 0.197623
O O10 0.391149 0.122674 0.669062
O O11 0.500000 0.000000 0.500000
O O12 0.277555 0.283145 0.403046
O O13 0.410597 0.247167 0.596044
#
# Coordination Sequence:
#
# PCOD9246508 Si02
#       6
#     4   4   4   4   4   4
#     4  10  21  41  64  93 124 166 212 263 326 383
#     4  10  23  42  63  96 128 169 216 264 322 389
#     4  10  21  43  65  90 125 167 214 266 322 379
#     4  10  23  42  64  95 124 165 218 264 323 383
#     4  12  23  43  64  96 131 170 213 268 328 389
#     4  10  25  39  66  92 130 167 215 260 325 387
#
# _framework density 20.165067000000001
#
# number of rings (size 3 to 8) (size 9 to 14) (size 15 to 20)
#    0.000    2.000    1.667    4.000    9.333    0.000 
#    3.000    1.667    0.000    0.000    0.000    0.000 
#    0.000    0.000    0.000    0.000    0.000    0.000 
#
# Total GULP energy -133938.118384 kJ/mol
# GULP energy per Si atom -5580.754933 kJ/mol
# Density = 2.011917 g / cm^3
# Si number density = 20.165067 Si / 1000 Ang^3
#
#
#
# Elastic Constant Matrix: (Units=GPa)
#
#
# Indices 1 2 3 4 5 6 
#
# 1 38.3572 40.1661 3.1524 0.0000 -2.4776 0.0000
# 2 40.1661 119.2207 22.1393 0.0000 -0.0839 0.0000
# 3 3.1524 22.1393 62.3714 0.0000 2.7868 0.0000
# 4 0.0000 0.0000 0.0000 45.0858 0.0000 -0.9356
# 5 -2.4776 -0.0839 2.7868 0.0000 19.2241 0.0000
# 6 0.0000 0.0000 0.0000 -0.9356 0.0000 45.5727
#
#
#
# Elastic Compliance Matrix: (Units=1/GPa)
#
#
# Indices 1 2 3 4 5 6 
#
# 1 0.041248 -0.014416 0.002816 0.000000 0.004845 0.000000
# 2 -0.014416 0.014023 -0.004196 0.000000 -0.001189 0.000000
# 3 0.002816 -0.004196 0.017478 0.000000 -0.002189 0.000000
# 4 0.000000 0.000000 0.000000 0.022189 0.000000 0.000456
# 5 0.004845 -0.001189 -0.002189 0.000000 0.052955 0.000000
# 6 0.000000 0.000000 0.000000 0.000456 0.000000 0.021952
#
#
# Mechanical properties :
#
#
# Convention : Reuss Voigt Hill
#
# Bulk Modulus (GPa) = 24.29736 38.98500 31.64118
# Shear Modulus (GPa) = 23.23885 32.27595 27.75740
#
# Velocity S-wave (km/s) = 3.39843 4.00507 3.71416
# Velocity P-wave (km/s) = 5.24161 6.38454 5.84110
#
# Compressibility (1/GPa) = 0.04115673
#
# Stress axis : x y z
#
# Youngs Moduli (GPa) = 24.24340 71.31113 57.21535
#
# Poissons Ratio (x) = 1.02804 -0.16111
# Poissons Ratio (y) = 0.34950 0.24007
# Poissons Ratio (z) = -0.06827 0.29921
#
# Static dielectric constant tensor:
#      x y z
#    x 1.751280 0.000000 -0.020770 
#    y 0.000000 1.524050 0.000000 
#    z -0.020770 0.000000 1.708240 
# 
# From -- ./inp_files/25977.got.cif
#   From: 2010.05.17/outbox.cif.g08.bks.cpg/sg14_13_cif.got.tgz:25977.got - 2010.06.03 17:49:19.
