data_PCOD9246382
_publ_section_title
;
Structure prediction by ZEFSAII (Michael W. Deem and Ramdas Pophale) SiO2 
 PCOD9246382
Probable space group: P 21/C
;
_chemical_formula_sum "Si O2"
_cell_formula_units_Z 32
_cell_length_a 32.919984
_cell_length_b 5.600698
_cell_length_c 18.827236
_cell_angle_alpha 90.000000
_cell_angle_beta 153.572777
_cell_angle_gamma 90.000000
_cell_volume 1544.925684
_symmetry_space_group_name_H-M "P 21/C"
_symmetry_group_IT_number 14
_symmetry_cell_setting 'monoclinic'
loop_
_space_group_symop_operation_xyz
x,y,z
-x,1/2+y,1/2-z
-x,-y,-z
x,1/2-y,1/2+z
loop_
_atom_site_type_symbol
_atom_site_label
_atom_site_fract_x
_atom_site_fract_y
_atom_site_fract_z
Si Si1 0.651181 0.597087 0.473786
Si Si2 0.528911 0.259646 0.230825
Si Si3 0.813434 0.482765 0.820828
Si Si4 0.150935 0.898482 0.249034
Si Si5 0.023774 0.200250 0.479665
Si Si6 0.326230 0.486411 0.276342
Si Si7 0.673052 0.561100 0.890352
Si Si8 0.565341 0.015581 0.534508
O O1 0.613432 0.328600 0.413577
O O2 0.561855 0.719122 0.366669
O O3 0.738086 0.636357 0.658911
O O4 0.673655 0.681188 0.429582
O O5 0.574247 0.056432 0.253273
O O6 0.499085 0.477521 0.134022
O O7 0.828056 0.264887 0.787671
O O8 0.913688 0.595706 0.984379
O O9 0.764282 0.459679 0.819217
O O10 0.243432 0.940071 0.436465
O O11 0.092920 0.117847 0.126472
O O12 0.076647 0.800905 0.190027
O O13 0.000000 0.000000 0.500000
O O14 0.312047 0.460166 0.169816
O O15 0.371574 0.227494 0.367830
O O16 0.386589 0.725170 0.386901
O O17 0.500000 0.000000 0.500000
#
# Coordination Sequence:
#
# PCOD9246382 Si02
#       8
#     4   4   4   4   4   4   4   4
#     4  12  24  38  62  94 130 173 233 282 330 386
#     4  12  25  37  61  92 133 178 232 277 325 387
#     4  11  23  41  68  99 129 175 225 282 337 412
#     4  10  21  40  72  97 128 165 224 278 342 405
#     4   9  20  41  69 101 124 165 217 279 343 409
#     4  12  29  43  68  98 140 182 228 279 343 406
#     4  12  25  42  63  98 131 177 219 288 334 396
#     4  12  26  45  63  90 138 192 230 271 333 401
#
# _framework density 20.712969000000001
#
# number of rings (size 3 to 8) (size 9 to 14) (size 15 to 20)
#    0.000    0.750    6.250    1.125    7.000    0.000 
#    0.000    0.000    8.250    0.000    0.000    0.000 
#    0.000    0.000    0.000    0.000    0.000    0.000 
#
# Total GULP energy -178183.136464 kJ/mol
# GULP energy per Si atom -5568.223014 kJ/mol
# Density = 2.066583 g / cm^3
# Si number density = 20.712969 Si / 1000 Ang^3
#
#
#
# Elastic Constant Matrix: (Units=GPa)
#
#
# Indices 1 2 3 4 5 6 
#
# 1 147.3918 30.6492 38.3674 0.0000 23.7295 0.0000
# 2 30.6492 67.4264 31.1077 0.0000 14.9974 0.0000
# 3 38.3674 31.1077 77.2951 0.0000 21.5652 0.0000
# 4 0.0000 0.0000 0.0000 34.4597 0.0000 8.3192
# 5 23.7295 14.9974 21.5652 0.0000 46.6723 0.0000
# 6 0.0000 0.0000 0.0000 8.3192 0.0000 30.6487
#
#
#
# Elastic Compliance Matrix: (Units=1/GPa)
#
#
# Indices 1 2 3 4 5 6 
#
# 1 0.008268 -0.002021 -0.002639 0.000000 -0.002335 0.000000
# 2 -0.002021 0.019038 -0.006014 0.000000 -0.002311 0.000000
# 3 -0.002639 -0.006014 0.018086 0.000000 -0.005082 0.000000
# 4 0.000000 0.000000 0.000000 0.031054 0.000000 -0.008429
# 5 -0.002335 -0.002311 -0.005082 0.000000 0.025704 0.000000
# 6 0.000000 0.000000 0.000000 -0.008429 0.000000 0.034916
#
#
# Mechanical properties :
#
#
# Convention : Reuss Voigt Hill
#
# Bulk Modulus (GPa) = 41.59167 54.70689 48.14928
# Shear Modulus (GPa) = 30.04279 35.15540 32.59909
#
# Velocity S-wave (km/s) = 3.81259 4.12426 3.97148
# Velocity P-wave (km/s) = 6.28528 7.01060 6.65782
#
# Compressibility (1/GPa) = 0.02404328
#
# Stress axis : x y z
#
# Youngs Moduli (GPa) = 120.95103 52.52525 55.29232
#
# Poissons Ratio (x) = 0.10617 0.14592
# Poissons Ratio (y) = 0.24448 0.33252
# Poissons Ratio (z) = 0.31920 0.31588
#
# Static dielectric constant tensor:
#      x y z
#    x 1.796490 0.000000 -0.006690 
#    y 0.000000 1.926290 0.000000 
#    z -0.006690 0.000000 1.770860 
# 
# From -- ./inp_files/62509.got.cif
#   From: 2010.05.17/outbox.cif.g08.bks.cpg/sg14_32_cif.got.tgz:62509.got - 2010.06.03 17:49:19.
