data_PCOD9246560
_publ_section_title
;
Structure prediction by ZEFSAII (Michael W. Deem and Ramdas Pophale) SiO2 
 PCOD9246560
Probable space group: P 21/C
;
_chemical_formula_sum "Si O2"
_cell_formula_units_Z 28
_cell_length_a 15.548777
_cell_length_b 7.722587
_cell_length_c 14.473597
_cell_angle_alpha 90.000000
_cell_angle_beta 46.329063
_cell_angle_gamma 90.000000
_cell_volume 1257.084562
_symmetry_space_group_name_H-M "P 21/C"
_symmetry_group_IT_number 14
_symmetry_cell_setting 'monoclinic'
loop_
_space_group_symop_operation_xyz
x,y,z
-x,1/2+y,1/2-z
-x,-y,-z
x,1/2-y,1/2+z
loop_
_atom_site_type_symbol
_atom_site_label
_atom_site_fract_x
_atom_site_fract_y
_atom_site_fract_z
Si Si1 0.478612 0.417809 0.615547
Si Si2 0.668473 0.917132 0.267928
Si Si3 0.293090 0.794237 0.288893
Si Si4 0.032470 0.672009 0.918852
Si Si5 0.726220 0.444430 0.537278
Si Si6 0.966216 0.979060 0.757286
Si Si7 0.082325 0.354905 0.330944
O O1 0.500000 0.500000 0.500000
O O2 0.434852 0.220518 0.643473
O O3 0.373398 0.537261 0.734764
O O4 0.599340 0.432797 0.583104
O O5 0.716593 0.912989 0.126175
O O6 0.778024 0.868557 0.252508
O O7 0.638372 0.121946 0.299322
O O8 0.175553 0.815901 0.315290
O O9 0.251335 0.731639 0.421287
O O10 0.988898 0.624640 0.848855
O O11 0.000000 0.500000 0.000000
O O12 0.978608 0.821660 0.024098
O O13 0.832863 0.478970 0.389732
O O14 0.042376 0.986256 0.795254
O O15 0.956619 0.806915 0.703395
#
# Coordination Sequence:
#
# PCOD9246560 Si02
#       7
#     4   4   4   4   4   4   4
#     4  12  23  45  68  96 134 176 230 290 345 408
#     4  10  25  42  69  99 137 178 228 285 348 401
#     4  10  23  41  68  92 134 177 224 282 338 409
#     4  10  21  41  65  98 138 176 228 284 342 403
#     4  10  23  43  66  96 130 181 233 273 348 414
#     4  11  24  40  69  98 133 189 223 281 351 410
#     4  11  23  42  62 104 137 177 230 280 345 412
#
# _framework density 22.273759999999999
#
# number of rings (size 3 to 8) (size 9 to 14) (size 15 to 20)
#    0.857    0.571    1.429    4.286    4.000    1.714 
#    0.000    0.000    0.000    0.000    0.000    0.000 
#    0.000    0.000    0.000    0.000    0.000    0.000 
#
# Total GULP energy -156343.259794 kJ/mol
# GULP energy per Si atom -5583.687850 kJ/mol
# Density = 2.222306 g / cm^3
# Si number density = 22.273760 Si / 1000 Ang^3
#
#
#
# Elastic Constant Matrix: (Units=GPa)
#
#
# Indices 1 2 3 4 5 6 
#
# 1 141.6514 -0.2404 11.6965 0.0000 -1.6148 0.0000
# 2 -0.2404 86.7930 -6.8708 0.0000 2.1785 0.0000
# 3 11.6965 -6.8708 49.5453 0.0000 6.2759 0.0000
# 4 0.0000 0.0000 0.0000 20.6885 0.0000 5.9992
# 5 -1.6148 2.1785 6.2759 0.0000 45.0822 0.0000
# 6 0.0000 0.0000 0.0000 5.9992 0.0000 26.7766
#
#
#
# Elastic Compliance Matrix: (Units=1/GPa)
#
#
# Indices 1 2 3 4 5 6 
#
# 1 0.007213 -0.000134 -0.001786 0.000000 0.000514 0.000000
# 2 -0.000134 0.011681 0.001755 0.000000 -0.000814 0.000000
# 3 -0.001786 0.001755 0.021242 0.000000 -0.003106 0.000000
# 4 0.000000 0.000000 0.000000 0.051694 0.000000 -0.011582
# 5 0.000514 -0.000814 -0.003106 0.000000 0.022672 0.000000
# 6 0.000000 0.000000 0.000000 -0.011582 0.000000 0.039941
#
#
# Mechanical properties :
#
#
# Convention : Reuss Voigt Hill
#
# Bulk Modulus (GPa) = 25.12371 31.90669 28.51520
# Shear Modulus (GPa) = 29.75439 36.73644 33.24542
#
# Velocity S-wave (km/s) = 3.65889 4.06558 3.86759
# Velocity P-wave (km/s) = 5.39944 6.03278 5.72488
#
# Compressibility (1/GPa) = 0.03980304
#
# Stress axis : x y z
#
# Youngs Moduli (GPa) = 138.64395 85.61192 47.07649
#
# Poissons Ratio (x) = 0.01150 0.08410
# Poissons Ratio (y) = 0.01862 -0.08260
# Poissons Ratio (z) = 0.24768 -0.15022
#
# Static dielectric constant tensor:
#      x y z
#    x 1.804090 0.000000 0.010120 
#    y 0.000000 1.866820 0.000000 
#    z 0.010120 0.000000 1.859000 
# 
# From -- ./inp_files/59049.got.cif
#   From: 2010.05.17/outbox.cif.g08.bks.cpg/sg14_30_cif.got.tgz:59049.got - 2010.06.03 17:49:19.
