data_PCOD9246062
_publ_section_title
;
Structure prediction by ZEFSAII (Michael W. Deem and Ramdas Pophale) SiO2 
 PCOD9246062
Probable space group: P 21/C
;
_chemical_formula_sum "Si O2"
_cell_formula_units_Z 28
_cell_length_a 14.152334
_cell_length_b 8.034526
_cell_length_c 18.840361
_cell_angle_alpha 90.000000
_cell_angle_beta 37.300990
_cell_angle_gamma 90.000000
_cell_volume 1298.230211
_symmetry_space_group_name_H-M "P 21/C"
_symmetry_group_IT_number 14
_symmetry_cell_setting 'monoclinic'
loop_
_space_group_symop_operation_xyz
x,y,z
-x,1/2+y,1/2-z
-x,-y,-z
x,1/2-y,1/2+z
loop_
_atom_site_type_symbol
_atom_site_label
_atom_site_fract_x
_atom_site_fract_y
_atom_site_fract_z
Si Si1 0.737225 0.280057 0.628338
Si Si2 0.604732 0.705268 0.006500
Si Si3 0.899823 0.484766 0.800427
Si Si4 0.261297 0.770971 0.715539
Si Si5 0.338847 0.382190 0.676147
Si Si6 0.012539 0.228530 0.355460
Si Si7 0.457689 0.463328 0.336014
O O1 0.807773 0.298022 0.665062
O O2 0.869277 0.229891 0.494103
O O3 0.655890 0.449975 0.651334
O O4 0.601966 0.139151 0.715982
O O5 0.744866 0.575798 0.921912
O O6 0.611567 0.800252 0.927188
O O7 0.429102 0.634447 0.116138
O O8 0.621850 0.834261 0.061525
O O9 0.842648 0.332166 0.786254
O O10 0.998843 0.420908 0.806972
O O11 0.984514 0.608127 0.695452
O O12 0.303498 0.577138 0.684358
O O13 0.469367 0.389153 0.658709
O O14 0.178994 0.292333 0.793997
#
# Coordination Sequence:
#
# PCOD9246062 Si02
#       7
#     4   4   4   4   4   4   4
#     4  10  25  40  64  92 127 163 209 250 317 369
#     4   9  20  37  64  93 115 162 206 264 307 357
#     4  11  24  38  64  89 128 158 213 259 308 368
#     4  10  21  40  61  94 123 159 209 256 312 368
#     4   9  20  40  62  89 124 158 207 253 316 363
#     4  11  25  40  62  95 122 171 204 255 315 370
#     4  10  22  40  64  91 123 163 208 257 308 371
#
# _framework density 21.567823000000001
#
# number of rings (size 3 to 8) (size 9 to 14) (size 15 to 20)
#    0.000    2.286    0.000    3.000   12.000    5.143 
#    0.000    0.000    0.000    0.000    0.000    0.000 
#    0.000    0.000    0.000    0.000    0.000    0.000 
#
# Total GULP energy -156485.790631 kJ/mol
# GULP energy per Si atom -5588.778237 kJ/mol
# Density = 2.151873 g / cm^3
# Si number density = 21.567823 Si / 1000 Ang^3
#
#
#
# Elastic Constant Matrix: (Units=GPa)
#
#
# Indices 1 2 3 4 5 6 
#
# 1 43.0603 -3.8036 -10.3904 0.0000 3.2182 0.0000
# 2 -3.8036 23.1675 6.6157 0.0000 2.7487 0.0000
# 3 -10.3904 6.6157 86.0804 0.0000 6.6251 0.0000
# 4 0.0000 0.0000 0.0000 8.5073 0.0000 -8.4094
# 5 3.2182 2.7487 6.6251 0.0000 3.5599 0.0000
# 6 0.0000 0.0000 0.0000 -8.4094 0.0000 16.0040
#
#
#
# Elastic Compliance Matrix: (Units=1/GPa)
#
#
# Indices 1 2 3 4 5 6 
#
# 1 0.028715 0.008137 0.006212 0.000000 -0.043801 0.000000
# 2 0.008137 0.049892 0.000792 0.000000 -0.047354 0.000000
# 3 0.006212 0.000792 0.014923 0.000000 -0.033999 0.000000
# 4 0.000000 0.000000 0.000000 0.244586 0.000000 0.128518
# 5 -0.043801 -0.047354 -0.033999 0.000000 0.420335 0.000000
# 6 0.000000 0.000000 0.000000 0.128518 0.000000 0.130014
#
#
# Mechanical properties :
#
#
# Convention : Reuss Voigt Hill
#
# Bulk Modulus (GPa) = 8.07676 15.23904 11.65790
# Shear Modulus (GPa) = 5.55894 16.27335 10.91614
#
# Velocity S-wave (km/s) = 1.60718 2.74983 2.25218
# Velocity P-wave (km/s) = 2.68272 4.14283 3.48999
#
# Compressibility (1/GPa) = 0.12381201
#
# Stress axis : x y z
#
# Youngs Moduli (GPa) = 34.82557 20.04331 67.01226
#
# Poissons Ratio (x) = -0.16310 -0.41627
# Poissons Ratio (y) = -0.28339 -0.05310
# Poissons Ratio (z) = -0.21633 -0.01588
#
# Static dielectric constant tensor:
#      x y z
#    x 1.768740 0.000000 -0.014700 
#    y 0.000000 1.804290 0.000000 
#    z -0.014700 0.000000 1.772920 
# 
# From -- ./inp_files/59045.got.cif
#   From: 2010.05.17/outbox.cif.g08.bks.cpg/sg14_30_cif.got.tgz:59045.got - 2010.06.03 17:49:19.
