data_PCOD9246887
_publ_section_title
;
Structure prediction by ZEFSAII (Michael W. Deem and Ramdas Pophale) SiO2 
 PCOD9246887
Probable space group: P 21/C
;
_chemical_formula_sum "Si O2"
_cell_formula_units_Z 20
_cell_length_a 7.518687
_cell_length_b 7.971984
_cell_length_c 18.821998
_cell_angle_alpha 90.000000
_cell_angle_beta 138.029813
_cell_angle_gamma 90.000000
_cell_volume 754.456034
_symmetry_space_group_name_H-M "P 21/C"
_symmetry_group_IT_number 14
_symmetry_cell_setting 'monoclinic'
loop_
_space_group_symop_operation_xyz
x,y,z
-x,1/2+y,1/2-z
-x,-y,-z
x,1/2-y,1/2+z
loop_
_atom_site_type_symbol
_atom_site_label
_atom_site_fract_x
_atom_site_fract_y
_atom_site_fract_z
Si Si1 0.716902 0.001488 0.346707
Si Si2 0.388018 0.642610 0.631696
Si Si3 0.210511 0.458856 0.444326
Si Si4 0.038657 0.240692 0.692136
Si Si5 0.536999 0.628437 0.946439
O O1 0.477442 0.986722 0.218823
O O2 0.639319 0.928863 0.400149
O O3 0.932055 0.882139 0.369470
O O4 0.746610 0.197505 0.372222
O O5 0.219779 0.552634 0.522573
O O6 0.676363 0.707011 0.686957
O O7 0.500000 0.500000 0.500000
O O8 0.996582 0.563074 0.336427
O O9 0.243907 0.262306 0.462330
O O10 0.765242 0.199585 0.651134
O O11 0.500000 0.500000 0.000000
#
# Coordination Sequence:
#
# PCOD9246887 Si02
#       5
#     4   4   4   4   4
#     4  10  22  43  62  97 138 172 231 281 342 414
#     4  10  22  43  67  97 137 179 226 290 338 421
#     4  10  21  42  68  96 134 172 231 278 337 420
#     4   9  24  43  65  97 132 182 221 282 357 397
#     4  11  23  41  67 100 133 180 231 287 343 419
#
# _framework density 26.509167000000001
#
# number of rings (size 3 to 8) (size 9 to 14) (size 15 to 20)
#    1.200    0.800    0.000    3.600    0.000    7.200 
#    3.600    0.000    0.000    0.000    0.000    0.000 
#    0.000    0.000    0.000    0.000    0.000    0.000 
#
# Total GULP energy -111767.581268 kJ/mol
# GULP energy per Si atom -5588.379063 kJ/mol
# Density = 2.644883 g / cm^3
# Si number density = 26.509167 Si / 1000 Ang^3
#
#
#
# Elastic Constant Matrix: (Units=GPa)
#
#
# Indices 1 2 3 4 5 6 
#
# 1 155.6403 23.2024 -0.7091 0.0000 20.7928 0.0000
# 2 23.2024 134.0400 16.6632 0.0000 -11.8907 0.0000
# 3 -0.7091 16.6632 45.5308 0.0000 -18.4054 0.0000
# 4 0.0000 0.0000 0.0000 40.6154 0.0000 -1.9942
# 5 20.7928 -11.8907 -18.4054 0.0000 43.5355 0.0000
# 6 0.0000 0.0000 0.0000 -1.9942 0.0000 43.6440
#
#
#
# Elastic Compliance Matrix: (Units=1/GPa)
#
#
# Indices 1 2 3 4 5 6 
#
# 1 0.007220 -0.001498 -0.001084 0.000000 -0.004316 0.000000
# 2 -0.001498 0.008172 -0.002198 0.000000 0.002018 0.000000
# 3 -0.001084 -0.002198 0.027400 0.000000 0.011501 0.000000
# 4 0.000000 0.000000 0.000000 0.024677 0.000000 0.001128
# 5 -0.004316 0.002018 0.011501 0.000000 0.030444 0.000000
# 6 0.000000 0.000000 0.000000 0.001128 0.000000 0.022964
#
#
# Mechanical properties :
#
#
# Convention : Reuss Voigt Hill
#
# Bulk Modulus (GPa) = 30.09170 45.94712 38.01941
# Shear Modulus (GPa) = 35.33199 45.29595 40.31397
#
# Velocity S-wave (km/s) = 3.65474 4.13811 3.90392
# Velocity P-wave (km/s) = 5.40237 6.34052 5.89015
#
# Compressibility (1/GPa) = 0.03323176
#
# Stress axis : x y z
#
# Youngs Moduli (GPa) = 138.50442 122.36831 36.49628
#
# Poissons Ratio (x) = 0.18329 0.03956
# Poissons Ratio (y) = 0.20746 0.08023
# Poissons Ratio (z) = 0.15013 0.26901
#
# Static dielectric constant tensor:
#      x y z
#    x 2.141410 0.000000 0.005130 
#    y 0.000000 2.137880 0.000000 
#    z 0.005130 0.000000 2.118260 
# 
# From -- ./inp_files/54970.got.cif
#   From: 2010.05.17/outbox.cif.g08.bks.cpg/sg14_28_cif.got.tgz:54970.got - 2010.06.03 17:49:19.
