data_PCOD9246545
_publ_section_title
;
Structure prediction by ZEFSAII (Michael W. Deem and Ramdas Pophale) SiO2 
 PCOD9246545
Probable space group: P 21/C
;
_chemical_formula_sum "Si O2"
_cell_formula_units_Z 26
_cell_length_a 14.535676
_cell_length_b 8.128046
_cell_length_c 14.360344
_cell_angle_alpha 90.000000
_cell_angle_beta 41.394961
_cell_angle_gamma 90.000000
_cell_volume 1121.887264
_symmetry_space_group_name_H-M "P 21/C"
_symmetry_group_IT_number 14
_symmetry_cell_setting 'monoclinic'
loop_
_space_group_symop_operation_xyz
x,y,z
-x,1/2+y,1/2-z
-x,-y,-z
x,1/2-y,1/2+z
loop_
_atom_site_type_symbol
_atom_site_label
_atom_site_fract_x
_atom_site_fract_y
_atom_site_fract_z
Si Si1 0.000000 0.500000 0.500000
Si Si2 0.862458 0.263939 0.178322
Si Si3 0.336303 0.681841 0.324061
Si Si4 0.539770 0.537522 0.617969
Si Si5 0.704633 0.909218 0.802982
Si Si6 0.145444 0.876483 0.612580
Si Si7 0.892369 0.822192 0.250888
O O1 0.991719 0.698610 0.469416
O O2 0.013058 0.442438 0.382009
O O3 0.767339 0.143828 0.183406
O O4 0.816392 0.448806 0.193730
O O5 0.830717 0.220038 0.308465
O O6 0.383372 0.527825 0.349223
O O7 0.250286 0.803896 0.457374
O O8 0.467012 0.785623 0.186921
O O9 0.413472 0.415465 0.685414
O O10 0.636592 0.538122 0.453731
O O11 0.767813 0.735257 0.780471
O O12 0.987469 0.831857 0.705154
O O13 0.157884 0.069603 0.623965
#
# Coordination Sequence:
#
# PCOD9246545 Si02
#       7
#     2   4   4   4   4   4   4
#     4  10  22  40  62 100 130 166 216 264 334 398
#     4  10  21  41  65  93 133 168 213 274 328 392
#     4  11  23  43  64  96 129 173 221 276 320 397
#     4  10  24  42  66  93 128 176 226 267 327 385
#     4  10  22  45  66  92 131 178 221 273 328 389
#     4  11  23  42  65 100 129 171 215 275 337 392
#     4  11  24  42  67  97 132 172 217 276 334 397
#
# _framework density 23.175234
#
# number of rings (size 3 to 8) (size 9 to 14) (size 15 to 20)
#    0.000    1.538    3.077    0.923    2.154    3.077 
#   11.077    1.538    0.000    0.000    0.000    0.000 
#    0.000    0.000    0.000    0.000    0.000    0.000 
#
# Total GULP energy -144738.943101 kJ/mol
# GULP energy per Si atom -5566.882427 kJ/mol
# Density = 2.312249 g / cm^3
# Si number density = 23.175234 Si / 1000 Ang^3
#
#
#
# Elastic Constant Matrix: (Units=GPa)
#
#
# Indices 1 2 3 4 5 6 
#
# 1 78.2806 -19.6458 -14.0326 0.0000 20.0194 0.0000
# 2 -19.6458 29.7833 -0.3800 0.0000 -7.4701 0.0000
# 3 -14.0326 -0.3800 51.2033 0.0000 11.4251 0.0000
# 4 0.0000 0.0000 0.0000 5.6678 0.0000 28.3380
# 5 20.0194 -7.4701 11.4251 0.0000 26.6368 0.0000
# 6 0.0000 0.0000 0.0000 28.3380 0.0000 22.0710
#
#
#
# Elastic Compliance Matrix: (Units=1/GPa)
#
#
# Indices 1 2 3 4 5 6 
#
# 1 0.021567 0.009916 0.009931 0.000000 -0.017688 0.000000
# 2 0.009916 0.040902 0.002350 0.000000 0.003010 0.000000
# 3 0.009931 0.002350 0.026305 0.000000 -0.018088 0.000000
# 4 0.000000 0.000000 0.000000 -0.032556 0.000000 0.041800
# 5 -0.017688 0.003010 -0.018088 0.000000 0.059438 0.000000
# 6 0.000000 0.000000 0.000000 0.041800 0.000000 -0.008360
#
#
# Mechanical properties :
#
#
# Convention : Reuss Voigt Hill
#
# Bulk Modulus (GPa) = 7.50937 10.12784 8.81861
# Shear Modulus (GPa) = 46.60228 23.76350 35.18289
#
# Velocity S-wave (km/s) = 4.48913 3.20563 3.90054
# Velocity P-wave (km/s) = 5.48790 4.25218 4.90908
#
# Compressibility (1/GPa) = 0.13316692
#
# Stress axis : x y z
#
# Youngs Moduli (GPa) = 46.36753 24.44878 38.01575
#
# Poissons Ratio (x) = -0.24244 -0.37753
# Poissons Ratio (y) = -0.45980 -0.08932
# Poissons Ratio (z) = -0.46046 -0.05744
#
# Static dielectric constant tensor:
#      x y z
#    x 1.858200 0.000000 0.091060 
#    y 0.000000 1.923730 0.000000 
#    z 0.091060 0.000000 1.517660 
# 
# From -- ./inp_files/46417.got.cif
#   From: 2010.05.17/outbox.cif.g08.bks.cpg/sg14_24_cif.got.tgz:46417.got - 2010.06.03 17:49:19.
