data_PCOD9246172
_publ_section_title
;
Structure prediction by ZEFSAII (Michael W. Deem and Ramdas Pophale) SiO2 
 PCOD9246172
Probable space group: P 21/C
;
_chemical_formula_sum "Si O2"
_cell_formula_units_Z 32
_cell_length_a 12.009167
_cell_length_b 8.998097
_cell_length_c 29.925231
_cell_angle_alpha 90.000000
_cell_angle_beta 154.861388
_cell_angle_gamma 90.000000
_cell_volume 1373.711025
_symmetry_space_group_name_H-M "P 21/C"
_symmetry_group_IT_number 14
_symmetry_cell_setting 'monoclinic'
loop_
_space_group_symop_operation_xyz
x,y,z
-x,1/2+y,1/2-z
-x,-y,-z
x,1/2-y,1/2+z
loop_
_atom_site_type_symbol
_atom_site_label
_atom_site_fract_x
_atom_site_fract_y
_atom_site_fract_z
Si Si1 0.336296 0.974179 0.485712
Si Si2 0.684047 0.290532 0.141493
Si Si3 0.468181 0.477757 0.727044
Si Si4 0.954948 0.291506 0.653398
Si Si5 0.781361 0.926822 0.044487
Si Si6 0.537099 0.211075 0.325578
Si Si7 0.837052 0.314224 0.795279
Si Si8 0.915190 0.401086 0.511870
O O1 0.536555 0.050058 0.593538
O O2 0.070666 0.067686 0.384573
O O3 0.500000 0.000000 0.500000
O O4 0.227790 0.807432 0.446388
O O5 0.910647 0.279425 0.186406
O O6 0.777750 0.229826 0.222925
O O7 0.458880 0.185279 0.038070
O O8 0.462309 0.646947 0.708636
O O9 0.609670 0.437688 0.824686
O O10 0.595269 0.386875 0.732521
O O11 0.192470 0.395350 0.636886
O O12 0.839163 0.456939 0.604868
O O13 0.259479 0.289376 0.750435
O O14 0.046302 0.829638 0.137509
O O15 0.735760 0.009992 0.981202
O O16 0.771612 0.254580 0.444115
O O17 0.000000 0.500000 0.500000
#
# Coordination Sequence:
#
# PCOD9246172 Si02
#       8
#     4   4   4   4   4   4   4   4
#     4   9  21  42  62  89 128 165 211 265 327 385
#     4  10  23  42  67  92 128 172 219 270 332 397
#     4  11  22  41  65  92 127 166 223 265 326 388
#     4  11  22  43  62  96 129 172 214 274 337 387
#     4  11  23  43  65  99 132 167 225 273 323 401
#     4  11  23  42  66  91 128 175 215 274 327 391
#     4  11  22  41  67  96 126 176 215 267 330 391
#     4  10  21  40  64  91 127 170 213 262 326 384
#
# _framework density 23.294563
#
# number of rings (size 3 to 8) (size 9 to 14) (size 15 to 20)
#    0.000    1.500    2.500    3.375    0.000    3.000 
#    9.000    0.625    0.000    0.000    0.000    0.000 
#    0.000    0.000    0.000    0.000    0.000    0.000 
#
# Total GULP energy -178653.326965 kJ/mol
# GULP energy per Si atom -5582.916468 kJ/mol
# Density = 2.324154 g / cm^3
# Si number density = 23.294563 Si / 1000 Ang^3
#
#
#
# Elastic Constant Matrix: (Units=GPa)
#
#
# Indices 1 2 3 4 5 6 
#
# 1 80.4395 -11.1523 12.5127 0.0000 10.6037 0.0000
# 2 -11.1523 51.7128 0.6870 0.0000 7.6039 0.0000
# 3 12.5127 0.6870 33.4554 0.0000 6.9500 0.0000
# 4 0.0000 0.0000 0.0000 25.7301 0.0000 -7.3367
# 5 10.6037 7.6039 6.9500 0.0000 29.8754 0.0000
# 6 0.0000 0.0000 0.0000 -7.3367 0.0000 32.3428
#
#
#
# Elastic Compliance Matrix: (Units=1/GPa)
#
#
# Indices 1 2 3 4 5 6 
#
# 1 0.014319 0.003889 -0.004386 0.000000 -0.005052 0.000000
# 2 0.003889 0.021161 -0.000508 0.000000 -0.006648 0.000000
# 3 -0.004386 -0.000508 0.032775 0.000000 -0.005939 0.000000
# 4 0.000000 0.000000 0.000000 0.041553 0.000000 0.009426
# 5 -0.005052 -0.006648 -0.005939 0.000000 0.038339 0.000000
# 6 0.000000 0.000000 0.000000 0.009426 0.000000 0.033057
#
#
# Mechanical properties :
#
#
# Convention : Reuss Voigt Hill
#
# Bulk Modulus (GPa) = 15.09546 18.85583 16.97564
# Shear Modulus (GPa) = 24.35521 28.49367 26.42444
#
# Velocity S-wave (km/s) = 3.23698 3.50121 3.37168
# Velocity P-wave (km/s) = 4.52383 4.94537 4.73929
#
# Compressibility (1/GPa) = 0.06624510
#
# Stress axis : x y z
#
# Youngs Moduli (GPa) = 69.83675 47.25768 30.51097
#
# Poissons Ratio (x) = -0.18379 0.13382
# Poissons Ratio (y) = -0.27161 0.01550
# Poissons Ratio (z) = 0.30630 0.02401
#
# Static dielectric constant tensor:
#      x y z
#    x 1.919250 0.000000 0.027470 
#    y 0.000000 1.931350 0.000000 
#    z 0.027470 0.000000 2.021530 
# 
# From -- ./inp_files/79973.got.cif
#   From: 2010.05.17/outbox.cif.g08.bks.cpg/sg14_40_cif.got.tgz:79973.got - 2010.06.03 17:49:19.
