data_PCOD9246925
_publ_section_title
;
Structure prediction by ZEFSAII (Michael W. Deem and Ramdas Pophale) SiO2 
 PCOD9246925
Probable space group: P 21/C
;
_chemical_formula_sum "Si O2"
_cell_formula_units_Z 32
_cell_length_a 11.498153
_cell_length_b 10.975798
_cell_length_c 12.712709
_cell_angle_alpha 90.000000
_cell_angle_beta 73.260967
_cell_angle_gamma 90.000000
_cell_volume 1536.379323
_symmetry_space_group_name_H-M "P 21/C"
_symmetry_group_IT_number 14
_symmetry_cell_setting 'monoclinic'
loop_
_space_group_symop_operation_xyz
x,y,z
-x,1/2+y,1/2-z
-x,-y,-z
x,1/2-y,1/2+z
loop_
_atom_site_type_symbol
_atom_site_label
_atom_site_fract_x
_atom_site_fract_y
_atom_site_fract_z
Si Si1 0.986538 0.857755 0.846849
Si Si2 0.937101 0.259169 0.962419
Si Si3 0.647840 0.559854 0.257915
Si Si4 0.833887 0.776445 0.234352
Si Si5 0.780765 0.437527 0.408228
Si Si6 0.626161 0.143285 0.136013
Si Si7 0.285085 0.592532 0.957015
Si Si8 0.769255 0.450862 0.792973
O O1 0.913909 0.743071 0.819031
O O2 0.091627 0.903407 0.741407
O O3 0.886218 0.962055 0.885761
O O4 0.050503 0.826999 0.939156
O O5 0.851255 0.189906 0.900429
O O6 0.071510 0.263125 0.881040
O O7 0.858836 0.374956 0.019289
O O8 0.726375 0.680228 0.258633
O O9 0.701690 0.459689 0.325064
O O10 0.509822 0.595752 0.315699
O O11 0.670263 0.508947 0.135474
O O12 0.783573 0.912205 0.244738
O O13 0.693783 0.439879 0.531767
O O14 0.643121 0.282102 0.090033
O O15 0.693576 0.128062 0.229631
O O16 0.292644 0.553903 0.076791
#
# Coordination Sequence:
#
# PCOD9246925 Si02
#       8
#     4   4   4   4   4   4   4   4
#     4  11  21  39  65 103 140 178 230 288 350 427
#     4  11  21  37  69 101 138 180 223 284 365 416
#     4  11  28  48  65 107 141 189 241 292 350 421
#     4  11  26  41  68 105 145 180 232 294 359 424
#     4  10  21  42  70  99 133 183 237 285 350 420
#     4  11  26  48  74  95 140 196 241 295 347 427
#     4  11  27  44  72 104 141 187 237 297 355 418
#     4  12  24  46  72 106 142 189 236 293 363 423
#
# _framework density 20.828189999999999
#
# number of rings (size 3 to 8) (size 9 to 14) (size 15 to 20)
#    0.000    1.000    5.000    1.500    8.750    1.000 
#    0.000    0.000    0.000    0.000    0.000    0.000 
#    0.000    0.000    0.000    0.000    0.000    0.000 
#
# Total GULP energy -178785.318197 kJ/mol
# GULP energy per Si atom -5587.041194 kJ/mol
# Density = 2.078078 g / cm^3
# Si number density = 20.828190 Si / 1000 Ang^3
#
#
#
# Elastic Constant Matrix: (Units=GPa)
#
#
# Indices 1 2 3 4 5 6 
#
# 1 103.0258 18.7204 53.2078 0.0000 -27.8560 0.0000
# 2 18.7204 48.4560 15.1905 0.0000 -13.8138 0.0000
# 3 53.2078 15.1905 124.5700 0.0000 -18.1510 0.0000
# 4 0.0000 0.0000 0.0000 24.7624 0.0000 -6.2519
# 5 -27.8560 -13.8138 -18.1510 0.0000 26.2543 0.0000
# 6 0.0000 0.0000 0.0000 -6.2519 0.0000 11.8680
#
#
#
# Elastic Compliance Matrix: (Units=1/GPa)
#
#
# Indices 1 2 3 4 5 6 
#
# 1 0.015861 -0.000913 -0.004761 0.000000 0.013057 0.000000
# 2 -0.000913 0.024500 -0.000957 0.000000 0.011261 0.000000
# 3 -0.004761 -0.000957 0.010418 0.000000 0.001648 0.000000
# 4 0.000000 0.000000 0.000000 0.046579 0.000000 0.024537
# 5 0.013057 0.011261 0.001648 0.000000 0.059007 0.000000
# 6 0.000000 0.000000 0.000000 0.024537 0.000000 0.097187
#
#
# Mechanical properties :
#
#
# Convention : Reuss Voigt Hill
#
# Bulk Modulus (GPa) = 26.65411 50.03214 38.34312
# Shear Modulus (GPa) = 17.90066 25.17246 21.53656
#
# Velocity S-wave (km/s) = 2.93481 3.48023 3.21909
# Velocity P-wave (km/s) = 4.93042 6.34215 5.68031
#
# Compressibility (1/GPa) = 0.03751767
#
# Stress axis : x y z
#
# Youngs Moduli (GPa) = 63.04600 40.81610 95.98809
#
# Poissons Ratio (x) = 0.03726 0.45700
# Poissons Ratio (y) = 0.05756 0.09185
# Poissons Ratio (z) = 0.30016 0.03906
#
# Static dielectric constant tensor:
#      x y z
#    x 1.719570 0.000000 0.000380 
#    y 0.000000 1.766710 0.000000 
#    z 0.000380 0.000000 1.771710 
# 
# From -- ./inp_files/29338.got.cif
#   From: 2010.05.17/outbox.cif.g08.bks.cpg/sg14_15_cif.got.tgz:29338.got - 2010.06.03 17:49:19.
