data_PCOD9246209
_publ_section_title
;
Structure prediction by ZEFSAII (Michael W. Deem and Ramdas Pophale) SiO2 
 PCOD9246209
Probable space group: P 21/C
;
_chemical_formula_sum "Si O2"
_cell_formula_units_Z 16
_cell_length_a 15.983546
_cell_length_b 9.059234
_cell_length_c 10.745247
_cell_angle_alpha 90.000000
_cell_angle_beta 23.785862
_cell_angle_gamma 90.000000
_cell_volume 627.523870
_symmetry_space_group_name_H-M "P 21/C"
_symmetry_group_IT_number 14
_symmetry_cell_setting 'monoclinic'
loop_
_space_group_symop_operation_xyz
x,y,z
-x,1/2+y,1/2-z
-x,-y,-z
x,1/2-y,1/2+z
loop_
_atom_site_type_symbol
_atom_site_label
_atom_site_fract_x
_atom_site_fract_y
_atom_site_fract_z
Si Si1 0.172417 0.181074 0.997000
Si Si2 0.817180 0.971045 0.383357
Si Si3 0.598767 0.146915 0.500664
Si Si4 0.516058 0.319011 0.381161
O O1 0.126635 0.304942 0.163412
O O2 0.980048 0.083872 0.221461
O O3 0.367876 0.086633 0.783445
O O4 0.280983 0.278611 0.738758
O O5 0.763937 0.023714 0.315620
O O6 0.597818 0.014332 0.749660
O O7 0.643512 0.241845 0.318573
O O8 0.570581 0.238632 0.667666
#
# Coordination Sequence:
#
# PCOD9246209 Si02
#       4
#     4   4   4   4
#     4  10  21  40  65  91 123 165 207 250 307 368
#     4  10  21  40  65  91 123 165 207 250 307 368
#     4   8  20  38  62  86 124 160 204 254 296 366
#     4   8  19  42  61  88 121 166 205 248 303 366
#
# _framework density 25.497036000000001
#
# number of rings (size 3 to 8) (size 9 to 14) (size 15 to 20)
#    3.000    0.000    0.000    0.750    0.000    4.000 
#    0.000   10.000    0.000    0.000    0.000    0.000 
#    0.000    0.000    0.000    0.000    0.000    0.000 
#
# Total GULP energy -89155.212717 kJ/mol
# GULP energy per Si atom -5572.200795 kJ/mol
# Density = 2.543900 g / cm^3
# Si number density = 25.497036 Si / 1000 Ang^3
#
#
#
# Elastic Constant Matrix: (Units=GPa)
#
#
# Indices 1 2 3 4 5 6 
#
# 1 138.9564 31.1103 38.9381 0.0000 0.8792 0.0000
# 2 31.1103 105.1473 31.1642 0.0000 -20.9871 0.0000
# 3 38.9381 31.1642 74.5097 0.0000 -21.2646 0.0000
# 4 0.0000 0.0000 0.0000 41.4201 0.0000 -0.6995
# 5 0.8792 -20.9871 -21.2646 0.0000 59.5966 0.0000
# 6 0.0000 0.0000 0.0000 -0.6995 0.0000 37.5184
#
#
#
# Elastic Compliance Matrix: (Units=1/GPa)
#
#
# Indices 1 2 3 4 5 6 
#
# 1 0.008890 -0.001744 -0.004597 0.000000 -0.002386 0.000000
# 2 -0.001744 0.011530 -0.003056 0.000000 0.002996 0.000000
# 3 -0.004597 -0.003056 0.018720 0.000000 0.005671 0.000000
# 4 0.000000 0.000000 0.000000 0.024150 0.000000 0.000450
# 5 -0.002386 0.002996 0.005671 0.000000 0.019893 0.000000
# 6 0.000000 0.000000 0.000000 0.000450 0.000000 0.026662
#
#
# Mechanical properties :
#
#
# Convention : Reuss Voigt Hill
#
# Bulk Modulus (GPa) = 49.15057 57.89317 53.52187
# Shear Modulus (GPa) = 36.92111 42.20042 39.56076
#
# Velocity S-wave (km/s) = 3.80946 4.07272 3.94329
# Velocity P-wave (km/s) = 6.21837 6.69860 6.46295
#
# Compressibility (1/GPa) = 0.02034565
#
# Stress axis : x y z
#
# Youngs Moduli (GPa) = 112.48166 86.72860 53.41738
#
# Poissons Ratio (x) = 0.15125 0.24558
# Poissons Ratio (y) = 0.19617 0.16326
# Poissons Ratio (z) = 0.51713 0.26507
#
# Static dielectric constant tensor:
#      x y z
#    x 2.083770 0.000000 0.058980 
#    y 0.000000 2.052480 0.000000 
#    z 0.058980 0.000000 2.105550 
# 
# From -- ./inp_files/28302.got.cif
#   From: 2010.05.17/outbox.cif.g08.bks.cpg/sg14_15_cif.got.tgz:28302.got - 2010.06.03 17:49:19.
