data_PCOD9246648
_publ_section_title
;
Structure prediction by ZEFSAII (Michael W. Deem and Ramdas Pophale) SiO2 
 PCOD9246648
Probable space group: P 21/C
;
_chemical_formula_sum "Si O2"
_cell_formula_units_Z 24
_cell_length_a 5.200722
_cell_length_b 12.600211
_cell_length_c 17.554152
_cell_angle_alpha 90.000000
_cell_angle_beta 97.708672
_cell_angle_gamma 90.000000
_cell_volume 1139.931386
_symmetry_space_group_name_H-M "P 21/C"
_symmetry_group_IT_number 14
_symmetry_cell_setting 'monoclinic'
loop_
_space_group_symop_operation_xyz
x,y,z
-x,1/2+y,1/2-z
-x,-y,-z
x,1/2-y,1/2+z
loop_
_atom_site_type_symbol
_atom_site_label
_atom_site_fract_x
_atom_site_fract_y
_atom_site_fract_z
Si Si1 0.410298 0.492137 0.583428
Si Si2 0.915058 0.170064 0.520246
Si Si3 0.928185 0.369972 0.627585
Si Si4 0.800568 0.816807 0.703579
Si Si5 0.285567 0.726954 0.636382
Si Si6 0.270267 0.450620 0.941971
O O1 0.500000 0.500000 0.500000
O O2 0.141143 0.429806 0.583903
O O3 0.347332 0.608600 0.612422
O O4 0.659428 0.432991 0.630211
O O5 0.729001 0.198361 0.440449
O O6 0.878287 0.260822 0.580329
O O7 0.183684 0.154738 0.485048
O O8 0.910538 0.055340 0.560663
O O9 0.072269 0.350394 0.712742
O O10 0.523342 0.760726 0.699431
O O11 0.735294 0.915679 0.645457
O O12 0.013647 0.743734 0.668789
O O13 0.500000 0.500000 0.000000
#
# Coordination Sequence:
#
# PCOD9246648 Si02
#       6
#     4   4   4   4   4   4
#     4  12  26  44  73 102 138 185 234 278 343 423
#     4  10  23  39  68  97 128 177 229 278 335 408
#     4  12  27  45  67 106 141 177 230 293 346 412
#     4  11  25  45  68 102 139 175 225 289 351 401
#     4  11  23  44  70  96 135 182 225 276 344 413
#     4  10  21  41  68  94 128 177 230 279 331 410
#
# _framework density 21.053898
#
# number of rings (size 3 to 8) (size 9 to 14) (size 15 to 20)
#    0.000    1.000    3.333    2.500    7.000    2.667 
#    3.000    0.000    0.000    0.000    0.000    0.000 
#    0.000    0.000    0.000    0.000    0.000    0.000 
#
# Total GULP energy -133775.709616 kJ/mol
# GULP energy per Si atom -5573.987901 kJ/mol
# Density = 2.100598 g / cm^3
# Si number density = 21.053898 Si / 1000 Ang^3
#
#
#
# Elastic Constant Matrix: (Units=GPa)
#
#
# Indices 1 2 3 4 5 6 
#
# 1 93.1442 14.6122 -5.9900 0.0000 12.7661 0.0000
# 2 14.6122 77.0015 7.1216 0.0000 -1.1090 0.0000
# 3 -5.9900 7.1216 92.7217 0.0000 16.4051 0.0000
# 4 0.0000 0.0000 0.0000 18.3596 0.0000 5.3591
# 5 12.7661 -1.1090 16.4051 0.0000 33.3524 0.0000
# 6 0.0000 0.0000 0.0000 5.3591 0.0000 25.5229
#
#
#
# Elastic Compliance Matrix: (Units=1/GPa)
#
#
# Indices 1 2 3 4 5 6 
#
# 1 0.012039 -0.002549 0.001976 0.000000 -0.005665 0.000000
# 2 -0.002549 0.013651 -0.001606 0.000000 0.002219 0.000000
# 3 0.001976 -0.001606 0.012245 0.000000 -0.006833 0.000000
# 4 0.000000 0.000000 0.000000 0.058023 0.000000 -0.012183
# 5 -0.005665 0.002219 -0.006833 0.000000 0.035586 0.000000
# 6 0.000000 0.000000 0.000000 -0.012183 0.000000 0.041739
#
#
# Mechanical properties :
#
#
# Convention : Reuss Voigt Hill
#
# Bulk Modulus (GPa) = 29.78213 32.70612 31.24412
# Shear Modulus (GPa) = 26.47836 31.92189 29.20013
#
# Velocity S-wave (km/s) = 3.55018 3.89806 3.72818
# Velocity P-wave (km/s) = 5.56609 5.98565 5.77968
#
# Compressibility (1/GPa) = 0.03357718
#
# Stress axis : x y z
#
# Youngs Moduli (GPa) = 83.06061 73.25501 81.66722
#
# Poissons Ratio (x) = 0.18673 -0.16136
# Poissons Ratio (y) = 0.21172 0.13114
# Poissons Ratio (z) = -0.16411 0.11764
#
# Static dielectric constant tensor:
#      x y z
#    x 1.879050 0.000000 -0.019260 
#    y 0.000000 1.824520 0.000000 
#    z -0.019260 0.000000 1.772420 
# 
# From -- ./inp_files/53047.got.cif
#   From: 2010.05.17/outbox.cif.g08.bks.cpg/sg14_27_cif.got.tgz:53047.got - 2010.06.03 17:49:19.
