data_PCOD9246416
_publ_section_title
;
Structure prediction by ZEFSAII (Michael W. Deem and Ramdas Pophale) SiO2 
 PCOD9246416
Probable space group: P 21/C
;
_chemical_formula_sum "Si O2"
_cell_formula_units_Z 28
_cell_length_a 15.352235
_cell_length_b 8.444417
_cell_length_c 12.646715
_cell_angle_alpha 90.000000
_cell_angle_beta 60.884744
_cell_angle_gamma 90.000000
_cell_volume 1432.362239
_symmetry_space_group_name_H-M "P 21/C"
_symmetry_group_IT_number 14
_symmetry_cell_setting 'monoclinic'
loop_
_space_group_symop_operation_xyz
x,y,z
-x,1/2+y,1/2-z
-x,-y,-z
x,1/2-y,1/2+z
loop_
_atom_site_type_symbol
_atom_site_label
_atom_site_fract_x
_atom_site_fract_y
_atom_site_fract_z
Si Si1 0.255782 0.186130 0.224729
Si Si2 0.395680 0.318923 0.844073
Si Si3 0.768342 0.519864 0.910749
Si Si4 0.388701 0.569718 0.561885
Si Si5 0.394534 0.548556 0.338138
Si Si6 0.117109 0.977048 0.444419
Si Si7 0.740421 0.212169 0.238002
O O1 0.346047 0.195553 0.256588
O O2 0.222171 0.337306 0.178972
O O3 0.299941 0.058597 0.117291
O O4 0.167393 0.116168 0.346362
O O5 0.502425 0.401096 0.775711
O O6 0.402965 0.133978 0.868512
O O7 0.327264 0.423687 0.962661
O O8 0.764352 0.368034 0.836244
O O9 0.851405 0.495548 0.951675
O O10 0.500000 0.500000 0.500000
O O11 0.383396 0.652167 0.450995
O O12 0.356157 0.677895 0.679281
O O13 0.300818 0.581587 0.318716
O O14 0.171603 0.818709 0.364589
O O15 0.000000 0.000000 0.500000
#
# Coordination Sequence:
#
# PCOD9246416 Si02
#       7
#     4   4   4   4   4   4   4
#     4  10  21  41  61  90 125 169 209 261 318 383
#     4  11  24  35  59  93 135 178 214 259 301 387
#     4  11  23  43  65  92 129 169 214 265 331 379
#     4  11  21  37  57  86 129 174 206 251 312 361
#     4  12  23  36  59  92 134 176 222 251 312 375
#     4  10  25  47  68  94 126 158 218 281 329 385
#     4  11  25  40  64  93 129 170 215 261 316 394
#
# _framework density 19.548127000000001
#
# number of rings (size 3 to 8) (size 9 to 14) (size 15 to 20)
#    0.000    1.143    4.286    1.714    6.000    1.714 
#    0.000    0.714    0.000    0.000    0.000    0.000 
#    0.000    0.000    0.000    0.000    0.000    0.000 
#
# Total GULP energy -156066.345232 kJ/mol
# GULP energy per Si atom -5573.798044 kJ/mol
# Density = 1.950363 g / cm^3
# Si number density = 19.548127 Si / 1000 Ang^3
#
#
#
# Elastic Constant Matrix: (Units=GPa)
#
#
# Indices 1 2 3 4 5 6 
#
# 1 132.3618 26.3970 61.3710 0.0000 2.9219 0.0000
# 2 26.3970 51.7026 10.2420 0.0000 8.7808 0.0000
# 3 61.3710 10.2420 77.0366 0.0000 17.6834 0.0000
# 4 0.0000 0.0000 0.0000 36.5431 0.0000 10.6983
# 5 2.9219 8.7808 17.6834 0.0000 29.3373 0.0000
# 6 0.0000 0.0000 0.0000 10.6983 0.0000 18.0838
#
#
#
# Elastic Compliance Matrix: (Units=1/GPa)
#
#
# Indices 1 2 3 4 5 6 
#
# 1 0.014406 -0.006234 -0.012472 0.000000 0.007949 0.000000
# 2 -0.006234 0.023230 0.003867 0.000000 -0.008662 0.000000
# 3 -0.012472 0.003867 0.025977 0.000000 -0.015573 0.000000
# 4 0.000000 0.000000 0.000000 0.033097 0.000000 -0.019580
# 5 0.007949 -0.008662 -0.015573 0.000000 0.045274 0.000000
# 6 0.000000 0.000000 0.000000 -0.019580 0.000000 0.066882
#
#
# Mechanical properties :
#
#
# Convention : Reuss Voigt Hill
#
# Bulk Modulus (GPa) = 29.46972 50.79122 40.13047
# Shear Modulus (GPa) = 20.01153 27.66558 23.83856
#
# Velocity S-wave (km/s) = 3.20301 3.76607 3.49589
# Velocity P-wave (km/s) = 5.36537 6.70448 6.07196
#
# Compressibility (1/GPa) = 0.03393313
#
# Stress axis : x y z
#
# Youngs Moduli (GPa) = 69.41725 43.04867 38.49512
#
# Poissons Ratio (x) = 0.26837 0.48011
# Poissons Ratio (y) = 0.43276 -0.14884
# Poissons Ratio (z) = 0.86577 -0.16645
#
# Static dielectric constant tensor:
#      x y z
#    x 1.696980 0.000000 0.067630 
#    y 0.000000 1.799520 0.000000 
#    z 0.067630 0.000000 1.726660 
# 
# From -- ./inp_files/31646.got.cif
#   From: 2010.05.17/outbox.cif.g08.bks.cpg/sg14_16_cif.got.tgz:31646.got - 2010.06.03 17:49:19.
