data_PCOD9246978
_publ_section_title
;
Structure prediction by ZEFSAII (Michael W. Deem and Ramdas Pophale) SiO2 
 PCOD9246978
Probable space group: P 21/C
;
_chemical_formula_sum "Si O2"
_cell_formula_units_Z 32
_cell_length_a 20.789716
_cell_length_b 9.523426
_cell_length_c 12.863304
_cell_angle_alpha 90.000000
_cell_angle_beta 32.610506
_cell_angle_gamma 90.000000
_cell_volume 1372.533126
_symmetry_space_group_name_H-M "P 21/C"
_symmetry_group_IT_number 14
_symmetry_cell_setting 'monoclinic'
loop_
_space_group_symop_operation_xyz
x,y,z
-x,1/2+y,1/2-z
-x,-y,-z
x,1/2-y,1/2+z
loop_
_atom_site_type_symbol
_atom_site_label
_atom_site_fract_x
_atom_site_fract_y
_atom_site_fract_z
Si Si1 0.753481 0.747398 0.124808
Si Si2 0.521980 0.077855 0.635660
Si Si3 0.880895 0.160352 0.700929
Si Si4 0.305391 0.519102 0.696843
Si Si5 0.952657 0.865871 0.706785
Si Si6 0.185705 0.818424 0.520136
Si Si7 0.677118 0.452213 0.728375
Si Si8 0.458085 0.374094 0.725658
O O1 0.758661 0.632662 0.208981
O O2 0.732593 0.903590 0.194130
O O3 0.635841 0.691803 0.225871
O O4 0.856138 0.770368 0.898410
O O5 0.397519 0.999642 0.772880
O O6 0.509038 0.229306 0.705435
O O7 0.586208 0.103122 0.438554
O O8 0.589825 0.971846 0.618132
O O9 0.774895 0.113090 0.769733
O O10 0.839373 0.290956 0.825914
O O11 0.993429 0.193540 0.474177
O O12 0.910284 0.022837 0.732096
O O13 0.438337 0.536965 0.473103
O O14 0.289099 0.582182 0.835053
O O15 0.064644 0.873341 0.632599
O O16 0.226341 0.665813 0.423773
#
# Coordination Sequence:
#
# PCOD9246978 Si02
#       8
#     4   4   4   4   4   4   4   4
#     4  11  25  41  64 100 138 175 226 288 337 402
#     4  10  23  40  65  97 131 177 228 275 339 410
#     4  10  23  46  73  96 136 184 227 279 348 417
#     4  11  25  43  72 101 135 181 230 285 347 411
#     4  10  24  41  69 100 129 178 230 270 342 404
#     4  11  22  44  72  96 132 183 223 281 334 416
#     4  10  21  43  65  91 135 178 222 277 341 400
#     4  11  24  42  65 100 136 178 226 282 348 408
#
# _framework density 23.314554999999999
#
# number of rings (size 3 to 8) (size 9 to 14) (size 15 to 20)
#    0.000    1.500    2.500    1.125    8.750    2.000 
#    0.000    0.625    0.000    0.000    0.000    0.000 
#    0.000    0.000    0.000    0.000    0.000    0.000 
#
# Total GULP energy -178737.176476 kJ/mol
# GULP energy per Si atom -5585.536765 kJ/mol
# Density = 2.326149 g / cm^3
# Si number density = 23.314555 Si / 1000 Ang^3
#
#
#
# Elastic Constant Matrix: (Units=GPa)
#
#
# Indices 1 2 3 4 5 6 
#
# 1 41.0724 -2.8723 0.6741 0.0000 -3.6394 0.0000
# 2 -2.8723 75.6485 1.1739 0.0000 5.5393 0.0000
# 3 0.6741 1.1739 107.1664 0.0000 -7.3982 0.0000
# 4 0.0000 0.0000 0.0000 33.8244 0.0000 11.6729
# 5 -3.6394 5.5393 -7.3982 0.0000 17.8283 0.0000
# 6 0.0000 0.0000 0.0000 11.6729 0.0000 42.3264
#
#
#
# Elastic Compliance Matrix: (Units=1/GPa)
#
#
# Indices 1 2 3 4 5 6 
#
# 1 0.024824 0.000576 0.000180 0.000000 0.004963 0.000000
# 2 0.000576 0.013561 -0.000448 0.000000 -0.004282 0.000000
# 3 0.000180 -0.000448 0.009623 0.000000 0.004169 0.000000
# 4 0.000000 0.000000 0.000000 0.032674 0.000000 -0.009011
# 5 0.004963 -0.004282 0.004169 0.000000 0.060164 0.000000
# 6 0.000000 0.000000 0.000000 -0.009011 0.000000 0.026111
#
#
# Mechanical properties :
#
#
# Convention : Reuss Voigt Hill
#
# Bulk Modulus (GPa) = 20.56509 24.64876 22.60692
# Shear Modulus (GPa) = 27.38985 33.78990 30.58988
#
# Velocity S-wave (km/s) = 3.43125 3.81110 3.62615
# Velocity P-wave (km/s) = 4.95357 5.47369 5.22011
#
# Compressibility (1/GPa) = 0.04862610
#
# Stress axis : x y z
#
# Youngs Moduli (GPa) = 40.28293 73.73870 103.91919
#
# Poissons Ratio (x) = -0.04250 -0.01872
# Poissons Ratio (y) = -0.02322 0.04653
# Poissons Ratio (z) = -0.00726 0.03302
#
# Static dielectric constant tensor:
#      x y z
#    x 1.921500 0.000000 -0.007530 
#    y 0.000000 1.915460 0.000000 
#    z -0.007530 0.000000 1.911200 
# 
# From -- ./inp_files/51351.got.cif
#   From: 2010.05.17/outbox.cif.g08.bks.cpg/sg14_26_cif.got.tgz:51351.got - 2010.06.03 17:49:19.
