data_PCOD9246876
_publ_section_title
;
Structure prediction by ZEFSAII (Michael W. Deem and Ramdas Pophale) SiO2 
 PCOD9246876
Probable space group: P 21/C
;
_chemical_formula_sum "Si O2"
_cell_formula_units_Z 30
_cell_length_a 14.451964
_cell_length_b 14.913780
_cell_length_c 9.080184
_cell_angle_alpha 90.000000
_cell_angle_beta 130.212443
_cell_angle_gamma 90.000000
_cell_volume 1494.537881
_symmetry_space_group_name_H-M "P 21/C"
_symmetry_group_IT_number 14
_symmetry_cell_setting 'monoclinic'
loop_
_space_group_symop_operation_xyz
x,y,z
-x,1/2+y,1/2-z
-x,-y,-z
x,1/2-y,1/2+z
loop_
_atom_site_type_symbol
_atom_site_label
_atom_site_fract_x
_atom_site_fract_y
_atom_site_fract_z
Si Si1 0.114489 0.559943 0.309694
Si Si2 0.778431 0.965226 0.593197
Si Si3 0.616618 0.091478 0.997760
Si Si4 0.268525 0.227398 0.364350
Si Si5 0.552877 0.432260 0.767453
Si Si6 0.115424 0.108192 0.596010
Si Si7 0.000000 0.500000 0.500000
Si Si8 0.440913 0.256384 0.789437
O O1 0.248629 0.598959 0.426163
O O2 0.111893 0.462918 0.225194
O O3 0.074476 0.546842 0.436430
O O4 0.015025 0.617041 0.116039
O O5 0.779472 0.873884 0.690916
O O6 0.803113 0.935265 0.450281
O O7 0.887854 0.022250 0.769850
O O8 0.650490 0.013859 0.463662
O O9 0.525366 0.170193 0.855756
O O10 0.559061 0.997452 0.885837
O O11 0.613715 0.091423 0.172772
O O12 0.172690 0.299916 0.211751
O O13 0.312298 0.247049 0.574116
O O14 0.395715 0.236491 0.409717
O O15 0.507214 0.344720 0.802882
#
# Coordination Sequence:
#
# PCOD9246876 Si02
#       8
#     4   4   4   4   4   4   2   4
#     4  10  22  42  70  93 132 177 218 278 339 401
#     4  11  23  44  66  96 135 181 228 275 338 398
#     4  11  22  43  68 100 134 179 220 266 344 413
#     4  12  23  41  64 100 133 173 228 281 321 404
#     4  11  23  42  69  96 138 180 219 273 338 409
#     4  10  21  42  68  93 124 183 229 262 335 406
#     4  10  26  42  64 102 128 164 232 288 322 392
#     4  12  25  40  67 102 137 172 227 278 335 404
#
# _framework density 20.073094000000001
#
# number of rings (size 3 to 8) (size 9 to 14) (size 15 to 20)
#    0.000    1.067    5.333    0.800    3.733    1.600 
#    2.400    1.333    0.000    0.000    0.000    0.000 
#    0.000    0.000    0.000    0.000    0.000    0.000 
#
# Total GULP energy -167061.935273 kJ/mol
# GULP energy per Si atom -5568.731176 kJ/mol
# Density = 2.002741 g / cm^3
# Si number density = 20.073094 Si / 1000 Ang^3
#
#
#
# Elastic Constant Matrix: (Units=GPa)
#
#
# Indices 1 2 3 4 5 6 
#
# 1 73.5785 25.9547 22.9821 0.0000 18.9016 0.0000
# 2 25.9547 78.1499 30.5668 0.0000 -4.5138 0.0000
# 3 22.9821 30.5668 64.6536 0.0000 -3.8761 0.0000
# 4 0.0000 0.0000 0.0000 34.9079 0.0000 3.5312
# 5 18.9016 -4.5138 -3.8761 0.0000 23.5580 0.0000
# 6 0.0000 0.0000 0.0000 3.5312 0.0000 23.5003
#
#
#
# Elastic Compliance Matrix: (Units=1/GPa)
#
#
# Indices 1 2 3 4 5 6 
#
# 1 0.023261 -0.006392 -0.006503 0.000000 -0.020958 0.000000
# 2 -0.006392 0.017532 -0.005562 0.000000 0.007573 0.000000
# 3 -0.006503 -0.005562 0.020863 0.000000 0.007584 0.000000
# 4 0.000000 0.000000 0.000000 0.029089 0.000000 -0.004371
# 5 -0.020958 0.007573 0.007584 0.000000 0.061963 0.000000
# 6 0.000000 0.000000 0.000000 -0.004371 0.000000 0.043209
#
#
# Mechanical properties :
#
#
# Convention : Reuss Voigt Hill
#
# Bulk Modulus (GPa) = 40.41912 41.70992 41.06452
# Shear Modulus (GPa) = 20.74013 25.51846 23.12929
#
# Velocity S-wave (km/s) = 3.21788 3.56937 3.39817
# Velocity P-wave (km/s) = 5.82975 6.14909 5.99155
#
# Compressibility (1/GPa) = 0.02474076
#
# Stress axis : x y z
#
# Youngs Moduli (GPa) = 42.99092 57.03881 47.93164
#
# Poissons Ratio (x) = 0.36461 0.31169
# Poissons Ratio (y) = 0.27481 0.26662
# Poissons Ratio (z) = 0.27956 0.31728
#
# Static dielectric constant tensor:
#      x y z
#    x 1.710890 0.000000 0.009310 
#    y 0.000000 1.708710 0.000000 
#    z 0.009310 0.000000 1.710950 
# 
# From -- ./inp_files/16223.got.cif
#   From: 2010.05.17/outbox.cif.g08.bks.cpg/sg14_9_cif.got.tgz:16223.got - 2010.06.03 17:49:19.
