data_PCOD9246832
_publ_section_title
;
Structure prediction by ZEFSAII (Michael W. Deem and Ramdas Pophale) SiO2 
 PCOD9246832
Probable space group: P 21/C
;
_chemical_formula_sum "Si O2"
_cell_formula_units_Z 30
_cell_length_a 5.068298
_cell_length_b 18.125306
_cell_length_c 13.868197
_cell_angle_alpha 90.000000
_cell_angle_beta 111.700077
_cell_angle_gamma 90.000000
_cell_volume 1183.708985
_symmetry_space_group_name_H-M "P 21/C"
_symmetry_group_IT_number 14
_symmetry_cell_setting 'monoclinic'
loop_
_space_group_symop_operation_xyz
x,y,z
-x,1/2+y,1/2-z
-x,-y,-z
x,1/2-y,1/2+z
loop_
_atom_site_type_symbol
_atom_site_label
_atom_site_fract_x
_atom_site_fract_y
_atom_site_fract_z
Si Si1 0.054153 0.931777 0.223389
Si Si2 0.987393 0.580890 0.204034
Si Si3 0.730559 0.704933 0.268667
Si Si4 0.887975 0.694225 0.026545
Si Si5 0.627904 0.818332 0.108768
Si Si6 0.495195 0.121855 0.093242
Si Si7 0.000000 0.000000 0.000000
Si Si8 0.761213 0.307032 0.122229
O O1 0.242139 0.865890 0.291360
O O2 0.751541 0.890024 0.176722
O O3 0.070154 0.994992 0.306669
O O4 0.094818 0.967107 0.123126
O O5 0.252136 0.586409 0.313215
O O6 0.735076 0.623923 0.224400
O O7 0.012383 0.630845 0.113279
O O8 0.545963 0.759194 0.178215
O O9 0.624542 0.689971 0.360971
O O10 0.050329 0.737999 0.309783
O O11 0.874332 0.773982 0.080898
O O12 0.551417 0.686086 0.963961
O O13 0.043131 0.683223 0.946453
O O14 0.409478 0.847341 0.998739
O O15 0.251454 0.062459 0.040187
#
# Coordination Sequence:
#
# PCOD9246832 Si02
#       8
#     4   4   4   4   4   4   2   4
#     4  10  23  45  66 107 141 187 236 301 360 426
#     4  11  25  41  68  98 142 187 236 296 361 432
#     4  10  21  42  66  98 137 184 231 299 350 427
#     4  11  25  45  72 103 138 193 239 295 357 430
#     4   9  21  41  67 100 135 185 237 293 360 424
#     4  11  21  42  68 100 138 179 238 294 360 428
#     4  10  22  40  70 100 138 178 232 294 356 430
#     4  11  25  46  72 104 144 184 245 296 353 426
#
# _framework density 25.344066000000002
#
# number of rings (size 3 to 8) (size 9 to 14) (size 15 to 20)
#    0.000    1.600    2.667    0.800    3.733    4.267 
#    2.400    1.333    0.000    0.000    0.000    0.000 
#    0.000    0.000    0.000    0.000    0.000    0.000 
#
# Total GULP energy -167065.343795 kJ/mol
# GULP energy per Si atom -5568.844793 kJ/mol
# Density = 2.528638 g / cm^3
# Si number density = 25.344066 Si / 1000 Ang^3
#
#
#
# Elastic Constant Matrix: (Units=GPa)
#
#
# Indices 1 2 3 4 5 6 
#
# 1 93.3024 7.7473 23.5928 0.0000 5.9018 0.0000
# 2 7.7473 82.6548 -1.0134 0.0000 -2.5808 0.0000
# 3 23.5928 -1.0134 92.1395 0.0000 2.8055 0.0000
# 4 0.0000 0.0000 0.0000 39.7955 0.0000 -12.9587
# 5 5.9018 -2.5808 2.8055 0.0000 43.0172 0.0000
# 6 0.0000 0.0000 0.0000 -12.9587 0.0000 11.1356
#
#
#
# Elastic Compliance Matrix: (Units=1/GPa)
#
#
# Indices 1 2 3 4 5 6 
#
# 1 0.011655 -0.001175 -0.002952 0.000000 -0.001477 0.000000
# 2 -0.001175 0.012241 0.000409 0.000000 0.000869 0.000000
# 3 -0.002952 0.000409 0.011624 0.000000 -0.000328 0.000000
# 4 0.000000 0.000000 0.000000 0.040461 0.000000 0.047085
# 5 -0.001477 0.000869 -0.000328 0.000000 0.023523 0.000000
# 6 0.000000 0.000000 0.000000 0.047085 0.000000 0.144596
#
#
# Mechanical properties :
#
#
# Convention : Reuss Voigt Hill
#
# Bulk Modulus (GPa) = 35.60825 36.52779 36.06802
# Shear Modulus (GPa) = 19.16470 34.64099 26.90284
#
# Velocity S-wave (km/s) = 2.75286 3.70108 3.26161
# Velocity P-wave (km/s) = 4.91780 5.71909 5.33351
#
# Compressibility (1/GPa) = 0.02808338
#
# Stress axis : x y z
#
# Youngs Moduli (GPa) = 85.79742 81.69419 86.03206
#
# Poissons Ratio (x) = 0.09597 0.25400
# Poissons Ratio (y) = 0.10079 -0.03519
# Poissons Ratio (z) = 0.25330 -0.03341
#
# Static dielectric constant tensor:
#      x y z
#    x 2.005680 0.000000 0.019660 
#    y 0.000000 2.143590 0.000000 
#    z 0.019660 0.000000 2.064720 
# 
# From -- ./inp_files/37836.got.cif
#   From: 2010.05.17/outbox.cif.g08.bks.cpg/sg14_19_cif.got.tgz:37836.got - 2010.06.03 17:49:19.
