data_PCOD9246503
_publ_section_title
;
Structure prediction by ZEFSAII (Michael W. Deem and Ramdas Pophale) SiO2 
 PCOD9246503
Probable space group: P 21/C
;
_chemical_formula_sum "Si O2"
_cell_formula_units_Z 30
_cell_length_a 8.324295
_cell_length_b 20.443283
_cell_length_c 9.399368
_cell_angle_alpha 90.000000
_cell_angle_beta 43.415846
_cell_angle_gamma 90.000000
_cell_volume 1099.349515
_symmetry_space_group_name_H-M "P 21/C"
_symmetry_group_IT_number 14
_symmetry_cell_setting 'monoclinic'
loop_
_space_group_symop_operation_xyz
x,y,z
-x,1/2+y,1/2-z
-x,-y,-z
x,1/2-y,1/2+z
loop_
_atom_site_type_symbol
_atom_site_label
_atom_site_fract_x
_atom_site_fract_y
_atom_site_fract_z
Si Si1 0.000000 0.000000 0.000000
Si Si2 0.640256 0.664180 0.620816
Si Si3 0.215504 0.077354 0.199739
Si Si4 0.783245 0.011296 0.417168
Si Si5 0.093505 0.825145 0.411701
Si Si6 0.435388 0.918736 0.802459
Si Si7 0.996896 0.747843 0.727695
Si Si8 0.584655 0.154297 0.456930
O O1 0.196923 0.018589 0.750954
O O2 0.177273 0.943912 0.948146
O O3 0.769399 0.599041 0.476723
O O4 0.366719 0.662884 0.756943
O O5 0.765393 0.719077 0.443838
O O6 0.628185 0.670628 0.799012
O O7 0.474329 0.083439 0.094366
O O8 0.049655 0.015032 0.302284
O O9 0.068674 0.125051 0.397373
O O10 0.691913 0.085147 0.445345
O O11 0.620021 0.972037 0.624802
O O12 0.028373 0.758164 0.539995
O O13 0.031618 0.819836 0.286475
O O14 0.466729 0.856909 0.676493
O O15 0.216767 0.791503 0.645877
#
# Coordination Sequence:
#
# PCOD9246503 Si02
#       8
#     2   4   4   4   4   4   4   4
#     4  10  24  40  62  94 124 174 220 254 328 384
#     4  10  21  41  66  84 129 172 206 272 327 385
#     4  11  24  42  63  96 131 170 218 271 332 385
#     4  11  22  42  65  92 135 169 223 265 327 391
#     4  10  23  41  63  94 127 167 217 268 331 389
#     4  11  26  39  65  98 133 172 222 275 314 401
#     4  10  22  39  64  93 123 169 218 269 330 393
#     4  10  21  41  64  92 128 172 213 266 322 388
#
# _framework density 27.288867
#
# number of rings (size 3 to 8) (size 9 to 14) (size 15 to 20)
#    0.000    1.600    4.000    2.000    3.733    9.067 
#    0.000    0.000    0.000    0.000    0.000    0.000 
#    0.000    0.000    0.000    0.000    0.000    0.000 
#
# Total GULP energy -167374.995557 kJ/mol
# GULP energy per Si atom -5579.166519 kJ/mol
# Density = 2.722676 g / cm^3
# Si number density = 27.288867 Si / 1000 Ang^3
#
#
#
# Elastic Constant Matrix: (Units=GPa)
#
#
# Indices 1 2 3 4 5 6 
#
# 1 101.4490 -5.0120 20.1268 0.0000 -5.3467 0.0000
# 2 -5.0120 28.5915 36.7613 0.0000 -7.1999 0.0000
# 3 20.1268 36.7613 146.3845 0.0000 -2.6822 0.0000
# 4 0.0000 0.0000 0.0000 51.6241 0.0000 -1.9973
# 5 -5.3467 -7.1999 -2.6822 0.0000 56.3441 0.0000
# 6 0.0000 0.0000 0.0000 -1.9973 0.0000 37.3152
#
#
#
# Elastic Compliance Matrix: (Units=1/GPa)
#
#
# Indices 1 2 3 4 5 6 
#
# 1 0.010852 0.006209 -0.003020 0.000000 0.001679 0.000000
# 2 0.006209 0.057307 -0.015113 0.000000 0.007193 0.000000
# 3 -0.003020 -0.015113 0.011011 0.000000 -0.001694 0.000000
# 4 0.000000 0.000000 0.000000 0.019411 0.000000 0.001039
# 5 0.001679 0.007193 -0.001694 0.000000 0.018746 0.000000
# 6 0.000000 0.000000 0.000000 0.001039 0.000000 0.026854
#
#
# Mechanical properties :
#
#
# Convention : Reuss Voigt Hill
#
# Bulk Modulus (GPa) = 18.07684 42.24191 30.15937
# Shear Modulus (GPa) = 26.81390 44.02662 35.42026
#
# Velocity S-wave (km/s) = 3.13804 4.02102 3.60665
# Velocity P-wave (km/s) = 4.44616 6.08862 5.33102
#
# Compressibility (1/GPa) = 0.05531941
#
# Stress axis : x y z
#
# Youngs Moduli (GPa) = 92.15194 17.44992 90.81880
#
# Poissons Ratio (x) = -0.10834 0.27431
# Poissons Ratio (y) = -0.57214 1.37256
# Poissons Ratio (z) = 0.27834 0.26372
#
# Static dielectric constant tensor:
#      x y z
#    x 2.682950 0.000000 0.038110 
#    y 0.000000 2.276810 0.000000 
#    z 0.038110 0.000000 2.065990 
# 
# From -- ./inp_files/11163.got.cif
#   From: 2010.05.17/outbox.cif.g08.bks.cpg/sg14_6_cif.got.tgz:11163.got - 2010.06.03 17:49:19.
