data_PCOD9246169
_publ_section_title
;
Structure prediction by ZEFSAII (Michael W. Deem and Ramdas Pophale) SiO2 
 PCOD9246169
Probable space group: P 21/C
;
_chemical_formula_sum "Si O2"
_cell_formula_units_Z 20
_cell_length_a 5.134056
_cell_length_b 8.854685
_cell_length_c 19.201032
_cell_angle_alpha 90.000000
_cell_angle_beta 104.821534
_cell_angle_gamma 90.000000
_cell_volume 843.844216
_symmetry_space_group_name_H-M "P 21/C"
_symmetry_group_IT_number 14
_symmetry_cell_setting 'monoclinic'
loop_
_space_group_symop_operation_xyz
x,y,z
-x,1/2+y,1/2-z
-x,-y,-z
x,1/2-y,1/2+z
loop_
_atom_site_type_symbol
_atom_site_label
_atom_site_fract_x
_atom_site_fract_y
_atom_site_fract_z
Si Si1 0.671149 0.249007 0.628534
Si Si2 0.982680 0.711301 0.713998
Si Si3 0.745255 0.107585 0.492754
Si Si4 0.540650 0.496695 0.306935
Si Si5 0.550756 0.913477 0.656176
O O1 0.774681 0.227552 0.557058
O O2 0.474250 0.388994 0.629414
O O3 0.907799 0.258307 0.702408
O O4 0.528612 0.091588 0.639575
O O5 0.714955 0.611507 0.704210
O O6 0.859298 0.858084 0.666832
O O7 0.197399 0.604152 0.690340
O O8 0.642984 0.169113 0.411513
O O9 0.500000 0.000000 0.500000
O O10 0.000000 0.000000 0.500000
O O11 0.496508 0.598347 0.234385
#
# Coordination Sequence:
#
# PCOD9246169 Si02
#       5
#     4   4   4   4   4
#     4  10  21  40  64  91 123 168 217 267 323 389
#     4  11  23  38  61  93 127 164 214 272 327 387
#     4  10  22  38  62  94 126 164 215 270 320 380
#     4  11  23  38  61  93 127 164 214 272 327 387
#     4  10  21  40  64  91 123 168 217 267 323 389
#
# _framework density 23.701059000000001
#
# number of rings (size 3 to 8) (size 9 to 14) (size 15 to 20)
#    0.000    1.600    0.000    6.000    0.000    9.600 
#    0.000    2.000    0.000    0.000    0.000    1.400 
#    0.000    0.000    0.000    0.000    0.000    0.000 
#
# Total GULP energy -111801.763018 kJ/mol
# GULP energy per Si atom -5590.088151 kJ/mol
# Density = 2.364711 g / cm^3
# Si number density = 23.701059 Si / 1000 Ang^3
#
#
#
# Elastic Constant Matrix: (Units=GPa)
#
#
# Indices 1 2 3 4 5 6 
#
# 1 160.0908 29.8729 29.4594 0.0000 2.3568 0.0000
# 2 29.8729 70.6383 -2.0361 0.0000 -3.3450 0.0000
# 3 29.4594 -2.0361 100.2194 0.0000 2.8541 0.0000
# 4 0.0000 0.0000 0.0000 26.4921 0.0000 -9.2864
# 5 2.3568 -3.3450 2.8541 0.0000 33.5705 0.0000
# 6 0.0000 0.0000 0.0000 -9.2864 0.0000 48.0060
#
#
#
# Elastic Compliance Matrix: (Units=1/GPa)
#
#
# Indices 1 2 3 4 5 6 
#
# 1 0.007245 -0.003157 -0.002176 0.000000 -0.000638 0.000000
# 2 -0.003157 0.015606 0.001197 0.000000 0.001675 0.000000
# 3 -0.002176 0.001197 0.010660 0.000000 -0.000634 0.000000
# 4 0.000000 0.000000 0.000000 0.040493 0.000000 0.007833
# 5 -0.000638 0.001675 -0.000634 0.000000 0.030054 0.000000
# 6 0.000000 0.000000 0.000000 0.007833 0.000000 0.022346
#
#
# Mechanical properties :
#
#
# Convention : Reuss Voigt Hill
#
# Bulk Modulus (GPa) = 39.61932 49.50453 44.56193
# Shear Modulus (GPa) = 34.94367 39.85721 37.40044
#
# Velocity S-wave (km/s) = 3.84389 4.10526 3.97672
# Velocity P-wave (km/s) = 6.03765 6.58811 6.31888
#
# Compressibility (1/GPa) = 0.02524021
#
# Stress axis : x y z
#
# Youngs Moduli (GPa) = 138.02031 64.07981 93.80826
#
# Poissons Ratio (x) = 0.20230 0.20410
# Poissons Ratio (y) = 0.43573 -0.11232
# Poissons Ratio (z) = 0.30029 -0.07673
#
# Static dielectric constant tensor:
#      x y z
#    x 1.913890 0.000000 0.002660 
#    y 0.000000 1.942500 0.000000 
#    z 0.002660 0.000000 1.950600 
# 
# From -- ./inp_files/63126.got.cif
#   From: 2010.05.17/outbox.cif.g08.bks.cpg/sg14_32_cif.got.tgz:63126.got - 2010.06.03 17:49:19.
