data_PCOD9246452
_publ_section_title
;
Structure prediction by ZEFSAII (Michael W. Deem and Ramdas Pophale) SiO2 
 PCOD9246452
Probable space group: P 21/C
;
_chemical_formula_sum "Si O2"
_cell_formula_units_Z 32
_cell_length_a 22.422054
_cell_length_b 14.189765
_cell_length_c 16.505748
_cell_angle_alpha 90.000000
_cell_angle_beta 17.937066
_cell_angle_gamma 90.000000
_cell_volume 1617.324889
_symmetry_space_group_name_H-M "P 21/C"
_symmetry_group_IT_number 14
_symmetry_cell_setting 'monoclinic'
loop_
_space_group_symop_operation_xyz
x,y,z
-x,1/2+y,1/2-z
-x,-y,-z
x,1/2-y,1/2+z
loop_
_atom_site_type_symbol
_atom_site_label
_atom_site_fract_x
_atom_site_fract_y
_atom_site_fract_z
Si Si1 0.731236 0.389168 0.197638
Si Si2 0.816768 0.560866 0.770239
Si Si3 0.101937 0.147292 0.121758
Si Si4 0.666352 0.248618 0.419251
Si Si5 0.708480 0.598928 0.257489
Si Si6 0.732626 0.657866 0.039993
Si Si7 0.057277 0.227023 0.999481
Si Si8 0.510547 0.548914 0.897886
O O1 0.760879 0.308165 0.225001
O O2 0.733873 0.489054 0.240198
O O3 0.516864 0.376278 0.437453
O O4 0.896699 0.387761 0.917380
O O5 0.836571 0.662210 0.702770
O O6 0.000000 0.500000 0.500000
O O7 0.809459 0.584204 0.874771
O O8 0.620798 0.511595 0.993203
O O9 0.095928 0.180113 0.036468
O O10 0.155374 0.242271 0.102383
O O11 0.267912 0.067920 0.914152
O O12 0.490957 0.310254 0.682597
O O13 0.580120 0.154129 0.489978
O O14 0.830812 0.226316 0.271530
O O15 0.741931 0.615138 0.118113
O O16 0.852092 0.669053 0.116952
O O17 0.500000 0.500000 0.000000
#
# Coordination Sequence:
#
# PCOD9246452 Si02
#       8
#     4   4   4   4   4   4   4   4
#     4  10  21  41  63  87 118 172 209 259 316 377
#     4  12  24  39  67  95 129 170 210 269 324 379
#     4  10  22  40  64  91 126 164 211 257 315 386
#     4  10  22  42  63  90 132 164 215 270 315 382
#     4   9  22  41  64  86 126 163 211 260 317 386
#     4   9  22  42  59  91 129 163 205 264 316 376
#     4  11  22  40  61  98 124 165 212 263 323 381
#     4  11  23  41  64  93 130 167 213 267 319 384
#
# _framework density 19.785758999999999
#
# number of rings (size 3 to 8) (size 9 to 14) (size 15 to 20)
#    0.000    1.750    2.500    1.500    1.750    2.500 
#    2.250    8.750    0.000    0.000    0.000    0.000 
#    0.000    0.000    0.000    0.000    0.000    0.000 
#
# Total GULP energy -178679.744228 kJ/mol
# GULP energy per Si atom -5583.742007 kJ/mol
# Density = 1.974073 g / cm^3
# Si number density = 19.785759 Si / 1000 Ang^3
#
#
#
# Elastic Constant Matrix: (Units=GPa)
#
#
# Indices 1 2 3 4 5 6 
#
# 1 43.3131 23.8268 26.1346 0.0000 -5.0660 0.0000
# 2 23.8268 56.2995 18.5553 0.0000 2.9600 0.0000
# 3 26.1346 18.5553 93.4635 0.0000 6.9055 0.0000
# 4 0.0000 0.0000 0.0000 27.1129 0.0000 3.2714
# 5 -5.0660 2.9600 6.9055 0.0000 17.0898 0.0000
# 6 0.0000 0.0000 0.0000 3.2714 0.0000 33.5020
#
#
#
# Elastic Compliance Matrix: (Units=1/GPa)
#
#
# Indices 1 2 3 4 5 6 
#
# 1 0.038542 -0.014185 -0.009263 0.000000 0.017625 0.000000
# 2 -0.014185 0.024282 -0.000240 0.000000 -0.008314 0.000000
# 3 -0.009263 -0.000240 0.013954 0.000000 -0.008343 0.000000
# 4 0.000000 0.000000 0.000000 0.037323 0.000000 -0.003644
# 5 0.017625 -0.008314 -0.008343 0.000000 0.068550 0.000000
# 6 0.000000 0.000000 0.000000 -0.003644 0.000000 0.030205
#
#
# Mechanical properties :
#
#
# Convention : Reuss Voigt Hill
#
# Bulk Modulus (GPa) = 34.01295 36.67882 35.34588
# Shear Modulus (GPa) = 18.51635 23.84490 21.18062
#
# Velocity S-wave (km/s) = 3.06247 3.47530 3.27540
# Velocity P-wave (km/s) = 5.45279 5.88913 5.67516
#
# Compressibility (1/GPa) = 0.02940057
#
# Stress axis : x y z
#
# Youngs Moduli (GPa) = 25.94579 41.18333 71.66598
#
# Poissons Ratio (x) = 0.58419 0.66386
# Poissons Ratio (y) = 0.36805 0.01719
# Poissons Ratio (z) = 0.24034 0.00988
#
# Static dielectric constant tensor:
#      x y z
#    x 1.681680 0.000000 -0.012010 
#    y 0.000000 1.701260 0.000000 
#    z -0.012010 0.000000 1.695610 
# 
# From -- ./inp_files/50689.got.cif
#   From: 2010.05.17/outbox.cif.g08.bks.cpg/sg14_26_cif.got.tgz:50689.got - 2010.06.03 17:49:19.
