data_PCOD9246576
_publ_section_title
;
Structure prediction by ZEFSAII (Michael W. Deem and Ramdas Pophale) SiO2 
 PCOD9246576
Probable space group: P 21/C
;
_chemical_formula_sum "Si O2"
_cell_formula_units_Z 32
_cell_length_a 12.819754
_cell_length_b 12.187011
_cell_length_c 22.820623
_cell_angle_alpha 90.000000
_cell_angle_beta 152.919383
_cell_angle_gamma 90.000000
_cell_volume 1623.111516
_symmetry_space_group_name_H-M "P 21/C"
_symmetry_group_IT_number 14
_symmetry_cell_setting 'monoclinic'
loop_
_space_group_symop_operation_xyz
x,y,z
-x,1/2+y,1/2-z
-x,-y,-z
x,1/2-y,1/2+z
loop_
_atom_site_type_symbol
_atom_site_label
_atom_site_fract_x
_atom_site_fract_y
_atom_site_fract_z
Si Si1 0.757880 0.685203 0.748285
Si Si2 0.340852 0.474830 0.124962
Si Si3 0.537258 0.587363 0.111291
Si Si4 0.372959 0.941881 0.990138
Si Si5 0.155197 0.710888 0.850360
Si Si6 0.844483 0.097057 0.896620
Si Si7 0.979473 0.162945 0.499835
Si Si8 0.939920 0.422583 0.307968
O O1 0.644887 0.805987 0.697425
O O2 0.558921 0.602261 0.629424
O O3 0.944493 0.691641 0.789464
O O4 0.884845 0.652158 0.871017
O O5 0.395318 0.515346 0.086732
O O6 0.579639 0.435228 0.271346
O O7 0.154167 0.378695 0.037455
O O8 0.232130 0.579096 0.103739
O O9 0.748405 0.513925 0.195475
O O10 0.367325 0.635281 0.977769
O O11 0.239560 0.835097 0.899334
O O12 0.187743 0.022629 0.925509
O O13 0.500000 0.000000 0.000000
O O14 0.084817 0.676162 0.750144
O O15 0.892067 0.107656 0.851044
O O16 0.901334 0.212707 0.954293
O O17 0.000000 0.000000 0.000000
#
# Coordination Sequence:
#
# PCOD9246576 Si02
#       8
#     4   4   4   4   4   4   4   4
#     4  11  22  39  73  97 127 176 221 268 323 405
#     4  10  24  43  68  97 133 174 225 274 337 391
#     4  10  21  41  66  94 130 174 222 264 331 398
#     4  11  24  43  67 100 132 170 220 272 330 395
#     4  11  22  41  68  96 129 174 214 275 326 397
#     4  11  27  44  70  98 138 179 223 282 332 397
#     4  11  24  45  67 101 133 176 230 275 333 400
#     4  11  23  45  62 100 130 171 218 270 340 387
#
# _framework density 19.715219000000001
#
# number of rings (size 3 to 8) (size 9 to 14) (size 15 to 20)
#    0.000    1.250    3.750    1.875    5.250    0.000 
#   11.250    0.000    0.000    0.000    0.000    0.000 
#    0.000    0.000    0.000    0.000    0.000    0.000 
#
# Total GULP energy -178908.028500 kJ/mol
# GULP energy per Si atom -5590.875891 kJ/mol
# Density = 1.967035 g / cm^3
# Si number density = 19.715219 Si / 1000 Ang^3
#
#
#
# Elastic Constant Matrix: (Units=GPa)
#
#
# Indices 1 2 3 4 5 6 
#
# 1 80.3827 10.4876 43.8543 0.0000 12.4885 0.0000
# 2 10.4876 79.2453 52.7960 0.0000 3.6666 0.0000
# 3 43.8543 52.7960 102.4496 0.0000 10.8894 0.0000
# 4 0.0000 0.0000 0.0000 32.7751 0.0000 4.5335
# 5 12.4885 3.6666 10.8894 0.0000 34.7444 0.0000
# 6 0.0000 0.0000 0.0000 4.5335 0.0000 17.1229
#
#
#
# Elastic Compliance Matrix: (Units=1/GPa)
#
#
# Indices 1 2 3 4 5 6 
#
# 1 0.017492 0.003928 -0.009102 0.000000 -0.003849 0.000000
# 2 0.003928 0.020140 -0.012087 0.000000 0.000251 0.000000
# 3 -0.009102 -0.012087 0.020071 0.000000 -0.001743 0.000000
# 4 0.000000 0.000000 0.000000 0.031671 0.000000 -0.008385
# 5 -0.003849 0.000251 -0.001743 0.000000 0.030685 0.000000
# 6 0.000000 0.000000 0.000000 -0.008385 0.000000 0.060621
#
#
# Mechanical properties :
#
#
# Convention : Reuss Voigt Hill
#
# Bulk Modulus (GPa) = 43.14058 52.92816 48.03437
# Shear Modulus (GPa) = 22.42841 27.25780 24.84310
#
# Velocity S-wave (km/s) = 3.37652 3.72234 3.55364
# Velocity P-wave (km/s) = 6.09348 6.73639 6.42299
#
# Compressibility (1/GPa) = 0.02318003
#
# Stress axis : x y z
#
# Youngs Moduli (GPa) = 57.16866 49.65148 49.82209
#
# Poissons Ratio (x) = -0.19501 0.45351
# Poissons Ratio (y) = -0.22453 0.60220
# Poissons Ratio (z) = 0.52038 0.60014
#
# Static dielectric constant tensor:
#      x y z
#    x 1.684580 0.000000 0.007080 
#    y 0.000000 1.665980 0.000000 
#    z 0.007080 0.000000 1.679690 
# 
# From -- ./inp_files/35273.got.cif
#   From: 2010.05.17/outbox.cif.g08.bks.cpg/sg14_18_cif.got.tgz:35273.got - 2010.06.03 17:49:19.
