data_PCOD9246057
_publ_section_title
;
Structure prediction by ZEFSAII (Michael W. Deem and Ramdas Pophale) SiO2 
 PCOD9246057
Probable space group: P 21/C
;
_chemical_formula_sum "Si O2"
_cell_formula_units_Z 20
_cell_length_a 10.570494
_cell_length_b 12.027877
_cell_length_c 11.772864
_cell_angle_alpha 90.000000
_cell_angle_beta 36.004565
_cell_angle_gamma 90.000000
_cell_volume 879.898741
_symmetry_space_group_name_H-M "P 21/C"
_symmetry_group_IT_number 14
_symmetry_cell_setting 'monoclinic'
loop_
_space_group_symop_operation_xyz
x,y,z
-x,1/2+y,1/2-z
-x,-y,-z
x,1/2-y,1/2+z
loop_
_atom_site_type_symbol
_atom_site_label
_atom_site_fract_x
_atom_site_fract_y
_atom_site_fract_z
Si Si1 0.274354 0.058788 0.858608
Si Si2 0.134612 0.674003 0.369607
Si Si3 0.718324 0.518996 0.086672
Si Si4 0.909609 0.632818 0.168048
Si Si5 0.606151 0.679819 0.962410
O O1 0.324944 0.103762 0.694567
O O2 0.189484 0.932582 0.909064
O O3 0.503890 0.055865 0.752745
O O4 0.079473 0.135758 0.041405
O O5 0.068688 0.779772 0.490540
O O6 0.349574 0.696506 0.143190
O O7 0.661288 0.613893 0.037113
O O8 0.928616 0.453135 0.890840
O O9 0.781046 0.569186 0.162209
O O10 0.738603 0.706875 0.358637
#
# Coordination Sequence:
#
# PCOD9246057 Si02
#       5
#     4   4   4   4   4
#     4   9  19  36  60  88 117 155 203 250 298 358
#     4   9  18  36  59  86 117 154 202 246 297 356
#     4  10  21  40  61  89 129 160 199 255 304 364
#     4  10  23  40  59  91 127 160 200 250 307 360
#     4  10  21  40  65  90 118 160 206 248 302 365
#
# _framework density 22.729890000000001
#
# number of rings (size 3 to 8) (size 9 to 14) (size 15 to 20)
#    0.000    2.400    0.000    2.400    0.000    9.600 
#    0.000   20.000    0.000    0.000    0.000    0.000 
#    0.000    0.000    0.000    0.000    0.000    0.000 
#
# Total GULP energy -111803.823432 kJ/mol
# GULP energy per Si atom -5590.191172 kJ/mol
# Density = 2.267816 g / cm^3
# Si number density = 22.729890 Si / 1000 Ang^3
#
#
#
# Elastic Constant Matrix: (Units=GPa)
#
#
# Indices 1 2 3 4 5 6 
#
# 1 75.8019 11.2902 56.3801 0.0000 -25.3820 0.0000
# 2 11.2902 31.8728 39.9535 0.0000 -11.8613 0.0000
# 3 56.3801 39.9535 167.5185 0.0000 -41.2752 0.0000
# 4 0.0000 0.0000 0.0000 15.9061 0.0000 -31.3533
# 5 -25.3820 -11.8613 -41.2752 0.0000 29.6232 0.0000
# 6 0.0000 0.0000 0.0000 -31.3533 0.0000 -17.3567
#
#
#
# Elastic Compliance Matrix: (Units=1/GPa)
#
#
# Indices 1 2 3 4 5 6 
#
# 1 0.020188 0.003054 -0.004507 0.000000 0.012241 0.000000
# 2 0.003054 0.045640 -0.010302 0.000000 0.006536 0.000000
# 3 -0.004507 -0.010302 0.012145 0.000000 0.008936 0.000000
# 4 0.000000 0.000000 0.000000 0.013785 0.000000 -0.024901
# 5 0.012241 0.006536 0.008936 0.000000 0.059313 0.000000
# 6 0.000000 0.000000 0.000000 -0.024901 0.000000 -0.012633
#
#
# Mechanical properties :
#
#
# Convention : Reuss Voigt Hill
#
# Bulk Modulus (GPa) = 18.36138 54.49342 36.42740
# Shear Modulus (GPa) = 27.76169 16.80581 22.28375
#
# Velocity S-wave (km/s) = 3.49861 2.72209 3.13449
# Velocity P-wave (km/s) = 4.94125 5.82289 5.40009
#
# Compressibility (1/GPa) = 0.05446214
#
# Stress axis : x y z
#
# Youngs Moduli (GPa) = 49.53320 21.91066 82.33765
#
# Poissons Ratio (x) = -0.06691 0.37108
# Poissons Ratio (y) = -0.15126 0.84828
# Poissons Ratio (z) = 0.22324 0.22573
#
# Static dielectric constant tensor:
#      x y z
#    x 1.845230 0.000000 -0.010370 
#    y 0.000000 1.833890 0.000000 
#    z -0.010370 0.000000 1.859200 
# 
# From -- ./inp_files/44558.got.cif
#   From: 2010.05.17/outbox.cif.g08.bks.cpg/sg14_23_cif.got.tgz:44558.got - 2010.06.03 17:49:19.
