data_PCOD9246280
_publ_section_title
;
Structure prediction by ZEFSAII (Michael W. Deem and Ramdas Pophale) SiO2 
 PCOD9246280
Probable space group: P 21/C
;
_chemical_formula_sum "Si O2"
_cell_formula_units_Z 28
_cell_length_a 13.464002
_cell_length_b 14.689608
_cell_length_c 8.764376
_cell_angle_alpha 90.000000
_cell_angle_beta 136.110072
_cell_angle_gamma 90.000000
_cell_volume 1201.741364
_symmetry_space_group_name_H-M "P 21/C"
_symmetry_group_IT_number 14
_symmetry_cell_setting 'monoclinic'
loop_
_space_group_symop_operation_xyz
x,y,z
-x,1/2+y,1/2-z
-x,-y,-z
x,1/2-y,1/2+z
loop_
_atom_site_type_symbol
_atom_site_label
_atom_site_fract_x
_atom_site_fract_y
_atom_site_fract_z
Si Si1 0.060223 0.638072 0.515848
Si Si2 0.618576 0.478450 0.499158
Si Si3 0.039100 0.273829 0.318485
Si Si4 0.103176 0.559737 0.010059
Si Si5 0.630913 0.675137 0.351797
Si Si6 0.196259 0.015926 0.285116
Si Si7 0.468426 0.354505 0.084753
O O1 0.198048 0.575444 0.685500
O O2 0.006910 0.677113 0.299644
O O3 0.054675 0.715885 0.634115
O O4 0.927214 0.576910 0.426296
O O5 0.500000 0.500000 0.500000
O O6 0.752005 0.433051 0.733240
O O7 0.650649 0.577716 0.458011
O O8 0.572803 0.407811 0.315815
O O9 0.210825 0.286615 0.523237
O O10 0.980471 0.351102 0.139047
O O11 0.149933 0.511726 0.903327
O O12 0.000000 0.500000 0.000000
O O13 0.567080 0.754716 0.387153
O O14 0.524134 0.659849 0.090029
O O15 0.333964 0.076673 0.443004
#
# Coordination Sequence:
#
# PCOD9246280 Si02
#       7
#     4   4   4   4   4   4   4
#     4  10  22  36  63 100 140 176 223 293 351 410
#     4  12  26  47  71 101 147 186 235 299 356 425
#     4  11  21  40  65 101 133 178 237 283 343 423
#     4  11  24  41  70 103 136 180 233 293 354 413
#     4  12  24  44  75 102 136 192 243 284 355 438
#     4  10  21  40  66  98 139 180 228 289 359 412
#     4  12  25  46  73 103 142 190 242 289 358 431
#
# _framework density 23.299522
#
# number of rings (size 3 to 8) (size 9 to 14) (size 15 to 20)
#    0.000    0.857    5.714    1.286    2.000    0.000 
#    2.571    1.429    0.000    0.000    0.000    0.000 
#    0.000    0.000    0.000    0.000    0.000    0.000 
#
# Total GULP energy -156372.854767 kJ/mol
# GULP energy per Si atom -5584.744813 kJ/mol
# Density = 2.324649 g / cm^3
# Si number density = 23.299522 Si / 1000 Ang^3
#
#
#
# Elastic Constant Matrix: (Units=GPa)
#
#
# Indices 1 2 3 4 5 6 
#
# 1 28.8895 1.4786 12.6434 0.0000 -4.9691 0.0000
# 2 1.4786 75.1994 22.6493 0.0000 -14.0927 0.0000
# 3 12.6434 22.6493 150.5488 0.0000 -2.2480 0.0000
# 4 0.0000 0.0000 0.0000 52.2115 0.0000 -12.5577
# 5 -4.9691 -14.0927 -2.2480 0.0000 29.2458 0.0000
# 6 0.0000 0.0000 0.0000 -12.5577 0.0000 23.2647
#
#
#
# Elastic Compliance Matrix: (Units=1/GPa)
#
#
# Indices 1 2 3 4 5 6 
#
# 1 0.037125 0.001520 -0.003245 0.000000 0.006791 0.000000
# 2 0.001520 0.015373 -0.002329 0.000000 0.007487 0.000000
# 3 -0.003245 -0.002329 0.007249 0.000000 -0.001116 0.000000
# 4 0.000000 0.000000 0.000000 0.022010 0.000000 0.011881
# 5 0.006791 0.007487 -0.001116 0.000000 0.038869 0.000000
# 6 0.000000 0.000000 0.000000 0.011881 0.000000 0.049396
#
#
# Mechanical properties :
#
#
# Convention : Reuss Voigt Hill
#
# Bulk Modulus (GPa) = 19.36526 36.46446 27.91486
# Shear Modulus (GPa) = 25.59616 35.46882 30.53249
#
# Velocity S-wave (km/s) = 3.31806 3.90590 3.62392
# Velocity P-wave (km/s) = 4.79676 6.00214 5.43298
#
# Compressibility (1/GPa) = 0.05163885
#
# Stress axis : x y z
#
# Youngs Moduli (GPa) = 26.93599 65.05119 137.95862
#
# Poissons Ratio (x) = -0.09888 0.44769
# Poissons Ratio (y) = -0.04094 0.32125
# Poissons Ratio (z) = 0.08741 0.15148
#
# Static dielectric constant tensor:
#      x y z
#    x 1.963520 0.000000 -0.079600 
#    y 0.000000 1.954910 0.000000 
#    z -0.079600 0.000000 1.996910 
# 
# From -- ./inp_files/12998.got.cif
#   From: 2010.05.17/outbox.cif.g08.bks.cpg/sg14_7_cif.got.tgz:12998.got - 2010.06.03 17:49:19.
