data_PCOD9246700
_publ_section_title
;
Structure prediction by ZEFSAII (Michael W. Deem and Ramdas Pophale) SiO2 
 PCOD9246700
Probable space group: P 21/C
;
_chemical_formula_sum "Si O2"
_cell_formula_units_Z 20
_cell_length_a 10.640060
_cell_length_b 8.790950
_cell_length_c 12.762727
_cell_angle_alpha 90.000000
_cell_angle_beta 39.348401
_cell_angle_gamma 90.000000
_cell_volume 756.895906
_symmetry_space_group_name_H-M "P 21/C"
_symmetry_group_IT_number 14
_symmetry_cell_setting 'monoclinic'
loop_
_space_group_symop_operation_xyz
x,y,z
-x,1/2+y,1/2-z
-x,-y,-z
x,1/2-y,1/2+z
loop_
_atom_site_type_symbol
_atom_site_label
_atom_site_fract_x
_atom_site_fract_y
_atom_site_fract_z
Si Si1 0.881463 0.223326 0.880605
Si Si2 0.436530 0.674575 0.049275
Si Si3 0.841206 0.931341 0.019293
Si Si4 0.595354 0.372192 0.235283
Si Si5 0.229738 0.167616 0.292026
O O1 0.793716 0.292394 0.830442
O O2 0.089508 0.286206 0.786209
O O3 0.734649 0.292010 0.062581
O O4 0.881197 0.040170 0.892728
O O5 0.561687 0.768786 0.884023
O O6 0.500000 0.500000 0.000000
O O7 0.479536 0.749279 0.132787
O O8 0.600904 0.953174 0.184407
O O9 0.843869 0.754412 0.055036
O O10 0.000000 0.000000 0.000000
O O11 0.731744 0.494249 0.206801
#
# Coordination Sequence:
#
# PCOD9246700 Si02
#       5
#     4   4   4   4   4
#     4  11  25  46  68 102 140 178 232 285 351 418
#     4  12  27  45  69 102 140 187 232 288 346 413
#     4  10  21  41  73  97 135 178 225 278 351 410
#     4  12  23  45  73 100 139 185 233 287 352 415
#     4  11  24  45  70 102 136 181 232 287 351 416
#
# _framework density 26.423715000000001
#
# number of rings (size 3 to 8) (size 9 to 14) (size 15 to 20)
#    0.000    0.800    4.000    2.400    2.800    1.600 
#   10.800    0.000    0.000    0.000    0.000    0.000 
#    0.000    0.000    0.000    0.000    0.000    0.000 
#
# Total GULP energy -111808.051335 kJ/mol
# GULP energy per Si atom -5590.402567 kJ/mol
# Density = 2.636357 g / cm^3
# Si number density = 26.423715 Si / 1000 Ang^3
#
#
#
# Elastic Constant Matrix: (Units=GPa)
#
#
# Indices 1 2 3 4 5 6 
#
# 1 59.3403 21.1581 -9.0085 0.0000 -25.5318 0.0000
# 2 21.1581 154.0114 25.4001 0.0000 12.0736 0.0000
# 3 -9.0085 25.4001 39.8159 0.0000 -4.8168 0.0000
# 4 0.0000 0.0000 0.0000 43.1733 0.0000 3.6196
# 5 -25.5318 12.0736 -4.8168 0.0000 48.9117 0.0000
# 6 0.0000 0.0000 0.0000 3.6196 0.0000 46.5578
#
#
#
# Elastic Compliance Matrix: (Units=1/GPa)
#
#
# Indices 1 2 3 4 5 6 
#
# 1 0.030030 -0.007955 0.014172 0.000000 0.019035 0.000000
# 2 -0.007955 0.009623 -0.008833 0.000000 -0.007398 0.000000
# 3 0.014172 -0.008833 0.035539 0.000000 0.013078 0.000000
# 4 0.000000 0.000000 0.000000 0.023314 0.000000 -0.001813
# 5 0.019035 -0.007398 0.013078 0.000000 0.033495 0.000000
# 6 0.000000 0.000000 0.000000 -0.001813 0.000000 0.021620
#
#
# Mechanical properties :
#
#
# Convention : Reuss Voigt Hill
#
# Bulk Modulus (GPa) = 14.29413 36.47411 25.38412
# Shear Modulus (GPa) = 27.44632 42.10307 34.77469
#
# Velocity S-wave (km/s) = 3.22638 3.99605 3.63166
# Velocity P-wave (km/s) = 4.39326 5.92661 5.21658
#
# Compressibility (1/GPa) = 0.06995879
#
# Stress axis : x y z
#
# Youngs Moduli (GPa) = 33.30033 103.92122 28.13774
#
# Poissons Ratio (x) = 0.82669 -0.39877
# Poissons Ratio (y) = 0.26490 0.24855
# Poissons Ratio (z) = -0.47193 0.91799
#
# Static dielectric constant tensor:
#      x y z
#    x 2.166890 0.000000 0.045790 
#    y 0.000000 2.041960 0.000000 
#    z 0.045790 0.000000 2.105660 
# 
# From -- ./inp_files/56727.got.cif
#   From: 2010.05.17/outbox.cif.g08.bks.cpg/sg14_29_cif.got.tgz:56727.got - 2010.06.03 17:49:19.
