data_PCOD9246530
_publ_section_title
;
Structure prediction by ZEFSAII (Michael W. Deem and Ramdas Pophale) SiO2 
 PCOD9246530
Probable space group: P 21/C
;
_chemical_formula_sum "Si O2"
_cell_formula_units_Z 26
_cell_length_a 12.709691
_cell_length_b 9.117190
_cell_length_c 8.501874
_cell_angle_alpha 90.000000
_cell_angle_beta 93.645507
_cell_angle_gamma 90.000000
_cell_volume 983.175381
_symmetry_space_group_name_H-M "P 21/C"
_symmetry_group_IT_number 14
_symmetry_cell_setting 'monoclinic'
loop_
_space_group_symop_operation_xyz
x,y,z
-x,1/2+y,1/2-z
-x,-y,-z
x,1/2-y,1/2+z
loop_
_atom_site_type_symbol
_atom_site_label
_atom_site_fract_x
_atom_site_fract_y
_atom_site_fract_z
Si Si1 0.718354 0.350639 0.469177
Si Si2 0.434769 0.069703 0.212944
Si Si3 0.138721 0.411218 0.560269
Si Si4 0.000000 0.000000 0.500000
Si Si5 0.331023 0.215037 0.502161
Si Si6 0.322695 0.558298 0.185141
Si Si7 0.988952 0.768476 0.217196
O O1 0.620987 0.429292 0.369188
O O2 0.823832 0.423175 0.408031
O O3 0.705217 0.180217 0.443558
O O4 0.717619 0.386836 0.652375
O O5 0.364317 0.133145 0.348103
O O6 0.431837 0.199598 0.083126
O O7 0.551267 0.039944 0.283530
O O8 0.243208 0.339256 0.491328
O O9 0.050732 0.375984 0.424448
O O10 0.109853 0.320889 0.712238
O O11 0.023358 0.876492 0.361628
O O12 0.041255 0.874102 0.637548
O O13 0.284206 0.095557 0.616793
#
# Coordination Sequence:
#
# PCOD9246530 Si02
#       7
#     4   4   4   2   4   4   4
#     4  11  23  37  55  83 119 160 215 260 325 382
#     4  11  21  36  55  79 113 164 213 272 327 373
#     4  10  21  41  65  90 125 172 201 256 322 404
#     4  10  24  44  76 110 138 176 212 270 318 414
#     4  11  21  36  59  84 114 158 217 256 319 386
#     4  12  22  36  53  81 120 160 215 280 317 366
#     4  10  22  46  73 102 138 169 216 261 334 400
#
# _framework density 26.444925000000001
#
# number of rings (size 3 to 8) (size 9 to 14) (size 15 to 20)
#    0.000    1.231    0.000    8.308    0.000    2.462 
#    0.000   10.769    0.000    0.000    0.000    0.000 
#    0.000    0.000    0.000    0.000    0.000    0.000 
#
# Total GULP energy -145108.589981 kJ/mol
# GULP energy per Si atom -5581.099615 kJ/mol
# Density = 2.638474 g / cm^3
# Si number density = 26.444925 Si / 1000 Ang^3
#
#
#
# Elastic Constant Matrix: (Units=GPa)
#
#
# Indices 1 2 3 4 5 6 
#
# 1 47.3725 19.2045 12.9034 0.0000 0.6871 0.0000
# 2 19.2045 130.1641 22.4247 0.0000 13.2680 0.0000
# 3 12.9034 22.4247 68.6139 0.0000 0.3653 0.0000
# 4 0.0000 0.0000 0.0000 50.1121 0.0000 -4.9828
# 5 0.6871 13.2680 0.3653 0.0000 23.2055 0.0000
# 6 0.0000 0.0000 0.0000 -4.9828 0.0000 23.3969
#
#
#
# Elastic Compliance Matrix: (Units=1/GPa)
#
#
# Indices 1 2 3 4 5 6 
#
# 1 0.023217 -0.002945 -0.003409 0.000000 0.001050 0.000000
# 2 -0.002945 0.009040 -0.002374 0.000000 -0.005044 0.000000
# 3 -0.003409 -0.002374 0.015985 0.000000 0.001207 0.000000
# 4 0.000000 0.000000 0.000000 0.020387 0.000000 0.004342
# 5 0.001050 -0.005044 0.001207 0.000000 0.045927 0.000000
# 6 0.000000 0.000000 0.000000 0.004342 0.000000 0.043665
#
#
# Mechanical properties :
#
#
# Convention : Reuss Voigt Hill
#
# Bulk Modulus (GPa) = 32.48286 39.46842 35.97564
# Shear Modulus (GPa) = 26.89047 32.11741 29.50394
#
# Velocity S-wave (km/s) = 3.19226 3.48875 3.34380
# Velocity P-wave (km/s) = 5.08894 5.58441 5.34242
#
# Compressibility (1/GPa) = 0.03078547
#
# Stress axis : x y z
#
# Youngs Moduli (GPa) = 43.07266 110.61591 62.55923
#
# Poissons Ratio (x) = 0.32578 0.21327
# Poissons Ratio (y) = 0.12685 0.14851
# Poissons Ratio (z) = 0.14684 0.26259
#
# Static dielectric constant tensor:
#      x y z
#    x 2.130320 0.000000 -0.007040 
#    y 0.000000 2.003430 0.000000 
#    z -0.007040 0.000000 2.082200 
# 
# From -- ./inp_files/17465.got.cif
#   From: 2010.05.17/outbox.cif.g08.bks.cpg/sg14_9_cif.got.tgz:17465.got - 2010.06.03 17:49:19.
