data_PCOD9246862
_publ_section_title
;
Structure prediction by ZEFSAII (Michael W. Deem and Ramdas Pophale) SiO2 
 PCOD9246862
Probable space group: P 21/C
;
_chemical_formula_sum "Si O2"
_cell_formula_units_Z 20
_cell_length_a 10.160932
_cell_length_b 6.678065
_cell_length_c 26.731480
_cell_angle_alpha 90.000000
_cell_angle_beta 152.084778
_cell_angle_gamma 90.000000
_cell_volume 849.191727
_symmetry_space_group_name_H-M "P 21/C"
_symmetry_group_IT_number 14
_symmetry_cell_setting 'monoclinic'
loop_
_space_group_symop_operation_xyz
x,y,z
-x,1/2+y,1/2-z
-x,-y,-z
x,1/2-y,1/2+z
loop_
_atom_site_type_symbol
_atom_site_label
_atom_site_fract_x
_atom_site_fract_y
_atom_site_fract_z
Si Si1 0.740779 0.708824 0.684783
Si Si2 0.028215 0.456466 0.335839
Si Si3 0.214790 0.884452 0.417658
Si Si4 0.297408 0.598220 0.609635
Si Si5 0.199885 0.628144 0.165188
O O1 0.802196 0.670670 0.647998
O O2 0.448802 0.632789 0.607770
O O3 0.981188 0.584629 0.795519
O O4 0.786333 0.930331 0.722451
O O5 0.900772 0.320526 0.336233
O O6 0.213880 0.642759 0.417909
O O7 0.056853 0.972683 0.413127
O O8 0.500000 0.000000 0.500000
O O9 0.516694 0.464555 0.715891
O O10 0.255824 0.799181 0.628076
O O11 0.000000 0.500000 0.500000
#
# Coordination Sequence:
#
# PCOD9246862 Si02
#       5
#     4   4   4   4   4
#     4   9  20  40  62  96 136 168 233 282 343 420
#     4  10  21  42  67  96 137 179 222 302 347 412
#     4   9  22  39  66  99 133 178 227 285 362 410
#     4  11  25  45  70 101 139 193 232 291 364 427
#     4  11  24  46  68 100 146 180 240 299 347 438
#
# _framework density 23.551808999999999
#
# number of rings (size 3 to 8) (size 9 to 14) (size 15 to 20)
#    1.200    0.800    0.000    3.600    2.800    0.800 
#    3.600    4.000    0.000    0.000    0.000    0.000 
#    0.000    0.000    0.000    0.000    0.000    0.000 
#
# Total GULP energy -111704.185851 kJ/mol
# GULP energy per Si atom -5585.209293 kJ/mol
# Density = 2.349820 g / cm^3
# Si number density = 23.551809 Si / 1000 Ang^3
#
#
#
# Elastic Constant Matrix: (Units=GPa)
#
#
# Indices 1 2 3 4 5 6 
#
# 1 122.5066 29.9296 32.8818 0.0000 16.5062 0.0000
# 2 29.9296 95.9932 13.5254 0.0000 -2.1060 0.0000
# 3 32.8818 13.5254 101.4170 0.0000 24.4017 0.0000
# 4 0.0000 0.0000 0.0000 21.3230 0.0000 3.0353
# 5 16.5062 -2.1060 24.4017 0.0000 26.3252 0.0000
# 6 0.0000 0.0000 0.0000 3.0353 0.0000 48.8850
#
#
#
# Elastic Compliance Matrix: (Units=1/GPa)
#
#
# Indices 1 2 3 4 5 6 
#
# 1 0.010009 -0.002999 -0.001644 0.000000 -0.004992 0.000000
# 2 -0.002999 0.011676 -0.001624 0.000000 0.004320 0.000000
# 3 -0.001644 -0.001624 0.013377 0.000000 -0.011498 0.000000
# 4 0.000000 0.000000 0.000000 0.047316 0.000000 -0.002938
# 5 -0.004992 0.004320 -0.011498 0.000000 0.052120 0.000000
# 6 0.000000 0.000000 0.000000 -0.002938 0.000000 0.020639
#
#
# Mechanical properties :
#
#
# Convention : Reuss Voigt Hill
#
# Bulk Modulus (GPa) = 44.39049 52.51004 48.45027
# Shear Modulus (GPa) = 28.54210 35.54532 32.04371
#
# Velocity S-wave (km/s) = 3.48499 3.88911 3.69258
# Velocity P-wave (km/s) = 5.92305 6.52003 6.22870
#
# Compressibility (1/GPa) = 0.02252735
#
# Stress axis : x y z
#
# Youngs Moduli (GPa) = 99.90681 85.64591 74.75754
#
# Poissons Ratio (x) = 0.25682 0.12293
# Poissons Ratio (y) = 0.29958 0.12143
# Poissons Ratio (z) = 0.16428 0.13912
#
# Static dielectric constant tensor:
#      x y z
#    x 1.838430 0.000000 -0.012960 
#    y 0.000000 1.937330 0.000000 
#    z -0.012960 0.000000 1.925820 
# 
# From -- ./inp_files/79842.got.cif
#   From: 2010.05.17/outbox.cif.g08.bks.cpg/sg14_40_cif.got.tgz:79842.got - 2010.06.03 17:49:19.
