data_PCOD9246488
_publ_section_title
;
Structure prediction by ZEFSAII (Michael W. Deem and Ramdas Pophale) SiO2 
 PCOD9246488
Probable space group: P 21/C
;
_chemical_formula_sum "Si O2"
_cell_formula_units_Z 32
_cell_length_a 9.675554
_cell_length_b 10.470005
_cell_length_c 15.264849
_cell_angle_alpha 90.000000
_cell_angle_beta 60.934736
_cell_angle_gamma 90.000000
_cell_volume 1351.636529
_symmetry_space_group_name_H-M "P 21/C"
_symmetry_group_IT_number 14
_symmetry_cell_setting 'monoclinic'
loop_
_space_group_symop_operation_xyz
x,y,z
-x,1/2+y,1/2-z
-x,-y,-z
x,1/2-y,1/2+z
loop_
_atom_site_type_symbol
_atom_site_label
_atom_site_fract_x
_atom_site_fract_y
_atom_site_fract_z
Si Si1 0.996011 0.922453 0.272201
Si Si2 0.818617 0.046871 0.492814
Si Si3 0.616711 0.406406 0.590426
Si Si4 0.902808 0.709059 0.048011
Si Si5 0.477212 0.144601 0.612663
Si Si6 0.209040 0.046845 0.817316
Si Si7 0.671324 0.446155 0.376882
Si Si8 0.787550 0.777897 0.896837
O O1 0.936882 0.990261 0.201220
O O2 0.914994 0.783986 0.293664
O O3 0.181642 0.899252 0.224488
O O4 0.914504 0.994048 0.378913
O O5 0.637493 0.078890 0.533497
O O6 0.914311 0.172739 0.493455
O O7 0.827904 0.933364 0.562260
O O8 0.528555 0.276671 0.646139
O O9 0.753184 0.453055 0.613552
O O10 0.659738 0.379120 0.474999
O O11 0.494392 0.527324 0.619600
O O12 0.832259 0.811023 0.135890
O O13 0.863969 0.772956 0.967448
O O14 0.366550 0.059213 0.709208
O O15 0.365928 0.187331 0.566367
O O16 0.728471 0.587118 0.385482
#
# Coordination Sequence:
#
# PCOD9246488 Si02
#       8
#     4   4   4   4   4   4   4   4
#     4  10  24  38  64  92 124 172 208 264 313 372
#     4  10  24  43  65  95 124 170 214 260 318 374
#     4  10  23  41  64  95 126 172 208 262 319 374
#     4  10  22  41  68  89 127 167 210 266 309 372
#     4  10  24  41  66  93 131 166 210 261 314 383
#     4  11  24  41  63  96 130 165 211 263 316 373
#     4  10  21  41  64  88 130 166 213 257 319 380
#     4   9  20  42  61  92 124 169 207 263 320 362
#
# _framework density 23.675004000000001
#
# number of rings (size 3 to 8) (size 9 to 14) (size 15 to 20)
#    0.000    2.000    1.250    0.000    8.750    8.000 
#    0.000    0.000    0.000    0.000    0.000    0.000 
#    0.000    0.000    0.000    0.000    0.000    0.000 
#
# Total GULP energy -178748.950130 kJ/mol
# GULP energy per Si atom -5585.904692 kJ/mol
# Density = 2.362112 g / cm^3
# Si number density = 23.675004 Si / 1000 Ang^3
#
#
#
# Elastic Constant Matrix: (Units=GPa)
#
#
# Indices 1 2 3 4 5 6 
#
# 1 67.7282 -1.4967 19.7606 0.0000 -6.2971 0.0000
# 2 -1.4967 49.4505 -1.7261 0.0000 0.8242 0.0000
# 3 19.7606 -1.7261 61.9846 0.0000 -1.6807 0.0000
# 4 0.0000 0.0000 0.0000 24.9393 0.0000 -2.0532
# 5 -6.2971 0.8242 -1.6807 0.0000 47.5322 0.0000
# 6 0.0000 0.0000 0.0000 -2.0532 0.0000 31.5490
#
#
#
# Elastic Compliance Matrix: (Units=1/GPa)
#
#
# Indices 1 2 3 4 5 6 
#
# 1 0.016470 0.000284 -0.005189 0.000000 0.001994 0.000000
# 2 0.000284 0.020252 0.000465 0.000000 -0.000297 0.000000
# 3 -0.005189 0.000465 0.017798 0.000000 -0.000066 0.000000
# 4 0.000000 0.000000 0.000000 0.040313 0.000000 0.002624
# 5 0.001994 -0.000297 -0.000066 0.000000 0.021305 0.000000
# 6 0.000000 0.000000 0.000000 0.002624 0.000000 0.031867
#
#
# Mechanical properties :
#
#
# Convention : Reuss Voigt Hill
#
# Bulk Modulus (GPa) = 21.90952 23.58208 22.74580
# Shear Modulus (GPa) = 29.05294 31.64580 30.34937
#
# Velocity S-wave (km/s) = 3.50688 3.66002 3.58427
# Velocity P-wave (km/s) = 5.06675 5.27669 5.17278
#
# Compressibility (1/GPa) = 0.04564226
#
# Stress axis : x y z
#
# Youngs Moduli (GPa) = 60.71487 49.37780 56.18488
#
# Poissons Ratio (x) = -0.01403 0.29153
# Poissons Ratio (y) = -0.01725 -0.02614
# Poissons Ratio (z) = 0.31504 -0.02298
#
# Static dielectric constant tensor:
#      x y z
#    x 1.926190 0.000000 -0.016580 
#    y 0.000000 1.943370 0.000000 
#    z -0.016580 0.000000 1.957030 
# 
# From -- ./inp_files/40294.got.cif
#   From: 2010.05.17/outbox.cif.g08.bks.cpg/sg14_21_cif.got.tgz:40294.got - 2010.06.03 17:49:19.
