data_PCOD9246987
_publ_section_title
;
Structure prediction by ZEFSAII (Michael W. Deem and Ramdas Pophale) SiO2 
 PCOD9246987
Probable space group: P 21/C
;
_chemical_formula_sum "Si O2"
_cell_formula_units_Z 32
_cell_length_a 8.307812
_cell_length_b 18.625020
_cell_length_c 13.705049
_cell_angle_alpha 90.000000
_cell_angle_beta 146.301284
_cell_angle_gamma 90.000000
_cell_volume 1176.577761
_symmetry_space_group_name_H-M "P 21/C"
_symmetry_group_IT_number 14
_symmetry_cell_setting 'monoclinic'
loop_
_space_group_symop_operation_xyz
x,y,z
-x,1/2+y,1/2-z
-x,-y,-z
x,1/2-y,1/2+z
loop_
_atom_site_type_symbol
_atom_site_label
_atom_site_fract_x
_atom_site_fract_y
_atom_site_fract_z
Si Si1 0.202281 0.488175 0.937232
Si Si2 0.497251 0.713463 0.581807
Si Si3 0.978280 0.262993 0.785482
Si Si4 0.323618 0.612481 0.849418
Si Si5 0.119964 0.580907 0.536161
Si Si6 0.958377 0.208785 0.506790
Si Si7 0.524146 0.908717 0.736976
Si Si8 0.550328 0.001746 0.137430
O O1 0.192891 0.543959 0.842206
O O2 0.890137 0.491241 0.827723
O O3 0.334616 0.410949 0.974831
O O4 0.432164 0.521755 0.128945
O O5 0.266923 0.683597 0.383502
O O6 0.252981 0.738552 0.538152
O O7 0.717549 0.758119 0.618847
O O8 0.751950 0.691442 0.786810
O O9 0.822372 0.184839 0.684854
O O10 0.014740 0.271578 0.921192
O O11 0.238891 0.614034 0.694138
O O12 0.380448 0.566492 0.594170
O O13 0.000000 0.500000 0.500000
O O14 0.829193 0.620285 0.352064
O O15 0.751153 0.140188 0.404774
O O16 0.581662 0.928448 0.877835
O O17 0.500000 0.000000 0.000000
#
# Coordination Sequence:
#
# PCOD9246987 Si02
#       8
#     4   4   4   4   4   4   4   4
#     4  11  22  42  70  99 138 179 226 289 350 428
#     4  10  24  48  67 101 137 179 243 295 356 420
#     4  11  25  48  72 102 144 187 246 299 359 437
#     4  11  24  41  70  99 138 183 228 286 367 422
#     4  10  21  43  65  97 141 181 220 281 353 424
#     4  11  25  48  74  99 140 192 240 302 360 419
#     4  11  24  44  69  98 139 182 230 286 360 428
#     4  11  24  43  63 104 145 175 235 284 352 434
#
# _framework density 27.197524000000001
#
# number of rings (size 3 to 8) (size 9 to 14) (size 15 to 20)
#    0.000    1.250    2.500    4.125    5.250    2.000 
#    6.750    0.000    0.000    0.000    0.000    0.000 
#    0.000    0.000    0.000    0.000    0.000    0.000 
#
# Total GULP energy -178755.622158 kJ/mol
# GULP energy per Si atom -5586.113192 kJ/mol
# Density = 2.713562 g / cm^3
# Si number density = 27.197524 Si / 1000 Ang^3
#
#
#
# Elastic Constant Matrix: (Units=GPa)
#
#
# Indices 1 2 3 4 5 6 
#
# 1 182.3801 31.7888 85.1778 0.0000 5.8024 0.0000
# 2 31.7888 54.1974 7.0829 0.0000 5.7220 0.0000
# 3 85.1778 7.0829 171.7853 0.0000 20.1602 0.0000
# 4 0.0000 0.0000 0.0000 28.8605 0.0000 1.3385
# 5 5.8024 5.7220 20.1602 0.0000 64.8542 0.0000
# 6 0.0000 0.0000 0.0000 1.3385 0.0000 38.3343
#
#
#
# Elastic Compliance Matrix: (Units=1/GPa)
#
#
# Indices 1 2 3 4 5 6 
#
# 1 0.008027 -0.004290 -0.003906 0.000000 0.000875 0.000000
# 2 -0.004290 0.020977 0.001489 0.000000 -0.001930 0.000000
# 3 -0.003906 0.001489 0.007961 0.000000 -0.002257 0.000000
# 4 0.000000 0.000000 0.000000 0.034706 0.000000 -0.001212
# 5 0.000875 -0.001930 -0.002257 0.000000 0.016213 0.000000
# 6 0.000000 0.000000 0.000000 -0.001212 0.000000 0.026129
#
#
# Mechanical properties :
#
#
# Convention : Reuss Voigt Hill
#
# Bulk Modulus (GPa) = 42.46179 72.94018 57.70099
# Shear Modulus (GPa) = 36.96122 45.36402 41.16262
#
# Velocity S-wave (km/s) = 3.69045 4.08848 3.89455
# Velocity P-wave (km/s) = 5.81425 7.01174 6.44088
#
# Compressibility (1/GPa) = 0.02355058
#
# Stress axis : x y z
#
# Youngs Moduli (GPa) = 124.57628 47.67229 125.60611
#
# Poissons Ratio (x) = 0.20452 0.49061
# Poissons Ratio (y) = 0.53445 -0.18700
# Poissons Ratio (z) = 0.48659 -0.07097
#
# Static dielectric constant tensor:
#      x y z
#    x 2.161730 0.000000 0.024630 
#    y 0.000000 2.422810 0.000000 
#    z 0.024630 0.000000 2.169570 
# 
# From -- ./inp_files/42210.got.cif
#   From: 2010.05.17/outbox.cif.g08.bks.cpg/sg14_22_cif.got.tgz:42210.got - 2010.06.03 17:49:19.
