data_PCOD9246553
_publ_section_title
;
Structure prediction by ZEFSAII (Michael W. Deem and Ramdas Pophale) SiO2 
 PCOD9246553
Probable space group: P 21/C
;
_chemical_formula_sum "Si O2"
_cell_formula_units_Z 24
_cell_length_a 19.707389
_cell_length_b 12.296887
_cell_length_c 13.726210
_cell_angle_alpha 90.000000
_cell_angle_beta 20.382122
_cell_angle_gamma 90.000000
_cell_volume 1158.518332
_symmetry_space_group_name_H-M "P 21/C"
_symmetry_group_IT_number 14
_symmetry_cell_setting 'monoclinic'
loop_
_space_group_symop_operation_xyz
x,y,z
-x,1/2+y,1/2-z
-x,-y,-z
x,1/2-y,1/2+z
loop_
_atom_site_type_symbol
_atom_site_label
_atom_site_fract_x
_atom_site_fract_y
_atom_site_fract_z
Si Si1 0.326123 0.343980 0.277660
Si Si2 0.135715 0.349586 0.136632
Si Si3 0.409285 0.513667 0.324916
Si Si4 0.831378 0.916339 0.204574
Si Si5 0.296514 0.797333 0.855173
Si Si6 0.594343 0.043953 0.773382
O O1 0.281118 0.227874 0.383138
O O2 0.304757 0.430422 0.393020
O O3 0.175340 0.367511 0.393434
O O4 0.539176 0.342681 0.940927
O O5 0.158578 0.329934 0.221483
O O6 0.916926 0.323808 0.398474
O O7 0.215923 0.470446 0.007064
O O8 0.324361 0.633507 0.417424
O O9 0.436806 0.476790 0.398766
O O10 0.630023 0.520034 0.988794
O O11 0.000000 0.000000 0.000000
O O12 0.343631 0.670135 0.805118
O O13 0.500000 0.000000 0.000000
#
# Coordination Sequence:
#
# PCOD9246553 Si02
#       6
#     4   4   4   4   4   4
#     4  11  23  42  69  98 138 176 230 281 334 405
#     4  11  25  41  67 101 134 178 226 273 348 400
#     4  10  24  40  70  95 131 179 231 273 336 399
#     4  10  21  41  65  95 130 174 228 273 323 404
#     4  11  24  45  69  96 139 180 225 287 339 400
#     4  11  25  46  68  99 141 179 226 282 348 402
#
# _framework density 20.716116
#
# number of rings (size 3 to 8) (size 9 to 14) (size 15 to 20)
#    0.000    1.333    1.667    4.000   14.000    0.000 
#    3.000    0.833    0.000    0.000    0.000    0.000 
#    0.000    0.000    0.000    0.000    0.000    0.000 
#
# Total GULP energy -134042.429149 kJ/mol
# GULP energy per Si atom -5585.101215 kJ/mol
# Density = 2.066897 g / cm^3
# Si number density = 20.716116 Si / 1000 Ang^3
#
#
#
# Elastic Constant Matrix: (Units=GPa)
#
#
# Indices 1 2 3 4 5 6 
#
# 1 192.9708 71.9265 33.1702 0.0000 2.5248 0.0000
# 2 71.9265 124.0984 10.6675 0.0000 -0.5630 0.0000
# 3 33.1702 10.6675 52.3203 0.0000 -8.9836 0.0000
# 4 0.0000 0.0000 0.0000 16.6165 0.0000 -0.1618
# 5 2.5248 -0.5630 -8.9836 0.0000 29.0522 0.0000
# 6 0.0000 0.0000 0.0000 -0.1618 0.0000 28.4272
#
#
#
# Elastic Compliance Matrix: (Units=1/GPa)
#
#
# Indices 1 2 3 4 5 6 
#
# 1 0.007405 -0.003937 -0.004241 0.000000 -0.002031 0.000000
# 2 -0.003937 0.010298 0.000516 0.000000 0.000701 0.000000
# 3 -0.004241 0.000516 0.022982 0.000000 0.007485 0.000000
# 4 0.000000 0.000000 0.000000 0.060185 0.000000 0.000343
# 5 -0.002031 0.000701 0.007485 0.000000 0.036925 0.000000
# 6 0.000000 0.000000 0.000000 0.000343 0.000000 0.035180
#
#
# Mechanical properties :
#
#
# Convention : Reuss Voigt Hill
#
# Bulk Modulus (GPa) = 39.42727 66.76866 53.09797
# Shear Modulus (GPa) = 25.41288 31.72754 28.57021
#
# Velocity S-wave (km/s) = 3.50626 3.91773 3.71769
# Velocity P-wave (km/s) = 5.95527 7.26396 6.64193
#
# Compressibility (1/GPa) = 0.02536315
#
# Stress axis : x y z
#
# Youngs Moduli (GPa) = 135.04532 97.10165 43.51318
#
# Poissons Ratio (x) = 0.38224 0.18453
# Poissons Ratio (y) = 0.53161 -0.02247
# Poissons Ratio (z) = 0.57269 -0.05014
#
# Static dielectric constant tensor:
#      x y z
#    x 1.787430 0.000000 0.028040 
#    y 0.000000 1.776070 0.000000 
#    z 0.028040 0.000000 1.750960 
# 
# From -- ./inp_files/50424.got.cif
#   From: 2010.05.17/outbox.cif.g08.bks.cpg/sg14_26_cif.got.tgz:50424.got - 2010.06.03 17:49:19.
