data_PCOD9246369
_publ_section_title
;
Structure prediction by ZEFSAII (Michael W. Deem and Ramdas Pophale) SiO2 
 PCOD9246369
Probable space group: P 21/C
;
_chemical_formula_sum "Si O2"
_cell_formula_units_Z 12
_cell_length_a 13.990002
_cell_length_b 4.996571
_cell_length_c 17.826965
_cell_angle_alpha 90.000000
_cell_angle_beta 22.111545
_cell_angle_gamma 90.000000
_cell_volume 469.061188
_symmetry_space_group_name_H-M "P 21/C"
_symmetry_group_IT_number 14
_symmetry_cell_setting 'monoclinic'
loop_
_space_group_symop_operation_xyz
x,y,z
-x,1/2+y,1/2-z
-x,-y,-z
x,1/2-y,1/2+z
loop_
_atom_site_type_symbol
_atom_site_label
_atom_site_fract_x
_atom_site_fract_y
_atom_site_fract_z
Si Si1 0.350319 0.706573 0.053156
Si Si2 0.784981 0.357222 0.202601
Si Si3 0.483333 0.491396 0.815103
O O1 0.274878 0.573219 0.029507
O O2 0.537582 0.949347 0.892706
O O3 0.500000 0.500000 0.000000
O O4 0.141362 0.799379 0.264873
O O5 0.706074 0.104534 0.209444
O O6 0.000000 0.500000 0.000000
O O7 0.553392 0.743516 0.713411
#
# Coordination Sequence:
#
# PCOD9246369 Si02
#       3
#     4   4   4
#     4   9  20  38  66  88 127 166 210 257 320 379
#     4  10  21  40  70  95 123 168 223 258 312 385
#     4  11  21  39  67  91 130 175 208 264 330 370
#
# _framework density 25.583017000000002
#
# number of rings (size 3 to 8) (size 9 to 14) (size 15 to 20)
#    0.000    2.000    3.333    0.000    0.000    5.333 
#    0.000    0.000   29.333    0.000    0.000    0.000 
#    0.000    0.000    0.000    0.000    0.000    0.000 
#
# Total GULP energy -67018.612589 kJ/mol
# GULP energy per Si atom -5584.884382 kJ/mol
# Density = 2.552479 g / cm^3
# Si number density = 25.583017 Si / 1000 Ang^3
#
#
#
# Elastic Constant Matrix: (Units=GPa)
#
#
# Indices 1 2 3 4 5 6 
#
# 1 131.8215 63.7460 90.2690 0.0000 66.9207 0.0000
# 2 63.7460 154.7523 68.5354 0.0000 47.7160 0.0000
# 3 90.2690 68.5354 206.0134 0.0000 84.2241 0.0000
# 4 0.0000 0.0000 0.0000 39.1518 0.0000 26.6381
# 5 66.9207 47.7160 84.2241 0.0000 64.0451 0.0000
# 6 0.0000 0.0000 0.0000 26.6381 0.0000 58.9225
#
#
#
# Elastic Compliance Matrix: (Units=1/GPa)
#
#
# Indices 1 2 3 4 5 6 
#
# 1 0.016597 -0.001920 -0.000278 0.000000 -0.015546 0.000000
# 2 -0.001920 0.008636 -0.000479 0.000000 -0.003798 0.000000
# 3 -0.000278 -0.000479 0.010534 0.000000 -0.013206 0.000000
# 4 0.000000 0.000000 0.000000 0.036888 0.000000 -0.016677
# 5 -0.015546 -0.003798 -0.013206 0.000000 0.052055 0.000000
# 6 0.000000 0.000000 0.000000 -0.016677 0.000000 0.024511
#
#
# Mechanical properties :
#
#
# Convention : Reuss Voigt Hill
#
# Bulk Modulus (GPa) = 32.87994 104.18755 68.53375
# Shear Modulus (GPa) = 30.35586 50.42632 40.39109
#
# Velocity S-wave (km/s) = 3.44839 4.44451 3.97775
# Velocity P-wave (km/s) = 5.36054 8.19463 6.92413
#
# Compressibility (1/GPa) = 0.03041368
#
# Stress axis : x y z
#
# Youngs Moduli (GPa) = 60.25147 115.79349 94.92974
#
# Poissons Ratio (x) = 0.22234 0.02637
# Poissons Ratio (y) = 0.11569 0.04546
# Poissons Ratio (z) = 0.01673 0.05545
#
# Static dielectric constant tensor:
#      x y z
#    x 2.065810 0.000000 -0.031830 
#    y 0.000000 2.165510 0.000000 
#    z -0.031830 0.000000 2.161590 
# 
# From -- ./inp_files/36551.got.cif
#   From: 2010.05.17/outbox.cif.g08.bks.cpg/sg14_19_cif.got.tgz:36551.got - 2010.06.03 17:49:19.
