data_PCOD9246695
_publ_section_title
;
Structure prediction by ZEFSAII (Michael W. Deem and Ramdas Pophale) SiO2 
 PCOD9246695
Probable space group: P 21/C
;
_chemical_formula_sum "Si O2"
_cell_formula_units_Z 32
_cell_length_a 13.509517
_cell_length_b 14.618050
_cell_length_c 13.308168
_cell_angle_alpha 90.000000
_cell_angle_beta 30.850214
_cell_angle_gamma 90.000000
_cell_volume 1347.695293
_symmetry_space_group_name_H-M "P 21/C"
_symmetry_group_IT_number 14
_symmetry_cell_setting 'monoclinic'
loop_
_space_group_symop_operation_xyz
x,y,z
-x,1/2+y,1/2-z
-x,-y,-z
x,1/2-y,1/2+z
loop_
_atom_site_type_symbol
_atom_site_label
_atom_site_fract_x
_atom_site_fract_y
_atom_site_fract_z
Si Si1 0.719509 0.754389 0.168589
Si Si2 0.835033 0.202874 0.746118
Si Si3 0.549940 0.861155 0.648781
Si Si4 0.559113 0.137124 0.484984
Si Si5 0.255631 0.416773 0.717397
Si Si6 0.239893 0.972240 0.046694
Si Si7 0.818140 0.483904 0.871032
Si Si8 0.208972 0.913175 0.394853
O O1 0.603268 0.725264 0.170505
O O2 0.640212 0.849546 0.280670
O O3 0.675624 0.677194 0.293228
O O4 0.948217 0.742727 0.951193
O O5 0.826951 0.110846 0.820199
O O6 0.750978 0.172400 0.710711
O O7 0.697892 0.282000 0.904249
O O8 0.478712 0.847063 0.598655
O O9 0.749921 0.916431 0.464737
O O10 0.395409 0.926372 0.839081
O O11 0.315679 0.953244 0.604013
O O12 0.321169 0.448770 0.550162
O O13 0.288130 0.496573 0.770332
O O14 0.024556 0.415225 0.908161
O O15 0.048367 0.012096 0.159980
O O16 0.754491 0.418841 0.019497
#
# Coordination Sequence:
#
# PCOD9246695 Si02
#       8
#     4   4   4   4   4   4   4   4
#     4  11  22  45  67  96 138 171 219 285 339 384
#     4  10  21  42  68  97 133 171 223 285 335 385
#     4  12  25  44  67  95 135 181 217 276 335 400
#     4  12  29  41  62 102 137 176 229 268 334 412
#     4   8  15  34  63  97 116 158 216 266 323 378
#     4  10  21  41  72  99 126 172 227 275 338 396
#     4  11  23  45  66  93 135 179 224 270 329 406
#     4   8  15  32  64  91 119 160 212 272 318 376
#
# _framework density 23.744239
#
# number of rings (size 3 to 8) (size 9 to 14) (size 15 to 20)
#    0.000    1.750    3.750    1.875    1.750    4.000 
#    6.750    0.000    0.000    0.000    0.000    0.000 
#    0.000    0.000    0.000    0.000    0.000    0.000 
#
# Total GULP energy -178848.729652 kJ/mol
# GULP energy per Si atom -5589.022802 kJ/mol
# Density = 2.369020 g / cm^3
# Si number density = 23.744239 Si / 1000 Ang^3
#
#
#
# Elastic Constant Matrix: (Units=GPa)
#
#
# Indices 1 2 3 4 5 6 
#
# 1 122.1993 3.7921 21.4893 0.0000 -0.0754 0.0000
# 2 3.7921 29.1895 3.1441 0.0000 -3.8406 0.0000
# 3 21.4893 3.1441 56.2542 0.0000 -15.7150 0.0000
# 4 0.0000 0.0000 0.0000 17.0677 0.0000 0.9005
# 5 -0.0754 -3.8406 -15.7150 0.0000 22.5418 0.0000
# 6 0.0000 0.0000 0.0000 0.9005 0.0000 28.6994
#
#
#
# Elastic Compliance Matrix: (Units=1/GPa)
#
#
# Indices 1 2 3 4 5 6 
#
# 1 0.008960 -0.001117 -0.004229 0.000000 -0.003108 0.000000
# 2 -0.001117 0.035190 0.000166 0.000000 0.006108 0.000000
# 3 -0.004229 0.000166 0.024075 0.000000 0.016798 0.000000
# 4 0.000000 0.000000 0.000000 0.058687 0.000000 -0.001841
# 5 -0.003108 0.006108 0.016798 0.000000 0.057103 0.000000
# 6 0.000000 0.000000 0.000000 -0.001841 0.000000 0.034902
#
#
# Mechanical properties :
#
#
# Convention : Reuss Voigt Hill
#
# Bulk Modulus (GPa) = 17.28151 29.38820 23.33485
# Shear Modulus (GPa) = 20.11549 25.60960 22.86255
#
# Velocity S-wave (km/s) = 2.91378 3.28771 3.10638
# Velocity P-wave (km/s) = 4.31441 5.17841 4.76603
#
# Compressibility (1/GPa) = 0.05786533
#
# Stress axis : x y z
#
# Youngs Moduli (GPa) = 111.61068 28.41730 41.53660
#
# Poissons Ratio (x) = 0.03176 0.17564
# Poissons Ratio (y) = 0.12472 -0.00691
# Poissons Ratio (z) = 0.47195 -0.00473
#
# Static dielectric constant tensor:
#      x y z
#    x 1.890080 0.000000 0.012660 
#    y 0.000000 1.959070 0.000000 
#    z 0.012660 0.000000 1.904000 
# 
# From -- ./inp_files/47537.got.cif
#   From: 2010.05.17/outbox.cif.g08.bks.cpg/sg14_24_cif.got.tgz:47537.got - 2010.06.03 17:49:19.
