data_PCOD9246606
_publ_section_title
;
Structure prediction by ZEFSAII (Michael W. Deem and Ramdas Pophale) SiO2 
 PCOD9246606
Probable space group: P 21/C
;
_chemical_formula_sum "Si O2"
_cell_formula_units_Z 24
_cell_length_a 9.672396
_cell_length_b 13.947780
_cell_length_c 17.832255
_cell_angle_alpha 90.000000
_cell_angle_beta 26.591641
_cell_angle_gamma 90.000000
_cell_volume 1076.870009
_symmetry_space_group_name_H-M "P 21/C"
_symmetry_group_IT_number 14
_symmetry_cell_setting 'monoclinic'
loop_
_space_group_symop_operation_xyz
x,y,z
-x,1/2+y,1/2-z
-x,-y,-z
x,1/2-y,1/2+z
loop_
_atom_site_type_symbol
_atom_site_label
_atom_site_fract_x
_atom_site_fract_y
_atom_site_fract_z
Si Si1 0.315114 0.355161 0.013105
Si Si2 0.053216 0.029777 0.270850
Si Si3 0.135368 0.661358 0.512180
Si Si4 0.708089 0.533842 0.513148
Si Si5 0.708866 0.736141 0.321178
Si Si6 0.908706 0.209659 0.132600
O O1 0.037628 0.310192 0.098601
O O2 0.759538 0.533277 0.936426
O O3 0.633611 0.332357 0.816759
O O4 0.305735 0.295970 0.095497
O O5 0.122003 0.018921 0.149241
O O6 0.064328 0.143554 0.281363
O O7 0.349557 0.984159 0.169502
O O8 0.816434 0.696354 0.701614
O O9 0.190692 0.708826 0.405364
O O10 0.171304 0.547753 0.489745
O O11 0.382941 0.691720 0.455464
O O12 0.801083 0.637242 0.498198
#
# Coordination Sequence:
#
# PCOD9246606 Si02
#       6
#     4   4   4   4   4   4
#     4  12  24  42  68  96 125 170 215 267 306 385
#     4  10  22  41  68  97 124 164 218 266 312 367
#     4  11  24  43  63  95 131 172 205 265 321 379
#     4  10  21  41  67  91 130 167 208 265 319 371
#     4  11  23  42  67  91 128 168 215 260 318 374
#     4  12  25  41  65  97 131 166 215 258 324 374
#
# _framework density 22.286812000000001
#
# number of rings (size 3 to 8) (size 9 to 14) (size 15 to 20)
#    0.000    1.000    3.333    3.500    2.333    2.000 
#    0.000    9.167    0.000    0.000    0.000    0.000 
#    0.000    0.000    0.000    0.000    0.000    0.000 
#
# Total GULP energy -134277.027825 kJ/mol
# GULP energy per Si atom -5594.876159 kJ/mol
# Density = 2.223609 g / cm^3
# Si number density = 22.286812 Si / 1000 Ang^3
#
#
#
# Elastic Constant Matrix: (Units=GPa)
#
#
# Indices 1 2 3 4 5 6 
#
# 1 91.2039 31.2394 8.6549 0.0000 12.6447 0.0000
# 2 31.2394 53.6810 6.4044 0.0000 -1.6247 0.0000
# 3 8.6549 6.4044 48.3003 0.0000 7.8773 0.0000
# 4 0.0000 0.0000 0.0000 33.9233 0.0000 -6.0601
# 5 12.6447 -1.6247 7.8773 0.0000 26.9738 0.0000
# 6 0.0000 0.0000 0.0000 -6.0601 0.0000 18.5723
#
#
#
# Elastic Compliance Matrix: (Units=1/GPa)
#
#
# Indices 1 2 3 4 5 6 
#
# 1 0.015118 -0.008992 -0.000286 0.000000 -0.007545 0.000000
# 2 -0.008992 0.024376 -0.002675 0.000000 0.006465 0.000000
# 3 -0.000286 -0.002675 0.022170 0.000000 -0.006501 0.000000
# 4 0.000000 0.000000 0.000000 0.031303 0.000000 0.010214
# 5 -0.007545 0.006465 -0.006501 0.000000 0.042898 0.000000
# 6 0.000000 0.000000 0.000000 0.010214 0.000000 0.057177
#
#
# Mechanical properties :
#
#
# Convention : Reuss Voigt Hill
#
# Bulk Modulus (GPa) = 26.48487 31.75361 29.11924
# Shear Modulus (GPa) = 21.78333 25.68630 23.73481
#
# Velocity S-wave (km/s) = 3.12975 3.39858 3.26693
# Velocity P-wave (km/s) = 4.99699 5.44785 5.22728
#
# Compressibility (1/GPa) = 0.03775741
#
# Stress axis : x y z
#
# Youngs Moduli (GPa) = 66.14844 41.02379 45.10570
#
# Poissons Ratio (x) = 0.36888 0.01291
# Poissons Ratio (y) = 0.59479 0.12067
# Poissons Ratio (z) = 0.01893 0.10975
#
# Static dielectric constant tensor:
#      x y z
#    x 1.796510 0.000000 -0.045670 
#    y 0.000000 1.874160 0.000000 
#    z -0.045670 0.000000 1.809750 
# 
# From -- ./inp_files/18139.got.cif
#   From: 2010.05.17/outbox.cif.g08.bks.cpg/sg14_10_cif.got.tgz:18139.got - 2010.06.03 17:49:19.
