data_PCOD9246951
_publ_section_title
;
Structure prediction by ZEFSAII (Michael W. Deem and Ramdas Pophale) SiO2 
 PCOD9246951
Probable space group: P 21/C
;
_chemical_formula_sum "Si O2"
_cell_formula_units_Z 30
_cell_length_a 31.462234
_cell_length_b 6.573329
_cell_length_c 14.225915
_cell_angle_alpha 90.000000
_cell_angle_beta 29.855750
_cell_angle_gamma 90.000000
_cell_volume 1464.622835
_symmetry_space_group_name_H-M "P 21/C"
_symmetry_group_IT_number 14
_symmetry_cell_setting 'monoclinic'
loop_
_space_group_symop_operation_xyz
x,y,z
-x,1/2+y,1/2-z
-x,-y,-z
x,1/2-y,1/2+z
loop_
_atom_site_type_symbol
_atom_site_label
_atom_site_fract_x
_atom_site_fract_y
_atom_site_fract_z
Si Si1 0.952447 0.338642 0.749285
Si Si2 0.589236 0.227315 0.770323
Si Si3 0.149103 0.235363 0.621338
Si Si4 0.000000 0.500000 0.000000
Si Si5 0.131195 0.495131 0.481503
Si Si6 0.393291 0.111133 0.887804
Si Si7 0.455542 0.911361 0.945031
Si Si8 0.260704 0.073420 0.570606
O O1 0.907890 0.541701 0.798223
O O2 0.038298 0.397255 0.640327
O O3 0.978021 0.188360 0.616104
O O4 0.888551 0.218150 0.940679
O O5 0.591291 0.453162 0.726317
O O6 0.586343 0.206878 0.888026
O O7 0.526393 0.764483 0.763365
O O8 0.671963 0.106220 0.575176
O O9 0.175021 0.358745 0.478068
O O10 0.225178 0.155957 0.540268
O O11 0.088038 0.383747 0.797808
O O12 0.184112 0.497192 0.284427
O O13 0.310643 0.244076 0.025779
O O14 0.391894 0.986517 0.987050
O O15 0.506695 0.104688 0.889719
#
# Coordination Sequence:
#
# PCOD9246951 Si02
#       8
#     4   4   4   2   4   4   4   4
#     4  11  22  41  68  95 125 182 238 279 337 402
#     4  10  23  43  66 101 131 177 218 270 339 401
#     4  11  24  44  66  96 134 177 226 286 339 410
#     4  10  22  38  68  90 122 176 228 280 332 398
#     4  11  24  43  67  98 131 179 235 285 337 410
#     4  11  22  44  68 103 133 178 222 272 340 402
#     4  10  21  42  74  96 130 173 227 270 317 417
#     4  11  27  43  63 100 142 173 218 287 350 398
#
# _framework density 20.483090000000001
#
# number of rings (size 3 to 8) (size 9 to 14) (size 15 to 20)
#    0.000    1.333    4.000    0.800    1.867    3.200 
#    2.400    0.000    0.000    0.000    0.000    0.000 
#    0.000    0.000    0.000    0.000    0.000    0.000 
#
# Total GULP energy -167223.598186 kJ/mol
# GULP energy per Si atom -5574.119940 kJ/mol
# Density = 2.043647 g / cm^3
# Si number density = 20.483090 Si / 1000 Ang^3
#
#
#
# Elastic Constant Matrix: (Units=GPa)
#
#
# Indices 1 2 3 4 5 6 
#
# 1 82.6227 -5.2237 13.3798 0.0000 -2.2570 0.0000
# 2 -5.2237 16.3205 -11.6347 0.0000 -11.3937 0.0000
# 3 13.3798 -11.6347 30.7236 0.0000 5.2272 0.0000
# 4 0.0000 0.0000 0.0000 6.1652 0.0000 5.4603
# 5 -2.2570 -11.3937 5.2272 0.0000 22.3450 0.0000
# 6 0.0000 0.0000 0.0000 5.4603 0.0000 15.5835
#
#
#
# Elastic Compliance Matrix: (Units=1/GPa)
#
#
# Indices 1 2 3 4 5 6 
#
# 1 0.013290 0.003664 -0.005151 0.000000 0.004416 0.000000
# 2 0.003664 0.129482 0.037640 0.000000 0.057588 0.000000
# 3 -0.005151 0.037640 0.047770 0.000000 0.007498 0.000000
# 4 0.000000 0.000000 0.000000 0.235188 0.000000 -0.082408
# 5 0.004416 0.057588 0.007498 0.000000 0.072809 0.000000
# 6 0.000000 0.000000 0.000000 -0.082408 0.000000 0.093046
#
#
# Mechanical properties :
#
#
# Convention : Reuss Voigt Hill
#
# Bulk Modulus (GPa) = 3.80450 13.63441 8.71946
# Shear Modulus (GPa) = 8.23867 17.69510 12.96688
#
# Velocity S-wave (km/s) = 2.00771 2.94239 2.51878
# Velocity P-wave (km/s) = 2.68998 4.26783 3.56724
#
# Compressibility (1/GPa) = 0.26284660
#
# Stress axis : x y z
#
# Youngs Moduli (GPa) = 75.24640 7.72310 20.93373
#
# Poissons Ratio (x) = -0.02830 0.10783
# Poissons Ratio (y) = -0.27570 -0.78794
# Poissons Ratio (z) = 0.38761 -0.29070
#
# Static dielectric constant tensor:
#      x y z
#    x 1.745200 0.000000 0.017670 
#    y 0.000000 1.707900 0.000000 
#    z 0.017670 0.000000 1.687730 
# 
# From -- ./inp_files/52120.got.cif
#   From: 2010.05.17/outbox.cif.g08.bks.cpg/sg14_27_cif.got.tgz:52120.got - 2010.06.03 17:49:19.
