data_PCOD9246339
_publ_section_title
;
Structure prediction by ZEFSAII (Michael W. Deem and Ramdas Pophale) SiO2 
 PCOD9246339
Probable space group: P 21/C
;
_chemical_formula_sum "Si O2"
_cell_formula_units_Z 28
_cell_length_a 7.620547
_cell_length_b 17.261151
_cell_length_c 10.683623
_cell_angle_alpha 90.000000
_cell_angle_beta 53.836589
_cell_angle_gamma 90.000000
_cell_volume 1134.565241
_symmetry_space_group_name_H-M "P 21/C"
_symmetry_group_IT_number 14
_symmetry_cell_setting 'monoclinic'
loop_
_space_group_symop_operation_xyz
x,y,z
-x,1/2+y,1/2-z
-x,-y,-z
x,1/2-y,1/2+z
loop_
_atom_site_type_symbol
_atom_site_label
_atom_site_fract_x
_atom_site_fract_y
_atom_site_fract_z
Si Si1 0.808297 0.305432 0.280905
Si Si2 0.693459 0.411553 0.120788
Si Si3 0.771995 0.596859 0.546346
Si Si4 0.770705 0.424425 0.509014
Si Si5 0.670769 0.911164 0.654618
Si Si6 0.528225 0.325932 0.972508
Si Si7 0.213331 0.290157 0.690631
O O1 0.837118 0.352586 0.141466
O O2 0.718226 0.369956 0.414502
O O3 0.651832 0.231987 0.327268
O O4 0.009658 0.266352 0.265949
O O5 0.445722 0.402904 0.278585
O O6 0.752797 0.501049 0.113529
O O7 0.682205 0.384340 0.982164
O O8 0.772083 0.514980 0.472159
O O9 0.774237 0.666654 0.448147
O O10 0.993291 0.595701 0.533845
O O11 0.579714 0.415787 0.690696
O O12 0.652229 0.873367 0.525979
O O13 0.787951 0.854371 0.701976
O O14 0.419472 0.266518 0.115971
#
# Coordination Sequence:
#
# PCOD9246339 Si02
#       7
#     4   4   4   4   4   4   4
#     4  12  25  40  68  98 137 175 228 274 336 392
#     4  11  24  46  68  96 137 181 222 274 339 403
#     4  10  21  40  68  98 132 176 226 273 331 405
#     4  10  21  40  68  98 132 176 226 273 331 405
#     4  11  24  46  68  96 137 181 222 274 339 403
#     4  12  25  42  67 102 136 170 226 282 339 388
#     4  12  25  40  68  98 137 175 228 274 336 392
#
# _framework density 24.679058999999999
#
# number of rings (size 3 to 8) (size 9 to 14) (size 15 to 20)
#    0.000    0.857    2.857    3.857    4.000    2.286 
#    0.000    5.714    0.000    0.000    0.000    0.000 
#    0.000    0.000    0.000    0.000    0.000    0.000 
#
# Total GULP energy -156872.697756 kJ/mol
# GULP energy per Si atom -5602.596348 kJ/mol
# Density = 2.462289 g / cm^3
# Si number density = 24.679059 Si / 1000 Ang^3
#
#
#
# Elastic Constant Matrix: (Units=GPa)
#
#
# Indices 1 2 3 4 5 6 
#
# 1 70.9312 24.7163 4.3709 0.0000 -7.2312 0.0000
# 2 24.7163 148.2127 31.4015 0.0000 12.9236 0.0000
# 3 4.3709 31.4015 42.8318 0.0000 4.3786 0.0000
# 4 0.0000 0.0000 0.0000 31.7737 0.0000 22.4076
# 5 -7.2312 12.9236 4.3786 0.0000 38.0506 0.0000
# 6 0.0000 0.0000 0.0000 22.4076 0.0000 34.8724
#
#
#
# Elastic Compliance Matrix: (Units=1/GPa)
#
#
# Indices 1 2 3 4 5 6 
#
# 1 0.015524 -0.002973 0.000193 0.000000 0.003938 0.000000
# 2 -0.002973 0.008721 -0.005798 0.000000 -0.002860 0.000000
# 3 0.000193 -0.005798 0.027699 0.000000 -0.001182 0.000000
# 4 0.000000 0.000000 0.000000 0.057552 0.000000 -0.036981
# 5 0.003938 -0.002860 -0.001182 0.000000 0.028136 0.000000
# 6 0.000000 0.000000 0.000000 -0.036981 0.000000 0.052438
#
#
# Mechanical properties :
#
#
# Convention : Reuss Voigt Hill
#
# Bulk Modulus (GPa) = 28.74597 42.55034 35.64816
# Shear Modulus (GPa) = 22.84970 34.37182 28.61076
#
# Velocity S-wave (km/s) = 3.04612 3.73601 3.40856
# Velocity P-wave (km/s) = 4.90357 5.99076 5.47422
#
# Compressibility (1/GPa) = 0.03478748
#
# Stress axis : x y z
#
# Youngs Moduli (GPa) = 64.41782 114.67217 36.10288
#
# Poissons Ratio (x) = 0.34092 -0.00696
# Poissons Ratio (y) = 0.19151 0.20931
# Poissons Ratio (z) = -0.01243 0.66482
#
# Static dielectric constant tensor:
#      x y z
#    x 1.972920 0.000000 -0.068680 
#    y 0.000000 1.900090 0.000000 
#    z -0.068680 0.000000 1.970280 
# 
# From -- ./inp_files/25098.got.cif
#   From: 2010.05.17/outbox.cif.g08.bks.cpg/sg14_13_cif.got.tgz:25098.got - 2010.06.03 17:49:19.
