data_PCOD9246123
_publ_section_title
;
Structure prediction by ZEFSAII (Michael W. Deem and Ramdas Pophale) SiO2 
 PCOD9246123
Probable space group: P 21/C
;
_chemical_formula_sum "Si O2"
_cell_formula_units_Z 32
_cell_length_a 11.500909
_cell_length_b 7.889987
_cell_length_c 28.208700
_cell_angle_alpha 90.000000
_cell_angle_beta 148.942188
_cell_angle_gamma 90.000000
_cell_volume 1320.563624
_symmetry_space_group_name_H-M "P 21/C"
_symmetry_group_IT_number 14
_symmetry_cell_setting 'monoclinic'
loop_
_space_group_symop_operation_xyz
x,y,z
-x,1/2+y,1/2-z
-x,-y,-z
x,1/2-y,1/2+z
loop_
_atom_site_type_symbol
_atom_site_label
_atom_site_fract_x
_atom_site_fract_y
_atom_site_fract_z
Si Si1 0.493810 0.671661 0.576505
Si Si2 0.626305 0.447406 0.889695
Si Si3 0.965472 0.792029 0.639434
Si Si4 0.013899 0.841389 0.560899
Si Si5 0.080704 0.977246 0.974752
Si Si6 0.546388 0.187179 0.536531
Si Si7 0.861882 0.918267 0.809319
Si Si8 0.020879 0.116694 0.723123
O O1 0.445770 0.846223 0.588287
O O2 0.343678 0.546337 0.556432
O O3 0.405049 0.693253 0.492138
O O4 0.755406 0.621633 0.666427
O O5 0.404414 0.455340 0.781058
O O6 0.812909 0.358364 0.921480
O O7 0.768689 0.609116 0.955727
O O8 0.051468 0.601087 0.680664
O O9 0.065853 0.912577 0.631119
O O10 0.701729 0.765360 0.533473
O O11 0.992581 0.925718 0.692380
O O12 0.011671 0.651195 0.577492
O O13 0.957413 0.856089 0.894135
O O14 0.000000 0.000000 0.000000
O O15 0.763625 0.172029 0.645974
O O16 0.500000 0.000000 0.500000
O O17 0.910850 0.762979 0.791128
#
# Coordination Sequence:
#
# PCOD9246123 Si02
#       8
#     4   4   4   4   4   4   4   4
#     4  11  22  41  67  98 126 172 228 265 340 403
#     4  10  21  40  63  91 127 168 217 271 329 399
#     4  10  23  43  64  97 131 172 223 266 344 397
#     4  10  22  40  63  95 126 173 216 270 336 401
#     4  11  22  40  61  93 132 171 215 275 334 394
#     4  10  21  44  69  93 133 178 218 283 336 399
#     4  10  23  41  62  95 131 168 222 276 327 409
#     4  10  22  42  68  92 130 177 216 278 338 394
#
# _framework density 24.232077
#
# number of rings (size 3 to 8) (size 9 to 14) (size 15 to 20)
#    0.000    1.750    2.500    1.500    1.750    1.500 
#   15.750    0.000    0.000    0.000    0.000    0.000 
#    0.000    0.000    0.000    0.000    0.000    0.000 
#
# Total GULP energy -178160.852525 kJ/mol
# GULP energy per Si atom -5567.526641 kJ/mol
# Density = 2.417692 g / cm^3
# Si number density = 24.232077 Si / 1000 Ang^3
#
#
#
# Elastic Constant Matrix: (Units=GPa)
#
#
# Indices 1 2 3 4 5 6 
#
# 1 92.1494 6.9486 21.1076 0.0000 3.4228 0.0000
# 2 6.9486 67.9849 5.6470 0.0000 2.1590 0.0000
# 3 21.1076 5.6470 130.4415 0.0000 24.1736 0.0000
# 4 0.0000 0.0000 0.0000 -2.0594 0.0000 -9.5388
# 5 3.4228 2.1590 24.1736 0.0000 33.5467 0.0000
# 6 0.0000 0.0000 0.0000 -9.5388 0.0000 17.9800
#
#
#
# Elastic Compliance Matrix: (Units=1/GPa)
#
#
# Indices 1 2 3 4 5 6 
#
# 1 0.011340 -0.001014 -0.001834 0.000000 0.000230 0.000000
# 2 -0.001014 0.014862 -0.000371 0.000000 -0.000586 0.000000
# 3 -0.001834 -0.000371 0.009164 0.000000 -0.006392 0.000000
# 4 0.000000 0.000000 0.000000 -0.140451 0.000000 -0.074512
# 5 0.000230 -0.000586 -0.006392 0.000000 0.034430 0.000000
# 6 0.000000 0.000000 0.000000 -0.074512 0.000000 0.016087
#
#
# Mechanical properties :
#
#
# Convention : Reuss Voigt Hill
#
# Bulk Modulus (GPa) = 34.56737 39.77577 37.17157
# Shear Modulus (GPa) = -129.90892 27.01831 -51.44531
#
# Velocity S-wave (km/s) = -7.32985 3.34276 -4.61263
# Velocity P-wave (km/s) = 7.57228 5.59900 3.60490
#
# Compressibility (1/GPa) = 0.02892901
#
# Stress axis : x y z
#
# Youngs Moduli (GPa) = 88.18433 67.28480 109.12662
#
# Poissons Ratio (x) = 0.06823 0.20010
# Poissons Ratio (y) = 0.08942 0.04046
# Poissons Ratio (z) = 0.16170 0.02495
#
# Static dielectric constant tensor:
#      x y z
#    x 2.409970 0.000000 -0.165030 
#    y 0.000000 2.006850 0.000000 
#    z -0.165030 0.000000 2.026080 
# 
# From -- ./inp_files/80021.got.cif
#   From: 2010.05.17/outbox.cif.g08.bks.cpg/sg14_41_cif.got.tgz:80021.got - 2010.06.03 17:49:19.
