data_PCOD9246961
_publ_section_title
;
Structure prediction by ZEFSAII (Michael W. Deem and Ramdas Pophale) SiO2 
 PCOD9246961
Probable space group: P 21/C
;
_chemical_formula_sum "Si O2"
_cell_formula_units_Z 28
_cell_length_a 16.129661
_cell_length_b 11.624054
_cell_length_c 8.919394
_cell_angle_alpha 90.000000
_cell_angle_beta 129.478517
_cell_angle_gamma 90.000000
_cell_volume 1290.798479
_symmetry_space_group_name_H-M "P 21/C"
_symmetry_group_IT_number 14
_symmetry_cell_setting 'monoclinic'
loop_
_space_group_symop_operation_xyz
x,y,z
-x,1/2+y,1/2-z
-x,-y,-z
x,1/2-y,1/2+z
loop_
_atom_site_type_symbol
_atom_site_label
_atom_site_fract_x
_atom_site_fract_y
_atom_site_fract_z
Si Si1 0.266452 0.892152 0.348003
Si Si2 0.873076 0.017800 0.324078
Si Si3 0.516050 0.872512 0.079607
Si Si4 0.251551 0.408515 0.048172
Si Si5 0.385509 0.713632 0.706380
Si Si6 0.907439 0.788783 0.239909
Si Si7 0.936414 0.233018 0.831037
O O1 0.314737 0.805180 0.530226
O O2 0.319815 0.862270 0.250650
O O3 0.140065 0.864550 0.192695
O O4 0.281426 0.017626 0.435484
O O5 0.803444 0.993528 0.392245
O O6 0.849075 0.911865 0.184635
O O7 0.869608 0.147473 0.260474
O O8 0.000000 0.000000 0.500000
O O9 0.641066 0.856053 0.258262
O O10 0.447674 0.858515 0.152715
O O11 0.469546 0.784836 0.904094
O O12 0.500000 0.000000 0.000000
O O13 0.167970 0.309762 0.910108
O O14 0.952312 0.749387 0.452224
O O15 0.020393 0.798835 0.281947
#
# Coordination Sequence:
#
# PCOD9246961 Si02
#       7
#     4   4   4   4   4   4   4
#     4  11  22  44  69 102 129 180 229 278 337 408
#     4  10  21  43  62  90 133 177 214 267 332 398
#     4  11  25  47  70  99 134 180 221 296 343 401
#     4  12  24  42  68  97 139 175 222 280 346 404
#     4  10  24  46  70 101 132 170 240 282 339 407
#     4  11  23  41  62  98 133 175 223 271 337 403
#     4  11  23  41  68  91 136 178 223 273 327 407
#
# _framework density 21.692
#
# number of rings (size 3 to 8) (size 9 to 14) (size 15 to 20)
#    0.000    1.143    4.286    3.429    4.000    1.143 
#    2.571    0.000    0.000    0.000    0.000    0.000 
#    0.000    0.000    0.000    0.000    0.000    0.000 
#
# Total GULP energy -156523.267459 kJ/mol
# GULP energy per Si atom -5590.116695 kJ/mol
# Density = 2.164263 g / cm^3
# Si number density = 21.692000 Si / 1000 Ang^3
#
#
#
# Elastic Constant Matrix: (Units=GPa)
#
#
# Indices 1 2 3 4 5 6 
#
# 1 104.1154 34.9365 41.2796 0.0000 -21.0342 0.0000
# 2 34.9365 68.7150 33.3008 0.0000 -7.1107 0.0000
# 3 41.2796 33.3008 75.5706 0.0000 -1.3582 0.0000
# 4 0.0000 0.0000 0.0000 28.6156 0.0000 -1.4023
# 5 -21.0342 -7.1107 -1.3582 0.0000 41.2613 0.0000
# 6 0.0000 0.0000 0.0000 -1.4023 0.0000 38.7243
#
#
#
# Elastic Compliance Matrix: (Units=1/GPa)
#
#
# Indices 1 2 3 4 5 6 
#
# 1 0.014680 -0.003750 -0.006247 0.000000 0.006631 0.000000
# 2 -0.003750 0.019821 -0.006663 0.000000 0.001285 0.000000
# 3 -0.006247 -0.006663 0.019515 0.000000 -0.003690 0.000000
# 4 0.000000 0.000000 0.000000 0.035008 0.000000 0.001268
# 5 0.006631 0.001285 -0.003690 0.000000 0.027716 0.000000
# 6 0.000000 0.000000 0.000000 0.001268 0.000000 0.025869
#
#
# Mechanical properties :
#
#
# Convention : Reuss Voigt Hill
#
# Bulk Modulus (GPa) = 48.31841 51.93719 50.12780
# Shear Modulus (GPa) = 27.34810 30.97918 29.16364
#
# Velocity S-wave (km/s) = 3.55455 3.78317 3.67064
# Velocity P-wave (km/s) = 6.25856 6.56340 6.41279
#
# Compressibility (1/GPa) = 0.02069605
#
# Stress axis : x y z
#
# Youngs Moduli (GPa) = 68.12208 50.45051 51.24315
#
# Poissons Ratio (x) = 0.18918 0.32011
# Poissons Ratio (y) = 0.25544 0.34144
# Poissons Ratio (z) = 0.42556 0.33616
#
# Static dielectric constant tensor:
#      x y z
#    x 1.771940 0.000000 -0.019460 
#    y 0.000000 1.803310 0.000000 
#    z -0.019460 0.000000 1.861200 
# 
# From -- ./inp_files/15882.got.cif
#   From: 2010.05.17/outbox.cif.g08.bks.cpg/sg14_8_cif.got.tgz:15882.got - 2010.06.03 17:49:19.
