data_PCOD9246173
_publ_section_title
;
Structure prediction by ZEFSAII (Michael W. Deem and Ramdas Pophale) SiO2 
 PCOD9246173
Probable space group: P 21/C
;
_chemical_formula_sum "Si O2"
_cell_formula_units_Z 16
_cell_length_a 8.339241
_cell_length_b 13.948320
_cell_length_c 7.126206
_cell_angle_alpha 90.000000
_cell_angle_beta 126.954004
_cell_angle_gamma 90.000000
_cell_volume 662.396332
_symmetry_space_group_name_H-M "P 21/C"
_symmetry_group_IT_number 14
_symmetry_cell_setting 'monoclinic'
loop_
_space_group_symop_operation_xyz
x,y,z
-x,1/2+y,1/2-z
-x,-y,-z
x,1/2-y,1/2+z
loop_
_atom_site_type_symbol
_atom_site_label
_atom_site_fract_x
_atom_site_fract_y
_atom_site_fract_z
Si Si1 0.844588 0.884592 0.491741
Si Si2 0.887191 0.404940 0.491527
Si Si3 0.795672 0.677610 0.532503
Si Si4 0.505813 0.509948 0.279592
O O1 0.052794 0.892395 0.748589
O O2 0.739531 0.788876 0.501047
O O3 0.849551 0.866518 0.273073
O O4 0.714041 0.979707 0.441948
O O5 0.002406 0.325705 0.451877
O O6 0.000000 0.500000 0.500000
O O7 0.654926 0.426855 0.310310
O O8 0.617313 0.611008 0.323829
O O9 0.500000 0.500000 0.500000
#
# Coordination Sequence:
#
# PCOD9246173 Si02
#       4
#     4   4   4   4
#     4  11  21  43  62  91 134 163 211 270 304 378
#     4  10  22  41  63  92 121 170 211 255 324 368
#     4  10  21  40  64  91 128 169 210 263 316 370
#     4   9  22  41  64  95 124 165 213 253 319 373
#
# _framework density 24.154724000000002
#
# number of rings (size 3 to 8) (size 9 to 14) (size 15 to 20)
#    0.000    2.000    2.500    0.000    0.000   13.000 
#    9.000    5.000    0.000    0.000    0.000    0.000 
#    0.000    0.000    0.000    0.000    0.000    0.000 
#
# Total GULP energy -89335.246091 kJ/mol
# GULP energy per Si atom -5583.452881 kJ/mol
# Density = 2.409975 g / cm^3
# Si number density = 24.154724 Si / 1000 Ang^3
#
#
#
# Elastic Constant Matrix: (Units=GPa)
#
#
# Indices 1 2 3 4 5 6 
#
# 1 79.7698 0.9264 9.6954 0.0000 -17.3960 0.0000
# 2 0.9264 88.0475 -3.3594 0.0000 -2.7018 0.0000
# 3 9.6954 -3.3594 65.6910 0.0000 -31.0289 0.0000
# 4 0.0000 0.0000 0.0000 35.3998 0.0000 -1.5091
# 5 -17.3960 -2.7018 -31.0289 0.0000 25.3342 0.0000
# 6 0.0000 0.0000 0.0000 -1.5091 0.0000 33.8652
#
#
#
# Elastic Compliance Matrix: (Units=1/GPa)
#
#
# Indices 1 2 3 4 5 6 
#
# 1 0.015925 0.000689 0.006844 0.000000 0.019391 0.000000
# 2 0.000689 0.011637 0.003092 0.000000 0.005500 0.000000
# 3 0.006844 0.003092 0.039732 0.000000 0.053693 0.000000
# 4 0.000000 0.000000 0.000000 0.028302 0.000000 0.001261
# 5 0.019391 0.005500 0.053693 0.000000 0.119137 0.000000
# 6 0.000000 0.000000 0.000000 0.001261 0.000000 0.029585
#
#
# Mechanical properties :
#
#
# Convention : Reuss Voigt Hill
#
# Bulk Modulus (GPa) = 11.29391 27.55922 19.42657
# Shear Modulus (GPa) = 19.79538 34.00292 26.89915
#
# Velocity S-wave (km/s) = 2.86584 3.75602 3.34071
# Velocity P-wave (km/s) = 3.95430 5.49950 4.78962
#
# Compressibility (1/GPa) = 0.08854330
#
# Stress axis : x y z
#
# Youngs Moduli (GPa) = 62.79436 85.93278 25.16834
#
# Poissons Ratio (x) = -0.05918 -0.17226
# Poissons Ratio (y) = -0.04324 -0.07781
# Poissons Ratio (z) = -0.42978 -0.26567
#
# Static dielectric constant tensor:
#      x y z
#    x 2.004410 0.000000 -0.042010 
#    y 0.000000 2.000330 0.000000 
#    z -0.042010 0.000000 1.933240 
# 
# From -- ./inp_files/4982.got.cif
#   From: 2010.05.17/outbox.cif.g08.bks.cpg/sg14_3_cif.got.tgz:4982.got - 2010.06.03 17:49:19.
