data_PCOD9246739
_publ_section_title
;
Structure prediction by ZEFSAII (Michael W. Deem and Ramdas Pophale) SiO2 
 PCOD9246739
Probable space group: P 21/C
;
_chemical_formula_sum "Si O2"
_cell_formula_units_Z 28
_cell_length_a 5.926795
_cell_length_b 20.454136
_cell_length_c 9.162686
_cell_angle_alpha 90.000000
_cell_angle_beta 88.605913
_cell_angle_gamma 90.000000
_cell_volume 1110.440470
_symmetry_space_group_name_H-M "P 21/C"
_symmetry_group_IT_number 14
_symmetry_cell_setting 'monoclinic'
loop_
_space_group_symop_operation_xyz
x,y,z
-x,1/2+y,1/2-z
-x,-y,-z
x,1/2-y,1/2+z
loop_
_atom_site_type_symbol
_atom_site_label
_atom_site_fract_x
_atom_site_fract_y
_atom_site_fract_z
Si Si1 0.369883 0.582106 0.608491
Si Si2 0.269537 0.743000 0.956597
Si Si3 0.970052 0.695306 0.210480
Si Si4 0.580410 0.697073 0.700924
Si Si5 0.254052 0.071162 0.401457
Si Si6 0.008553 0.446960 0.186429
Si Si7 0.620857 0.458487 0.700068
O O1 0.590009 0.621008 0.661631
O O2 0.424186 0.506563 0.643470
O O3 0.336393 0.588416 0.436574
O O4 0.145356 0.597652 0.705899
O O5 0.115718 0.785706 0.849694
O O6 0.447542 0.705594 0.853319
O O7 0.413592 0.782223 0.072586
O O8 0.118045 0.697926 0.061579
O O9 0.788429 0.753972 0.198448
O O10 0.855097 0.624119 0.207853
O O11 0.167773 0.088413 0.565037
O O12 0.516163 0.071798 0.349273
O O13 0.168109 0.996196 0.391250
O O14 0.161708 0.498652 0.271019
#
# Coordination Sequence:
#
# PCOD9246739 Si02
#       7
#     4   4   4   4   4   4   4
#     4  10  23  39  61  92 125 165 216 258 327 384
#     4  10  25  42  61  98 124 177 226 260 338 391
#     4  11  24  43  66  95 134 175 221 276 327 392
#     4  11  24  42  66  92 134 173 222 275 327 395
#     4  10  23  38  65  93 127 164 218 260 329 386
#     4  10  21  42  62  94 128 168 208 269 322 392
#     4  10  22  38  63  96 123 165 210 264 322 382
#
# _framework density 25.215219999999999
#
# number of rings (size 3 to 8) (size 9 to 14) (size 15 to 20)
#    0.000    1.714    0.000    2.571    6.000    5.714 
#    0.000    0.000    0.000    0.000    0.000    0.000 
#    0.000    0.000    0.000    0.000    0.000    0.000 
#
# Total GULP energy -156500.360488 kJ/mol
# GULP energy per Si atom -5589.298589 kJ/mol
# Density = 2.515783 g / cm^3
# Si number density = 25.215220 Si / 1000 Ang^3
#
#
#
# Elastic Constant Matrix: (Units=GPa)
#
#
# Indices 1 2 3 4 5 6 
#
# 1 48.9547 22.0114 47.7753 0.0000 3.0460 0.0000
# 2 22.0114 73.8411 17.1125 0.0000 -3.4258 0.0000
# 3 47.7753 17.1125 130.1837 0.0000 -19.1966 0.0000
# 4 0.0000 0.0000 0.0000 11.2801 0.0000 11.8023
# 5 3.0460 -3.4258 -19.1966 0.0000 32.3259 0.0000
# 6 0.0000 0.0000 0.0000 11.8023 0.0000 49.5073
#
#
#
# Elastic Compliance Matrix: (Units=1/GPa)
#
#
# Indices 1 2 3 4 5 6 
#
# 1 0.041026 -0.009196 -0.015958 0.000000 -0.014317 0.000000
# 2 -0.009196 0.016035 0.001803 0.000000 0.003637 0.000000
# 3 -0.015958 0.001803 0.014851 0.000000 0.010514 0.000000
# 4 0.000000 0.000000 0.000000 0.118112 0.000000 -0.028157
# 5 -0.014317 0.003637 0.010514 0.000000 0.038913 0.000000
# 6 0.000000 0.000000 0.000000 -0.028157 0.000000 0.026912
#
#
# Mechanical properties :
#
#
# Convention : Reuss Voigt Hill
#
# Bulk Modulus (GPa) = 39.66591 47.41974 43.54283
# Shear Modulus (GPa) = 16.07952 29.69469 22.88710
#
# Velocity S-wave (km/s) = 2.52799 3.43541 3.01602
# Velocity P-wave (km/s) = 4.92809 5.88072 5.42536
#
# Compressibility (1/GPa) = 0.02521056
#
# Stress axis : x y z
#
# Youngs Moduli (GPa) = 24.37457 62.36538 67.33406
#
# Poissons Ratio (x) = 0.57348 1.07455
# Poissons Ratio (y) = 0.22414 -0.12141
# Poissons Ratio (z) = 0.38898 -0.11245
#
# Static dielectric constant tensor:
#      x y z
#    x 1.982910 0.000000 -0.043370 
#    y 0.000000 2.112820 0.000000 
#    z -0.043370 0.000000 2.077450 
# 
# From -- ./inp_files/21749.got.cif
#   From: 2010.05.17/outbox.cif.g08.bks.cpg/sg14_11_cif.got.tgz:21749.got - 2010.06.03 17:49:19.
