data_PCOD9246870
_publ_section_title
;
Structure prediction by ZEFSAII (Michael W. Deem and Ramdas Pophale) SiO2 
 PCOD9246870
Probable space group: P 21/C
;
_chemical_formula_sum "Si O2"
_cell_formula_units_Z 24
_cell_length_a 14.612627
_cell_length_b 11.958108
_cell_length_c 14.967980
_cell_angle_alpha 90.000000
_cell_angle_beta 152.453367
_cell_angle_gamma 90.000000
_cell_volume 1209.589209
_symmetry_space_group_name_H-M "P 21/C"
_symmetry_group_IT_number 14
_symmetry_cell_setting 'monoclinic'
loop_
_space_group_symop_operation_xyz
x,y,z
-x,1/2+y,1/2-z
-x,-y,-z
x,1/2-y,1/2+z
loop_
_atom_site_type_symbol
_atom_site_label
_atom_site_fract_x
_atom_site_fract_y
_atom_site_fract_z
Si Si1 0.199187 0.675901 0.828263
Si Si2 0.803697 0.576861 0.757433
Si Si3 0.841823 0.237012 0.503006
Si Si4 0.503746 0.250635 0.563053
Si Si5 0.054495 0.122193 0.429654
Si Si6 0.153850 0.417124 0.812852
O O1 0.383401 0.713992 0.928545
O O2 0.166533 0.544002 0.792267
O O3 0.011554 0.748936 0.632109
O O4 0.223771 0.706241 0.953718
O O5 0.611249 0.632611 0.549402
O O6 0.855574 0.450834 0.775332
O O7 0.806959 0.593528 0.866895
O O8 0.993757 0.647492 0.886617
O O9 0.662720 0.240422 0.279429
O O10 0.957364 0.354784 0.607703
O O11 0.339244 0.157380 0.442996
O O12 0.142250 0.087803 0.410596
#
# Coordination Sequence:
#
# PCOD9246870 Si02
#       6
#     4   4   4   4   4   4
#     4  11  22  42  65  93 126 166 210 253 315 370
#     4  10  21  43  66  91 125 162 212 260 308 365
#     4  10  22  44  62  94 126 164 211 254 310 378
#     4  11  24  41  64  96 125 162 209 262 310 371
#     4  10  21  42  68  88 124 173 204 257 314 365
#     4  10  23  42  63  90 131 163 205 256 313 376
#
# _framework density 19.841446000000001
#
# number of rings (size 3 to 8) (size 9 to 14) (size 15 to 20)
#    0.000    1.667    3.333    0.500    2.333    1.333 
#    9.000    0.000    0.000    0.000    0.000    0.000 
#    0.000    0.000    0.000    0.000    0.000    0.000 
#
# Total GULP energy -134164.932806 kJ/mol
# GULP energy per Si atom -5590.205534 kJ/mol
# Density = 1.979629 g / cm^3
# Si number density = 19.841446 Si / 1000 Ang^3
#
#
#
# Elastic Constant Matrix: (Units=GPa)
#
#
# Indices 1 2 3 4 5 6 
#
# 1 68.4849 10.4113 35.4371 0.0000 -10.4706 0.0000
# 2 10.4113 84.2412 35.3532 0.0000 0.3740 0.0000
# 3 35.4371 35.3532 116.8677 0.0000 -3.9309 0.0000
# 4 0.0000 0.0000 0.0000 16.4215 0.0000 1.0981
# 5 -10.4706 0.3740 -3.9309 0.0000 17.6861 0.0000
# 6 0.0000 0.0000 0.0000 1.0981 0.0000 21.8092
#
#
#
# Elastic Compliance Matrix: (Units=1/GPa)
#
#
# Indices 1 2 3 4 5 6 
#
# 1 0.018928 -0.000133 -0.005362 0.000000 0.010017 0.000000
# 2 -0.000133 0.013624 -0.004124 0.000000 -0.001284 0.000000
# 3 -0.005362 -0.004124 0.011412 0.000000 -0.000551 0.000000
# 4 0.000000 0.000000 0.000000 0.061102 0.000000 -0.003076
# 5 0.010017 -0.001284 -0.000551 0.000000 0.062377 0.000000
# 6 0.000000 0.000000 0.000000 -0.003076 0.000000 0.046007
#
#
# Mechanical properties :
#
#
# Convention : Reuss Voigt Hill
#
# Bulk Modulus (GPa) = 40.44618 47.99965 44.22291
# Shear Modulus (GPa) = 20.75299 23.74283 22.24791
#
# Velocity S-wave (km/s) = 3.23761 3.46298 3.35219
# Velocity P-wave (km/s) = 5.86559 6.34301 6.10896
#
# Compressibility (1/GPa) = 0.02472421
#
# Stress axis : x y z
#
# Youngs Moduli (GPa) = 52.83132 73.40231 87.63015
#
# Poissons Ratio (x) = 0.00980 0.46989
# Poissons Ratio (y) = 0.00705 0.36138
# Poissons Ratio (z) = 0.28329 0.30271
#
# Static dielectric constant tensor:
#      x y z
#    x 1.693840 0.000000 0.002840 
#    y 0.000000 1.704170 0.000000 
#    z 0.002840 0.000000 1.669790 
# 
# From -- ./inp_files/46866.got.cif
#   From: 2010.05.17/outbox.cif.g08.bks.cpg/sg14_24_cif.got.tgz:46866.got - 2010.06.03 17:49:19.
