data_PCOD9246417
_publ_section_title
;
Structure prediction by ZEFSAII (Michael W. Deem and Ramdas Pophale) SiO2 
 PCOD9246417
Probable space group: P 21/C
;
_chemical_formula_sum "Si O2"
_cell_formula_units_Z 28
_cell_length_a 11.743662
_cell_length_b 8.883024
_cell_length_c 15.777606
_cell_angle_alpha 90.000000
_cell_angle_beta 123.900469
_cell_angle_gamma 90.000000
_cell_volume 1366.116123
_symmetry_space_group_name_H-M "P 21/C"
_symmetry_group_IT_number 14
_symmetry_cell_setting 'monoclinic'
loop_
_space_group_symop_operation_xyz
x,y,z
-x,1/2+y,1/2-z
-x,-y,-z
x,1/2-y,1/2+z
loop_
_atom_site_type_symbol
_atom_site_label
_atom_site_fract_x
_atom_site_fract_y
_atom_site_fract_z
Si Si1 0.443835 0.207272 0.308415
Si Si2 0.916478 0.900708 0.400330
Si Si3 0.824668 0.923265 0.894928
Si Si4 0.616723 0.571703 0.848159
Si Si5 0.968838 0.910366 0.118306
Si Si6 0.055002 0.077593 0.312285
Si Si7 0.374289 0.382146 0.958224
O O1 0.317579 0.121068 0.208212
O O2 0.475649 0.348246 0.261509
O O3 0.399277 0.230204 0.388208
O O4 0.568195 0.091938 0.354861
O O5 0.920887 0.722520 0.414972
O O6 0.760061 0.936826 0.358974
O O7 0.000000 0.000000 0.500000
O O8 0.975727 0.957360 0.337204
O O9 0.894669 0.067932 0.882207
O O10 0.839313 0.933664 0.002326
O O11 0.623351 0.661980 0.940760
O O12 0.963771 0.746211 0.159199
O O13 0.988331 0.042000 0.194622
O O14 0.220242 0.053031 0.379830
O O15 0.500000 0.500000 0.000000
#
# Coordination Sequence:
#
# PCOD9246417 Si02
#       7
#     4   4   4   4   4   4   4
#     4  10  21  42  65  85 122 167 204 255 310 362
#     4  11  20  39  64  92 124 165 205 256 317 367
#     4  10  21  41  61  90 128 162 202 264 317 366
#     4  10  22  40  64  91 122 162 208 257 301 376
#     4  11  23  36  60  93 124 162 203 258 316 369
#     4  12  22  39  63  92 129 162 208 260 312 380
#     4  10  21  41  65  87 119 171 209 242 308 377
#
# _framework density 20.496061999999998
#
# number of rings (size 3 to 8) (size 9 to 14) (size 15 to 20)
#    0.000    1.429    4.286    1.714    2.000    1.143 
#    0.000    2.143    0.000    0.000    0.000    0.000 
#    0.000    0.000    0.000    0.000    0.000    0.000 
#
# Total GULP energy -155899.534076 kJ/mol
# GULP energy per Si atom -5567.840503 kJ/mol
# Density = 2.044941 g / cm^3
# Si number density = 20.496062 Si / 1000 Ang^3
#
#
#
# Elastic Constant Matrix: (Units=GPa)
#
#
# Indices 1 2 3 4 5 6 
#
# 1 78.0797 29.8585 8.0111 0.0000 -16.0696 0.0000
# 2 29.8585 50.1608 12.6938 0.0000 0.1074 0.0000
# 3 8.0111 12.6938 91.0375 0.0000 -30.0967 0.0000
# 4 0.0000 0.0000 0.0000 38.5559 0.0000 -2.0453
# 5 -16.0696 0.1074 -30.0967 0.0000 31.5743 0.0000
# 6 0.0000 0.0000 0.0000 -2.0453 0.0000 30.5104
#
#
#
# Elastic Compliance Matrix: (Units=1/GPa)
#
#
# Indices 1 2 3 4 5 6 
#
# 1 0.020710 -0.013686 0.005236 0.000000 0.015578 0.000000
# 2 -0.013686 0.030082 -0.007778 0.000000 -0.014482 0.000000
# 3 0.005236 -0.007778 0.018249 0.000000 0.020086 0.000000
# 4 0.000000 0.000000 0.000000 0.026029 0.000000 0.001745
# 5 0.015578 -0.014482 0.020086 0.000000 0.058795 0.000000
# 6 0.000000 0.000000 0.000000 0.001745 0.000000 0.032893
#
#
# Mechanical properties :
#
#
# Convention : Reuss Voigt Hill
#
# Bulk Modulus (GPa) = 27.33401 35.60052 31.46726
# Shear Modulus (GPa) = 21.60694 31.37577 26.49135
#
# Velocity S-wave (km/s) = 3.25037 3.91681 3.59905
# Velocity P-wave (km/s) = 5.23944 6.15324 5.71463
#
# Compressibility (1/GPa) = 0.03658446
#
# Stress axis : x y z
#
# Youngs Moduli (GPa) = 48.28598 33.24265 54.79899
#
# Poissons Ratio (x) = 0.45496 -0.28692
# Poissons Ratio (y) = 0.66084 0.42621
# Poissons Ratio (z) = -0.25281 0.25855
#
# Static dielectric constant tensor:
#      x y z
#    x 1.713470 0.000000 -0.017730 
#    y 0.000000 1.745580 0.000000 
#    z -0.017730 0.000000 1.865210 
# 
# From -- ./inp_files/43488.got.cif
#   From: 2010.05.17/outbox.cif.g08.bks.cpg/sg14_22_cif.got.tgz:43488.got - 2010.06.03 17:49:19.
