data_PCOD9246387
_publ_section_title
;
Structure prediction by ZEFSAII (Michael W. Deem and Ramdas Pophale) SiO2 
 PCOD9246387
Probable space group: P 21/C
;
_chemical_formula_sum "Si O2"
_cell_formula_units_Z 30
_cell_length_a 27.524884
_cell_length_b 8.298299
_cell_length_c 9.079699
_cell_angle_alpha 90.000000
_cell_angle_beta 35.113012
_cell_angle_gamma 90.000000
_cell_volume 1192.883800
_symmetry_space_group_name_H-M "P 21/C"
_symmetry_group_IT_number 14
_symmetry_cell_setting 'monoclinic'
loop_
_space_group_symop_operation_xyz
x,y,z
-x,1/2+y,1/2-z
-x,-y,-z
x,1/2-y,1/2+z
loop_
_atom_site_type_symbol
_atom_site_label
_atom_site_fract_x
_atom_site_fract_y
_atom_site_fract_z
Si Si1 0.257405 0.425353 0.433668
Si Si2 0.104082 0.612884 0.972738
Si Si3 0.765753 0.150358 0.278797
Si Si4 0.840244 0.871490 0.242884
Si Si5 0.499231 0.783611 0.734290
Si Si6 0.388162 0.883670 0.756375
Si Si7 0.500000 0.500000 0.500000
Si Si8 0.050789 0.297590 0.260121
O O1 0.263115 0.515536 0.264718
O O2 0.232632 0.240876 0.509741
O O3 0.340848 0.457655 0.321712
O O4 0.178529 0.522472 0.701070
O O5 0.053274 0.467512 0.171789
O O6 0.037637 0.710324 0.039964
O O7 0.155480 0.732383 0.953858
O O8 0.685181 0.258817 0.512513
O O9 0.803396 0.049349 0.322225
O O10 0.919569 0.836576 0.150410
O O11 0.876147 0.812481 0.996395
O O12 0.451968 0.898958 0.732905
O O13 0.529906 0.640396 0.548561
O O14 0.542591 0.892861 0.753808
O O15 0.429506 0.702783 0.014539
#
# Coordination Sequence:
#
# PCOD9246387 Si02
#       8
#     4   4   4   4   4   4   2   4
#     4  10  22  41  61  93 127 172 217 289 340 423
#     4  10  25  37  62  84 118 162 225 277 364 416
#     4  11  22  40  62  92 128 174 216 290 341 418
#     4  11  24  40  60  85 127 162 222 286 360 403
#     4  10  22  46  74 115 146 202 227 293 330 428
#     4  10  21  40  74  96 141 179 240 265 347 403
#     4  10  24  44  80 108 164 188 248 276 356 392
#     4  11  24  39  58  86 114 165 219 292 348 442
#
# _framework density 25.149138000000001
#
# number of rings (size 3 to 8) (size 9 to 14) (size 15 to 20)
#    0.000    1.600    2.667    0.800    5.600    5.333 
#    0.000    5.333    0.000    0.000    0.000    0.000 
#    0.000    0.000    0.000    0.000    0.000    0.000 
#
# Total GULP energy -167144.306876 kJ/mol
# GULP energy per Si atom -5571.476896 kJ/mol
# Density = 2.509190 g / cm^3
# Si number density = 25.149138 Si / 1000 Ang^3
#
#
#
# Elastic Constant Matrix: (Units=GPa)
#
#
# Indices 1 2 3 4 5 6 
#
# 1 94.5813 14.2264 9.8193 0.0000 17.0777 0.0000
# 2 14.2264 73.0041 -3.9552 0.0000 -3.4370 0.0000
# 3 9.8193 -3.9552 29.3226 0.0000 10.2725 0.0000
# 4 0.0000 0.0000 0.0000 24.0274 0.0000 2.8690
# 5 17.0777 -3.4370 10.2725 0.0000 33.6480 0.0000
# 6 0.0000 0.0000 0.0000 2.8690 0.0000 29.2523
#
#
#
# Elastic Compliance Matrix: (Units=1/GPa)
#
#
# Indices 1 2 3 4 5 6 
#
# 1 0.012293 -0.002801 -0.002473 0.000000 -0.005770 0.000000
# 2 -0.002801 0.014464 0.002098 0.000000 0.002259 0.000000
# 3 -0.002473 0.002098 0.038855 0.000000 -0.010393 0.000000
# 4 0.000000 0.000000 0.000000 0.042112 0.000000 -0.004130
# 5 -0.005770 0.002259 -0.010393 0.000000 0.036052 0.000000
# 6 0.000000 0.000000 0.000000 -0.004130 0.000000 0.034590
#
#
# Mechanical properties :
#
#
# Convention : Reuss Voigt Hill
#
# Bulk Modulus (GPa) = 16.87498 26.34320 21.60909
# Shear Modulus (GPa) = 24.45319 29.17336 26.81328
#
# Velocity S-wave (km/s) = 3.12160 3.40959 3.26877
# Velocity P-wave (km/s) = 4.44039 5.09882 4.78095
#
# Compressibility (1/GPa) = 0.05925931
#
# Stress axis : x y z
#
# Youngs Moduli (GPa) = 81.34795 69.13851 25.73645
#
# Poissons Ratio (x) = 0.19367 0.06364
# Poissons Ratio (y) = 0.22787 -0.05399
# Poissons Ratio (z) = 0.20116 -0.14503
#
# Static dielectric constant tensor:
#      x y z
#    x 2.046890 0.000000 0.020050 
#    y 0.000000 2.001270 0.000000 
#    z 0.020050 0.000000 2.049560 
# 
# From -- ./inp_files/19730.got.cif
#   From: 2010.05.17/outbox.cif.g08.bks.cpg/sg14_10_cif.got.tgz:19730.got - 2010.06.03 17:49:19.
