data_PCOD9246222
_publ_section_title
;
Structure prediction by ZEFSAII (Michael W. Deem and Ramdas Pophale) SiO2 
 PCOD9246222
Probable space group: P 21/C
;
_chemical_formula_sum "Si O2"
_cell_formula_units_Z 24
_cell_length_a 8.926954
_cell_length_b 7.988225
_cell_length_c 14.009419
_cell_angle_alpha 90.000000
_cell_angle_beta 72.838433
_cell_angle_gamma 90.000000
_cell_volume 954.539098
_symmetry_space_group_name_H-M "P 21/C"
_symmetry_group_IT_number 14
_symmetry_cell_setting 'monoclinic'
loop_
_space_group_symop_operation_xyz
x,y,z
-x,1/2+y,1/2-z
-x,-y,-z
x,1/2-y,1/2+z
loop_
_atom_site_type_symbol
_atom_site_label
_atom_site_fract_x
_atom_site_fract_y
_atom_site_fract_z
Si Si1 0.060914 0.483802 0.842209
Si Si2 0.091863 0.754015 0.482409
Si Si3 0.776691 0.490286 0.780592
Si Si4 0.356221 0.184891 0.210257
Si Si5 0.237933 0.068760 0.942765
Si Si6 0.554602 0.310287 0.345736
O O1 0.962272 0.498304 0.764689
O O2 0.122222 0.655529 0.875807
O O3 0.205651 0.361328 0.803471
O O4 0.934819 0.401561 0.937256
O O5 0.217410 0.616406 0.491391
O O6 0.922880 0.664216 0.504905
O O7 0.700075 0.657838 0.840859
O O8 0.754435 0.516773 0.671224
O O9 0.687245 0.328001 0.837360
O O10 0.494959 0.253546 0.250882
O O11 0.391903 0.003404 0.161061
O O12 0.391778 0.177382 0.935416
#
# Coordination Sequence:
#
# PCOD9246222 Si02
#       6
#     4   4   4   4   4   4
#     4  11  24  41  64  99 125 168 212 265 319 376
#     4  10  22  40  64  90 137 168 202 257 332 392
#     4  11  24  41  66  98 122 161 225 267 299 373
#     4  11  22  38  66  95 125 164 213 265 317 364
#     4  10  21  40  65  93 123 171 211 257 321 380
#     4  11  21  40  64  96 125 165 214 266 315 368
#
# _framework density 25.143025000000002
#
# number of rings (size 3 to 8) (size 9 to 14) (size 15 to 20)
#    0.000    1.333    6.667    1.000    4.667    0.000 
#    3.000    1.667    0.000    0.000    0.000    0.000 
#    0.000    0.000    0.000    0.000    0.000    0.000 
#
# Total GULP energy -134051.694594 kJ/mol
# GULP energy per Si atom -5585.487275 kJ/mol
# Density = 2.508580 g / cm^3
# Si number density = 25.143025 Si / 1000 Ang^3
#
#
#
# Elastic Constant Matrix: (Units=GPa)
#
#
# Indices 1 2 3 4 5 6 
#
# 1 59.8045 25.7525 8.8570 0.0000 -12.4055 0.0000
# 2 25.7525 171.3312 21.0805 0.0000 -14.8072 0.0000
# 3 8.8570 21.0805 46.2908 0.0000 -4.4320 0.0000
# 4 0.0000 0.0000 0.0000 29.9290 0.0000 -21.1279
# 5 -12.4055 -14.8072 -4.4320 0.0000 21.6447 0.0000
# 6 0.0000 0.0000 0.0000 -21.1279 0.0000 39.1277
#
#
#
# Elastic Compliance Matrix: (Units=1/GPa)
#
#
# Indices 1 2 3 4 5 6 
#
# 1 0.019841 -0.001900 -0.002006 0.000000 0.009661 0.000000
# 2 -0.001900 0.006675 -0.002390 0.000000 0.002987 0.000000
# 3 -0.002006 -0.002390 0.023264 0.000000 0.001979 0.000000
# 4 0.000000 0.000000 0.000000 0.053994 0.000000 0.029156
# 5 0.009661 0.002987 0.001979 0.000000 0.054187 0.000000
# 6 0.000000 0.000000 0.000000 0.029156 0.000000 0.041301
#
#
# Mechanical properties :
#
#
# Convention : Reuss Voigt Hill
#
# Bulk Modulus (GPa) = 26.89115 43.20072 35.04593
# Shear Modulus (GPa) = 22.29668 32.92271 27.60969
#
# Velocity S-wave (km/s) = 2.98114 3.62251 3.31736
# Velocity P-wave (km/s) = 4.75059 5.89204 5.35183
#
# Compressibility (1/GPa) = 0.03718696
#
# Stress axis : x y z
#
# Youngs Moduli (GPa) = 50.40195 149.82286 42.98460
#
# Poissons Ratio (x) = 0.28474 0.08622
# Poissons Ratio (y) = 0.09579 0.10273
# Poissons Ratio (z) = 0.10109 0.35806
#
# Static dielectric constant tensor:
#      x y z
#    x 1.982140 0.000000 -0.006020 
#    y 0.000000 2.032620 0.000000 
#    z -0.006020 0.000000 2.066050 
# 
# From -- ./inp_files/54512.got.cif
#   From: 2010.05.17/outbox.cif.g08.bks.cpg/sg14_28_cif.got.tgz:54512.got - 2010.06.03 17:49:19.
