data_PCOD9246561
_publ_section_title
;
Structure prediction by ZEFSAII (Michael W. Deem and Ramdas Pophale) SiO2 
 PCOD9246561
Probable space group: P 21/C
;
_chemical_formula_sum "Si O2"
_cell_formula_units_Z 22
_cell_length_a 7.255192
_cell_length_b 7.264086
_cell_length_c 16.380703
_cell_angle_alpha 90.000000
_cell_angle_beta 102.349182
_cell_angle_gamma 90.000000
_cell_volume 843.326594
_symmetry_space_group_name_H-M "P 21/C"
_symmetry_group_IT_number 14
_symmetry_cell_setting 'monoclinic'
loop_
_space_group_symop_operation_xyz
x,y,z
-x,1/2+y,1/2-z
-x,-y,-z
x,1/2-y,1/2+z
loop_
_atom_site_type_symbol
_atom_site_label
_atom_site_fract_x
_atom_site_fract_y
_atom_site_fract_z
Si Si1 0.711265 0.226183 0.573841
Si Si2 0.676477 0.921589 0.443246
Si Si3 0.575986 0.265545 0.345656
Si Si4 0.771397 0.726192 0.790135
Si Si5 0.123469 0.859861 0.234319
Si Si6 0.500000 0.500000 0.500000
O O1 0.761213 0.050387 0.521950
O O2 0.786895 0.201388 0.670799
O O3 0.729679 0.429877 0.541640
O O4 0.473277 0.235525 0.541600
O O5 0.539550 0.068721 0.384558
O O6 0.805747 0.837361 0.385844
O O7 0.444047 0.301592 0.255822
O O8 0.788697 0.243185 0.331113
O O9 0.529273 0.417693 0.407323
O O10 0.904274 0.636939 0.734661
O O11 0.811951 0.939362 0.784657
#
# Coordination Sequence:
#
# PCOD9246561 Si02
#       6
#     4   4   4   4   4   2
#     4  10  21  41  66 100 126 179 216 272 327 403
#     4  10  21  41  68  92 134 171 220 269 340 378
#     4  11  22  44  67  98 129 179 219 282 325 402
#     4  12  24  41  65 100 133 176 219 282 325 404
#     4  12  26  41  70  98 134 174 227 266 341 387
#     4  10  24  38  74  94 134 176 222 266 344 386
#
# _framework density 26.087164000000001
#
# number of rings (size 3 to 8) (size 9 to 14) (size 15 to 20)
#    0.000    1.091    3.636    2.182    5.091    0.727 
#    0.000    0.909    0.000    0.000    0.000    0.000 
#    0.000    0.000    0.000    0.000    0.000    0.000 
#
# Total GULP energy -122566.788958 kJ/mol
# GULP energy per Si atom -5571.217680 kJ/mol
# Density = 2.602779 g / cm^3
# Si number density = 26.087164 Si / 1000 Ang^3
#
#
#
# Elastic Constant Matrix: (Units=GPa)
#
#
# Indices 1 2 3 4 5 6 
#
# 1 53.7850 -0.9912 9.1858 0.0000 -22.3200 0.0000
# 2 -0.9912 76.6580 25.9536 0.0000 7.7100 0.0000
# 3 9.1858 25.9536 90.3759 0.0000 -11.8602 0.0000
# 4 0.0000 0.0000 0.0000 37.9866 0.0000 -3.3433
# 5 -22.3200 7.7100 -11.8602 0.0000 40.1379 0.0000
# 6 0.0000 0.0000 0.0000 -3.3433 0.0000 17.3503
#
#
#
# Elastic Compliance Matrix: (Units=1/GPa)
#
#
# Indices 1 2 3 4 5 6 
#
# 1 0.024269 -0.000902 -0.000430 0.000000 0.013542 0.000000
# 2 -0.000902 0.015185 -0.004908 0.000000 -0.004869 0.000000
# 3 -0.000430 -0.004908 0.013119 0.000000 0.004580 0.000000
# 4 0.000000 0.000000 0.000000 0.026779 0.000000 0.005160
# 5 0.013542 -0.004869 0.004580 0.000000 0.034733 0.000000
# 6 0.000000 0.000000 0.000000 0.005160 0.000000 0.058630
#
#
# Mechanical properties :
#
#
# Convention : Reuss Voigt Hill
#
# Bulk Modulus (GPa) = 24.94304 32.12390 28.53347
# Shear Modulus (GPa) = 25.18127 31.53968 28.36048
#
# Velocity S-wave (km/s) = 3.11026 3.48086 3.30076
# Velocity P-wave (km/s) = 4.74135 5.33816 5.04858
#
# Compressibility (1/GPa) = 0.04009135
#
# Stress axis : x y z
#
# Youngs Moduli (GPa) = 41.20468 65.85621 76.22481
#
# Poissons Ratio (x) = 0.05943 0.03281
# Poissons Ratio (y) = 0.03719 0.37410
# Poissons Ratio (z) = 0.01774 0.32321
#
# Static dielectric constant tensor:
#      x y z
#    x 2.763560 0.000000 -0.567610 
#    y 0.000000 7.163900 0.000000 
#    z -0.567610 0.000000 2.756760 
# 
# From -- ./inp_files/54272.got.cif
#   From: 2010.05.17/outbox.cif.g08.bks.cpg/sg14_28_cif.got.tgz:54272.got - 2010.06.03 17:49:19.
