data_PCOD9246984
_publ_section_title
;
Structure prediction by ZEFSAII (Michael W. Deem and Ramdas Pophale) SiO2 
 PCOD9246984
Probable space group: P 21/C
;
_chemical_formula_sum "Si O2"
_cell_formula_units_Z 30
_cell_length_a 16.487290
_cell_length_b 5.574801
_cell_length_c 14.791255
_cell_angle_alpha 90.000000
_cell_angle_beta 116.564382
_cell_angle_gamma 90.000000
_cell_volume 1215.993351
_symmetry_space_group_name_H-M "P 21/C"
_symmetry_group_IT_number 14
_symmetry_cell_setting 'monoclinic'
loop_
_space_group_symop_operation_xyz
x,y,z
-x,1/2+y,1/2-z
-x,-y,-z
x,1/2-y,1/2+z
loop_
_atom_site_type_symbol
_atom_site_label
_atom_site_fract_x
_atom_site_fract_y
_atom_site_fract_z
Si Si1 0.500000 0.000000 0.500000
Si Si2 0.472411 0.780432 0.285191
Si Si3 0.111239 0.718846 0.749676
Si Si4 0.279098 0.567172 0.668635
Si Si5 0.716298 0.533199 0.135908
Si Si6 0.891462 0.420634 0.924843
Si Si7 0.981507 0.156575 0.120744
Si Si8 0.190779 0.305420 0.478834
O O1 0.499792 0.846978 0.401519
O O2 0.612650 0.004783 0.556435
O O3 0.492248 0.025338 0.236225
O O4 0.364024 0.761337 0.223819
O O5 0.216541 0.698632 0.829111
O O6 0.091856 0.943592 0.674332
O O7 0.048478 0.700114 0.805940
O O8 0.074016 0.486503 0.676953
O O9 0.283425 0.392767 0.758058
O O10 0.188944 0.723027 0.622141
O O11 0.274154 0.431997 0.571669
O O12 0.770010 0.701263 0.093849
O O13 0.972677 0.293897 0.021220
O O14 0.846788 0.613006 0.968152
O O15 0.896751 0.969171 0.079833
#
# Coordination Sequence:
#
# PCOD9246984 Si02
#       8
#     2   4   4   4   4   4   4   4
#     4  10  24  44  72 108 140 188 242 302 372 438
#     4  11  25  44  71 104 143 189 241 310 370 439
#     4  11  23  42  66  93 137 173 218 282 334 415
#     4   9  23  40  63  97 130 176 225 277 348 417
#     4  10  21  43  65  96 135 172 224 283 341 421
#     4  10  23  42  65  92 130 176 220 273 337 410
#     4  11  24  42  61 102 129 176 221 271 342 409
#     4  11  22  40  68  94 132 176 223 279 344 412
#
# _framework density 24.671188000000001
#
# number of rings (size 3 to 8) (size 9 to 14) (size 15 to 20)
#    0.000    1.600    1.333    2.000    5.600    1.067 
#    2.400    0.000    0.000    0.000    0.000    0.000 
#    0.000    0.000    0.000    0.000    0.000    0.000 
#
# Total GULP energy -167112.375541 kJ/mol
# GULP energy per Si atom -5570.412518 kJ/mol
# Density = 2.461504 g / cm^3
# Si number density = 24.671188 Si / 1000 Ang^3
#
#
#
# Elastic Constant Matrix: (Units=GPa)
#
#
# Indices 1 2 3 4 5 6 
#
# 1 105.0537 14.1663 28.5330 0.0000 13.8568 0.0000
# 2 14.1663 54.4197 17.2611 0.0000 -7.6297 0.0000
# 3 28.5330 17.2611 100.6655 0.0000 13.6280 0.0000
# 4 0.0000 0.0000 0.0000 29.0342 0.0000 -7.5059
# 5 13.8568 -7.6297 13.6280 0.0000 58.2405 0.0000
# 6 0.0000 0.0000 0.0000 -7.5059 0.0000 12.5803
#
#
#
# Elastic Compliance Matrix: (Units=1/GPa)
#
#
# Indices 1 2 3 4 5 6 
#
# 1 0.010783 -0.002395 -0.002330 0.000000 -0.002334 0.000000
# 2 -0.002395 0.020653 -0.003414 0.000000 0.004074 0.000000
# 3 -0.002330 -0.003414 0.011530 0.000000 -0.002591 0.000000
# 4 0.000000 0.000000 0.000000 0.040724 0.000000 0.024297
# 5 -0.002334 0.004074 -0.002591 0.000000 0.018866 0.000000
# 6 0.000000 0.000000 0.000000 0.024297 0.000000 0.093986
#
#
# Mechanical properties :
#
#
# Convention : Reuss Voigt Hill
#
# Bulk Modulus (GPa) = 37.46930 42.22886 39.84908
# Shear Modulus (GPa) = 22.55142 33.31623 27.93382
#
# Velocity S-wave (km/s) = 3.02665 3.67878 3.36853
# Velocity P-wave (km/s) = 5.23781 5.93282 5.59612
#
# Compressibility (1/GPa) = 0.02668852
#
# Stress axis : x y z
#
# Youngs Moduli (GPa) = 92.74271 48.41835 86.72743
#
# Poissons Ratio (x) = 0.11597 0.20204
# Poissons Ratio (y) = 0.22214 0.29610
# Poissons Ratio (z) = 0.21605 0.16531
#
# Static dielectric constant tensor:
#      x y z
#    x 2.003440 0.000000 -0.082870 
#    y 0.000000 2.026460 0.000000 
#    z -0.082870 0.000000 2.022280 
# 
# From -- ./inp_files/48229.got.cif
#   From: 2010.05.17/outbox.cif.g08.bks.cpg/sg14_25_cif.got.tgz:48229.got - 2010.06.03 17:49:19.
