data_PCOD9246706
_publ_section_title
;
Structure prediction by ZEFSAII (Michael W. Deem and Ramdas Pophale) SiO2 
 PCOD9246706
Probable space group: P 21/C
;
_chemical_formula_sum "Si O2"
_cell_formula_units_Z 32
_cell_length_a 19.187666
_cell_length_b 10.642155
_cell_length_c 13.527449
_cell_angle_alpha 90.000000
_cell_angle_beta 153.515181
_cell_angle_gamma 90.000000
_cell_volume 1231.868079
_symmetry_space_group_name_H-M "P 21/C"
_symmetry_group_IT_number 14
_symmetry_cell_setting 'monoclinic'
loop_
_space_group_symop_operation_xyz
x,y,z
-x,1/2+y,1/2-z
-x,-y,-z
x,1/2-y,1/2+z
loop_
_atom_site_type_symbol
_atom_site_label
_atom_site_fract_x
_atom_site_fract_y
_atom_site_fract_z
Si Si1 0.893772 0.006944 0.714179
Si Si2 0.848261 0.845151 0.323588
Si Si3 0.406755 0.773251 0.874505
Si Si4 0.883446 0.556263 0.663725
Si Si5 0.594636 0.400859 0.296981
Si Si6 0.879291 0.158431 0.877725
Si Si7 0.270801 0.308453 0.113975
Si Si8 0.495321 0.639020 0.294065
O O1 0.778903 0.896169 0.538905
O O2 0.437620 0.774214 0.182049
O O3 0.959574 0.069006 0.699093
O O4 0.052708 0.948681 0.963722
O O5 0.911594 0.934922 0.316522
O O6 0.828298 0.855165 0.415977
O O7 0.964243 0.729537 0.456237
O O8 0.669524 0.834493 0.058667
O O9 0.453568 0.644525 0.874140
O O10 0.248353 0.744493 0.731260
O O11 0.395159 0.873584 0.769029
O O12 0.550778 0.810931 0.125374
O O13 0.778271 0.431818 0.521118
O O14 0.778979 0.669516 0.485031
O O15 0.516401 0.521797 0.248181
O O16 0.182030 0.595021 0.800278
#
# Coordination Sequence:
#
# PCOD9246706 Si02
#       8
#     4   4   4   4   4   4   4   4
#     4  11  23  40  77 114 153 198 266 331 394 483
#     4  10  21  41  76 107 154 198 257 330 403 484
#     4   9  21  41  74 113 157 207 260 333 402 484
#     4  11  21  41  72 112 148 203 257 331 404 472
#     4   9  18  38  70 111 157 207 267 322 402 486
#     4  11  21  43  74 115 150 201 272 315 397 487
#     4  11  23  44  73 116 151 202 258 333 409 468
#     4   8  18  38  69 115 155 210 268 320 405 475
#
# _framework density 25.976807999999998
#
# number of rings (size 3 to 8) (size 9 to 14) (size 15 to 20)
#    0.750    1.250    3.750    0.000    0.000    1.000 
#    4.500    1.250   22.000    0.750   22.750    0.000 
#    0.000    0.000    0.000    0.000    0.000    0.000 
#
# Total GULP energy -178867.108249 kJ/mol
# GULP energy per Si atom -5589.597133 kJ/mol
# Density = 2.591768 g / cm^3
# Si number density = 25.976808 Si / 1000 Ang^3
#
#
#
# Elastic Constant Matrix: (Units=GPa)
#
#
# Indices 1 2 3 4 5 6 
#
# 1 177.9905 29.0127 52.1454 0.0000 4.4321 0.0000
# 2 29.0127 84.0378 42.4541 0.0000 1.5362 0.0000
# 3 52.1454 42.4541 75.3275 0.0000 9.4511 0.0000
# 4 0.0000 0.0000 0.0000 45.7691 0.0000 -8.5040
# 5 4.4321 1.5362 9.4511 0.0000 35.1616 0.0000
# 6 0.0000 0.0000 0.0000 -8.5040 0.0000 48.0354
#
#
#
# Elastic Compliance Matrix: (Units=1/GPa)
#
#
# Indices 1 2 3 4 5 6 
#
# 1 0.007054 0.000072 -0.004980 0.000000 0.000446 0.000000
# 2 0.000072 0.016755 -0.009728 0.000000 0.001874 0.000000
# 3 -0.004980 -0.009728 0.022844 0.000000 -0.005087 0.000000
# 4 0.000000 0.000000 0.000000 0.022592 0.000000 0.004000
# 5 0.000446 0.001874 -0.005087 0.000000 0.029669 0.000000
# 6 0.000000 0.000000 0.000000 0.004000 0.000000 0.021526
#
#
# Mechanical properties :
#
#
# Convention : Reuss Voigt Hill
#
# Bulk Modulus (GPa) = 57.53336 64.95335 61.24336
# Shear Modulus (GPa) = 32.15324 40.04279 36.09801
#
# Velocity S-wave (km/s) = 3.52201 3.93043 3.73181
# Velocity P-wave (km/s) = 6.22378 6.75695 6.49584
#
# Compressibility (1/GPa) = 0.01738122
#
# Stress axis : x y z
#
# Youngs Moduli (GPa) = 141.75551 59.68539 43.77568
#
# Poissons Ratio (x) = -0.00431 0.21801
# Poissons Ratio (y) = -0.01025 0.42584
# Poissons Ratio (z) = 0.70596 0.58061
#
# Static dielectric constant tensor:
#      x y z
#    x 2.107470 0.000000 0.008140 
#    y 0.000000 2.088340 0.000000 
#    z 0.008140 0.000000 2.066320 
# 
# From -- ./inp_files/50644.got.cif
#   From: 2010.05.17/outbox.cif.g08.bks.cpg/sg14_26_cif.got.tgz:50644.got - 2010.06.03 17:49:19.
