data_PCOD9246069
_publ_section_title
;
Structure prediction by ZEFSAII (Michael W. Deem and Ramdas Pophale) SiO2 
 PCOD9246069
Probable space group: P 21/C
;
_chemical_formula_sum "Si O2"
_cell_formula_units_Z 24
_cell_length_a 7.307278
_cell_length_b 16.587041
_cell_length_c 16.725740
_cell_angle_alpha 90.000000
_cell_angle_beta 37.336530
_cell_angle_gamma 90.000000
_cell_volume 1229.525199
_symmetry_space_group_name_H-M "P 21/C"
_symmetry_group_IT_number 14
_symmetry_cell_setting 'monoclinic'
loop_
_space_group_symop_operation_xyz
x,y,z
-x,1/2+y,1/2-z
-x,-y,-z
x,1/2-y,1/2+z
loop_
_atom_site_type_symbol
_atom_site_label
_atom_site_fract_x
_atom_site_fract_y
_atom_site_fract_z
Si Si1 0.889393 0.325347 0.958349
Si Si2 0.841612 0.501481 0.910789
Si Si3 0.781649 0.679596 0.991538
Si Si4 0.728929 0.941896 0.876127
Si Si5 0.176699 0.682279 0.292898
Si Si6 0.451299 0.201307 0.168685
O O1 0.874923 0.421531 0.953427
O O2 0.100526 0.291817 0.814699
O O3 0.576273 0.279948 0.080379
O O4 0.069214 0.303180 0.975186
O O5 0.873983 0.588664 0.938428
O O6 0.074259 0.489562 0.757792
O O7 0.500000 0.500000 0.000000
O O8 0.943724 0.742872 0.876863
O O9 0.424734 0.686231 0.135103
O O10 0.539499 0.874308 0.893863
O O11 0.968630 0.895953 0.850135
O O12 0.500000 0.000000 0.000000
O O13 0.360447 0.682812 0.314187
#
# Coordination Sequence:
#
# PCOD9246069 Si02
#       6
#     4   4   4   4   4   4
#     4   9  20  39  61  87 116 155 195 243 292 350
#     4  11  22  38  58  89 119 156 195 241 297 349
#     4  10  21  40  62  85 118 154 198 242 295 353
#     4  11  25  40  58  88 122 156 196 246 297 348
#     4  10  22  40  62  88 116 155 196 244 292 353
#     4   9  21  40  61  86 119 152 198 241 292 349
#
# _framework density 19.519732000000001
#
# number of rings (size 3 to 8) (size 9 to 14) (size 15 to 20)
#    0.000    2.000    1.667    0.500    4.667    2.000 
#    0.000    0.000    0.000    0.000    0.000    0.000 
#    0.000    0.000    0.000    0.000    0.000    0.000 
#
# Total GULP energy -133819.399607 kJ/mol
# GULP energy per Si atom -5575.808317 kJ/mol
# Density = 1.947530 g / cm^3
# Si number density = 19.519732 Si / 1000 Ang^3
#
#
#
# Elastic Constant Matrix: (Units=GPa)
#
#
# Indices 1 2 3 4 5 6 
#
# 1 53.2871 1.7945 14.2807 0.0000 -7.3030 0.0000
# 2 1.7945 106.3871 97.0037 0.0000 4.5927 0.0000
# 3 14.2807 97.0037 121.0289 0.0000 -0.5261 0.0000
# 4 0.0000 0.0000 0.0000 44.5976 0.0000 -3.2225
# 5 -7.3030 4.5927 -0.5261 0.0000 22.5566 0.0000
# 6 0.0000 0.0000 0.0000 -3.2225 0.0000 33.9112
#
#
#
# Elastic Compliance Matrix: (Units=1/GPa)
#
#
# Indices 1 2 3 4 5 6 
#
# 1 0.021309 0.006226 -0.007480 0.000000 0.005457 0.000000
# 2 0.006226 0.038150 -0.031340 0.000000 -0.006483 0.000000
# 3 -0.007480 -0.031340 0.034284 0.000000 0.004759 0.000000
# 4 0.000000 0.000000 0.000000 0.022578 0.000000 0.002146
# 5 0.005457 -0.006483 0.004759 0.000000 0.047531 0.000000
# 6 0.000000 0.000000 0.000000 0.002146 0.000000 0.029693
#
#
# Mechanical properties :
#
#
# Convention : Reuss Voigt Hill
#
# Bulk Modulus (GPa) = 35.02064 56.31786 45.66925
# Shear Modulus (GPa) = 18.63919 31.38802 25.01360
#
# Velocity S-wave (km/s) = 3.09348 4.01436 3.58362
# Velocity P-wave (km/s) = 5.54433 7.09938 6.36949
#
# Compressibility (1/GPa) = 0.02855459
#
# Stress axis : x y z
#
# Youngs Moduli (GPa) = 46.92803 26.21232 29.16784
#
# Poissons Ratio (x) = -0.16319 0.21819
# Poissons Ratio (y) = -0.29216 0.91411
# Poissons Ratio (z) = 0.35104 0.82149
#
# Static dielectric constant tensor:
#      x y z
#    x 1.865970 0.000000 0.036310 
#    y 0.000000 1.595480 0.000000 
#    z 0.036310 0.000000 1.716130 
# 
# From -- ./inp_files/32512.got.cif
#   From: 2010.05.17/outbox.cif.g08.bks.cpg/sg14_17_cif.got.tgz:32512.got - 2010.06.03 17:49:19.
