data_PCOD9246252
_publ_section_title
;
Structure prediction by ZEFSAII (Michael W. Deem and Ramdas Pophale) SiO2 
 PCOD9246252
Probable space group: P 21/C
;
_chemical_formula_sum "Si O2"
_cell_formula_units_Z 24
_cell_length_a 8.525571
_cell_length_b 4.948287
_cell_length_c 22.187115
_cell_angle_alpha 90.000000
_cell_angle_beta 75.236357
_cell_angle_gamma 90.000000
_cell_volume 905.105193
_symmetry_space_group_name_H-M "P 21/C"
_symmetry_group_IT_number 14
_symmetry_cell_setting 'monoclinic'
loop_
_space_group_symop_operation_xyz
x,y,z
-x,1/2+y,1/2-z
-x,-y,-z
x,1/2-y,1/2+z
loop_
_atom_site_type_symbol
_atom_site_label
_atom_site_fract_x
_atom_site_fract_y
_atom_site_fract_z
Si Si1 0.334876 0.515197 0.859721
Si Si2 0.981912 0.118384 0.390156
Si Si3 0.698628 0.782334 0.441161
Si Si4 0.097968 0.573378 0.718567
Si Si5 0.546895 0.979152 0.837213
Si Si6 0.239719 0.720837 0.495413
O O1 0.428174 0.760361 0.818329
O O2 0.284349 0.508789 0.714195
O O3 0.457654 0.264454 0.854998
O O4 0.266649 0.661279 0.927416
O O5 0.884849 0.836858 0.402200
O O6 0.894553 0.297600 0.348661
O O7 0.942560 0.244823 0.459780
O O8 0.166004 0.100927 0.352399
O O9 0.596565 0.665443 0.396113
O O10 0.660805 0.082228 0.468787
O O11 0.702380 0.578492 0.496592
O O12 0.014064 0.810233 0.765324
#
# Coordination Sequence:
#
# PCOD9246252 Si02
#       6
#     4   4   4   4   4   4
#     4  12  26  39  71 105 154 172 209 286 347 387
#     4  10  25  45  70 101 138 182 234 266 325 422
#     4  10  21  40  66  88 147 179 240 245 309 408
#     4  12  26  49  79  92 121 183 240 287 343 408
#     4  12  25  45  64 109 137 171 230 290 335 394
#     4  10  22  39  69  99 144 191 226 242 332 417
#
# _framework density 26.516255000000001
#
# number of rings (size 3 to 8) (size 9 to 14) (size 15 to 20)
#    1.000    0.000    1.667    5.500    2.333    4.667 
#    0.000    3.333    0.000    2.000    0.000    0.000 
#    0.000    0.000    0.000    0.000    0.000    0.000 
#
# Total GULP energy -134370.799489 kJ/mol
# GULP energy per Si atom -5598.783312 kJ/mol
# Density = 2.645590 g / cm^3
# Si number density = 26.516255 Si / 1000 Ang^3
#
#
#
# Elastic Constant Matrix: (Units=GPa)
#
#
# Indices 1 2 3 4 5 6 
#
# 1 139.5074 25.9787 13.5530 0.0000 -41.1318 0.0000
# 2 25.9787 137.3662 4.1259 0.0000 -17.9652 0.0000
# 3 13.5530 4.1259 66.3329 0.0000 -19.0713 0.0000
# 4 0.0000 0.0000 0.0000 24.3705 0.0000 -18.6252
# 5 -41.1318 -17.9652 -19.0713 0.0000 36.8596 0.0000
# 6 0.0000 0.0000 0.0000 -18.6252 0.0000 48.9373
#
#
#
# Elastic Compliance Matrix: (Units=1/GPa)
#
#
# Indices 1 2 3 4 5 6 
#
# 1 0.010830 -0.000441 0.001442 0.000000 0.012616 0.000000
# 2 -0.000441 0.007822 0.000656 0.000000 0.003659 0.000000
# 3 0.001442 0.000656 0.017967 0.000000 0.011225 0.000000
# 4 0.000000 0.000000 0.000000 0.057864 0.000000 0.022023
# 5 0.012616 0.003659 0.011225 0.000000 0.048800 0.000000
# 6 0.000000 0.000000 0.000000 0.022023 0.000000 0.028816
#
#
# Mechanical properties :
#
#
# Convention : Reuss Voigt Hill
#
# Bulk Modulus (GPa) = 25.04276 47.83573 36.43925
# Shear Modulus (GPa) = 27.45784 42.00339 34.73061
#
# Velocity S-wave (km/s) = 3.22142 3.98435 3.62302
# Velocity P-wave (km/s) = 4.82717 6.26466 5.59230
#
# Compressibility (1/GPa) = 0.03993169
#
# Stress axis : x y z
#
# Youngs Moduli (GPa) = 92.33720 127.84193 55.65638
#
# Poissons Ratio (x) = 0.05644 -0.08025
# Poissons Ratio (y) = 0.04077 -0.03649
# Poissons Ratio (z) = -0.13315 -0.08382
#
# Static dielectric constant tensor:
#      x y z
#    x 2.144720 0.000000 -0.056370 
#    y 0.000000 1.994430 0.000000 
#    z -0.056370 0.000000 2.159800 
# 
# From -- ./inp_files/59779.got.cif
#   From: 2010.05.17/outbox.cif.g08.bks.cpg/sg14_30_cif.got.tgz:59779.got - 2010.06.03 17:49:19.
