data_PCOD9246791
_publ_section_title
;
Structure prediction by ZEFSAII (Michael W. Deem and Ramdas Pophale) SiO2 
 PCOD9246791
Probable space group: P 21/C
;
_chemical_formula_sum "Si O2"
_cell_formula_units_Z 20
_cell_length_a 11.719335
_cell_length_b 8.925486
_cell_length_c 15.616847
_cell_angle_alpha 90.000000
_cell_angle_beta 32.796744
_cell_angle_gamma 90.000000
_cell_volume 884.820787
_symmetry_space_group_name_H-M "P 21/C"
_symmetry_group_IT_number 14
_symmetry_cell_setting 'monoclinic'
loop_
_space_group_symop_operation_xyz
x,y,z
-x,1/2+y,1/2-z
-x,-y,-z
x,1/2-y,1/2+z
loop_
_atom_site_type_symbol
_atom_site_label
_atom_site_fract_x
_atom_site_fract_y
_atom_site_fract_z
Si Si1 0.232803 0.234399 0.776657
Si Si2 0.250241 0.000980 0.152959
Si Si3 0.975990 0.528709 0.363489
Si Si4 0.633143 0.056997 0.498191
Si Si5 0.130438 0.348745 0.016643
O O1 0.204268 0.325440 0.706220
O O2 0.472697 0.178573 0.637243
O O3 0.174044 0.351153 0.888163
O O4 0.084205 0.088338 0.859504
O O5 0.184639 0.951179 0.099737
O O6 0.102518 0.903802 0.308876
O O7 0.500000 0.000000 0.000000
O O8 0.860397 0.670369 0.475286
O O9 0.151944 0.594202 0.186842
O O10 0.500000 0.000000 0.500000
O O11 0.706777 0.940109 0.525526
#
# Coordination Sequence:
#
# PCOD9246791 Si02
#       5
#     4   4   4   4   4
#     4  11  23  41  65  97 130 166 214 278 331 379
#     4  11  23  41  64  92 128 177 222 262 321 399
#     4  10  21  42  65  89 126 174 218 265 326 398
#     4   9  20  40  64  92 128 171 212 256 326 403
#     4  11  23  40  65  98 129 164 217 277 324 383
#
# _framework density 22.603449000000001
#
# number of rings (size 3 to 8) (size 9 to 14) (size 15 to 20)
#    0.000    1.600    0.000    6.000    0.000    4.800 
#    0.000   10.000    0.000    0.000    0.000    0.000 
#    0.000    0.000    0.000    0.000    0.000    0.000 
#
# Total GULP energy -111482.574550 kJ/mol
# GULP energy per Si atom -5574.128728 kJ/mol
# Density = 2.255200 g / cm^3
# Si number density = 22.603449 Si / 1000 Ang^3
#
#
#
# Elastic Constant Matrix: (Units=GPa)
#
#
# Indices 1 2 3 4 5 6 
#
# 1 128.6489 37.3781 54.1335 0.0000 -10.5981 0.0000
# 2 37.3781 93.4599 15.2740 0.0000 2.8098 0.0000
# 3 54.1335 15.2740 79.1648 0.0000 -26.6296 0.0000
# 4 0.0000 0.0000 0.0000 48.5644 0.0000 7.2980
# 5 -10.5981 2.8098 -26.6296 0.0000 29.9737 0.0000
# 6 0.0000 0.0000 0.0000 7.2980 0.0000 48.4934
#
#
#
# Elastic Compliance Matrix: (Units=1/GPa)
#
#
# Indices 1 2 3 4 5 6 
#
# 1 0.012156 -0.003342 -0.008724 0.000000 -0.003139 0.000000
# 2 -0.003342 0.012346 -0.001260 0.000000 -0.003459 0.000000
# 3 -0.008724 -0.001260 0.025448 0.000000 0.019642 0.000000
# 4 0.000000 0.000000 0.000000 0.021068 0.000000 -0.003171
# 5 -0.003139 -0.003459 0.019642 0.000000 0.050028 0.000000
# 6 0.000000 0.000000 0.000000 -0.003171 0.000000 0.021099
#
#
# Mechanical properties :
#
#
# Convention : Reuss Voigt Hill
#
# Bulk Modulus (GPa) = 42.92125 57.20497 50.06311
# Shear Modulus (GPa) = 28.31873 38.37216 33.34544
#
# Velocity S-wave (km/s) = 3.54340 4.12469 3.84505
# Velocity P-wave (km/s) = 5.98088 6.93160 6.47372
#
# Compressibility (1/GPa) = 0.02329848
#
# Stress axis : x y z
#
# Youngs Moduli (GPa) = 82.26276 80.99647 39.29640
#
# Poissons Ratio (x) = 0.27066 0.34281
# Poissons Ratio (y) = 0.27489 0.04953
# Poissons Ratio (z) = 0.71763 0.10210
#
# Static dielectric constant tensor:
#      x y z
#    x 2.325040 0.000000 -0.259790 
#    y 0.000000 1.893190 0.000000 
#    z -0.259790 0.000000 2.072200 
# 
# From -- ./inp_files/57224.got.cif
#   From: 2010.05.17/outbox.cif.g08.bks.cpg/sg14_29_cif.got.tgz:57224.got - 2010.06.03 17:49:19.
