data_PCOD9246709
_publ_section_title
;
Structure prediction by ZEFSAII (Michael W. Deem and Ramdas Pophale) SiO2 
 PCOD9246709
Probable space group: P 21/C
;
_chemical_formula_sum "Si O2"
_cell_formula_units_Z 32
_cell_length_a 20.770256
_cell_length_b 5.488518
_cell_length_c 12.267857
_cell_angle_alpha 90.000000
_cell_angle_beta 61.429349
_cell_angle_gamma 90.000000
_cell_volume 1228.210931
_symmetry_space_group_name_H-M "P 21/C"
_symmetry_group_IT_number 14
_symmetry_cell_setting 'monoclinic'
loop_
_space_group_symop_operation_xyz
x,y,z
-x,1/2+y,1/2-z
-x,-y,-z
x,1/2-y,1/2+z
loop_
_atom_site_type_symbol
_atom_site_label
_atom_site_fract_x
_atom_site_fract_y
_atom_site_fract_z
Si Si1 0.366480 0.967005 0.122279
Si Si2 0.571196 0.083437 0.310653
Si Si3 0.091425 0.732936 0.164361
Si Si4 0.040912 0.268405 0.590874
Si Si5 0.694185 0.758078 0.133417
Si Si6 0.586465 0.878763 0.545779
Si Si7 0.782434 0.236322 0.299120
Si Si8 0.828849 0.763047 0.644746
O O1 0.320267 0.149967 0.234543
O O2 0.409710 0.094001 0.991311
O O3 0.420668 0.864993 0.169066
O O4 0.303893 0.787818 0.128895
O O5 0.489136 0.033789 0.338017
O O6 0.641072 0.994026 0.185909
O O7 0.580073 0.988485 0.428983
O O8 0.070276 0.480285 0.123880
O O9 0.177278 0.744397 0.118255
O O10 0.045558 0.736119 0.315557
O O11 0.067129 0.975849 0.121735
O O12 0.083492 0.261630 0.442487
O O13 0.782008 0.769046 0.068687
O O14 0.657645 0.603632 0.065597
O O15 0.814701 0.468785 0.205848
O O16 0.801261 0.971883 0.234859
#
# Coordination Sequence:
#
# PCOD9246709 Si02
#       8
#     4   4   4   4   4   4   4   4
#     4  10  22  40  59  87 126 156 210 269 306 400
#     4  10  21  42  59  86 124 154 213 266 312 395
#     4  10  22  40  63  94 125 175 209 270 321 382
#     4  10  22  40  63  93 132 161 224 262 316 394
#     4  10  23  39  59  92 124 160 214 264 334 376
#     4  10  23  38  63  89 115 167 209 259 330 386
#     4  11  23  40  65  90 131 169 209 266 332 370
#     4  11  23  41  61  94 128 167 213 270 316 399
#
# _framework density 26.054155999999999
#
# number of rings (size 3 to 8) (size 9 to 14) (size 15 to 20)
#    0.000    1.750    1.250    1.875    3.500    3.000 
#    0.000    0.000    0.000    0.000    0.000    0.000 
#    0.000    0.000    0.000    0.000    0.000    0.000 
#
# Total GULP energy -178396.282309 kJ/mol
# GULP energy per Si atom -5574.883822 kJ/mol
# Density = 2.599486 g / cm^3
# Si number density = 26.054156 Si / 1000 Ang^3
#
#
#
# Elastic Constant Matrix: (Units=GPa)
#
#
# Indices 1 2 3 4 5 6 
#
# 1 83.8651 33.1109 -2.3259 0.0000 5.2758 0.0000
# 2 33.1109 122.6023 28.2449 0.0000 7.5714 0.0000
# 3 -2.3259 28.2449 44.6232 0.0000 -8.8027 0.0000
# 4 0.0000 0.0000 0.0000 34.5872 0.0000 17.1582
# 5 5.2758 7.5714 -8.8027 0.0000 26.8833 0.0000
# 6 0.0000 0.0000 0.0000 17.1582 0.0000 22.0020
#
#
#
# Elastic Compliance Matrix: (Units=1/GPa)
#
#
# Indices 1 2 3 4 5 6 
#
# 1 0.013829 -0.004531 0.003534 0.000000 -0.000281 0.000000
# 2 -0.004531 0.011704 -0.008680 0.000000 -0.005249 0.000000
# 3 0.003534 -0.008680 0.030397 0.000000 0.011704 0.000000
# 4 0.000000 0.000000 0.000000 0.047156 0.000000 -0.036774
# 5 -0.000281 -0.005249 0.011704 0.000000 0.042564 0.000000
# 6 0.000000 0.000000 0.000000 -0.036774 0.000000 0.074129
#
#
# Mechanical properties :
#
#
# Convention : Reuss Voigt Hill
#
# Bulk Modulus (GPa) = 27.34160 41.01672 34.17916
# Shear Modulus (GPa) = 19.89460 29.49856 24.69658
#
# Velocity S-wave (km/s) = 2.76630 3.36847 3.08213
# Velocity P-wave (km/s) = 4.55194 5.55930 5.08065
#
# Compressibility (1/GPa) = 0.03657430
#
# Stress axis : x y z
#
# Youngs Moduli (GPa) = 72.31390 85.44032 32.89797
#
# Poissons Ratio (x) = 0.38716 -0.11625
# Poissons Ratio (y) = 0.32768 0.28555
# Poissons Ratio (z) = -0.25553 0.74162
#
# Static dielectric constant tensor:
#      x y z
#    x 2.042340 0.000000 -0.015160 
#    y 0.000000 2.276220 0.000000 
#    z -0.015160 0.000000 2.105690 
# 
# From -- ./inp_files/49687.got.cif
#   From: 2010.05.17/outbox.cif.g08.bks.cpg/sg14_25_cif.got.tgz:49687.got - 2010.06.03 17:49:19.
