data_PCOD9246993
_publ_section_title
;
Structure prediction by ZEFSAII (Michael W. Deem and Ramdas Pophale) SiO2 
 PCOD9246993
Probable space group: P 21/C
;
_chemical_formula_sum "Si O2"
_cell_formula_units_Z 32
_cell_length_a 24.831018
_cell_length_b 5.464929
_cell_length_c 14.414802
_cell_angle_alpha 90.000000
_cell_angle_beta 39.967954
_cell_angle_gamma 90.000000
_cell_volume 1256.508932
_symmetry_space_group_name_H-M "P 21/C"
_symmetry_group_IT_number 14
_symmetry_cell_setting 'monoclinic'
loop_
_space_group_symop_operation_xyz
x,y,z
-x,1/2+y,1/2-z
-x,-y,-z
x,1/2-y,1/2+z
loop_
_atom_site_type_symbol
_atom_site_label
_atom_site_fract_x
_atom_site_fract_y
_atom_site_fract_z
Si Si1 0.815093 0.370113 0.029542
Si Si2 0.689021 0.000316 0.191893
Si Si3 0.009088 0.353731 0.823373
Si Si4 0.293430 0.364857 0.975856
Si Si5 0.452254 0.753162 0.041737
Si Si6 0.039984 0.351013 0.570952
Si Si7 0.549809 0.147622 0.664893
Si Si8 0.225126 0.281190 0.763207
O O1 0.778306 0.111094 0.048865
O O2 0.782021 0.458423 0.174699
O O3 0.912785 0.360313 0.915397
O O4 0.780279 0.546791 0.995571
O O5 0.630435 0.229283 0.288529
O O6 0.705344 0.857057 0.265740
O O7 0.656627 0.829534 0.153492
O O8 0.016330 0.607076 0.869656
O O9 0.055331 0.349135 0.663486
O O10 0.011057 0.102045 0.878149
O O11 0.254907 0.242531 0.118695
O O12 0.359507 0.575670 0.913707
O O13 0.500000 0.500000 0.000000
O O14 0.432481 0.745508 0.960630
O O15 0.500000 0.000000 0.000000
O O16 0.131166 0.331001 0.402625
O O17 0.500749 0.881752 0.725349
#
# Coordination Sequence:
#
# PCOD9246993 Si02
#       8
#     4   4   4   4   4   4   4   4
#     4  10  23  39  66  97 135 178 231 282 343 408
#     4  11  24  44  70  96 136 180 230 285 342 412
#     4   9  17  34  60  96 131 178 228 282 333 406
#     4  11  26  44  67 102 138 179 228 288 344 410
#     4  12  28  47  73 100 134 179 226 281 347 412
#     4   9  17  33  63  93 131 179 231 274 340 406
#     4  12  28  48  70 101 137 177 226 281 343 411
#     4  10  21  43  65  99 134 182 231 282 346 409
#
# _framework density 25.467388
#
# number of rings (size 3 to 8) (size 9 to 14) (size 15 to 20)
#    0.000    1.500    2.500    1.500    8.750    2.000 
#    0.000    0.625    0.000    0.750    0.000    0.000 
#    0.000    0.000    0.000    0.000    0.000    0.000 
#
# Total GULP energy -178984.817172 kJ/mol
# GULP energy per Si atom -5593.275537 kJ/mol
# Density = 2.540942 g / cm^3
# Si number density = 25.467388 Si / 1000 Ang^3
#
#
#
# Elastic Constant Matrix: (Units=GPa)
#
#
# Indices 1 2 3 4 5 6 
#
# 1 83.3306 22.2812 40.1002 0.0000 15.5382 0.0000
# 2 22.2812 159.3713 22.3999 0.0000 5.4896 0.0000
# 3 40.1002 22.3999 112.8036 0.0000 21.0277 0.0000
# 4 0.0000 0.0000 0.0000 38.6814 0.0000 -7.7115
# 5 15.5382 5.4896 21.0277 0.0000 45.7184 0.0000
# 6 0.0000 0.0000 0.0000 -7.7115 0.0000 36.8119
#
#
#
# Elastic Compliance Matrix: (Units=1/GPa)
#
#
# Indices 1 2 3 4 5 6 
#
# 1 0.015096 -0.001371 -0.004559 0.000000 -0.002869 0.000000
# 2 -0.001371 0.006581 -0.000830 0.000000 0.000058 0.000000
# 3 -0.004559 -0.000830 0.011313 0.000000 -0.003554 0.000000
# 4 0.000000 0.000000 0.000000 0.026979 0.000000 0.005652
# 5 -0.002869 0.000058 -0.003554 0.000000 0.024476 0.000000
# 6 0.000000 0.000000 0.000000 0.005652 0.000000 0.028349
#
#
# Mechanical properties :
#
#
# Convention : Reuss Voigt Hill
#
# Bulk Modulus (GPa) = 51.36323 58.34088 54.85206
# Shear Modulus (GPa) = 37.64926 42.29060 39.96993
#
# Velocity S-wave (km/s) = 3.84908 4.07944 3.96593
# Velocity P-wave (km/s) = 6.32186 6.71915 6.52353
#
# Compressibility (1/GPa) = 0.01946918
#
# Stress axis : x y z
#
# Youngs Moduli (GPa) = 66.24281 151.95214 88.39274
#
# Poissons Ratio (x) = 0.20831 0.40302
# Poissons Ratio (y) = 0.09081 0.07339
# Poissons Ratio (z) = 0.30203 0.12615
#
# Static dielectric constant tensor:
#      x y z
#    x 2.006550 0.000000 -0.079470 
#    y 0.000000 1.984040 0.000000 
#    z -0.079470 0.000000 2.057060 
# 
# From -- ./inp_files/52165.got.cif
#   From: 2010.05.17/outbox.cif.g08.bks.cpg/sg14_27_cif.got.tgz:52165.got - 2010.06.03 17:49:19.
