data_PCOD9246476
_publ_section_title
;
Structure prediction by ZEFSAII (Michael W. Deem and Ramdas Pophale) SiO2 
 PCOD9246476
Probable space group: P 21/C
;
_chemical_formula_sum "Si O2"
_cell_formula_units_Z 20
_cell_length_a 16.384457
_cell_length_b 12.495842
_cell_length_c 10.864711
_cell_angle_alpha 90.000000
_cell_angle_beta 156.776852
_cell_angle_gamma 90.000000
_cell_volume 877.116115
_symmetry_space_group_name_H-M "P 21/C"
_symmetry_group_IT_number 14
_symmetry_cell_setting 'monoclinic'
loop_
_space_group_symop_operation_xyz
x,y,z
-x,1/2+y,1/2-z
-x,-y,-z
x,1/2-y,1/2+z
loop_
_atom_site_type_symbol
_atom_site_label
_atom_site_fract_x
_atom_site_fract_y
_atom_site_fract_z
Si Si1 0.707351 0.084833 0.647719
Si Si2 0.572636 0.960263 0.232582
Si Si3 0.961121 0.805888 0.729440
Si Si4 0.270821 0.404702 0.644754
Si Si5 0.161027 0.922958 0.793826
O O1 0.505606 0.127797 0.441665
O O2 0.644581 0.060426 0.419562
O O3 0.754915 0.961735 0.759399
O O4 0.887100 0.161675 0.947866
O O5 0.763083 0.881327 0.475538
O O6 0.369725 0.901721 0.007747
O O7 0.500000 0.000000 0.000000
O O8 0.886207 0.684765 0.616760
O O9 0.052652 0.829057 0.719557
O O10 0.239524 0.504748 0.513871
O O11 0.000000 0.000000 0.500000
#
# Coordination Sequence:
#
# PCOD9246476 Si02
#       5
#     4   4   4   4   4
#     4   9  21  44  66  98 142 174 225 296 340 410
#     4  11  22  41  69  97 140 183 226 274 347 408
#     4  11  22  41  72  98 127 182 232 277 353 409
#     4   9  21  41  69  97 132 177 227 283 349 408
#     4  10  21  41  63  95 140 170 218 290 334 404
#
# _framework density 22.801998000000001
#
# number of rings (size 3 to 8) (size 9 to 14) (size 15 to 20)
#    0.000    2.000    2.000    1.800    0.000    3.200 
#    0.000    8.000    4.400    0.000    0.000    0.000 
#    0.000    0.000    0.000    0.000    0.000    0.000 
#
# Total GULP energy -111628.264153 kJ/mol
# GULP energy per Si atom -5581.413208 kJ/mol
# Density = 2.275010 g / cm^3
# Si number density = 22.801998 Si / 1000 Ang^3
#
#
#
# Elastic Constant Matrix: (Units=GPa)
#
#
# Indices 1 2 3 4 5 6 
#
# 1 113.7725 24.9784 31.7882 0.0000 -13.9396 0.0000
# 2 24.9784 60.9981 15.4404 0.0000 3.8135 0.0000
# 3 31.7882 15.4404 108.2382 0.0000 -12.8739 0.0000
# 4 0.0000 0.0000 0.0000 28.5063 0.0000 1.6608
# 5 -13.9396 3.8135 -12.8739 0.0000 42.9006 0.0000
# 6 0.0000 0.0000 0.0000 1.6608 0.0000 15.6734
#
#
#
# Elastic Compliance Matrix: (Units=1/GPa)
#
#
# Indices 1 2 3 4 5 6 
#
# 1 0.010669 -0.004014 -0.002184 0.000000 0.003168 0.000000
# 2 -0.004014 0.018745 -0.001917 0.000000 -0.003546 0.000000
# 3 -0.002184 -0.001917 0.010463 0.000000 0.002601 0.000000
# 4 0.000000 0.000000 0.000000 0.035298 0.000000 -0.003740
# 5 0.003168 -0.003546 0.002601 0.000000 0.025435 0.000000
# 6 0.000000 0.000000 0.000000 -0.003740 0.000000 0.064199
#
#
# Mechanical properties :
#
#
# Convention : Reuss Voigt Hill
#
# Bulk Modulus (GPa) = 42.28876 47.49142 44.89009
# Shear Modulus (GPa) = 26.46620 31.46953 28.96787
#
# Velocity S-wave (km/s) = 3.41060 3.71903 3.56815
# Velocity P-wave (km/s) = 5.83917 6.27013 6.05848
#
# Compressibility (1/GPa) = 0.02364695
#
# Stress axis : x y z
#
# Youngs Moduli (GPa) = 93.72834 53.34870 95.57472
#
# Poissons Ratio (x) = 0.21415 0.20873
# Poissons Ratio (y) = 0.37624 0.18320
# Poissons Ratio (z) = 0.20470 0.10226
#
# Static dielectric constant tensor:
#      x y z
#    x 2.015770 0.000000 0.150810 
#    y 0.000000 1.901870 0.000000 
#    z 0.150810 0.000000 1.874550 
# 
# From -- ./inp_files/34199.got.cif
#   From: 2010.05.17/outbox.cif.g08.bks.cpg/sg14_18_cif.got.tgz:34199.got - 2010.06.03 17:49:19.
