data_PCOD9246944
_publ_section_title
;
Structure prediction by ZEFSAII (Michael W. Deem and Ramdas Pophale) SiO2 
 PCOD9246944
Probable space group: P 21/C
;
_chemical_formula_sum "Si O2"
_cell_formula_units_Z 32
_cell_length_a 11.577485
_cell_length_b 7.964801
_cell_length_c 29.593221
_cell_angle_alpha 90.000000
_cell_angle_beta 149.345688
_cell_angle_gamma 90.000000
_cell_volume 1391.329101
_symmetry_space_group_name_H-M "P 21/C"
_symmetry_group_IT_number 14
_symmetry_cell_setting 'monoclinic'
loop_
_space_group_symop_operation_xyz
x,y,z
-x,1/2+y,1/2-z
-x,-y,-z
x,1/2-y,1/2+z
loop_
_atom_site_type_symbol
_atom_site_label
_atom_site_fract_x
_atom_site_fract_y
_atom_site_fract_z
Si Si1 0.226603 0.365376 0.675966
Si Si2 0.177475 0.430983 0.760789
Si Si3 0.589012 0.912308 0.163051
Si Si4 0.667026 0.449162 0.595654
Si Si5 0.894578 0.240263 0.991316
Si Si6 0.679853 0.032333 0.280238
Si Si7 0.106114 0.371523 0.976334
Si Si8 0.462873 0.588793 0.938636
O O1 0.226940 0.460328 0.724044
O O2 0.264251 0.165638 0.696260
O O3 0.438537 0.431771 0.719836
O O4 0.005562 0.365322 0.569597
O O5 0.220168 0.230443 0.777153
O O6 0.337671 0.491982 0.855615
O O7 0.927227 0.505100 0.682722
O O8 0.355060 0.831062 0.102710
O O9 0.671509 0.058643 0.224001
O O10 0.550110 0.986328 0.101296
O O11 0.500000 0.500000 0.500000
O O12 0.685208 0.249902 0.600483
O O13 0.068150 0.252629 0.007215
O O14 0.863750 0.435765 0.995673
O O15 0.869190 0.133699 0.370222
O O16 0.303938 0.348303 0.006448
O O17 0.500000 0.500000 0.000000
#
# Coordination Sequence:
#
# PCOD9246944 Si02
#       8
#     4   4   4   4   4   4   4   4
#     4  10  23  40  68  99 138 179 226 292 354 428
#     4  11  24  47  75  95 139 192 236 288 364 429
#     4  11  23  44  70 100 142 178 229 311 363 420
#     4  12  28  47  68 104 139 182 239 303 365 422
#     4  10  21  42  72  98 141 179 227 296 356 428
#     4  10  23  39  65  97 137 174 226 282 360 418
#     4  10  22  42  70 100 132 187 238 273 350 437
#     4  12  28  45  75  99 139 195 250 290 352 442
#
# _framework density 22.999592
#
# number of rings (size 3 to 8) (size 9 to 14) (size 15 to 20)
#    0.000    1.250    1.250    3.750   12.250    0.500 
#    6.750    0.000    0.000    0.000    0.000    0.000 
#    0.000    0.000    0.000    0.000    0.000    0.000 
#
# Total GULP energy -178761.445460 kJ/mol
# GULP energy per Si atom -5586.295171 kJ/mol
# Density = 2.294724 g / cm^3
# Si number density = 22.999592 Si / 1000 Ang^3
#
#
#
# Elastic Constant Matrix: (Units=GPa)
#
#
# Indices 1 2 3 4 5 6 
#
# 1 118.2752 18.3105 61.8727 0.0000 -24.6800 0.0000
# 2 18.3105 15.3687 16.1768 0.0000 -10.5818 0.0000
# 3 61.8727 16.1768 127.3556 0.0000 -12.7137 0.0000
# 4 0.0000 0.0000 0.0000 21.7660 0.0000 -4.8313
# 5 -24.6800 -10.5818 -12.7137 0.0000 51.1378 0.0000
# 6 0.0000 0.0000 0.0000 -4.8313 0.0000 31.3009
#
#
#
# Elastic Compliance Matrix: (Units=1/GPa)
#
#
# Indices 1 2 3 4 5 6 
#
# 1 0.012985 -0.007906 -0.004965 0.000000 0.003396 0.000000
# 2 -0.007906 0.090272 -0.006298 0.000000 0.013299 0.000000
# 3 -0.004965 -0.006298 0.010967 0.000000 -0.000973 0.000000
# 4 0.000000 0.000000 0.000000 0.047573 0.000000 0.007343
# 5 0.003396 0.013299 -0.000973 0.000000 0.023704 0.000000
# 6 0.000000 0.000000 0.000000 0.007343 0.000000 0.033081
#
#
# Mechanical properties :
#
#
# Convention : Reuss Voigt Hill
#
# Bulk Modulus (GPa) = 13.17763 50.41328 31.79546
# Shear Modulus (GPa) = 17.71697 31.81692 24.76694
#
# Velocity S-wave (km/s) = 2.77847 3.72340 3.28509
# Velocity P-wave (km/s) = 4.00439 6.36017 5.31446
#
# Compressibility (1/GPa) = 0.07588618
#
# Stress axis : x y z
#
# Youngs Moduli (GPa) = 77.01290 11.07765 91.18181
#
# Poissons Ratio (x) = 0.08757 0.45273
# Poissons Ratio (y) = 0.60883 0.57428
# Poissons Ratio (z) = 0.38238 0.06977
#
# Static dielectric constant tensor:
#      x y z
#    x 1.890000 0.000000 -0.046020 
#    y 0.000000 1.889530 0.000000 
#    z -0.046020 0.000000 1.790050 
# 
# From -- ./inp_files/80009.got.cif
#   From: 2010.05.17/outbox.cif.g08.bks.cpg/sg14_41_cif.got.tgz:80009.got - 2010.06.03 17:49:19.
