data_PCOD9246183
_publ_section_title
;
Structure prediction by ZEFSAII (Michael W. Deem and Ramdas Pophale) SiO2 
 PCOD9246183
Probable space group: P 21/C
;
_chemical_formula_sum "Si O2"
_cell_formula_units_Z 28
_cell_length_a 24.527986
_cell_length_b 9.862106
_cell_length_c 9.469847
_cell_angle_alpha 90.000000
_cell_angle_beta 30.413905
_cell_angle_gamma 90.000000
_cell_volume 1159.667831
_symmetry_space_group_name_H-M "P 21/C"
_symmetry_group_IT_number 14
_symmetry_cell_setting 'monoclinic'
loop_
_space_group_symop_operation_xyz
x,y,z
-x,1/2+y,1/2-z
-x,-y,-z
x,1/2-y,1/2+z
loop_
_atom_site_type_symbol
_atom_site_label
_atom_site_fract_x
_atom_site_fract_y
_atom_site_fract_z
Si Si1 0.001798 0.876017 0.388693
Si Si2 0.648968 0.477980 0.164051
Si Si3 0.608449 0.340499 0.753266
Si Si4 0.759719 0.826543 0.588120
Si Si5 0.487002 0.002370 0.283116
Si Si6 0.747116 0.597010 0.421306
Si Si7 0.007926 0.641377 0.560541
O O1 0.874038 0.875558 0.639752
O O2 0.058711 0.752330 0.343647
O O3 0.051629 0.879419 0.120394
O O4 0.000000 0.000000 0.500000
O O5 0.642783 0.315366 0.174647
O O6 0.755335 0.547559 0.988340
O O7 0.619030 0.531744 0.075555
O O8 0.565994 0.525503 0.473356
O O9 0.539994 0.384430 0.767057
O O10 0.709225 0.444527 0.531332
O O11 0.541325 0.382336 0.043249
O O12 0.704631 0.701227 0.632496
O O13 0.709078 0.863091 0.850789
O O14 0.885376 0.799585 0.339093
O O15 0.000000 0.500000 0.500000
#
# Coordination Sequence:
#
# PCOD9246183 Si02
#       7
#     4   4   4   4   4   4   4
#     4  10  21  40  64  93 127 165 206 255 308 372
#     4  11  23  42  63  89 119 159 206 254 302 362
#     4  11  23  42  63  89 119 159 206 254 302 362
#     4  10  23  41  62  91 126 160 200 250 308 363
#     4  10  24  40  58  88 122 156 198 258 308 356
#     4  10  23  41  62  91 126 160 200 250 308 363
#     4  10  21  40  64  93 127 165 206 255 308 372
#
# _framework density 24.144843999999999
#
# number of rings (size 3 to 8) (size 9 to 14) (size 15 to 20)
#    0.000    1.714    1.429    1.714    2.000    9.143 
#    0.000    0.000    0.000    0.000    0.000    0.000 
#    0.000    0.000    0.000    0.000    0.000    0.000 
#
# Total GULP energy -156249.543572 kJ/mol
# GULP energy per Si atom -5580.340842 kJ/mol
# Density = 2.408989 g / cm^3
# Si number density = 24.144844 Si / 1000 Ang^3
#
#
#
# Elastic Constant Matrix: (Units=GPa)
#
#
# Indices 1 2 3 4 5 6 
#
# 1 148.9363 46.8715 31.1999 0.0000 62.0396 0.0000
# 2 46.8715 122.5136 4.5569 0.0000 39.1317 0.0000
# 3 31.1999 4.5569 56.4201 0.0000 35.5160 0.0000
# 4 0.0000 0.0000 0.0000 23.3938 0.0000 5.7644
# 5 62.0396 39.1317 35.5160 0.0000 54.9826 0.0000
# 6 0.0000 0.0000 0.0000 5.7644 0.0000 33.2830
#
#
#
# Elastic Compliance Matrix: (Units=1/GPa)
#
#
# Indices 1 2 3 4 5 6 
#
# 1 0.013074 0.000443 0.003740 0.000000 -0.017484 0.000000
# 2 0.000443 0.012234 0.007689 0.000000 -0.014174 0.000000
# 3 0.003740 0.007689 0.035620 0.000000 -0.032702 0.000000
# 4 0.000000 0.000000 0.000000 0.044652 0.000000 -0.007733
# 5 -0.017484 -0.014174 -0.032702 0.000000 0.069127 0.000000
# 6 0.000000 0.000000 0.000000 -0.007733 0.000000 0.031385
#
#
# Mechanical properties :
#
#
# Convention : Reuss Voigt Hill
#
# Bulk Modulus (GPa) = 11.80996 54.79186 33.30091
# Shear Modulus (GPa) = 23.74493 38.68133 31.21313
#
# Velocity S-wave (km/s) = 3.13938 4.00691 3.59938
# Velocity P-wave (km/s) = 4.24769 6.64450 5.57639
#
# Compressibility (1/GPa) = 0.08467432
#
# Stress axis : x y z
#
# Youngs Moduli (GPa) = 76.48737 81.73859 28.07377
#
# Poissons Ratio (x) = -0.03624 -0.10500
# Poissons Ratio (y) = -0.03391 -0.21587
# Poissons Ratio (z) = -0.28607 -0.62852
#
# Static dielectric constant tensor:
#      x y z
#    x 2.024320 0.000000 -0.042690 
#    y 0.000000 2.008770 0.000000 
#    z -0.042690 0.000000 2.001840 
# 
# From -- ./inp_files/19706.got.cif
#   From: 2010.05.17/outbox.cif.g08.bks.cpg/sg14_10_cif.got.tgz:19706.got - 2010.06.03 17:49:19.
