data_PCOD9246404
_publ_section_title
;
Structure prediction by ZEFSAII (Michael W. Deem and Ramdas Pophale) SiO2 
 PCOD9246404
Probable space group: P 21/C
;
_chemical_formula_sum "Si O2"
_cell_formula_units_Z 28
_cell_length_a 22.867347
_cell_length_b 4.988998
_cell_length_c 22.095532
_cell_angle_alpha 90.000000
_cell_angle_beta 150.531354
_cell_angle_gamma 90.000000
_cell_volume 1240.086754
_symmetry_space_group_name_H-M "P 21/C"
_symmetry_group_IT_number 14
_symmetry_cell_setting 'monoclinic'
loop_
_space_group_symop_operation_xyz
x,y,z
-x,1/2+y,1/2-z
-x,-y,-z
x,1/2-y,1/2+z
loop_
_atom_site_type_symbol
_atom_site_label
_atom_site_fract_x
_atom_site_fract_y
_atom_site_fract_z
Si Si1 0.400442 0.410225 0.096171
Si Si2 0.553184 0.576693 0.722752
Si Si3 0.051950 0.916305 0.643865
Si Si4 0.914847 0.215181 0.100820
Si Si5 0.157820 0.619213 0.834890
Si Si6 0.125637 0.260118 0.605309
Si Si7 0.243299 0.739373 0.653823
O O1 0.388050 0.444935 0.157622
O O2 0.436443 0.104498 0.119846
O O3 0.506041 0.619373 0.171417
O O4 0.278906 0.462465 0.952672
O O5 0.638539 0.408622 0.755210
O O6 0.090936 0.177251 0.641545
O O7 0.958544 0.000074 0.612320
O O8 0.162250 0.800661 0.779532
O O9 0.992255 0.707668 0.542942
O O10 0.860324 0.227580 0.118026
O O11 0.816262 0.132250 0.962511
O O12 0.037285 0.051822 0.216918
O O13 0.224354 0.484330 0.680876
O O14 0.167207 0.974466 0.615605
#
# Coordination Sequence:
#
# PCOD9246404 Si02
#       7
#     4   4   4   4   4   4   4
#     4  10  23  37  62  87 124 161 200 250 310 363
#     4  10  21  41  60  89 117 162 210 253 295 363
#     4  10  23  38  56  90 130 161 205 240 309 376
#     4  11  23  35  60  94 124 162 189 252 319 378
#     4  12  22  38  58  94 131 161 191 254 320 384
#     4  10  23  38  63  89 121 168 206 252 291 364
#     4  11  21  41  65  89 121 156 212 257 298 354
#
# _framework density 22.579066000000001
#
# number of rings (size 3 to 8) (size 9 to 14) (size 15 to 20)
#    0.000    1.429    4.286    0.857    4.000    1.714 
#    2.571    0.000    0.000    5.143    0.000    0.000 
#    0.000    0.000    0.000    0.000    0.000    0.000 
#
# Total GULP energy -156271.449367 kJ/mol
# GULP energy per Si atom -5581.123192 kJ/mol
# Density = 2.252767 g / cm^3
# Si number density = 22.579066 Si / 1000 Ang^3
#
#
#
# Elastic Constant Matrix: (Units=GPa)
#
#
# Indices 1 2 3 4 5 6 
#
# 1 55.9654 -3.4565 5.5784 0.0000 -8.1486 0.0000
# 2 -3.4565 75.7705 -1.6400 0.0000 -9.0139 0.0000
# 3 5.5784 -1.6400 46.9206 0.0000 -13.9688 0.0000
# 4 0.0000 0.0000 0.0000 17.2345 0.0000 5.0995
# 5 -8.1486 -9.0139 -13.9688 0.0000 23.1405 0.0000
# 6 0.0000 0.0000 0.0000 5.0995 0.0000 26.9694
#
#
#
# Elastic Compliance Matrix: (Units=1/GPa)
#
#
# Indices 1 2 3 4 5 6 
#
# 1 0.019052 0.001748 -0.000005 0.000000 0.007387 0.000000
# 2 0.001748 0.014253 0.002592 0.000000 0.007733 0.000000
# 3 -0.000005 0.002592 0.026459 0.000000 0.016980 0.000000
# 4 0.000000 0.000000 0.000000 0.061462 0.000000 -0.011621
# 5 0.007387 0.007733 0.016980 0.000000 0.059078 0.000000
# 6 0.000000 0.000000 0.000000 -0.011621 0.000000 0.039277
#
#
# Mechanical properties :
#
#
# Convention : Reuss Voigt Hill
#
# Bulk Modulus (GPa) = 14.61233 19.95782 17.28507
# Shear Modulus (GPa) = 21.39298 25.34720 23.37009
#
# Velocity S-wave (km/s) = 3.08144 3.35415 3.22068
# Velocity P-wave (km/s) = 4.37562 4.88454 4.63707
#
# Compressibility (1/GPa) = 0.06843534
#
# Stress axis : x y z
#
# Youngs Moduli (GPa) = 52.48761 70.15832 37.79430
#
# Poissons Ratio (x) = -0.12262 0.00018
# Poissons Ratio (y) = -0.09174 -0.09798
# Poissons Ratio (z) = 0.00026 -0.18188
#
# Static dielectric constant tensor:
#      x y z
#    x 1.888460 0.000000 0.014390 
#    y 0.000000 1.899500 0.000000 
#    z 0.014390 0.000000 1.851580 
# 
# From -- ./inp_files/66523.got.cif
#   From: 2010.05.17/outbox.cif.g08.bks.cpg/sg14_34_cif.got.tgz:66523.got - 2010.06.03 17:49:19.
