data_PCOD9246044
_publ_section_title
;
Structure prediction by ZEFSAII (Michael W. Deem and Ramdas Pophale) SiO2 
 PCOD9246044
Probable space group: P 21/C
;
_chemical_formula_sum "Si O2"
_cell_formula_units_Z 32
_cell_length_a 11.649397
_cell_length_b 8.135587
_cell_length_c 13.128476
_cell_angle_alpha 90.000000
_cell_angle_beta 69.110049
_cell_angle_gamma 90.000000
_cell_volume 1162.459085
_symmetry_space_group_name_H-M "P 21/C"
_symmetry_group_IT_number 14
_symmetry_cell_setting 'monoclinic'
loop_
_space_group_symop_operation_xyz
x,y,z
-x,1/2+y,1/2-z
-x,-y,-z
x,1/2-y,1/2+z
loop_
_atom_site_type_symbol
_atom_site_label
_atom_site_fract_x
_atom_site_fract_y
_atom_site_fract_z
Si Si1 0.981195 0.306141 0.596742
Si Si2 0.066938 0.901710 0.205664
Si Si3 0.323292 0.476147 0.718858
Si Si4 0.221436 0.300998 0.938010
Si Si5 0.437096 0.226411 0.020460
Si Si6 0.206757 0.869958 0.567904
Si Si7 0.693595 0.215299 0.134945
Si Si8 0.604157 0.457416 0.834895
O O1 0.998280 0.154101 0.670269
O O2 0.840964 0.302166 0.604678
O O3 0.003225 0.466767 0.656198
O O4 0.091517 0.290813 0.481524
O O5 0.090846 0.736647 0.133872
O O6 0.199610 0.969898 0.199088
O O7 0.423692 0.428567 0.602028
O O8 0.351694 0.626511 0.786415
O O9 0.284363 0.328142 0.808351
O O10 0.309507 0.222261 0.995593
O O11 0.196344 0.485528 0.989601
O O12 0.440420 0.373750 0.103909
O O13 0.523026 0.308936 0.906542
O O14 0.309042 0.748641 0.483681
O O15 0.263260 0.933860 0.654594
O O16 0.622866 0.065416 0.209185
#
# Coordination Sequence:
#
# PCOD9246044 Si02
#       8
#     4   4   4   4   4   4   4   4
#     4  11  22  36  60  91 122 158 202 244 303 361
#     4  11  22  37  61  89 122 168 200 246 298 372
#     4  10  21  40  60  91 121 155 210 243 302 361
#     4  10  22  39  61  90 123 162 196 250 305 365
#     4  10  22  40  64  85 119 160 201 254 304 357
#     4  10  21  41  60  84 127 159 200 243 309 358
#     4  10  23  39  59  90 121 160 197 253 301 361
#     4  10  21  42  61  86 119 159 201 251 305 355
#
# _framework density 27.527850999999998
#
# number of rings (size 3 to 8) (size 9 to 14) (size 15 to 20)
#    0.000    1.750    3.750    0.750    1.750    8.500 
#    0.000    0.000    0.000    0.000    0.000    0.000 
#    0.000    0.000    0.000    0.000    0.000    0.000 
#
# Total GULP energy -179174.706202 kJ/mol
# GULP energy per Si atom -5599.209569 kJ/mol
# Density = 2.746520 g / cm^3
# Si number density = 27.527851 Si / 1000 Ang^3
#
#
#
# Elastic Constant Matrix: (Units=GPa)
#
#
# Indices 1 2 3 4 5 6 
#
# 1 85.2796 -2.4943 8.0354 0.0000 13.1386 0.0000
# 2 -2.4943 40.7115 -4.7530 0.0000 6.7795 0.0000
# 3 8.0354 -4.7530 148.7390 0.0000 -14.6746 0.0000
# 4 0.0000 0.0000 0.0000 56.5293 0.0000 -0.1696
# 5 13.1386 6.7795 -14.6746 0.0000 40.4915 0.0000
# 6 0.0000 0.0000 0.0000 -0.1696 0.0000 25.6304
#
#
#
# Elastic Compliance Matrix: (Units=1/GPa)
#
#
# Indices 1 2 3 4 5 6 
#
# 1 0.012600 0.001431 -0.001101 0.000000 -0.004727 0.000000
# 2 0.001431 0.025454 0.000280 0.000000 -0.004624 0.000000
# 3 -0.001101 0.000280 0.007075 0.000000 0.002875 0.000000
# 4 0.000000 0.000000 0.000000 0.017690 0.000000 0.000117
# 5 -0.004727 -0.004624 0.002875 0.000000 0.028046 0.000000
# 6 0.000000 0.000000 0.000000 0.000117 0.000000 0.039017
#
#
# Mechanical properties :
#
#
# Convention : Reuss Voigt Hill
#
# Bulk Modulus (GPa) = 21.57641 30.70068 26.13855
# Shear Modulus (GPa) = 34.69492 42.79304 38.74398
#
# Velocity S-wave (km/s) = 3.55400 3.94704 3.75567
# Velocity P-wave (km/s) = 4.96954 5.65234 5.32190
#
# Compressibility (1/GPa) = 0.04634692
#
# Stress axis : x y z
#
# Youngs Moduli (GPa) = 79.36491 39.28731 141.33788
#
# Poissons Ratio (x) = -0.05620 0.15566
# Poissons Ratio (y) = -0.11354 -0.03955
# Poissons Ratio (z) = 0.08741 -0.01099
#
# Static dielectric constant tensor:
#      x y z
#    x 2.098440 0.000000 -0.044350 
#    y 0.000000 2.193580 0.000000 
#    z -0.044350 0.000000 2.128210 
# 
# From -- ./inp_files/46504.got.cif
#   From: 2010.05.17/outbox.cif.g08.bks.cpg/sg14_24_cif.got.tgz:46504.got - 2010.06.03 17:49:19.
