data_PCOD9246029
_publ_section_title
;
Structure prediction by ZEFSAII (Michael W. Deem and Ramdas Pophale) SiO2 
 PCOD9246029
Probable space group: P 21/C
;
_chemical_formula_sum "Si O2"
_cell_formula_units_Z 32
_cell_length_a 12.244516
_cell_length_b 10.866124
_cell_length_c 13.652080
_cell_angle_alpha 90.000000
_cell_angle_beta 111.731555
_cell_angle_gamma 90.000000
_cell_volume 1687.320296
_symmetry_space_group_name_H-M "P 21/C"
_symmetry_group_IT_number 14
_symmetry_cell_setting 'monoclinic'
loop_
_space_group_symop_operation_xyz
x,y,z
-x,1/2+y,1/2-z
-x,-y,-z
x,1/2-y,1/2+z
loop_
_atom_site_type_symbol
_atom_site_label
_atom_site_fract_x
_atom_site_fract_y
_atom_site_fract_z
Si Si1 0.719765 0.716845 0.807774
Si Si2 0.200507 0.036933 0.072732
Si Si3 0.480102 0.388229 0.132361
Si Si4 0.033965 0.085482 0.651412
Si Si5 0.456916 0.333209 0.899447
Si Si6 0.001111 0.923787 0.133032
Si Si7 0.904138 0.172468 0.423111
Si Si8 0.656281 0.207987 0.845003
O O1 0.740498 0.832921 0.886371
O O2 0.633976 0.622632 0.836006
O O3 0.843512 0.656805 0.822527
O O4 0.653606 0.769860 0.690278
O O5 0.291023 0.924956 0.109302
O O6 0.125810 0.033794 0.948051
O O7 0.101575 0.013564 0.123948
O O8 0.526429 0.527212 0.134154
O O9 0.579664 0.309651 0.221351
O O10 0.450805 0.338968 0.014443
O O11 0.994368 0.087791 0.749873
O O12 0.939399 0.145395 0.546783
O O13 0.055951 0.945759 0.624577
O O14 0.570691 0.259195 0.899918
O O15 0.027501 0.792512 0.091886
O O16 0.766954 0.202694 0.367554
#
# Coordination Sequence:
#
# PCOD9246029 Si02
#       8
#     4   4   4   4   4   4   4   4
#     4  11  22  39  61  87 124 154 197 255 293 358
#     4  10  21  40  59  90 120 159 195 249 300 360
#     4  10  22  40  61  90 115 159 204 249 302 352
#     4  11  24  39  62  91 121 162 202 248 306 366
#     4  10  22  40  63  87 117 159 206 244 303 362
#     4  10  23  39  64  86 125 161 198 246 307 369
#     4  10  23  41  58  91 123 157 203 254 300 363
#     4  10  21  40  62  83 124 157 195 256 297 352
#
# _framework density 18.964984000000001
#
# number of rings (size 3 to 8) (size 9 to 14) (size 15 to 20)
#    0.000    1.750    2.500    0.750    3.500    3.000 
#    2.250    0.625    0.000    0.000    0.000    0.000 
#    0.000    0.000    0.000    0.000    0.000    0.000 
#
# Total GULP energy -178773.940259 kJ/mol
# GULP energy per Si atom -5586.685633 kJ/mol
# Density = 1.892182 g / cm^3
# Si number density = 18.964984 Si / 1000 Ang^3
#
#
#
# Elastic Constant Matrix: (Units=GPa)
#
#
# Indices 1 2 3 4 5 6 
#
# 1 33.2684 5.1534 16.5387 0.0000 11.2313 0.0000
# 2 5.1534 43.0645 17.9726 0.0000 -3.2273 0.0000
# 3 16.5387 17.9726 93.1302 0.0000 -10.4043 0.0000
# 4 0.0000 0.0000 0.0000 22.4851 0.0000 2.9632
# 5 11.2313 -3.2273 -10.4043 0.0000 25.0371 0.0000
# 6 0.0000 0.0000 0.0000 2.9632 0.0000 19.6935
#
#
#
# Elastic Compliance Matrix: (Units=1/GPa)
#
#
# Indices 1 2 3 4 5 6 
#
# 1 0.043494 -0.002893 -0.009844 0.000000 -0.023974 0.000000
# 2 -0.002893 0.025487 -0.004082 0.000000 0.002887 0.000000
# 3 -0.009844 -0.004082 0.014376 0.000000 0.009864 0.000000
# 4 0.000000 0.000000 0.000000 0.045374 0.000000 -0.006827
# 5 -0.023974 0.002887 0.009864 0.000000 0.055166 0.000000
# 6 0.000000 0.000000 0.000000 -0.006827 0.000000 0.051805
#
#
# Mechanical properties :
#
#
# Convention : Reuss Voigt Hill
#
# Bulk Modulus (GPa) = 20.11348 27.64362 23.87855
# Shear Modulus (GPa) = 17.48777 22.09636 19.79206
#
# Velocity S-wave (km/s) = 3.03992 3.41708 3.23400
# Velocity P-wave (km/s) = 4.79062 5.49330 5.15395
#
# Compressibility (1/GPa) = 0.04971790
#
# Stress axis : x y z
#
# Youngs Moduli (GPa) = 22.99159 39.23527 69.56235
#
# Poissons Ratio (x) = 0.11351 0.68477
# Poissons Ratio (y) = 0.06652 0.28398
# Poissons Ratio (z) = 0.22633 0.16017
#
# Static dielectric constant tensor:
#      x y z
#    x 1.639480 0.000000 0.020920 
#    y 0.000000 1.649150 0.000000 
#    z 0.020920 0.000000 1.638540 
# 
# From -- ./inp_files/29384.got.cif
#   From: 2010.05.17/outbox.cif.g08.bks.cpg/sg14_15_cif.got.tgz:29384.got - 2010.06.03 17:49:19.
