data_PCOD9246681
_publ_section_title
;
Structure prediction by ZEFSAII (Michael W. Deem and Ramdas Pophale) SiO2 
 PCOD9246681
Probable space group: P 21/C
;
_chemical_formula_sum "Si O2"
_cell_formula_units_Z 20
_cell_length_a 8.441417
_cell_length_b 10.715221
_cell_length_c 9.594052
_cell_angle_alpha 90.000000
_cell_angle_beta 91.791774
_cell_angle_gamma 90.000000
_cell_volume 867.373520
_symmetry_space_group_name_H-M "P 21/C"
_symmetry_group_IT_number 14
_symmetry_cell_setting 'monoclinic'
loop_
_space_group_symop_operation_xyz
x,y,z
-x,1/2+y,1/2-z
-x,-y,-z
x,1/2-y,1/2+z
loop_
_atom_site_type_symbol
_atom_site_label
_atom_site_fract_x
_atom_site_fract_y
_atom_site_fract_z
Si Si1 0.033417 0.635531 0.562164
Si Si2 0.457135 0.153739 0.146336
Si Si3 0.627183 0.483915 0.882157
Si Si4 0.858200 0.711427 0.837391
Si Si5 0.629027 0.295913 0.371945
O O1 0.923649 0.675446 0.688295
O O2 0.996888 0.736997 0.440320
O O3 0.000000 0.500000 0.500000
O O4 0.213226 0.626115 0.620030
O O5 0.532827 0.038028 0.232568
O O6 0.273017 0.178049 0.166922
O O7 0.541023 0.272164 0.224813
O O8 0.508480 0.161316 0.988505
O O9 0.759745 0.590329 0.887373
O O10 0.693786 0.344551 0.906648
O O11 0.500000 0.500000 0.000000
#
# Coordination Sequence:
#
# PCOD9246681 Si02
#       5
#     4   4   4   4   4
#     4  12  28  46  67 104 143 182 224 283 345 411
#     4  10  21  41  70  98 129 176 228 279 329 405
#     4  10  21  41  71  97 129 174 227 276 337 393
#     4  12  24  46  70 103 137 179 236 275 342 409
#     4  10  22  43  66  98 133 176 223 274 345 396
#
# _framework density 23.058116999999999
#
# number of rings (size 3 to 8) (size 9 to 14) (size 15 to 20)
#    1.200    0.000    2.000    4.800    2.800    2.400 
#    7.200    4.000    0.000    0.000    0.000    0.000 
#    0.000    0.000    0.000    0.000    0.000    0.000 
#
# Total GULP energy -111745.304467 kJ/mol
# GULP energy per Si atom -5587.265223 kJ/mol
# Density = 2.300564 g / cm^3
# Si number density = 23.058117 Si / 1000 Ang^3
#
#
#
# Elastic Constant Matrix: (Units=GPa)
#
#
# Indices 1 2 3 4 5 6 
#
# 1 87.0864 -14.0912 25.5007 0.0000 3.3177 0.0000
# 2 -14.0912 79.2779 37.6902 0.0000 -5.5523 0.0000
# 3 25.5007 37.6902 132.9754 0.0000 -3.4490 0.0000
# 4 0.0000 0.0000 0.0000 34.8631 0.0000 10.1136
# 5 3.3177 -5.5523 -3.4490 0.0000 29.6733 0.0000
# 6 0.0000 0.0000 0.0000 10.1136 0.0000 36.8231
#
#
#
# Elastic Compliance Matrix: (Units=1/GPa)
#
#
# Indices 1 2 3 4 5 6 
#
# 1 0.013272 0.004048 -0.003722 0.000000 -0.001159 0.000000
# 2 0.004048 0.015965 -0.005251 0.000000 0.001924 0.000000
# 3 -0.003722 -0.005251 0.009737 0.000000 0.000565 0.000000
# 4 0.000000 0.000000 0.000000 0.031167 0.000000 -0.008560
# 5 -0.001159 0.001924 0.000565 0.000000 0.034256 0.000000
# 6 0.000000 0.000000 0.000000 -0.008560 0.000000 0.029508
#
#
# Mechanical properties :
#
#
# Convention : Reuss Voigt Hill
#
# Bulk Modulus (GPa) = 34.33910 44.17102 39.25506
# Shear Modulus (GPa) = 32.58102 36.95456 34.76779
#
# Velocity S-wave (km/s) = 3.76306 4.00768 3.88730
# Velocity P-wave (km/s) = 5.81426 6.37286 6.09995
#
# Compressibility (1/GPa) = 0.02912132
#
# Stress axis : x y z
#
# Youngs Moduli (GPa) = 75.34687 62.63865 102.69985
#
# Poissons Ratio (x) = -0.25353 0.38230
# Poissons Ratio (y) = -0.30497 0.53930
# Poissons Ratio (z) = 0.28048 0.32893
#
# Static dielectric constant tensor:
#      x y z
#    x 1.856130 0.000000 0.044230 
#    y 0.000000 1.948880 0.000000 
#    z 0.044230 0.000000 1.812750 
# 
# From -- ./inp_files/12282.got.cif
#   From: 2010.05.17/outbox.cif.g08.bks.cpg/sg14_7_cif.got.tgz:12282.got - 2010.06.03 17:49:19.
