data_PCOD9246912
_publ_section_title
;
Structure prediction by ZEFSAII (Michael W. Deem and Ramdas Pophale) SiO2 
 PCOD9246912
Probable space group: P 21/C
;
_chemical_formula_sum "Si O2"
_cell_formula_units_Z 24
_cell_length_a 7.689180
_cell_length_b 6.792401
_cell_length_c 18.426347
_cell_angle_alpha 90.000000
_cell_angle_beta 69.176415
_cell_angle_gamma 90.000000
_cell_volume 899.508500
_symmetry_space_group_name_H-M "P 21/C"
_symmetry_group_IT_number 14
_symmetry_cell_setting 'monoclinic'
loop_
_space_group_symop_operation_xyz
x,y,z
-x,1/2+y,1/2-z
-x,-y,-z
x,1/2-y,1/2+z
loop_
_atom_site_type_symbol
_atom_site_label
_atom_site_fract_x
_atom_site_fract_y
_atom_site_fract_z
Si Si1 0.781507 0.579868 0.669724
Si Si2 0.944775 0.731551 0.512838
Si Si3 0.896783 0.133138 0.644441
Si Si4 0.368174 0.161467 0.054289
Si Si5 0.634617 0.083557 0.812222
Si Si6 0.711696 0.532837 0.839765
O O1 0.892077 0.741210 0.605572
O O2 0.885645 0.371289 0.659147
O O3 0.584013 0.538581 0.660537
O O4 0.732767 0.636303 0.758697
O O5 0.762364 0.737520 0.490190
O O6 0.000000 0.500000 0.500000
O O7 0.092677 0.862844 0.445625
O O8 0.726822 0.059899 0.719317
O O9 0.087957 0.053882 0.651238
O O10 0.435536 0.354929 0.087126
O O11 0.277961 0.041847 0.135338
O O12 0.500000 0.000000 0.000000
O O13 0.341729 0.809917 0.667616
#
# Coordination Sequence:
#
# PCOD9246912 Si02
#       6
#     4   4   4   4   4   4
#     4  10  21  42  70 104 140 187 236 295 356 426
#     4   9  19  39  66  95 136 182 235 282 351 421
#     4   9  22  42  65 101 139 186 231 289 356 425
#     4  11  23  42  69  97 142 193 228 294 368 420
#     4  11  24  40  69 106 139 185 243 290 355 428
#     4  10  25  42  68 105 143 181 243 291 351 432
#
# _framework density 26.681235999999998
#
# number of rings (size 3 to 8) (size 9 to 14) (size 15 to 20)
#    0.000    2.000    1.667    0.000   16.333    0.667 
#    0.000    0.000    0.000   10.000    0.000    0.000 
#    0.000    0.000    0.000    0.000    0.000    0.000 
#
# Total GULP energy -134214.662543 kJ/mol
# GULP energy per Si atom -5592.277606 kJ/mol
# Density = 2.662051 g / cm^3
# Si number density = 26.681236 Si / 1000 Ang^3
#
#
#
# Elastic Constant Matrix: (Units=GPa)
#
#
# Indices 1 2 3 4 5 6 
#
# 1 114.2666 28.3399 25.0223 0.0000 1.6519 0.0000
# 2 28.3399 88.3540 28.0654 0.0000 9.2550 0.0000
# 3 25.0223 28.0654 152.9278 0.0000 21.0784 0.0000
# 4 0.0000 0.0000 0.0000 68.7634 0.0000 6.6054
# 5 1.6519 9.2550 21.0784 0.0000 36.0244 0.0000
# 6 0.0000 0.0000 0.0000 6.6054 0.0000 24.8565
#
#
#
# Elastic Compliance Matrix: (Units=1/GPa)
#
#
# Indices 1 2 3 4 5 6 
#
# 1 0.009704 -0.002833 -0.001204 0.000000 0.000987 0.000000
# 2 -0.002833 0.012974 -0.001605 0.000000 -0.002264 0.000000
# 3 -0.001204 -0.001605 0.007577 0.000000 -0.003966 0.000000
# 4 0.000000 0.000000 0.000000 0.014924 0.000000 -0.003966
# 5 0.000987 -0.002264 -0.003966 0.000000 0.030616 0.000000
# 6 0.000000 0.000000 0.000000 -0.003966 0.000000 0.041285
#
#
# Mechanical properties :
#
#
# Convention : Reuss Voigt Hill
#
# Bulk Modulus (GPa) = 52.71601 57.60041 55.15821
# Shear Modulus (GPa) = 37.12299 44.20359 40.66329
#
# Velocity S-wave (km/s) = 3.73413 4.07471 3.90813
# Velocity P-wave (km/s) = 6.19615 6.61611 6.40957
#
# Compressibility (1/GPa) = 0.01896957
#
# Stress axis : x y z
#
# Youngs Moduli (GPa) = 103.05506 77.07701 131.97415
#
# Poissons Ratio (x) = 0.21840 0.15887
# Poissons Ratio (y) = 0.29201 0.21186
# Poissons Ratio (z) = 0.12406 0.12373
#
# Static dielectric constant tensor:
#      x y z
#    x 2.003230 0.000000 -0.065240 
#    y 0.000000 2.192190 0.000000 
#    z -0.065240 0.000000 2.187890 
# 
# From -- ./inp_files/55087.got.cif
#   From: 2010.05.17/outbox.cif.g08.bks.cpg/sg14_28_cif.got.tgz:55087.got - 2010.06.03 17:49:19.
