data_PCOD9246989
_publ_section_title
;
Structure prediction by ZEFSAII (Michael W. Deem and Ramdas Pophale) SiO2 
 PCOD9246989
Probable space group: P 21/C
;
_chemical_formula_sum "Si O2"
_cell_formula_units_Z 28
_cell_length_a 20.719652
_cell_length_b 11.286301
_cell_length_c 9.063619
_cell_angle_alpha 90.000000
_cell_angle_beta 142.113524
_cell_angle_gamma 90.000000
_cell_volume 1301.589590
_symmetry_space_group_name_H-M "P 21/C"
_symmetry_group_IT_number 14
_symmetry_cell_setting 'monoclinic'
loop_
_space_group_symop_operation_xyz
x,y,z
-x,1/2+y,1/2-z
-x,-y,-z
x,1/2-y,1/2+z
loop_
_atom_site_type_symbol
_atom_site_label
_atom_site_fract_x
_atom_site_fract_y
_atom_site_fract_z
Si Si1 0.893451 0.336916 0.779712
Si Si2 0.230889 0.934918 0.703042
Si Si3 0.436278 0.886426 0.937051
Si Si4 0.113892 0.399285 0.329615
Si Si5 0.455599 0.197333 0.577315
Si Si6 0.032396 0.913676 0.187839
Si Si7 0.678656 0.644550 0.438496
O O1 0.807788 0.332337 0.756081
O O2 0.864794 0.458166 0.640972
O O3 0.906513 0.208264 0.734590
O O4 0.009959 0.366384 0.050304
O O5 0.311353 0.901204 0.720185
O O6 0.118566 0.983543 0.442693
O O7 0.291242 0.031679 0.909456
O O8 0.473177 0.786315 0.890111
O O9 0.472549 0.864957 0.171392
O O10 0.500000 0.000000 0.000000
O O11 0.211026 0.325509 0.442504
O O12 0.074361 0.377059 0.422544
O O13 0.372014 0.264293 0.535302
O O14 0.397570 0.125699 0.340944
O O15 0.000000 0.000000 0.000000
#
# Coordination Sequence:
#
# PCOD9246989 Si02
#       7
#     4   4   4   4   4   4   4
#     4   9  21  42  59  90 130 170 217 270 339 402
#     4  10  23  43  64  91 136 180 219 283 342 409
#     4  11  23  46  68  99 139 175 228 289 340 416
#     4   9  21  39  64  89 129 172 212 276 335 397
#     4  10  24  41  68 103 131 177 231 285 345 399
#     4  11  25  39  65 100 132 176 229 275 335 418
#     4  10  21  43  65  98 131 173 228 276 346 403
#
# _framework density 21.512157999999999
#
# number of rings (size 3 to 8) (size 9 to 14) (size 15 to 20)
#    0.000    2.000    1.429    0.857    8.000    2.857 
#    0.000    0.000    0.000    0.000    0.000    0.000 
#    0.000    0.000    0.000    0.000    0.000    0.000 
#
# Total GULP energy -155983.046643 kJ/mol
# GULP energy per Si atom -5570.823094 kJ/mol
# Density = 2.146320 g / cm^3
# Si number density = 21.512158 Si / 1000 Ang^3
#
#
#
# Elastic Constant Matrix: (Units=GPa)
#
#
# Indices 1 2 3 4 5 6 
#
# 1 137.9603 10.9052 25.6320 0.0000 17.9357 0.0000
# 2 10.9052 42.4098 15.0741 0.0000 -7.8240 0.0000
# 3 25.6320 15.0741 69.4020 0.0000 -13.1720 0.0000
# 4 0.0000 0.0000 0.0000 20.7589 0.0000 -1.3828
# 5 17.9357 -7.8240 -13.1720 0.0000 42.7630 0.0000
# 6 0.0000 0.0000 0.0000 -1.3828 0.0000 29.6512
#
#
#
# Elastic Compliance Matrix: (Units=1/GPa)
#
#
# Indices 1 2 3 4 5 6 
#
# 1 0.008783 -0.001858 -0.003828 0.000000 -0.005203 0.000000
# 2 -0.001858 0.026351 -0.004221 0.000000 0.004300 0.000000
# 3 -0.003828 -0.004221 0.017947 0.000000 0.006361 0.000000
# 4 0.000000 0.000000 0.000000 0.048322 0.000000 0.002254
# 5 -0.005203 0.004300 0.006361 0.000000 0.028313 0.000000
# 6 0.000000 0.000000 0.000000 0.002254 0.000000 0.033831
#
#
# Mechanical properties :
#
#
# Convention : Reuss Voigt Hill
#
# Bulk Modulus (GPa) = 30.05964 39.22162 34.64063
# Shear Modulus (GPa) = 25.71382 31.84535 28.77959
#
# Velocity S-wave (km/s) = 3.46108 3.85170 3.66160
# Velocity P-wave (km/s) = 5.47502 6.16868 5.83217
#
# Compressibility (1/GPa) = 0.03326720
#
# Stress axis : x y z
#
# Youngs Moduli (GPa) = 113.85863 37.94944 55.72093
#
# Poissons Ratio (x) = 0.07050 0.21328
# Poissons Ratio (y) = 0.21152 0.23521
# Poissons Ratio (z) = 0.43581 0.16019
#
# Static dielectric constant tensor:
#      x y z
#    x 1.852260 0.000000 -0.015460 
#    y 0.000000 1.818330 0.000000 
#    z -0.015460 0.000000 1.848040 
# 
# From -- ./inp_files/18982.got.cif
#   From: 2010.05.17/outbox.cif.g08.bks.cpg/sg14_10_cif.got.tgz:18982.got - 2010.06.03 17:49:19.
