data_PCOD9246001
_publ_section_title
;
Structure prediction by ZEFSAII (Michael W. Deem and Ramdas Pophale) SiO2 
 PCOD9246001
Probable space group: P 21/C
;
_chemical_formula_sum "Si O2"
_cell_formula_units_Z 32
_cell_length_a 22.890927
_cell_length_b 13.547966
_cell_length_c 15.953842
_cell_angle_alpha 90.000000
_cell_angle_beta 17.996223
_cell_angle_gamma 90.000000
_cell_volume 1528.611096
_symmetry_space_group_name_H-M "P 21/C"
_symmetry_group_IT_number 14
_symmetry_cell_setting 'monoclinic'
loop_
_space_group_symop_operation_xyz
x,y,z
-x,1/2+y,1/2-z
-x,-y,-z
x,1/2-y,1/2+z
loop_
_atom_site_type_symbol
_atom_site_label
_atom_site_fract_x
_atom_site_fract_y
_atom_site_fract_z
Si Si1 0.875307 0.648914 0.347623
Si Si2 0.147209 0.251562 0.440231
Si Si3 0.912116 0.255758 0.586181
Si Si4 0.474832 0.795438 0.667260
Si Si5 0.677055 0.981235 0.443082
Si Si6 0.481342 0.809413 0.320855
Si Si7 0.017885 0.531497 0.589173
Si Si8 0.094373 0.578242 0.670849
O O1 0.908633 0.683767 0.399603
O O2 0.688894 0.709660 0.572747
O O3 0.852563 0.530200 0.366173
O O4 0.026256 0.681508 0.071143
O O5 0.032292 0.261815 0.508575
O O6 0.077648 0.140098 0.555397
O O7 0.370047 0.270089 0.115760
O O8 0.943159 0.363029 0.505014
O O9 0.691240 0.244784 0.908683
O O10 0.564076 0.881149 0.604644
O O11 0.464158 0.702758 0.744135
O O12 0.274510 0.846195 0.916473
O O13 0.820749 0.003318 0.321770
O O14 0.555515 0.078538 0.599785
O O15 0.808490 0.967138 0.181618
O O16 0.022481 0.546654 0.679027
#
# Coordination Sequence:
#
# PCOD9246001 Si02
#       8
#     4   4   4   4   4   4   4   4
#     4  12  26  46  72 106 143 184 238 293 352 420
#     4  12  26  44  71 103 139 185 231 298 353 412
#     4  11  23  46  69  98 141 187 226 291 351 416
#     4  12  24  44  67 102 142 175 235 289 343 418
#     4  10  21  39  68  97 123 189 230 278 342 412
#     4  11  24  43  70 103 138 187 232 290 351 414
#     4  10  21  41  67  96 136 173 234 288 343 402
#     4  12  27  43  70 110 138 185 237 292 350 430
#
# _framework density 20.934037
#
# number of rings (size 3 to 8) (size 9 to 14) (size 15 to 20)
#    0.000    0.750    6.250    0.750    7.000    1.500 
#    2.250    0.000    0.000    2.250    0.000    0.000 
#    0.000    0.000    0.000    0.000    0.000    0.000 
#
# Total GULP energy -178319.307172 kJ/mol
# GULP energy per Si atom -5572.478349 kJ/mol
# Density = 2.088639 g / cm^3
# Si number density = 20.934037 Si / 1000 Ang^3
#
#
#
# Elastic Constant Matrix: (Units=GPa)
#
#
# Indices 1 2 3 4 5 6 
#
# 1 103.7603 25.5047 28.0565 0.0000 -12.5960 0.0000
# 2 25.5047 56.7466 36.0308 0.0000 14.7167 0.0000
# 3 28.0565 36.0308 107.3718 0.0000 9.4670 0.0000
# 4 0.0000 0.0000 0.0000 1.1905 0.0000 -14.4681
# 5 -12.5960 14.7167 9.4670 0.0000 36.2294 0.0000
# 6 0.0000 0.0000 0.0000 -14.4681 0.0000 19.6862
#
#
#
# Elastic Compliance Matrix: (Units=1/GPa)
#
#
# Indices 1 2 3 4 5 6 
#
# 1 0.012622 -0.006483 -0.001783 0.000000 0.007488 0.000000
# 2 -0.006483 0.027783 -0.006587 0.000000 -0.011818 0.000000
# 3 -0.001783 -0.006587 0.012087 0.000000 -0.001103 0.000000
# 4 0.000000 0.000000 0.000000 -0.105904 0.000000 -0.077832
# 5 0.007488 -0.011818 -0.001103 0.000000 0.035294 0.000000
# 6 0.000000 0.000000 0.000000 -0.077832 0.000000 -0.006405
#
#
# Mechanical properties :
#
#
# Convention : Reuss Voigt Hill
#
# Bulk Modulus (GPa) = 43.88555 49.67364 46.77960
# Shear Modulus (GPa) = 391.23351 23.30700 207.27025
#
# Velocity S-wave (km/s) = 13.68556 3.34032 9.96123
# Velocity P-wave (km/s) = 16.45403 6.21748 12.43769
#
# Compressibility (1/GPa) = 0.02278654
#
# Stress axis : x y z
#
# Youngs Moduli (GPa) = 79.22567 35.99266 82.73329
#
# Poissons Ratio (x) = 0.23333 0.14751
# Poissons Ratio (y) = 0.51360 0.54499
# Poissons Ratio (z) = 0.14126 0.23709
#
# Static dielectric constant tensor:
#      x y z
#    x 1.770850 0.000000 0.013860 
#    y 0.000000 1.812510 0.000000 
#    z 0.013860 0.000000 1.796060 
# 
# From -- ./inp_files/50603.got.cif
#   From: 2010.05.17/outbox.cif.g08.bks.cpg/sg14_26_cif.got.tgz:50603.got - 2010.06.03 17:49:19.
