data_PCOD9246284
_publ_section_title
;
Structure prediction by ZEFSAII (Michael W. Deem and Ramdas Pophale) SiO2 
 PCOD9246284
Probable space group: P 21/C
;
_chemical_formula_sum "Si O2"
_cell_formula_units_Z 20
_cell_length_a 8.939587
_cell_length_b 9.676794
_cell_length_c 9.397713
_cell_angle_alpha 90.000000
_cell_angle_beta 110.860138
_cell_angle_gamma 90.000000
_cell_volume 759.675868
_symmetry_space_group_name_H-M "P 21/C"
_symmetry_group_IT_number 14
_symmetry_cell_setting 'monoclinic'
loop_
_space_group_symop_operation_xyz
x,y,z
-x,1/2+y,1/2-z
-x,-y,-z
x,1/2-y,1/2+z
loop_
_atom_site_type_symbol
_atom_site_label
_atom_site_fract_x
_atom_site_fract_y
_atom_site_fract_z
Si Si1 0.179433 0.984571 0.006729
Si Si2 0.236537 0.104380 0.564038
Si Si3 0.198287 0.695955 0.135514
Si Si4 0.488734 0.535546 0.328709
Si Si5 0.111215 0.221920 0.787786
O O1 0.217087 0.823621 0.035587
O O2 0.368488 0.837078 0.767175
O O3 0.164279 0.067264 0.854281
O O4 0.000000 0.000000 0.000000
O O5 0.405926 0.080240 0.700310
O O6 0.129743 0.206778 0.626210
O O7 0.231533 0.173302 0.408393
O O8 0.167521 0.948405 0.542313
O O9 0.674990 0.553322 0.356678
O O10 0.059851 0.734948 0.203013
O O11 0.500000 0.500000 0.500000
#
# Coordination Sequence:
#
# PCOD9246284 Si02
#       5
#     4   4   4   4   4
#     4  10  21  40  69 102 137 189 243 293 360 428
#     4  10  24  40  72 101 151 188 243 295 369 431
#     4   9  23  40  67 102 143 188 240 299 358 436
#     4  10  21  40  67 100 144 189 234 298 366 419
#     4  11  22  44  69 109 138 196 237 302 360 439
#
# _framework density 26.327017999999999
#
# number of rings (size 3 to 8) (size 9 to 14) (size 15 to 20)
#    1.200    0.800    2.000    0.600    2.800    8.000 
#    0.000    4.000    0.000    3.600    0.000    0.000 
#    0.000    0.000    0.000    0.000    0.000    0.000 
#
# Total GULP energy -111758.548781 kJ/mol
# GULP energy per Si atom -5587.927439 kJ/mol
# Density = 2.626710 g / cm^3
# Si number density = 26.327018 Si / 1000 Ang^3
#
#
#
# Elastic Constant Matrix: (Units=GPa)
#
#
# Indices 1 2 3 4 5 6 
#
# 1 104.4732 44.7476 52.2679 0.0000 36.2118 0.0000
# 2 44.7476 187.5209 57.7518 0.0000 1.2970 0.0000
# 3 52.2679 57.7518 137.5836 0.0000 17.5349 0.0000
# 4 0.0000 0.0000 0.0000 52.1298 0.0000 15.0644
# 5 36.2118 1.2970 17.5349 0.0000 56.5761 0.0000
# 6 0.0000 0.0000 0.0000 15.0644 0.0000 49.5532
#
#
#
# Elastic Compliance Matrix: (Units=1/GPa)
#
#
# Indices 1 2 3 4 5 6 
#
# 1 0.015538 -0.002495 -0.003744 0.000000 -0.008728 0.000000
# 2 -0.002495 0.006550 -0.002068 0.000000 0.002087 0.000000
# 3 -0.003744 -0.002068 0.009627 0.000000 -0.000540 0.000000
# 4 0.000000 0.000000 0.000000 0.021030 0.000000 -0.006393
# 5 -0.008728 0.002087 -0.000540 0.000000 0.023381 0.000000
# 6 0.000000 0.000000 0.000000 -0.006393 0.000000 0.022124
#
#
# Mechanical properties :
#
#
# Convention : Reuss Voigt Hill
#
# Bulk Modulus (GPa) = 66.20717 82.12359 74.16538
# Shear Modulus (GPa) = 41.70181 49.97251 45.83716
#
# Velocity S-wave (km/s) = 3.98426 4.36150 4.17714
# Velocity P-wave (km/s) = 6.80943 7.52495 7.17612
#
# Compressibility (1/GPa) = 0.01510410
#
# Stress axis : x y z
#
# Youngs Moduli (GPa) = 64.35652 152.66094 103.87043
#
# Poissons Ratio (x) = 0.38083 0.38884
# Poissons Ratio (y) = 0.16054 0.21480
# Poissons Ratio (z) = 0.24092 0.31570
#
# Static dielectric constant tensor:
#      x y z
#    x 2.187200 0.000000 0.006590 
#    y 0.000000 2.095350 0.000000 
#    z 0.006590 0.000000 2.045030 
# 
# From -- ./inp_files/27628.got.cif
#   From: 2010.05.17/outbox.cif.g08.bks.cpg/sg14_14_cif.got.tgz:27628.got - 2010.06.03 17:49:19.
