data_PCOD9246013
_publ_section_title
;
Structure prediction by ZEFSAII (Michael W. Deem and Ramdas Pophale) SiO2 
 PCOD9246013
Probable space group: P 21/C
;
_chemical_formula_sum "Si O2"
_cell_formula_units_Z 32
_cell_length_a 13.615099
_cell_length_b 11.372971
_cell_length_c 14.963090
_cell_angle_alpha 90.000000
_cell_angle_beta 33.343536
_cell_angle_gamma 90.000000
_cell_volume 1273.527640
_symmetry_space_group_name_H-M "P 21/C"
_symmetry_group_IT_number 14
_symmetry_cell_setting 'monoclinic'
loop_
_space_group_symop_operation_xyz
x,y,z
-x,1/2+y,1/2-z
-x,-y,-z
x,1/2-y,1/2+z
loop_
_atom_site_type_symbol
_atom_site_label
_atom_site_fract_x
_atom_site_fract_y
_atom_site_fract_z
Si Si1 0.645622 0.008345 0.050980
Si Si2 0.775995 0.011980 0.632988
Si Si3 0.678486 0.181797 0.860219
Si Si4 0.387928 0.030844 0.730912
Si Si5 0.883219 0.405636 0.694767
Si Si6 0.172995 0.238650 0.862223
Si Si7 0.197562 0.025306 0.578463
Si Si8 0.716146 0.735066 0.418732
O O1 0.740130 0.891471 0.943593
O O2 0.649360 0.100917 0.968250
O O3 0.687587 0.032392 0.122160
O O4 0.435354 0.981192 0.221864
O O5 0.822323 0.877520 0.621702
O O6 0.860857 0.030777 0.471054
O O7 0.790740 0.105765 0.701675
O O8 0.790902 0.291561 0.806442
O O9 0.492928 0.228158 0.956159
O O10 0.350890 0.170786 0.761446
O O11 0.267494 0.976425 0.744844
O O12 0.597076 0.011543 0.557497
O O13 0.927836 0.488310 0.744542
O O14 0.025211 0.346294 0.519747
O O15 0.175097 0.236663 0.753438
O O16 0.224218 0.166183 0.555903
#
# Coordination Sequence:
#
# PCOD9246013 Si02
#       8
#     4   4   4   4   4   4   4   4
#     4  10  21  39  69  99 120 165 222 272 319 372
#     4  10  22  41  68  96 127 166 216 275 316 383
#     4  11  21  42  66  96 126 167 220 259 322 380
#     4  11  23  41  64  93 129 167 222 268 315 380
#     4  12  26  40  62  96 133 177 208 261 324 390
#     4  12  23  42  66  91 131 173 212 260 333 385
#     4  11  23  41  68  97 126 169 219 272 318 373
#     4  11  19  40  70  92 125 164 217 267 323 380
#
# _framework density 25.127057000000001
#
# number of rings (size 3 to 8) (size 9 to 14) (size 15 to 20)
#    0.000    1.000    5.000    3.000    0.000    1.500 
#    2.250    2.500    0.000    0.000    0.000    0.000 
#    0.000    0.000    0.000    0.000    0.000    0.000 
#
# Total GULP energy -178899.445848 kJ/mol
# GULP energy per Si atom -5590.607683 kJ/mol
# Density = 2.506987 g / cm^3
# Si number density = 25.127057 Si / 1000 Ang^3
#
#
#
# Elastic Constant Matrix: (Units=GPa)
#
#
# Indices 1 2 3 4 5 6 
#
# 1 47.4320 8.4215 24.8952 0.0000 12.1460 0.0000
# 2 8.4215 87.1229 22.6536 0.0000 -4.0818 0.0000
# 3 24.8952 22.6536 125.8601 0.0000 18.4529 0.0000
# 4 0.0000 0.0000 0.0000 41.1266 0.0000 2.0412
# 5 12.1460 -4.0818 18.4529 0.0000 46.2258 0.0000
# 6 0.0000 0.0000 0.0000 2.0412 0.0000 7.5170
#
#
#
# Elastic Compliance Matrix: (Units=1/GPa)
#
#
# Indices 1 2 3 4 5 6 
#
# 1 0.024695 -0.001626 -0.003845 0.000000 -0.005098 0.000000
# 2 -0.001626 0.012334 -0.002253 0.000000 0.002416 0.000000
# 3 -0.003845 -0.002253 0.009551 0.000000 -0.003002 0.000000
# 4 0.000000 0.000000 0.000000 0.024647 0.000000 -0.006693
# 5 -0.005098 0.002416 -0.003002 0.000000 0.024384 0.000000
# 6 0.000000 0.000000 0.000000 -0.006693 0.000000 0.134850
#
#
# Mechanical properties :
#
#
# Convention : Reuss Voigt Hill
#
# Bulk Modulus (GPa) = 32.11971 41.37285 36.74628
# Shear Modulus (GPa) = 19.50951 32.60353 26.05652
#
# Velocity S-wave (km/s) = 2.78948 3.60606 3.22373
# Velocity P-wave (km/s) = 4.81514 5.81716 5.33971
#
# Compressibility (1/GPa) = 0.03113353
#
# Stress axis : x y z
#
# Youngs Moduli (GPa) = 40.49449 81.07605 104.69802
#
# Poissons Ratio (x) = 0.13185 0.40252
# Poissons Ratio (y) = 0.06585 0.23583
# Poissons Ratio (z) = 0.15568 0.18262
#
# Static dielectric constant tensor:
#      x y z
#    x 2.041270 0.000000 -0.003630 
#    y 0.000000 1.962940 0.000000 
#    z -0.003630 0.000000 2.051270 
# 
# From -- ./inp_files/48986.got.cif
#   From: 2010.05.17/outbox.cif.g08.bks.cpg/sg14_25_cif.got.tgz:48986.got - 2010.06.03 17:49:19.
