data_PCOD9246604
_publ_section_title
;
Structure prediction by ZEFSAII (Michael W. Deem and Ramdas Pophale) SiO2 
 PCOD9246604
Probable space group: P 21/C
;
_chemical_formula_sum "Si O2"
_cell_formula_units_Z 26
_cell_length_a 20.972092
_cell_length_b 9.517687
_cell_length_c 10.622593
_cell_angle_alpha 90.000000
_cell_angle_beta 26.170901
_cell_angle_gamma 90.000000
_cell_volume 935.172316
_symmetry_space_group_name_H-M "P 21/C"
_symmetry_group_IT_number 14
_symmetry_cell_setting 'monoclinic'
loop_
_space_group_symop_operation_xyz
x,y,z
-x,1/2+y,1/2-z
-x,-y,-z
x,1/2-y,1/2+z
loop_
_atom_site_type_symbol
_atom_site_label
_atom_site_fract_x
_atom_site_fract_y
_atom_site_fract_z
Si Si1 0.223631 0.028799 0.191759
Si Si2 0.208528 0.707593 0.528810
Si Si3 0.459623 0.557219 0.797260
Si Si4 0.009570 0.530626 0.701525
Si Si5 0.500000 0.000000 0.500000
Si Si6 0.079636 0.182311 0.870610
Si Si7 0.479892 0.794256 0.922901
O O1 0.160503 0.173258 0.250561
O O2 0.091122 0.967841 0.509088
O O3 0.274316 0.926046 0.987931
O O4 0.365383 0.053271 0.021902
O O5 0.116386 0.639188 0.579711
O O6 0.332194 0.809804 0.262537
O O7 0.093155 0.784519 0.819313
O O8 0.420006 0.493934 0.003371
O O9 0.424126 0.432144 0.763642
O O10 0.429714 0.722073 0.877077
O O11 0.093903 0.419705 0.465800
O O12 0.902370 0.609737 0.795066
O O13 0.550244 0.835584 0.371621
#
# Coordination Sequence:
#
# PCOD9246604 Si02
#       7
#     4   4   4   4   2   4   4
#     4  11  22  38  63  88 125 168 204 258 328 374
#     4  11  22  36  65  84 125 167 201 255 323 374
#     4  10  21  42  65  94 123 168 211 268 320 389
#     4  10  23  38  57  92 122 163 212 257 314 379
#     4   8  20  42  58  90 128 156 206 266 320 378
#     4  10  23  38  57  90 127 159 212 262 304 386
#     4  10  21  41  67  90 126 164 216 263 323 379
#
# _framework density 27.802361999999999
#
# number of rings (size 3 to 8) (size 9 to 14) (size 15 to 20)
#    0.923    0.923    1.538    2.769   10.769    1.231 
#    2.769    0.769    0.000    0.000    0.000    0.000 
#    0.000    0.000    0.000    0.000    0.000    0.000 
#
# Total GULP energy -144997.160862 kJ/mol
# GULP energy per Si atom -5576.813879 kJ/mol
# Density = 2.773908 g / cm^3
# Si number density = 27.802362 Si / 1000 Ang^3
#
#
#
# Elastic Constant Matrix: (Units=GPa)
#
#
# Indices 1 2 3 4 5 6 
#
# 1 71.6194 50.5865 15.8982 0.0000 18.8139 0.0000
# 2 50.5865 140.9684 29.7337 0.0000 25.7196 0.0000
# 3 15.8982 29.7337 115.0912 0.0000 15.6934 0.0000
# 4 0.0000 0.0000 0.0000 34.9512 0.0000 12.2884
# 5 18.8139 25.7196 15.6934 0.0000 37.2438 0.0000
# 6 0.0000 0.0000 0.0000 12.2884 0.0000 49.2873
#
#
#
# Elastic Compliance Matrix: (Units=1/GPa)
#
#
# Indices 1 2 3 4 5 6 
#
# 1 0.019763 -0.005967 -0.000413 0.000000 -0.005689 0.000000
# 2 -0.005967 0.010141 -0.001328 0.000000 -0.003429 0.000000
# 3 -0.000413 -0.001328 0.009480 0.000000 -0.002869 0.000000
# 4 0.000000 0.000000 0.000000 0.031360 0.000000 -0.007819
# 5 -0.005689 -0.003429 -0.002869 0.000000 0.033301 0.000000
# 6 0.000000 0.000000 0.000000 -0.007819 0.000000 0.022239
#
#
# Mechanical properties :
#
#
# Convention : Reuss Voigt Hill
#
# Bulk Modulus (GPa) = 41.72113 57.79065 49.75589
# Shear Modulus (GPa) = 33.40247 39.72715 36.56481
#
# Velocity S-wave (km/s) = 3.46992 3.78420 3.63046
# Velocity P-wave (km/s) = 5.57608 6.31861 5.95893
#
# Compressibility (1/GPa) = 0.02396867
#
# Stress axis : x y z
#
# Youngs Moduli (GPa) = 50.59837 98.61110 105.48435
#
# Poissons Ratio (x) = 0.58843 0.04353
# Poissons Ratio (y) = 0.30193 0.14009
# Poissons Ratio (z) = 0.02088 0.13096
#
# Static dielectric constant tensor:
#      x y z
#    x 2.249190 0.000000 0.044010 
#    y 0.000000 2.090180 0.000000 
#    z 0.044010 0.000000 1.971850 
# 
# From -- ./inp_files/36158.got.cif
#   From: 2010.05.17/outbox.cif.g08.bks.cpg/sg14_19_cif.got.tgz:36158.got - 2010.06.03 17:49:19.
