data_PCOD9246986
_publ_section_title
;
Structure prediction by ZEFSAII (Michael W. Deem and Ramdas Pophale) SiO2 
 PCOD9246986
Probable space group: P 21/C
;
_chemical_formula_sum "Si O2"
_cell_formula_units_Z 24
_cell_length_a 11.116394
_cell_length_b 12.508594
_cell_length_c 8.588442
_cell_angle_alpha 90.000000
_cell_angle_beta 74.027717
_cell_angle_gamma 90.000000
_cell_volume 1148.123588
_symmetry_space_group_name_H-M "P 21/C"
_symmetry_group_IT_number 14
_symmetry_cell_setting 'monoclinic'
loop_
_space_group_symop_operation_xyz
x,y,z
-x,1/2+y,1/2-z
-x,-y,-z
x,1/2-y,1/2+z
loop_
_atom_site_type_symbol
_atom_site_label
_atom_site_fract_x
_atom_site_fract_y
_atom_site_fract_z
Si Si1 0.920190 0.617655 0.234653
Si Si2 0.291092 0.499673 0.544219
Si Si3 0.890155 0.497485 0.664858
Si Si4 0.544863 0.614728 0.050831
Si Si5 0.837863 0.828189 0.426426
Si Si6 0.505607 0.160430 0.068945
O O1 0.826539 0.517952 0.299525
O O2 0.858947 0.706751 0.368221
O O3 0.061962 0.594520 0.235916
O O4 0.908510 0.650645 0.061459
O O5 0.235999 0.508614 0.389191
O O6 0.371785 0.604988 0.545574
O O7 0.387808 0.401181 0.531795
O O8 0.890262 0.603467 0.765845
O O9 0.000000 0.500000 0.500000
O O10 0.502767 0.632994 0.244573
O O11 0.500000 0.500000 0.000000
O O12 0.695192 0.632315 0.997420
O O13 0.497298 0.713978 0.963334
#
# Coordination Sequence:
#
# PCOD9246986 Si02
#       6
#     4   4   4   4   4   4
#     4  11  22  41  66  98 126 181 224 279 336 412
#     4  10  21  43  65  96 136 180 224 282 342 395
#     4  10  23  40  66  93 126 169 223 274 332 401
#     4  12  26  42  70 105 137 182 232 277 343 417
#     4  12  22  41  66  96 132 173 226 276 343 408
#     4  11  25  41  69  99 142 180 225 283 344 403
#
# _framework density 20.903670999999999
#
# number of rings (size 3 to 8) (size 9 to 14) (size 15 to 20)
#    0.000    1.000    3.333    3.500    7.000    0.000 
#    0.000   11.667    0.000    0.000    0.000    0.000 
#    0.000    0.000    0.000    0.000    0.000    0.000 
#
# Total GULP energy -134021.990895 kJ/mol
# GULP energy per Si atom -5584.249621 kJ/mol
# Density = 2.085609 g / cm^3
# Si number density = 20.903671 Si / 1000 Ang^3
#
#
#
# Elastic Constant Matrix: (Units=GPa)
#
#
# Indices 1 2 3 4 5 6 
#
# 1 53.9275 38.1028 31.6685 0.0000 26.6218 0.0000
# 2 38.1028 120.7932 26.5816 0.0000 18.2290 0.0000
# 3 31.6685 26.5816 83.0076 0.0000 18.9924 0.0000
# 4 0.0000 0.0000 0.0000 26.5667 0.0000 14.9861
# 5 26.6218 18.2290 18.9924 0.0000 40.6815 0.0000
# 6 0.0000 0.0000 0.0000 14.9861 0.0000 19.9239
#
#
#
# Elastic Compliance Matrix: (Units=1/GPa)
#
#
# Indices 1 2 3 4 5 6 
#
# 1 0.036700 -0.007286 -0.007748 0.000000 -0.017134 0.000000
# 2 -0.007286 0.010687 -0.000714 0.000000 0.000312 0.000000
# 3 -0.007748 -0.000714 0.015673 0.000000 -0.001927 0.000000
# 4 0.000000 0.000000 0.000000 0.065382 0.000000 -0.049178
# 5 -0.017134 0.000312 -0.001927 0.000000 0.036553 0.000000
# 6 0.000000 0.000000 0.000000 -0.049178 0.000000 0.087181
#
#
# Mechanical properties :
#
#
# Convention : Reuss Voigt Hill
#
# Bulk Modulus (GPa) = 31.68229 50.04823 40.86526
# Shear Modulus (GPa) = 16.99569 28.19277 22.59423
#
# Velocity S-wave (km/s) = 2.85449 3.67645 3.29123
# Velocity P-wave (km/s) = 5.10425 6.48197 5.83393
#
# Compressibility (1/GPa) = 0.03156337
#
# Stress axis : x y z
#
# Youngs Moduli (GPa) = 27.24832 93.57338 63.80596
#
# Poissons Ratio (x) = 0.68175 0.49436
# Poissons Ratio (y) = 0.19852 0.04557
# Poissons Ratio (z) = 0.21112 0.06683
#
# Static dielectric constant tensor:
#      x y z
#    x 1.797880 0.000000 0.023280 
#    y 0.000000 1.774410 0.000000 
#    z 0.023280 0.000000 1.756470 
# 
# From -- ./inp_files/12421.got.cif
#   From: 2010.05.17/outbox.cif.g08.bks.cpg/sg14_7_cif.got.tgz:12421.got - 2010.06.03 17:49:19.
