data_PCOD9246096
_publ_section_title
;
Structure prediction by ZEFSAII (Michael W. Deem and Ramdas Pophale) SiO2 
 PCOD9246096
Probable space group: P 21/C
;
_chemical_formula_sum "Si O2"
_cell_formula_units_Z 28
_cell_length_a 14.884840
_cell_length_b 9.427708
_cell_length_c 8.608632
_cell_angle_alpha 90.000000
_cell_angle_beta 65.028120
_cell_angle_gamma 90.000000
_cell_volume 1095.114366
_symmetry_space_group_name_H-M "P 21/C"
_symmetry_group_IT_number 14
_symmetry_cell_setting 'monoclinic'
loop_
_space_group_symop_operation_xyz
x,y,z
-x,1/2+y,1/2-z
-x,-y,-z
x,1/2-y,1/2+z
loop_
_atom_site_type_symbol
_atom_site_label
_atom_site_fract_x
_atom_site_fract_y
_atom_site_fract_z
Si Si1 0.171854 0.420212 0.701206
Si Si2 0.272692 0.607709 0.370648
Si Si3 0.382092 0.000170 0.548229
Si Si4 0.119123 0.643841 0.985132
Si Si5 0.367742 0.101129 0.215391
Si Si6 0.006664 0.866067 0.878083
Si Si7 0.422412 0.681873 0.493037
O O1 0.209665 0.544246 0.558653
O O2 0.128446 0.500108 0.882690
O O3 0.270629 0.349793 0.696240
O O4 0.091545 0.343261 0.653431
O O5 0.293738 0.478643 0.236530
O O6 0.215550 0.755885 0.385237
O O7 0.383716 0.628630 0.355851
O O8 0.365858 0.828607 0.550342
O O9 0.500000 0.000000 0.500000
O O10 0.361143 0.081488 0.404241
O O11 0.033199 0.734958 0.966644
O O12 0.092882 0.618476 0.184221
O O13 0.460004 0.199128 0.101677
O O14 0.397178 0.942425 0.132379
O O15 0.000000 0.000000 0.000000
#
# Coordination Sequence:
#
# PCOD9246096 Si02
#       7
#     4   4   4   4   4   4   4
#     4  11  24  43  70  99 141 187 238 300 368 433
#     4  11  21  41  68 101 133 181 247 294 349 431
#     4  12  23  38  66 103 142 189 242 298 356 428
#     4  12  24  44  73 107 137 188 247 309 355 436
#     4  10  23  40  64  97 138 184 235 301 364 424
#     4  12  25  46  71 105 141 179 239 308 371 430
#     4  10  21  40  62  93 138 180 231 292 359 435
#
# _framework density 25.568104999999999
#
# number of rings (size 3 to 8) (size 9 to 14) (size 15 to 20)
#    0.000    0.857    4.286    3.857    2.000    0.000 
#    0.000    2.857    0.000    0.000    0.000    0.000 
#    0.000    0.000    0.000    0.000    0.000    0.000 
#
# Total GULP energy -156539.897498 kJ/mol
# GULP energy per Si atom -5590.710625 kJ/mol
# Density = 2.550991 g / cm^3
# Si number density = 25.568105 Si / 1000 Ang^3
#
#
#
# Elastic Constant Matrix: (Units=GPa)
#
#
# Indices 1 2 3 4 5 6 
#
# 1 182.3537 12.8808 23.8868 0.0000 0.7294 0.0000
# 2 12.8808 60.0442 20.2291 0.0000 -6.7290 0.0000
# 3 23.8868 20.2291 139.1038 0.0000 10.5522 0.0000
# 4 0.0000 0.0000 0.0000 31.0014 0.0000 -6.6305
# 5 0.7294 -6.7290 10.5522 0.0000 36.0769 0.0000
# 6 0.0000 0.0000 0.0000 -6.6305 0.0000 36.7052
#
#
#
# Elastic Compliance Matrix: (Units=1/GPa)
#
#
# Indices 1 2 3 4 5 6 
#
# 1 0.005659 -0.000939 -0.000832 0.000000 -0.000046 0.000000
# 2 -0.000939 0.018283 -0.002820 0.000000 0.004254 0.000000
# 3 -0.000832 -0.002820 0.007957 0.000000 -0.002837 0.000000
# 4 0.000000 0.000000 0.000000 0.033553 0.000000 0.006061
# 5 -0.000046 0.004254 -0.002837 0.000000 0.029343 0.000000
# 6 0.000000 0.000000 0.000000 0.006061 0.000000 0.028339
#
#
# Mechanical properties :
#
#
# Convention : Reuss Voigt Hill
#
# Bulk Modulus (GPa) = 44.01972 55.05503 49.53737
# Shear Modulus (GPa) = 35.74294 42.39038 39.06666
#
# Velocity S-wave (km/s) = 3.74297 4.07620 3.91313
# Velocity P-wave (km/s) = 5.99448 6.61312 6.31138
#
# Compressibility (1/GPa) = 0.02271709
#
# Stress axis : x y z
#
# Youngs Moduli (GPa) = 176.69991 54.69647 125.67533
#
# Poissons Ratio (x) = 0.05136 0.10453
# Poissons Ratio (y) = 0.16592 0.35443
# Poissons Ratio (z) = 0.14697 0.15426
#
# Static dielectric constant tensor:
#      x y z
#    x 2.077220 0.000000 0.013090 
#    y 0.000000 2.018890 0.000000 
#    z 0.013090 0.000000 2.259760 
# 
# From -- ./inp_files/15446.got.cif
#   From: 2010.05.17/outbox.cif.g08.bks.cpg/sg14_8_cif.got.tgz:15446.got - 2010.06.03 17:49:19.
