data_PCOD9246117
_publ_section_title
;
Structure prediction by ZEFSAII (Michael W. Deem and Ramdas Pophale) SiO2 
 PCOD9246117
Probable space group: P 21/C
;
_chemical_formula_sum "Si O2"
_cell_formula_units_Z 20
_cell_length_a 12.556512
_cell_length_b 8.981429
_cell_length_c 16.383061
_cell_angle_alpha 90.000000
_cell_angle_beta 28.912080
_cell_angle_gamma 90.000000
_cell_volume 893.256732
_symmetry_space_group_name_H-M "P 21/C"
_symmetry_group_IT_number 14
_symmetry_cell_setting 'monoclinic'
loop_
_space_group_symop_operation_xyz
x,y,z
-x,1/2+y,1/2-z
-x,-y,-z
x,1/2-y,1/2+z
loop_
_atom_site_type_symbol
_atom_site_label
_atom_site_fract_x
_atom_site_fract_y
_atom_site_fract_z
Si Si1 0.823144 0.825006 0.662041
Si Si2 0.324151 0.257855 0.902375
Si Si3 0.262785 0.892162 0.464887
Si Si4 0.463723 0.590427 0.608457
Si Si5 0.432558 0.838710 0.517735
O O1 0.850387 0.750478 0.554907
O O2 0.655769 0.728502 0.828361
O O3 0.037159 0.860929 0.569949
O O4 0.693723 0.981801 0.735382
O O5 0.549385 0.206073 0.705911
O O6 0.321468 0.431245 0.930225
O O7 0.328828 0.145533 0.976562
O O8 0.257945 0.837753 0.561874
O O9 0.500000 0.500000 0.500000
O O10 0.360294 0.741605 0.643478
O O11 0.500000 0.000000 0.500000
#
# Coordination Sequence:
#
# PCOD9246117 Si02
#       5
#     4   4   4   4   4
#     4  10  23  41  64  92 127 171 215 259 326 389
#     4  11  21  39  65  87 126 169 209 275 316 374
#     4  11  23  41  64  92 126 171 219 264 319 385
#     4  10  21  40  63  89 131 167 201 268 330 370
#     4  10  21  40  64  93 132 165 212 267 319 381
#
# _framework density 22.389977999999999
#
# number of rings (size 3 to 8) (size 9 to 14) (size 15 to 20)
#    0.000    1.600    4.000    0.600    0.000    1.600 
#    0.000    6.000    0.000    0.000    0.000    0.000 
#    0.000    0.000    0.000    0.000    0.000    0.000 
#
# Total GULP energy -111553.169786 kJ/mol
# GULP energy per Si atom -5577.658489 kJ/mol
# Density = 2.233902 g / cm^3
# Si number density = 22.389978 Si / 1000 Ang^3
#
#
#
# Elastic Constant Matrix: (Units=GPa)
#
#
# Indices 1 2 3 4 5 6 
#
# 1 167.1032 52.9002 31.2645 0.0000 -18.0514 0.0000
# 2 52.9002 114.9714 28.3618 0.0000 -16.8357 0.0000
# 3 31.2645 28.3618 48.0199 0.0000 -14.2247 0.0000
# 4 0.0000 0.0000 0.0000 13.3114 0.0000 3.2443
# 5 -18.0514 -16.8357 -14.2247 0.0000 34.5383 0.0000
# 6 0.0000 0.0000 0.0000 3.2443 0.0000 50.0373
#
#
#
# Elastic Compliance Matrix: (Units=1/GPa)
#
#
# Indices 1 2 3 4 5 6 
#
# 1 0.007489 -0.002499 -0.002963 0.000000 0.001476 0.000000
# 2 -0.002499 0.011264 -0.004312 0.000000 0.002409 0.000000
# 3 -0.002963 -0.004312 0.027585 0.000000 0.007710 0.000000
# 4 0.000000 0.000000 0.000000 0.076330 0.000000 -0.004949
# 5 0.001476 0.002409 0.007710 0.000000 0.034074 0.000000
# 6 0.000000 0.000000 0.000000 -0.004949 0.000000 0.020306
#
#
# Mechanical properties :
#
#
# Convention : Reuss Voigt Hill
#
# Bulk Modulus (GPa) = 37.32793 61.68304 49.50549
# Shear Modulus (GPa) = 24.32780 34.08195 29.20487
#
# Velocity S-wave (km/s) = 3.29986 3.90577 3.61553
# Velocity P-wave (km/s) = 5.58808 6.92454 6.29190
#
# Compressibility (1/GPa) = 0.02678959
#
# Stress axis : x y z
#
# Youngs Moduli (GPa) = 133.52592 88.77761 36.25189
#
# Poissons Ratio (x) = 0.22184 0.10741
# Poissons Ratio (y) = 0.33366 0.15633
# Poissons Ratio (z) = 0.39563 0.38285
#
# Static dielectric constant tensor:
#      x y z
#    x 1.925160 0.000000 0.054900 
#    y 0.000000 1.921610 0.000000 
#    z 0.054900 0.000000 1.847030 
# 
# From -- ./inp_files/27729.got.cif
#   From: 2010.05.17/outbox.cif.g08.bks.cpg/sg14_14_cif.got.tgz:27729.got - 2010.06.03 17:49:19.
