data_PCOD9246960
_publ_section_title
;
Structure prediction by ZEFSAII (Michael W. Deem and Ramdas Pophale) SiO2 
 PCOD9246960
Probable space group: P 21/C
;
_chemical_formula_sum "Si O2"
_cell_formula_units_Z 32
_cell_length_a 30.943124
_cell_length_b 8.227578
_cell_length_c 11.912346
_cell_angle_alpha 90.000000
_cell_angle_beta 25.766150
_cell_angle_gamma 90.000000
_cell_volume 1318.324207
_symmetry_space_group_name_H-M "P 21/C"
_symmetry_group_IT_number 14
_symmetry_cell_setting 'monoclinic'
loop_
_space_group_symop_operation_xyz
x,y,z
-x,1/2+y,1/2-z
-x,-y,-z
x,1/2-y,1/2+z
loop_
_atom_site_type_symbol
_atom_site_label
_atom_site_fract_x
_atom_site_fract_y
_atom_site_fract_z
Si Si1 0.882044 0.586202 0.921362
Si Si2 0.325176 0.984112 0.563220
Si Si3 0.337412 0.476200 0.632617
Si Si4 0.618538 0.673272 0.855806
Si Si5 0.267399 0.696711 0.401811
Si Si6 0.191816 0.205264 0.714056
Si Si7 0.415935 0.833069 0.738711
Si Si8 0.909273 0.380749 0.657770
O O1 0.900428 0.410682 0.814209
O O2 0.980810 0.666962 0.637885
O O3 0.767490 0.608658 0.152385
O O4 0.874468 0.661239 0.064446
O O5 0.390926 0.072865 0.504929
O O6 0.265803 0.108234 0.624863
O O7 0.250651 0.891223 0.823276
O O8 0.378999 0.846677 0.363506
O O9 0.404957 0.353331 0.540238
O O10 0.312473 0.628033 0.768539
O O11 0.383199 0.549940 0.415086
O O12 0.731526 0.696233 0.545418
O O13 0.534237 0.658075 0.958057
O O14 0.351750 0.615921 0.280695
O O15 0.166220 0.739206 0.700916
O O16 0.128292 0.055078 0.807439
#
# Coordination Sequence:
#
# PCOD9246960 Si02
#       8
#     4   4   4   4   4   4   4   4
#     4  10  22  42  70  91 127 172 213 265 324 389
#     4  11  24  41  65  94 131 169 224 264 318 390
#     4  10  21  43  62  90 133 171 212 266 330 377
#     4  12  24  41  66  94 133 172 221 267 325 388
#     4  10  22  42  61  96 128 166 217 271 317 389
#     4  12  22  43  65  98 129 172 214 274 323 387
#     4  11  24  40  67  93 132 176 216 267 329 383
#     4  10  21  46  68  94 130 172 209 270 339 380
#
# _framework density 24.273240999999999
#
# number of rings (size 3 to 8) (size 9 to 14) (size 15 to 20)
#    0.000    1.250    5.000    0.750    1.750    5.500 
#    4.500    0.625    0.000    0.000    0.000    0.000 
#    0.000    0.000    0.000    0.000    0.000    0.000 
#
# Total GULP energy -178334.171563 kJ/mol
# GULP energy per Si atom -5572.942861 kJ/mol
# Density = 2.421799 g / cm^3
# Si number density = 24.273241 Si / 1000 Ang^3
#
#
#
# Elastic Constant Matrix: (Units=GPa)
#
#
# Indices 1 2 3 4 5 6 
#
# 1 50.9824 3.9738 8.3804 0.0000 0.2317 0.0000
# 2 3.9738 39.9605 21.9832 0.0000 8.6346 0.0000
# 3 8.3804 21.9832 95.1956 0.0000 -3.0846 0.0000
# 4 0.0000 0.0000 0.0000 25.7342 0.0000 -0.2424
# 5 0.2317 8.6346 -3.0846 0.0000 35.6639 0.0000
# 6 0.0000 0.0000 0.0000 -0.2424 0.0000 28.3519
#
#
#
# Elastic Compliance Matrix: (Units=1/GPa)
#
#
# Indices 1 2 3 4 5 6 
#
# 1 0.019950 -0.001173 -0.001485 0.000000 0.000026 0.000000
# 2 -0.001173 0.030907 -0.007297 0.000000 -0.008106 0.000000
# 3 -0.001485 -0.007297 0.012413 0.000000 0.002850 0.000000
# 4 0.000000 0.000000 0.000000 0.038862 0.000000 0.000332
# 5 0.000026 -0.008106 0.002850 0.000000 0.030249 0.000000
# 6 0.000000 0.000000 0.000000 0.000332 0.000000 0.035274
#
#
# Mechanical properties :
#
#
# Convention : Reuss Voigt Hill
#
# Bulk Modulus (GPa) = 23.06188 28.31259 25.68723
# Shear Modulus (GPa) = 24.75051 28.07006 26.41029
#
# Velocity S-wave (km/s) = 3.19668 3.40431 3.30213
# Velocity P-wave (km/s) = 4.81109 5.20978 5.01440
#
# Compressibility (1/GPa) = 0.04336160
#
# Stress axis : x y z
#
# Youngs Moduli (GPa) = 50.12551 32.35506 80.56250
#
# Poissons Ratio (x) = 0.03795 0.11960
# Poissons Ratio (y) = 0.05879 0.58784
# Poissons Ratio (z) = 0.07442 0.23608
#
# Static dielectric constant tensor:
#      x y z
#    x 1.975740 0.000000 -0.024940 
#    y 0.000000 2.055060 0.000000 
#    z -0.024940 0.000000 1.965830 
# 
# From -- ./inp_files/36430.got.cif
#   From: 2010.05.17/outbox.cif.g08.bks.cpg/sg14_19_cif.got.tgz:36430.got - 2010.06.03 17:49:19.
