data_PCOD9246484
_publ_section_title
;
Structure prediction by ZEFSAII (Michael W. Deem and Ramdas Pophale) SiO2 
 PCOD9246484
Probable space group: P 21/C
;
_chemical_formula_sum "Si O2"
_cell_formula_units_Z 28
_cell_length_a 11.812993
_cell_length_b 11.390451
_cell_length_c 16.037141
_cell_angle_alpha 90.000000
_cell_angle_beta 140.109851
_cell_angle_gamma 90.000000
_cell_volume 1383.888356
_symmetry_space_group_name_H-M "P 21/C"
_symmetry_group_IT_number 14
_symmetry_cell_setting 'monoclinic'
loop_
_space_group_symop_operation_xyz
x,y,z
-x,1/2+y,1/2-z
-x,-y,-z
x,1/2-y,1/2+z
loop_
_atom_site_type_symbol
_atom_site_label
_atom_site_fract_x
_atom_site_fract_y
_atom_site_fract_z
Si Si1 0.741848 0.700073 0.099616
Si Si2 0.356918 0.537758 0.990172
Si Si3 0.175272 0.373801 0.663045
Si Si4 0.197079 0.644381 0.625353
Si Si5 0.495824 0.757569 0.687004
Si Si6 0.556230 0.130564 0.011279
Si Si7 0.880604 0.225055 0.736501
O O1 0.715783 0.588454 0.024998
O O2 0.778825 0.652314 0.214673
O O3 0.567189 0.779423 0.006147
O O4 0.916641 0.767710 0.173023
O O5 0.210288 0.615492 0.861267
O O6 0.500000 0.500000 0.000000
O O7 0.426156 0.621828 0.102846
O O8 0.219996 0.507205 0.661954
O O9 0.301381 0.288639 0.679930
O O10 0.968646 0.351738 0.531331
O O11 0.368130 0.709004 0.685569
O O12 0.139841 0.707226 0.677364
O O13 0.485871 0.661135 0.608160
O O14 0.760205 0.163444 0.142270
O O15 0.500000 0.000000 0.000000
#
# Coordination Sequence:
#
# PCOD9246484 Si02
#       7
#     4   4   4   4   4   4   4
#     4  11  22  39  68  89 117 166 213 259 297 368
#     4  11  18  42  66  87 114 164 219 245 298 374
#     4  10  21  41  64  86 124 168 204 245 308 379
#     4  11  23  39  60  93 128 161 203 246 320 381
#     4  10  22  40  65  90 122 163 204 262 307 372
#     4  10  23  40  62  93 123 154 213 265 307 350
#     4  11  23  37  62  94 120 159 206 259 306 365
#
# _framework density 20.232847
#
# number of rings (size 3 to 8) (size 9 to 14) (size 15 to 20)
#    0.000    1.429    5.714    1.714    2.000    4.571 
#    0.000    0.714    0.000    0.000    0.000    0.000 
#    0.000    0.000    0.000    0.000    0.000    0.000 
#
# Total GULP energy -156356.532234 kJ/mol
# GULP energy per Si atom -5584.161865 kJ/mol
# Density = 2.018680 g / cm^3
# Si number density = 20.232847 Si / 1000 Ang^3
#
#
#
# Elastic Constant Matrix: (Units=GPa)
#
#
# Indices 1 2 3 4 5 6 
#
# 1 93.1071 8.0593 2.9152 0.0000 17.9432 0.0000
# 2 8.0593 67.0732 -0.1571 0.0000 -5.3686 0.0000
# 3 2.9152 -0.1571 29.8548 0.0000 3.8719 0.0000
# 4 0.0000 0.0000 0.0000 16.5694 0.0000 12.8991
# 5 17.9432 -5.3686 3.8719 0.0000 23.7259 0.0000
# 6 0.0000 0.0000 0.0000 12.8991 0.0000 28.8379
#
#
#
# Elastic Compliance Matrix: (Units=1/GPa)
#
#
# Indices 1 2 3 4 5 6 
#
# 1 0.012936 -0.002381 0.000064 0.000000 -0.010332 0.000000
# 2 -0.002381 0.015626 -0.000386 0.000000 0.005400 0.000000
# 3 0.000064 -0.000386 0.034229 0.000000 -0.005722 0.000000
# 4 0.000000 0.000000 0.000000 0.092595 0.000000 -0.041418
# 5 -0.010332 0.005400 -0.005722 0.000000 0.052118 0.000000
# 6 0.000000 0.000000 0.000000 -0.041418 0.000000 0.053202
#
#
# Mechanical properties :
#
#
# Convention : Reuss Voigt Hill
#
# Bulk Modulus (GPa) = 17.42567 23.51889 20.47228
# Shear Modulus (GPa) = 17.52909 25.77447 21.65178
#
# Velocity S-wave (km/s) = 2.94661 3.57304 3.27483
# Velocity P-wave (km/s) = 4.49532 5.35457 4.94365
#
# Compressibility (1/GPa) = 0.05738659
#
# Stress axis : x y z
#
# Youngs Moduli (GPa) = 77.30609 63.99394 29.21481
#
# Poissons Ratio (x) = 0.15238 -0.00188
# Poissons Ratio (y) = 0.18408 0.01126
# Poissons Ratio (z) = -0.00497 0.02467
#
# Static dielectric constant tensor:
#      x y z
#    x 1.724650 0.000000 0.007910 
#    y 0.000000 1.752380 0.000000 
#    z 0.007910 0.000000 1.771080 
# 
# From -- ./inp_files/57604.got.cif
#   From: 2010.05.17/outbox.cif.g08.bks.cpg/sg14_29_cif.got.tgz:57604.got - 2010.06.03 17:49:19.
