data_PCOD9246866
_publ_section_title
;
Structure prediction by ZEFSAII (Michael W. Deem and Ramdas Pophale) SiO2 
 PCOD9246866
Probable space group: P 21/C
;
_chemical_formula_sum "Si O2"
_cell_formula_units_Z 24
_cell_length_a 14.640058
_cell_length_b 11.693847
_cell_length_c 6.943377
_cell_angle_alpha 90.000000
_cell_angle_beta 47.122291
_cell_angle_gamma 90.000000
_cell_volume 871.085857
_symmetry_space_group_name_H-M "P 21/C"
_symmetry_group_IT_number 14
_symmetry_cell_setting 'monoclinic'
loop_
_space_group_symop_operation_xyz
x,y,z
-x,1/2+y,1/2-z
-x,-y,-z
x,1/2-y,1/2+z
loop_
_atom_site_type_symbol
_atom_site_label
_atom_site_fract_x
_atom_site_fract_y
_atom_site_fract_z
Si Si1 0.133740 0.814353 0.373353
Si Si2 0.343869 0.542561 0.650430
Si Si3 0.447965 0.118505 0.437944
Si Si4 0.945275 0.662092 0.427576
Si Si5 0.234503 0.169590 0.509515
Si Si6 0.664199 0.119407 0.397131
O O1 0.243121 0.897396 0.156306
O O2 0.214528 0.698905 0.312505
O O3 0.027876 0.768796 0.385885
O O4 0.051913 0.889848 0.641911
O O5 0.529559 0.438348 0.647611
O O6 0.291661 0.418356 0.775878
O O7 0.342000 0.609161 0.860053
O O8 0.350551 0.202126 0.478762
O O9 0.541308 0.168236 0.463684
O O10 0.359303 0.013115 0.634041
O O11 0.874532 0.606273 0.707414
O O12 0.835319 0.719189 0.463770
#
# Coordination Sequence:
#
# PCOD9246866 Si02
#       6
#     4   4   4   4   4   4
#     4  11  21  42  66  99 130 182 230 274 338 409
#     4  11  23  44  72 101 138 174 230 285 341 416
#     4  10  23  44  68 106 136 170 229 282 354 413
#     4  10  23  43  62  93 137 178 238 268 337 407
#     4  10  23  45  62  95 138 177 220 294 332 404
#     4  10  21  42  68 100 138 173 222 287 337 413
#
# _framework density 27.551821
#
# number of rings (size 3 to 8) (size 9 to 14) (size 15 to 20)
#    0.000    1.667    1.667    3.000    0.000    2.667 
#   30.000    0.000    0.000    0.000    0.000    0.000 
#    0.000    0.000    0.000    0.000    0.000    0.000 
#
# Total GULP energy -133910.720104 kJ/mol
# GULP energy per Si atom -5579.613338 kJ/mol
# Density = 2.748911 g / cm^3
# Si number density = 27.551821 Si / 1000 Ang^3
#
#
#
# Elastic Constant Matrix: (Units=GPa)
#
#
# Indices 1 2 3 4 5 6 
#
# 1 144.3666 35.2493 21.6810 0.0000 -18.8355 0.0000
# 2 35.2493 78.7692 53.2134 0.0000 -13.4564 0.0000
# 3 21.6810 53.2134 192.4289 0.0000 -21.2724 0.0000
# 4 0.0000 0.0000 0.0000 18.9595 0.0000 7.5864
# 5 -18.8355 -13.4564 -21.2724 0.0000 34.5596 0.0000
# 6 0.0000 0.0000 0.0000 7.5864 0.0000 17.9421
#
#
#
# Elastic Compliance Matrix: (Units=1/GPa)
#
#
# Indices 1 2 3 4 5 6 
#
# 1 0.008118 -0.003310 0.000373 0.000000 0.003365 0.000000
# 2 -0.003310 0.017408 -0.004175 0.000000 0.002404 0.000000
# 3 0.000373 -0.004175 0.006601 0.000000 0.002641 0.000000
# 4 0.000000 0.000000 0.000000 0.063485 0.000000 -0.026843
# 5 0.003365 0.002404 0.002641 0.000000 0.033331 0.000000
# 6 0.000000 0.000000 0.000000 -0.026843 0.000000 0.067085
#
#
# Mechanical properties :
#
#
# Convention : Reuss Voigt Hill
#
# Bulk Modulus (GPa) = 55.85821 70.65024 63.25422
# Shear Modulus (GPa) = 23.12462 34.65365 28.88913
#
# Velocity S-wave (km/s) = 2.90023 3.55034 3.24163
# Velocity P-wave (km/s) = 5.61543 6.51958 6.08432
#
# Compressibility (1/GPa) = 0.01790247
#
# Stress axis : x y z
#
# Youngs Moduli (GPa) = 123.18311 57.44589 151.48665
#
# Poissons Ratio (x) = 0.19013 -0.05644
# Poissons Ratio (y) = 0.40769 0.63248
# Poissons Ratio (z) = -0.04589 0.23985
#
# Static dielectric constant tensor:
#      x y z
#    x 2.274360 0.000000 0.133900 
#    y 0.000000 2.158040 0.000000 
#    z 0.133900 0.000000 2.213300 
# 
# From -- ./inp_files/16121.got.cif
#   From: 2010.05.17/outbox.cif.g08.bks.cpg/sg14_9_cif.got.tgz:16121.got - 2010.06.03 17:49:19.
