data_PCOD9246422
_publ_section_title
;
Structure prediction by ZEFSAII (Michael W. Deem and Ramdas Pophale) SiO2 
 PCOD9246422
Probable space group: P 21/C
;
_chemical_formula_sum "Si O2"
_cell_formula_units_Z 28
_cell_length_a 7.945630
_cell_length_b 17.873680
_cell_length_c 13.627904
_cell_angle_alpha 90.000000
_cell_angle_beta 45.109601
_cell_angle_gamma 90.000000
_cell_volume 1371.151862
_symmetry_space_group_name_H-M "P 21/C"
_symmetry_group_IT_number 14
_symmetry_cell_setting 'monoclinic'
loop_
_space_group_symop_operation_xyz
x,y,z
-x,1/2+y,1/2-z
-x,-y,-z
x,1/2-y,1/2+z
loop_
_atom_site_type_symbol
_atom_site_label
_atom_site_fract_x
_atom_site_fract_y
_atom_site_fract_z
Si Si1 0.263814 0.975456 0.419680
Si Si2 0.504440 0.348430 0.087946
Si Si3 0.819512 0.364148 0.766834
Si Si4 0.310267 0.313131 0.639969
Si Si5 0.858126 0.529799 0.820423
Si Si6 0.563941 0.091901 0.182950
Si Si7 0.339753 0.925940 0.064711
O O1 0.278423 0.009709 0.523606
O O2 0.457812 0.016727 0.273203
O O3 0.311506 0.886902 0.411868
O O4 0.000000 0.000000 0.500000
O O5 0.398006 0.266468 0.142214
O O6 0.292539 0.408340 0.173223
O O7 0.632843 0.347491 0.929531
O O8 0.891607 0.451592 0.750337
O O9 0.693076 0.360205 0.713592
O O10 0.054153 0.316387 0.695049
O O11 0.338604 0.367685 0.722927
O O12 0.499172 0.352417 0.488064
O O13 0.120272 0.563632 0.726604
O O14 0.737240 0.079872 0.018550
O O15 0.500000 0.000000 0.000000
#
# Coordination Sequence:
#
# PCOD9246422 Si02
#       7
#     4   4   4   4   4   4   4
#     4  11  20  40  69  96 125 172 229 278 315 400
#     4  11  23  41  65  97 132 170 222 283 346 378
#     4  11  20  44  68  88 127 178 216 276 324 392
#     4  10  25  41  62  94 144 168 211 285 339 393
#     4  11  20  40  67  91 124 169 223 263 329 390
#     4  10  21  41  64  94 129 169 227 266 314 412
#     4  10  21  41  61  91 135 175 211 261 339 399
#
# _framework density 20.420788000000002
#
# number of rings (size 3 to 8) (size 9 to 14) (size 15 to 20)
#    0.857    0.571    4.286    3.429    2.000    0.571 
#    2.571    2.857    0.000    0.000    0.000    0.000 
#    0.000    0.000    0.000    0.000    0.000    0.000 
#
# Total GULP energy -156001.034610 kJ/mol
# GULP energy per Si atom -5571.465522 kJ/mol
# Density = 2.037431 g / cm^3
# Si number density = 20.420788 Si / 1000 Ang^3
#
#
#
# Elastic Constant Matrix: (Units=GPa)
#
#
# Indices 1 2 3 4 5 6 
#
# 1 86.7804 7.9787 -0.1296 0.0000 -2.4920 0.0000
# 2 7.9787 87.6403 8.0928 0.0000 -7.5677 0.0000
# 3 -0.1296 8.0928 59.2563 0.0000 -5.3596 0.0000
# 4 0.0000 0.0000 0.0000 18.7769 0.0000 -2.3774
# 5 -2.4920 -7.5677 -5.3596 0.0000 29.8459 0.0000
# 6 0.0000 0.0000 0.0000 -2.3774 0.0000 27.9080
#
#
#
# Elastic Compliance Matrix: (Units=1/GPa)
#
#
# Indices 1 2 3 4 5 6 
#
# 1 0.011639 -0.001016 0.000233 0.000000 0.000756 0.000000
# 2 -0.001016 0.011861 -0.001380 0.000000 0.002675 0.000000
# 3 0.000233 -0.001380 0.017316 0.000000 0.002779 0.000000
# 4 0.000000 0.000000 0.000000 0.053838 0.000000 0.004586
# 5 0.000756 0.002675 0.002779 0.000000 0.034746 0.000000
# 6 0.000000 0.000000 0.000000 0.004586 0.000000 0.036223
#
#
# Mechanical properties :
#
#
# Convention : Reuss Voigt Hill
#
# Bulk Modulus (GPa) = 27.40525 29.50674 28.45600
# Shear Modulus (GPa) = 27.45559 29.82184 28.63872
#
# Velocity S-wave (km/s) = 3.67071 3.82562 3.74897
# Velocity P-wave (km/s) = 5.60490 5.83049 5.71880
#
# Compressibility (1/GPa) = 0.03648936
#
# Stress axis : x y z
#
# Youngs Moduli (GPa) = 85.91958 84.30866 57.74933
#
# Poissons Ratio (x) = 0.08564 -0.01343
# Poissons Ratio (y) = 0.08728 0.07971
# Poissons Ratio (z) = -0.01998 0.11636
#
# Static dielectric constant tensor:
#      x y z
#    x 1.809000 0.000000 0.004190 
#    y 0.000000 1.741070 0.000000 
#    z 0.004190 0.000000 1.733030 
# 
# From -- ./inp_files/41775.got.cif
#   From: 2010.05.17/outbox.cif.g08.bks.cpg/sg14_21_cif.got.tgz:41775.got - 2010.06.03 17:49:19.
