data_PCOD9246861
_publ_section_title
;
Structure prediction by ZEFSAII (Michael W. Deem and Ramdas Pophale) SiO2 
 PCOD9246861
Probable space group: P 21/C
;
_chemical_formula_sum "Si O2"
_cell_formula_units_Z 28
_cell_length_a 13.665291
_cell_length_b 10.907180
_cell_length_c 9.241335
_cell_angle_alpha 90.000000
_cell_angle_beta 120.344793
_cell_angle_gamma 90.000000
_cell_volume 1188.713799
_symmetry_space_group_name_H-M "P 21/C"
_symmetry_group_IT_number 14
_symmetry_cell_setting 'monoclinic'
loop_
_space_group_symop_operation_xyz
x,y,z
-x,1/2+y,1/2-z
-x,-y,-z
x,1/2-y,1/2+z
loop_
_atom_site_type_symbol
_atom_site_label
_atom_site_fract_x
_atom_site_fract_y
_atom_site_fract_z
Si Si1 0.305915 0.781561 0.657640
Si Si2 0.795228 0.841753 0.106348
Si Si3 0.610648 0.842058 0.389746
Si Si4 0.180929 0.490466 0.087433
Si Si5 0.464098 0.737969 0.018568
Si Si6 0.941636 0.599634 0.249628
Si Si7 0.836191 0.451797 0.417429
O O1 0.362271 0.806396 0.545273
O O2 0.269379 0.639884 0.650152
O O3 0.197062 0.865118 0.600660
O O4 0.400307 0.816300 0.847594
O O5 0.803005 0.935076 0.243210
O O6 0.878910 0.729857 0.204995
O O7 0.673677 0.781601 0.989234
O O8 0.820088 0.916283 0.980139
O O9 0.711475 0.934578 0.424106
O O10 0.541320 0.811501 0.191723
O O11 0.531470 0.862094 0.471474
O O12 0.068851 0.443424 0.923483
O O13 0.878306 0.489954 0.290342
O O14 0.062830 0.608648 0.414246
#
# Coordination Sequence:
#
# PCOD9246861 Si02
#       7
#     4   4   4   4   4   4   4
#     4  11  24  43  62 102 136 173 218 270 338 386
#     4  11  23  44  70  99 127 174 222 273 322 392
#     4  10  21  42  67  96 132 172 228 269 316 397
#     4  11  23  41  69  99 132 172 222 276 321 397
#     4  10  22  43  63  94 137 177 217 269 337 382
#     4  10  24  44  69  99 128 180 219 267 338 390
#     4  11  25  45  68  96 142 167 216 282 324 396
#
# _framework density 23.554869
#
# number of rings (size 3 to 8) (size 9 to 14) (size 15 to 20)
#    0.000    1.429    1.429    3.429    4.000    1.714 
#   15.429    0.000    0.000    0.000    0.000    0.000 
#    0.000    0.000    0.000    0.000    0.000    0.000 
#
# Total GULP energy -156431.427534 kJ/mol
# GULP energy per Si atom -5586.836698 kJ/mol
# Density = 2.350126 g / cm^3
# Si number density = 23.554869 Si / 1000 Ang^3
#
#
#
# Elastic Constant Matrix: (Units=GPa)
#
#
# Indices 1 2 3 4 5 6 
#
# 1 49.4385 5.4629 21.8140 0.0000 -2.3808 0.0000
# 2 5.4629 49.5811 0.4508 0.0000 3.4824 0.0000
# 3 21.8140 0.4508 106.4082 0.0000 -6.7556 0.0000
# 4 0.0000 0.0000 0.0000 19.2638 0.0000 4.1028
# 5 -2.3808 3.4824 -6.7556 0.0000 39.2435 0.0000
# 6 0.0000 0.0000 0.0000 4.1028 0.0000 15.2447
#
#
#
# Elastic Compliance Matrix: (Units=1/GPa)
#
#
# Indices 1 2 3 4 5 6 
#
# 1 0.022555 -0.002500 -0.004562 0.000000 0.000805 0.000000
# 2 -0.002500 0.020577 0.000303 0.000000 -0.001925 0.000000
# 3 -0.004562 0.000303 0.010426 0.000000 0.001491 0.000000
# 4 0.000000 0.000000 0.000000 0.055067 0.000000 -0.014820
# 5 0.000805 -0.001925 0.001491 0.000000 0.025958 0.000000
# 6 0.000000 0.000000 0.000000 -0.014820 0.000000 0.069585
#
#
# Mechanical properties :
#
#
# Convention : Reuss Voigt Hill
#
# Bulk Modulus (GPa) = 24.97500 28.98701 26.98101
# Shear Modulus (GPa) = 21.64177 26.59706 24.11941
#
# Velocity S-wave (km/s) = 3.03443 3.36393 3.20342
# Velocity P-wave (km/s) = 4.78570 5.23650 5.01617
#
# Compressibility (1/GPa) = 0.04004004
#
# Stress axis : x y z
#
# Youngs Moduli (GPa) = 44.33572 48.59808 95.91023
#
# Poissons Ratio (x) = 0.12150 0.43756
# Poissons Ratio (y) = 0.11085 -0.02907
# Poissons Ratio (z) = 0.20227 -0.01473
#
# Static dielectric constant tensor:
#      x y z
#    x 1.995670 0.000000 -0.007810 
#    y 0.000000 1.860190 0.000000 
#    z -0.007810 0.000000 1.840260 
# 
# From -- ./inp_files/15884.got.cif
#   From: 2010.05.17/outbox.cif.g08.bks.cpg/sg14_8_cif.got.tgz:15884.got - 2010.06.03 17:49:19.
