data_PCOD9246399
_publ_section_title
;
Structure prediction by ZEFSAII (Michael W. Deem and Ramdas Pophale) SiO2 
 PCOD9246399
Probable space group: P 21/C
;
_chemical_formula_sum "Si O2"
_cell_formula_units_Z 30
_cell_length_a 16.334821
_cell_length_b 10.802246
_cell_length_c 13.366234
_cell_angle_alpha 90.000000
_cell_angle_beta 29.926968
_cell_angle_gamma 90.000000
_cell_volume 1176.649941
_symmetry_space_group_name_H-M "P 21/C"
_symmetry_group_IT_number 14
_symmetry_cell_setting 'monoclinic'
loop_
_space_group_symop_operation_xyz
x,y,z
-x,1/2+y,1/2-z
-x,-y,-z
x,1/2-y,1/2+z
loop_
_atom_site_type_symbol
_atom_site_label
_atom_site_fract_x
_atom_site_fract_y
_atom_site_fract_z
Si Si1 0.219756 0.332360 0.364783
Si Si2 0.485488 0.701820 0.341404
Si Si3 0.806299 0.400755 0.625927
Si Si4 0.218646 0.613389 0.126084
Si Si5 0.100583 0.625125 0.029604
Si Si6 0.500000 0.500000 0.500000
Si Si7 0.803381 0.905255 0.703149
Si Si8 0.561957 0.893309 0.549404
O O1 0.373788 0.293589 0.268054
O O2 0.156480 0.467267 0.465097
O O3 0.128340 0.200102 0.445292
O O4 0.288168 0.356400 0.180584
O O5 0.302040 0.753041 0.544434
O O6 0.495331 0.580116 0.398419
O O7 0.519970 0.687540 0.188756
O O8 0.868786 0.401423 0.674082
O O9 0.868535 0.271643 0.515380
O O10 0.606628 0.399812 0.834956
O O11 0.130508 0.596217 0.113580
O O12 0.369344 0.517898 0.972468
O O13 0.218688 0.538126 0.833696
O O14 0.925107 0.590214 0.167149
O O15 0.385927 0.388224 0.570895
#
# Coordination Sequence:
#
# PCOD9246399 Si02
#       8
#     4   4   4   4   4   2   4   4
#     4  10  21  41  59  94 135 168 224 275 328 393
#     4  11  20  35  62  98 132 170 225 284 332 386
#     4  11  21  39  64  92 134 175 216 276 336 401
#     4  11  20  36  61  92 130 177 220 272 345 403
#     4  11  24  44  66  96 135 178 221 273 350 401
#     4  10  22  40  66  96 124 166 226 276 316 388
#     4  10  24  44  69  93 135 171 221 283 332 399
#     4  11  21  35  62  98 134 172 219 281 332 392
#
# _framework density 25.496113000000001
#
# number of rings (size 3 to 8) (size 9 to 14) (size 15 to 20)
#    0.000    1.333    4.000    3.200    1.867    2.667 
#    0.000   10.667    0.000    0.000    0.000    0.000 
#    0.000    0.000    0.000    0.000    0.000    0.000 
#
# Total GULP energy -167125.967991 kJ/mol
# GULP energy per Si atom -5570.865600 kJ/mol
# Density = 2.543808 g / cm^3
# Si number density = 25.496113 Si / 1000 Ang^3
#
#
#
# Elastic Constant Matrix: (Units=GPa)
#
#
# Indices 1 2 3 4 5 6 
#
# 1 177.0440 44.8027 22.9237 0.0000 -1.0961 0.0000
# 2 44.8027 145.0959 19.9051 0.0000 1.2905 0.0000
# 3 22.9237 19.9051 41.5635 0.0000 7.3029 0.0000
# 4 0.0000 0.0000 0.0000 13.8440 0.0000 -0.4491
# 5 -1.0961 1.2905 7.3029 0.0000 31.1605 0.0000
# 6 0.0000 0.0000 0.0000 -0.4491 0.0000 37.9612
#
#
#
# Elastic Compliance Matrix: (Units=1/GPa)
#
#
# Indices 1 2 3 4 5 6 
#
# 1 0.006441 -0.001591 -0.002964 0.000000 0.000987 0.000000
# 2 -0.001591 0.007779 -0.002901 0.000000 0.000302 0.000000
# 3 -0.002964 -0.002901 0.028244 0.000000 -0.006603 0.000000
# 4 0.000000 0.000000 0.000000 0.072261 0.000000 0.000855
# 5 0.000987 0.000302 -0.006603 0.000000 0.033662 0.000000
# 6 0.000000 0.000000 0.000000 0.000855 0.000000 0.026353
#
#
# Mechanical properties :
#
#
# Convention : Reuss Voigt Hill
#
# Bulk Modulus (GPa) = 36.29512 59.88515 48.09014
# Shear Modulus (GPa) = 25.14667 34.99795 30.07231
#
# Velocity S-wave (km/s) = 3.14394 3.70899 3.43809
# Velocity P-wave (km/s) = 5.23885 6.47156 5.88756
#
# Compressibility (1/GPa) = 0.02755191
#
# Stress axis : x y z
#
# Youngs Moduli (GPa) = 155.26046 128.55938 35.40621
#
# Poissons Ratio (x) = 0.20453 0.10494
# Poissons Ratio (y) = 0.24702 0.10270
# Poissons Ratio (z) = 0.46016 0.37291
#
# Static dielectric constant tensor:
#      x y z
#    x 1.904810 0.000000 0.071990 
#    y 0.000000 2.124460 0.000000 
#    z 0.071990 0.000000 1.782570 
# 
# From -- ./inp_files/46944.got.cif
#   From: 2010.05.17/outbox.cif.g08.bks.cpg/sg14_24_cif.got.tgz:46944.got - 2010.06.03 17:49:19.
