data_PCOD9246420
_publ_section_title
;
Structure prediction by ZEFSAII (Michael W. Deem and Ramdas Pophale) SiO2 
 PCOD9246420
Probable space group: P 21/C
;
_chemical_formula_sum "Si O2"
_cell_formula_units_Z 24
_cell_length_a 11.227895
_cell_length_b 12.315263
_cell_length_c 9.246988
_cell_angle_alpha 90.000000
_cell_angle_beta 108.574428
_cell_angle_gamma 90.000000
_cell_volume 1212.019872
_symmetry_space_group_name_H-M "P 21/C"
_symmetry_group_IT_number 14
_symmetry_cell_setting 'monoclinic'
loop_
_space_group_symop_operation_xyz
x,y,z
-x,1/2+y,1/2-z
-x,-y,-z
x,1/2-y,1/2+z
loop_
_atom_site_type_symbol
_atom_site_label
_atom_site_fract_x
_atom_site_fract_y
_atom_site_fract_z
Si Si1 0.919863 0.502885 0.616555
Si Si2 0.159451 0.188586 0.710370
Si Si3 0.569439 0.827627 0.102704
Si Si4 0.883143 0.890298 0.613129
Si Si5 0.351903 0.982617 0.087260
Si Si6 0.381706 0.073722 0.415796
O O1 0.886678 0.620065 0.669119
O O2 0.784501 0.451224 0.528107
O O3 0.000000 0.500000 0.500000
O O4 0.998301 0.453947 0.780287
O O5 0.307764 0.165934 0.748481
O O6 0.143041 0.308493 0.764022
O O7 0.093002 0.163284 0.533683
O O8 0.443620 0.878003 0.122312
O O9 0.573872 0.700738 0.058348
O O10 0.595939 0.915753 0.986941
O O11 0.747427 0.948411 0.546405
O O12 0.343986 0.035088 0.241015
O O13 0.500000 0.000000 0.500000
#
# Coordination Sequence:
#
# PCOD9246420 Si02
#       6
#     4   4   4   4   4   4
#     4  11  21  40  61  90 125 165 206 254 315 375
#     4  10  22  38  66  88 119 163 210 254 309 382
#     4   9  22  39  65  89 124 161 211 259 322 364
#     4  11  22  39  62  91 122 162 209 252 314 379
#     4  10  21  41  61  91 126 167 204 267 314 375
#     4  11  23  36  65  92 125 162 215 258 313 380
#
# _framework density 19.801656000000001
#
# number of rings (size 3 to 8) (size 9 to 14) (size 15 to 20)
#    0.000    1.667    1.667    2.500   14.000    0.000 
#    3.000    0.000    3.667    0.000    0.000    0.000 
#    0.000    0.000    0.000    0.000    0.000    0.000 
#
# Total GULP energy -133655.746510 kJ/mol
# GULP energy per Si atom -5568.989438 kJ/mol
# Density = 1.975659 g / cm^3
# Si number density = 19.801656 Si / 1000 Ang^3
#
#
#
# Elastic Constant Matrix: (Units=GPa)
#
#
# Indices 1 2 3 4 5 6 
#
# 1 82.4929 39.2470 6.8642 0.0000 9.9609 0.0000
# 2 39.2470 72.5323 12.6413 0.0000 25.3780 0.0000
# 3 6.8642 12.6413 65.2970 0.0000 3.1323 0.0000
# 4 0.0000 0.0000 0.0000 26.6990 0.0000 1.7700
# 5 9.9609 25.3780 3.1323 0.0000 29.1560 0.0000
# 6 0.0000 0.0000 0.0000 1.7700 0.0000 17.3053
#
#
#
# Elastic Compliance Matrix: (Units=1/GPa)
#
#
# Indices 1 2 3 4 5 6 
#
# 1 0.016514 -0.010021 0.000057 0.000000 0.003075 0.000000
# 2 -0.010021 0.026519 -0.003154 0.000000 -0.019320 0.000000
# 3 0.000057 -0.003154 0.015870 0.000000 0.001021 0.000000
# 4 0.000000 0.000000 0.000000 0.037710 0.000000 -0.003857
# 5 0.003075 -0.019320 0.001021 0.000000 0.049955 0.000000
# 6 0.000000 0.000000 0.000000 -0.003857 0.000000 0.058180
#
#
# Mechanical properties :
#
#
# Convention : Reuss Voigt Hill
#
# Bulk Modulus (GPa) = 30.61262 37.53633 34.07448
# Shear Modulus (GPa) = 20.67186 25.40339 23.03762
#
# Velocity S-wave (km/s) = 3.23452 3.58563 3.41459
# Velocity P-wave (km/s) = 5.42611 6.01163 5.72636
#
# Compressibility (1/GPa) = 0.03266627
#
# Stress axis : x y z
#
# Youngs Moduli (GPa) = 60.55433 37.70867 63.01093
#
# Poissons Ratio (x) = 0.37790 -0.00357
# Poissons Ratio (y) = 0.60684 0.19872
# Poissons Ratio (z) = -0.00343 0.11892
#
# Static dielectric constant tensor:
#      x y z
#    x 1.771420 0.000000 -0.002770 
#    y 0.000000 1.716160 0.000000 
#    z -0.002770 0.000000 1.707110 
# 
# From -- ./inp_files/12350.got.cif
#   From: 2010.05.17/outbox.cif.g08.bks.cpg/sg14_7_cif.got.tgz:12350.got - 2010.06.03 17:49:19.
