data_PCOD9246603
_publ_section_title
;
Structure prediction by ZEFSAII (Michael W. Deem and Ramdas Pophale) SiO2 
 PCOD9246603
Probable space group: P 21/C
;
_chemical_formula_sum "Si O2"
_cell_formula_units_Z 30
_cell_length_a 8.371755
_cell_length_b 4.741881
_cell_length_c 29.920014
_cell_angle_alpha 90.000000
_cell_angle_beta 65.558847
_cell_angle_gamma 90.000000
_cell_volume 1081.321563
_symmetry_space_group_name_H-M "P 21/C"
_symmetry_group_IT_number 14
_symmetry_cell_setting 'monoclinic'
loop_
_space_group_symop_operation_xyz
x,y,z
-x,1/2+y,1/2-z
-x,-y,-z
x,1/2-y,1/2+z
loop_
_atom_site_type_symbol
_atom_site_label
_atom_site_fract_x
_atom_site_fract_y
_atom_site_fract_z
Si Si1 0.060543 0.329142 0.215153
Si Si2 0.197007 0.685081 0.425634
Si Si3 0.925486 0.918013 0.152926
Si Si4 0.553116 0.668336 0.715161
Si Si5 0.500000 0.500000 0.000000
Si Si6 0.282598 0.595245 0.579129
Si Si7 0.434339 0.283423 0.646836
Si Si8 0.819219 0.785778 0.495542
O O1 0.265653 0.390754 0.182772
O O2 0.036127 0.113478 0.259498
O O3 0.978118 0.153538 0.183523
O O4 0.133282 0.567995 0.385496
O O5 0.377939 0.837919 0.390278
O O6 0.207717 0.420183 0.459072
O O7 0.023200 0.848135 0.462015
O O8 0.754051 0.742558 0.185018
O O9 0.103749 0.764165 0.117387
O O10 0.551358 0.431236 0.753857
O O11 0.476269 0.515357 0.680359
O O12 0.425324 0.683991 0.048491
O O13 0.308879 0.552413 0.993157
O O14 0.361014 0.426638 0.611018
O O15 0.256965 0.378273 0.540541
#
# Coordination Sequence:
#
# PCOD9246603 Si02
#       8
#     4   4   4   4   2   4   4   4
#     4  11  23  43  69  98 136 181 232 290 360 425
#     4   9  19  41  65  91 132 180 217 286 350 420
#     4   9  21  42  61  93 134 167 231 283 343 426
#     4  11  23  44  68  96 136 179 224 284 359 418
#     4  12  22  38  68  98 126 180 232 286 342 424
#     4  10  22  43  61  96 132 177 226 279 346 412
#     4  10  21  41  67  95 133 173 236 284 347 436
#     4  10  21  41  67  86 137 173 226 280 350 416
#
# _framework density 27.743827
#
# number of rings (size 3 to 8) (size 9 to 14) (size 15 to 20)
#    0.000    1.867    1.333    2.000    0.000    0.000 
#   24.000    6.000    2.933    0.000    0.000    0.000 
#    0.000    0.000    0.000    0.000    0.000    0.000 
#
# Total GULP energy -167746.514361 kJ/mol
# GULP energy per Si atom -5591.550479 kJ/mol
# Density = 2.768068 g / cm^3
# Si number density = 27.743827 Si / 1000 Ang^3
#
#
#
# Elastic Constant Matrix: (Units=GPa)
#
#
# Indices 1 2 3 4 5 6 
#
# 1 140.3824 1.5579 65.8968 0.0000 0.8550 0.0000
# 2 1.5579 74.7390 40.2391 0.0000 6.1202 0.0000
# 3 65.8968 40.2391 148.5274 0.0000 -4.1772 0.0000
# 4 0.0000 0.0000 0.0000 17.2123 0.0000 13.8583
# 5 0.8550 6.1202 -4.1772 0.0000 74.4210 0.0000
# 6 0.0000 0.0000 0.0000 13.8583 0.0000 25.8076
#
#
#
# Elastic Compliance Matrix: (Units=1/GPa)
#
#
# Indices 1 2 3 4 5 6 
#
# 1 0.009372 0.002458 -0.004840 0.000000 -0.000582 0.000000
# 2 0.002458 0.016485 -0.005605 0.000000 -0.001699 0.000000
# 3 -0.004840 -0.005605 0.010430 0.000000 0.001102 0.000000
# 4 0.000000 0.000000 0.000000 0.102347 0.000000 -0.054959
# 5 -0.000582 -0.001699 0.001102 0.000000 0.013645 0.000000
# 6 0.000000 0.000000 0.000000 -0.054959 0.000000 0.068260
#
#
# Mechanical properties :
#
#
# Convention : Reuss Voigt Hill
#
# Bulk Modulus (GPa) = 49.22872 64.33736 56.78304
# Shear Modulus (GPa) = 20.55212 40.55184 30.55198
#
# Velocity S-wave (km/s) = 2.72468 3.82730 3.32206
# Velocity P-wave (km/s) = 5.26128 6.53997 5.93516
#
# Compressibility (1/GPa) = 0.02031334
#
# Stress axis : x y z
#
# Youngs Moduli (GPa) = 106.70382 60.66034 95.88061
#
# Poissons Ratio (x) = -0.14912 0.46409
# Poissons Ratio (y) = -0.26231 0.53737
# Poissons Ratio (z) = 0.51648 0.33998
#
# Static dielectric constant tensor:
#      x y z
#    x 2.666400 0.000000 -0.425970 
#    y 0.000000 2.695630 0.000000 
#    z -0.425970 0.000000 2.680480 
# 
# From -- ./inp_files/79209.got.cif
#   From: 2010.05.17/outbox.cif.g08.bks.cpg/sg14_40_cif.got.tgz:79209.got - 2010.06.03 17:49:19.
