data_PCOD9246253
_publ_section_title
;
Structure prediction by ZEFSAII (Michael W. Deem and Ramdas Pophale) SiO2 
 PCOD9246253
Probable space group: P 21/C
;
_chemical_formula_sum "Si O2"
_cell_formula_units_Z 24
_cell_length_a 7.247810
_cell_length_b 11.273309
_cell_length_c 12.504093
_cell_angle_alpha 90.000000
_cell_angle_beta 86.653903
_cell_angle_gamma 90.000000
_cell_volume 1019.927685
_symmetry_space_group_name_H-M "P 21/C"
_symmetry_group_IT_number 14
_symmetry_cell_setting 'monoclinic'
loop_
_space_group_symop_operation_xyz
x,y,z
-x,1/2+y,1/2-z
-x,-y,-z
x,1/2-y,1/2+z
loop_
_atom_site_type_symbol
_atom_site_label
_atom_site_fract_x
_atom_site_fract_y
_atom_site_fract_z
Si Si1 0.510560 0.196103 0.961464
Si Si2 0.404541 0.555361 0.106432
Si Si3 0.026060 0.069412 0.609916
Si Si4 0.904923 0.808433 0.989603
Si Si5 0.982945 0.478643 0.344199
Si Si6 0.422589 0.960920 0.841429
O O1 0.295171 0.237013 0.965561
O O2 0.549111 0.148120 0.078877
O O3 0.632043 0.307767 0.922715
O O4 0.514803 0.079848 0.886513
O O5 0.235013 0.466416 0.130156
O O6 0.496399 0.561111 0.219943
O O7 0.500000 0.500000 0.000000
O O8 0.001282 0.206077 0.581968
O O9 0.924905 0.035331 0.723339
O O10 0.000000 0.000000 0.500000
O O11 0.018608 0.857753 0.086791
O O12 0.874623 0.921338 0.913327
O O13 0.199843 0.517928 0.345927
#
# Coordination Sequence:
#
# PCOD9246253 Si02
#       6
#     4   4   4   4   4   4
#     4  10  21  40  66  89 122 164 203 251 314 371
#     4  11  23  40  61  93 125 156 209 261 303 368
#     4  11  25  40  60  94 123 163 210 252 312 358
#     4  10  21  41  64  86 125 161 205 252 307 375
#     4   9  22  42  62  89 122 166 205 252 302 372
#     4   9  22  40  61  92 123 163 204 249 315 363
#
# _framework density 23.531078000000001
#
# number of rings (size 3 to 8) (size 9 to 14) (size 15 to 20)
#    0.000    2.000    1.667    0.000    7.000    2.667 
#    0.000    0.000    0.000    0.000    0.000    0.000 
#    0.000    0.000    0.000    0.000    0.000    0.000 
#
# Total GULP energy -134080.067145 kJ/mol
# GULP energy per Si atom -5586.669464 kJ/mol
# Density = 2.347752 g / cm^3
# Si number density = 23.531078 Si / 1000 Ang^3
#
#
#
# Elastic Constant Matrix: (Units=GPa)
#
#
# Indices 1 2 3 4 5 6 
#
# 1 38.3521 7.8348 0.2153 0.0000 -4.1970 0.0000
# 2 7.8348 101.6392 44.2567 0.0000 8.0212 0.0000
# 3 0.2153 44.2567 206.3319 0.0000 5.9142 0.0000
# 4 0.0000 0.0000 0.0000 22.6284 0.0000 1.4941
# 5 -4.1970 8.0212 5.9142 0.0000 26.3376 0.0000
# 6 0.0000 0.0000 0.0000 1.4941 0.0000 23.8730
#
#
#
# Elastic Compliance Matrix: (Units=1/GPa)
#
#
# Indices 1 2 3 4 5 6 
#
# 1 0.027170 -0.002667 0.000399 0.000000 0.005052 0.000000
# 2 -0.002667 0.011323 -0.002330 0.000000 -0.003350 0.000000
# 3 0.000399 -0.002330 0.005358 0.000000 -0.000430 0.000000
# 4 0.000000 0.000000 0.000000 0.044376 0.000000 -0.002777
# 5 0.005052 -0.003350 -0.000430 0.000000 0.039890 0.000000
# 6 0.000000 0.000000 0.000000 -0.002777 0.000000 0.042062
#
#
# Mechanical properties :
#
#
# Convention : Reuss Voigt Hill
#
# Bulk Modulus (GPa) = 28.85554 50.10409 39.47981
# Shear Modulus (GPa) = 26.18805 34.16889 30.17847
#
# Velocity S-wave (km/s) = 3.33965 3.81474 3.58508
# Velocity P-wave (km/s) = 5.21157 6.38294 5.82677
#
# Compressibility (1/GPa) = 0.03465539
#
# Stress axis : x y z
#
# Youngs Moduli (GPa) = 36.80580 88.31417 186.62892
#
# Poissons Ratio (x) = 0.23551 -0.07443
# Poissons Ratio (y) = 0.09815 0.43483
# Poissons Ratio (z) = -0.01468 0.20577
#
# Static dielectric constant tensor:
#      x y z
#    x 1.918040 0.000000 0.009000 
#    y 0.000000 1.832740 0.000000 
#    z 0.009000 0.000000 1.917560 
# 
# From -- ./inp_files/24167.got.cif
#   From: 2010.05.17/outbox.cif.g08.bks.cpg/sg14_13_cif.got.tgz:24167.got - 2010.06.03 17:49:19.
