data_PCOD9246084
_publ_section_title
;
Structure prediction by ZEFSAII (Michael W. Deem and Ramdas Pophale) SiO2 
 PCOD9246084
Probable space group: P 21/C
;
_chemical_formula_sum "Si O2"
_cell_formula_units_Z 32
_cell_length_a 20.209058
_cell_length_b 13.906277
_cell_length_c 14.981776
_cell_angle_alpha 90.000000
_cell_angle_beta 20.730258
_cell_angle_gamma 90.000000
_cell_volume 1490.339576
_symmetry_space_group_name_H-M "P 21/C"
_symmetry_group_IT_number 14
_symmetry_cell_setting 'monoclinic'
loop_
_space_group_symop_operation_xyz
x,y,z
-x,1/2+y,1/2-z
-x,-y,-z
x,1/2-y,1/2+z
loop_
_atom_site_type_symbol
_atom_site_label
_atom_site_fract_x
_atom_site_fract_y
_atom_site_fract_z
Si Si1 0.011102 0.570367 0.101489
Si Si2 0.444709 0.454830 0.920483
Si Si3 0.966361 0.799148 0.815359
Si Si4 0.591394 0.463430 0.474278
Si Si5 0.900247 0.522002 0.530380
Si Si6 0.378193 0.189564 0.351910
Si Si7 0.858460 0.397791 0.413568
Si Si8 0.592636 0.882176 0.114833
O O1 0.070628 0.643186 0.104866
O O2 0.940310 0.473911 0.239505
O O3 0.817129 0.617249 0.313026
O O4 0.185103 0.549335 0.818503
O O5 0.338012 0.394047 0.976642
O O6 0.636212 0.400381 0.697594
O O7 0.522993 0.558043 0.788565
O O8 0.314045 0.468292 0.169449
O O9 0.079679 0.705584 0.697166
O O10 0.942970 0.877749 0.923633
O O11 0.780527 0.748872 0.004061
O O12 0.500000 0.500000 0.500000
O O13 0.507588 0.364907 0.617924
O O14 0.526093 0.548192 0.621984
O O15 0.927366 0.436955 0.423339
O O16 0.000000 0.500000 0.500000
O O17 0.471921 0.274523 0.290962
#
# Coordination Sequence:
#
# PCOD9246084 Si02
#       8
#     4   4   4   4   4   4   4   4
#     4   9  20  38  59  86 120 161 202 247 304 365
#     4  10  22  40  63  91 122 162 209 262 312 369
#     4  10  22  40  61  88 126 165 204 256 311 370
#     4  11  22  36  62  94 121 154 203 258 306 362
#     4  11  24  41  64  94 127 166 211 258 312 374
#     4  10  22  40  60  89 125 164 206 256 315 373
#     4  10  21  40  62  89 126 164 207 259 313 369
#     4   9  21  41  60  81 122 162 199 248 306 372
#
# _framework density 21.471616000000001
#
# number of rings (size 3 to 8) (size 9 to 14) (size 15 to 20)
#    0.000    2.000    0.000    3.000    0.000    9.000 
#    0.000    5.000    0.000    0.000    0.000    0.000 
#    0.000    0.000    0.000    0.000    0.000    0.000 
#
# Total GULP energy -178275.276985 kJ/mol
# GULP energy per Si atom -5571.102406 kJ/mol
# Density = 2.142275 g / cm^3
# Si number density = 21.471616 Si / 1000 Ang^3
#
#
#
# Elastic Constant Matrix: (Units=GPa)
#
#
# Indices 1 2 3 4 5 6 
#
# 1 62.4768 24.3538 24.6175 0.0000 4.2725 0.0000
# 2 24.3538 115.8974 49.7655 0.0000 2.8140 0.0000
# 3 24.6175 49.7655 67.1489 0.0000 11.9339 0.0000
# 4 0.0000 0.0000 0.0000 24.8028 0.0000 -1.1730
# 5 4.2725 2.8140 11.9339 0.0000 26.3520 0.0000
# 6 0.0000 0.0000 0.0000 -1.1730 0.0000 23.1672
#
#
#
# Elastic Compliance Matrix: (Units=1/GPa)
#
#
# Indices 1 2 3 4 5 6 
#
# 1 0.018877 -0.001482 -0.005771 0.000000 -0.000289 0.000000
# 2 -0.001482 0.013017 -0.009679 0.000000 0.003233 0.000000
# 3 -0.005771 -0.009679 0.025917 0.000000 -0.009768 0.000000
# 4 0.000000 0.000000 0.000000 0.040415 0.000000 0.002046
# 5 -0.000289 0.003233 -0.009768 0.000000 0.042073 0.000000
# 6 0.000000 0.000000 0.000000 0.002046 0.000000 0.043268
#
#
# Mechanical properties :
#
#
# Convention : Reuss Voigt Hill
#
# Bulk Modulus (GPa) = 41.75648 49.22186 45.48917
# Shear Modulus (GPa) = 22.18148 24.65014 23.41581
#
# Velocity S-wave (km/s) = 3.21761 3.39194 3.30593
# Velocity P-wave (km/s) = 5.77006 6.18985 5.98364
#
# Compressibility (1/GPa) = 0.02394838
#
# Stress axis : x y z
#
# Youngs Moduli (GPa) = 52.97387 76.82181 38.58445
#
# Poissons Ratio (x) = 0.11382 0.22268
# Poissons Ratio (y) = 0.07848 0.37345
# Poissons Ratio (z) = 0.30573 0.74354
#
# Static dielectric constant tensor:
#      x y z
#    x 1.898690 0.000000 -0.064510 
#    y 0.000000 1.803200 0.000000 
#    z -0.064510 0.000000 1.788450 
# 
# From -- ./inp_files/50681.got.cif
#   From: 2010.05.17/outbox.cif.g08.bks.cpg/sg14_26_cif.got.tgz:50681.got - 2010.06.03 17:49:19.
