data_PCOD9246347
_publ_section_title
;
Structure prediction by ZEFSAII (Michael W. Deem and Ramdas Pophale) SiO2 
 PCOD9246347
Probable space group: P 21/C
;
_chemical_formula_sum "Si O2"
_cell_formula_units_Z 32
_cell_length_a 9.911261
_cell_length_b 11.878334
_cell_length_c 12.870181
_cell_angle_alpha 90.000000
_cell_angle_beta 116.613035
_cell_angle_gamma 90.000000
_cell_volume 1354.665429
_symmetry_space_group_name_H-M "P 21/C"
_symmetry_group_IT_number 14
_symmetry_cell_setting 'monoclinic'
loop_
_space_group_symop_operation_xyz
x,y,z
-x,1/2+y,1/2-z
-x,-y,-z
x,1/2-y,1/2+z
loop_
_atom_site_type_symbol
_atom_site_label
_atom_site_fract_x
_atom_site_fract_y
_atom_site_fract_z
Si Si1 0.079488 0.778074 0.758921
Si Si2 0.104945 0.384539 0.442044
Si Si3 0.606679 0.313497 0.885734
Si Si4 0.719633 0.779425 0.804921
Si Si5 0.667727 0.939084 0.380688
Si Si6 0.834989 0.127184 0.004319
Si Si7 0.835829 0.925594 0.652549
Si Si8 0.353634 0.859732 0.361277
O O1 0.091036 0.787104 0.887647
O O2 0.251576 0.745543 0.788305
O O3 0.953814 0.691367 0.672499
O O4 0.011772 0.897471 0.697653
O O5 0.212557 0.325623 0.563963
O O6 0.179047 0.505815 0.446060
O O7 0.946366 0.397112 0.448557
O O8 0.456366 0.306690 0.767464
O O9 0.690122 0.427429 0.878216
O O10 0.691366 0.194277 0.914927
O O11 0.578568 0.334984 0.000265
O O12 0.728255 0.644017 0.813032
O O13 0.789315 0.845489 0.732113
O O14 0.751312 0.904492 0.516005
O O15 0.489918 0.911040 0.341228
O O16 0.777270 0.047225 0.666963
#
# Coordination Sequence:
#
# PCOD9246347 Si02
#       8
#     4   4   4   4   4   4   4   4
#     4  11  22  39  64  98 128 165 214 276 319 384
#     4  11  24  41  67  99 127 182 216 271 332 387
#     4  10  22  40  66  99 124 169 221 279 319 378
#     4  12  23  37  67  96 131 169 215 274 322 389
#     4  11  22  41  65  97 125 173 224 259 331 393
#     4  10  24  43  67  97 134 167 231 268 319 401
#     4  11  20  42  62  93 128 168 214 261 324 389
#     4  10  21  40  69  88 119 175 221 261 321 391
#
# _framework density 23.622067999999999
#
# number of rings (size 3 to 8) (size 9 to 14) (size 15 to 20)
#    0.000    1.250    5.000    1.500    5.250    0.000 
#    0.000    3.125    0.000    4.500    0.000    0.000 
#    0.000    0.000    0.000    0.000    0.000    0.000 
#
# Total GULP energy -178585.731880 kJ/mol
# GULP energy per Si atom -5580.804121 kJ/mol
# Density = 2.356830 g / cm^3
# Si number density = 23.622068 Si / 1000 Ang^3
#
#
#
# Elastic Constant Matrix: (Units=GPa)
#
#
# Indices 1 2 3 4 5 6 
#
# 1 26.0824 -3.6775 -7.7589 0.0000 6.7759 0.0000
# 2 -3.6775 60.2915 8.9901 0.0000 -13.3877 0.0000
# 3 -7.7589 8.9901 93.3215 0.0000 8.0567 0.0000
# 4 0.0000 0.0000 0.0000 38.8633 0.0000 -0.6098
# 5 6.7759 -13.3877 8.0567 0.0000 35.3107 0.0000
# 6 0.0000 0.0000 0.0000 -0.6098 0.0000 30.4673
#
#
#
# Elastic Compliance Matrix: (Units=1/GPa)
#
#
# Indices 1 2 3 4 5 6 
#
# 1 0.041954 -0.000091 0.004279 0.000000 -0.009062 0.000000
# 2 -0.000091 0.018647 -0.002464 0.000000 0.007649 0.000000
# 3 0.004279 -0.002464 0.011691 0.000000 -0.004423 0.000000
# 4 0.000000 0.000000 0.000000 0.025739 0.000000 0.000515
# 5 -0.009062 0.007649 -0.004423 0.000000 0.033968 0.000000
# 6 0.000000 0.000000 0.000000 0.000515 0.000000 0.032832
#
#
# Mechanical properties :
#
#
# Convention : Reuss Voigt Hill
#
# Bulk Modulus (GPa) = 13.20323 19.42253 16.31288
# Shear Modulus (GPa) = 26.79092 33.07104 29.93098
#
# Velocity S-wave (km/s) = 3.37137 3.74572 3.56346
# Velocity P-wave (km/s) = 4.55591 5.19108 4.88383
#
# Compressibility (1/GPa) = 0.07573905
#
# Stress axis : x y z
#
# Youngs Moduli (GPa) = 23.83544 53.62931 85.53835
#
# Poissons Ratio (x) = 0.00489 -0.36604
# Poissons Ratio (y) = 0.00217 0.21079
# Poissons Ratio (z) = -0.10200 0.13216
#
# Static dielectric constant tensor:
#      x y z
#    x 1.990590 0.000000 -0.008970 
#    y 0.000000 2.011840 0.000000 
#    z -0.008970 0.000000 1.901520 
# 
# From -- ./inp_files/44653.got.cif
#   From: 2010.05.17/outbox.cif.g08.bks.cpg/sg14_23_cif.got.tgz:44653.got - 2010.06.03 17:49:19.
