data_PCOD9246897
_publ_section_title
;
Structure prediction by ZEFSAII (Michael W. Deem and Ramdas Pophale) SiO2 
 PCOD9246897
Probable space group: P 21/C
;
_chemical_formula_sum "Si O2"
_cell_formula_units_Z 24
_cell_length_a 12.321331
_cell_length_b 7.393089
_cell_length_c 27.123906
_cell_angle_alpha 90.000000
_cell_angle_beta 23.907513
_cell_angle_gamma 90.000000
_cell_volume 1001.315874
_symmetry_space_group_name_H-M "P 21/C"
_symmetry_group_IT_number 14
_symmetry_cell_setting 'monoclinic'
loop_
_space_group_symop_operation_xyz
x,y,z
-x,1/2+y,1/2-z
-x,-y,-z
x,1/2-y,1/2+z
loop_
_atom_site_type_symbol
_atom_site_label
_atom_site_fract_x
_atom_site_fract_y
_atom_site_fract_z
Si Si1 0.398592 0.983539 0.735447
Si Si2 0.286378 0.170255 0.933155
Si Si3 0.284099 0.329292 0.542575
Si Si4 0.233328 0.688169 0.407905
Si Si5 0.137508 0.649611 0.201197
Si Si6 0.016792 0.341272 0.320205
O O1 0.464738 0.803812 0.676750
O O2 0.339460 0.905944 0.813781
O O3 0.652632 0.114719 0.631220
O O4 0.177768 0.117902 0.803086
O O5 0.322207 0.954212 0.912955
O O6 0.169218 0.212180 0.035682
O O7 0.080985 0.206305 0.973558
O O8 0.582614 0.254722 0.417830
O O9 0.085371 0.268370 0.668499
O O10 0.261208 0.547859 0.557343
O O11 0.175126 0.459310 0.212957
O O12 0.030872 0.656215 0.188949
#
# Coordination Sequence:
#
# PCOD9246897 Si02
#       6
#     4   4   4   4   4   4
#     4  12  22  44  65 101 134 183 235 281 346 423
#     4  11  22  44  65  97 141 179 231 290 346 410
#     4  10  21  42  69  91 135 183 214 290 348 400
#     4  11  24  39  70  95 136 183 226 288 349 411
#     4  10  22  41  66  93 131 176 223 283 344 410
#     4  10  23  41  65  95 134 172 230 278 347 413
#
# _framework density 23.968461000000001
#
# number of rings (size 3 to 8) (size 9 to 14) (size 15 to 20)
#    1.000    0.333    5.000    1.000    0.000    2.000 
#    0.000    0.000    0.000    0.000    0.000    0.000 
#    0.000    0.000    0.000    0.000    0.000    0.000 
#
# Total GULP energy -133654.662780 kJ/mol
# GULP energy per Si atom -5568.944283 kJ/mol
# Density = 2.391391 g / cm^3
# Si number density = 23.968461 Si / 1000 Ang^3
#
#
#
# Elastic Constant Matrix: (Units=GPa)
#
#
# Indices 1 2 3 4 5 6 
#
# 1 69.1894 3.2357 14.4387 0.0000 28.5472 0.0000
# 2 3.2357 56.8576 4.2869 0.0000 -3.3316 0.0000
# 3 14.4387 4.2869 96.1532 0.0000 19.6367 0.0000
# 4 0.0000 0.0000 0.0000 19.3638 0.0000 5.9326
# 5 28.5472 -3.3316 19.6367 0.0000 62.9674 0.0000
# 6 0.0000 0.0000 0.0000 5.9326 0.0000 15.8968
#
#
#
# Elastic Compliance Matrix: (Units=1/GPa)
#
#
# Indices 1 2 3 4 5 6 
#
# 1 0.017998 -0.001411 -0.001023 0.000000 -0.007915 0.000000
# 2 -0.001411 0.017852 -0.000969 0.000000 0.001886 0.000000
# 3 -0.001023 -0.000969 0.011228 0.000000 -0.003089 0.000000
# 4 0.000000 0.000000 0.000000 0.058310 0.000000 -0.021761
# 5 -0.007915 0.001886 -0.003089 0.000000 0.020533 0.000000
# 6 0.000000 0.000000 0.000000 -0.021761 0.000000 0.071027
#
#
# Mechanical properties :
#
#
# Convention : Reuss Voigt Hill
#
# Bulk Modulus (GPa) = 24.83183 29.56920 27.20051
# Shear Modulus (GPa) = 23.02258 32.99485 28.00871
#
# Velocity S-wave (km/s) = 3.10261 3.71427 3.42214
# Velocity P-wave (km/s) = 4.81847 5.54598 5.19498
#
# Compressibility (1/GPa) = 0.04027090
#
# Stress axis : x y z
#
# Youngs Moduli (GPa) = 55.56027 56.01702 89.06506
#
# Poissons Ratio (x) = 0.07904 0.09114
# Poissons Ratio (y) = 0.07839 0.08633
# Poissons Ratio (z) = 0.05685 0.05430
#
# Static dielectric constant tensor:
#      x y z
#    x 1.977460 0.000000 -0.052600 
#    y 0.000000 1.957620 0.000000 
#    z -0.052600 0.000000 1.962700 
# 
# From -- ./inp_files/76990.got.cif
#   From: 2010.05.17/outbox.cif.g08.bks.cpg/sg14_39_cif.got.tgz:76990.got - 2010.06.03 17:49:19.
