data_PCOD9246840
_publ_section_title
;
Structure prediction by ZEFSAII (Michael W. Deem and Ramdas Pophale) SiO2 
 PCOD9246840
Probable space group: P 21/C
;
_chemical_formula_sum "Si O2"
_cell_formula_units_Z 20
_cell_length_a 16.818971
_cell_length_b 9.146919
_cell_length_c 9.767663
_cell_angle_alpha 90.000000
_cell_angle_beta 150.636596
_cell_angle_gamma 90.000000
_cell_volume 736.832230
_symmetry_space_group_name_H-M "P 21/C"
_symmetry_group_IT_number 14
_symmetry_cell_setting 'monoclinic'
loop_
_space_group_symop_operation_xyz
x,y,z
-x,1/2+y,1/2-z
-x,-y,-z
x,1/2-y,1/2+z
loop_
_atom_site_type_symbol
_atom_site_label
_atom_site_fract_x
_atom_site_fract_y
_atom_site_fract_z
Si Si1 0.007614 0.084775 0.729633
Si Si2 0.768197 0.843187 0.359306
Si Si3 0.235282 0.633989 0.445195
Si Si4 0.598771 0.866677 0.387389
Si Si5 0.187708 0.881075 0.181498
O O1 0.836121 0.007351 0.439689
O O2 0.073886 0.247189 0.855488
O O3 0.135538 0.014864 0.814273
O O4 0.055069 0.001140 0.941723
O O5 0.642153 0.841640 0.295036
O O6 0.686219 0.757187 0.111319
O O7 0.138964 0.751515 0.209334
O O8 0.251692 0.678972 0.630480
O O9 0.411119 0.627500 0.643702
O O10 0.671769 0.024202 0.538031
#
# Coordination Sequence:
#
# PCOD9246840 Si02
#       5
#     4   4   4   4   4
#     4   9  25  42  67  90 135 167 216 258 327 373
#     4  11  25  43  66  95 131 174 212 268 317 385
#     4  10  21  42  67  90 128 171 212 265 319 380
#     4  11  24  42  66  95 131 166 218 265 325 375
#     4   9  22  40  67  89 128 168 213 262 324 374
#
# _framework density 27.143221
#
# number of rings (size 3 to 8) (size 9 to 14) (size 15 to 20)
#    1.200    0.800    0.000    1.800    8.400    2.400 
#    3.600    2.000    0.000    0.000    0.000    0.000 
#    0.000    0.000    0.000    0.000    0.000    0.000 
#
# Total GULP energy -112011.730911 kJ/mol
# GULP energy per Si atom -5600.586546 kJ/mol
# Density = 2.708144 g / cm^3
# Si number density = 27.143221 Si / 1000 Ang^3
#
#
#
# Elastic Constant Matrix: (Units=GPa)
#
#
# Indices 1 2 3 4 5 6 
#
# 1 178.8514 23.7976 10.1214 0.0000 11.7979 0.0000
# 2 23.7976 149.6580 16.6269 0.0000 5.7135 0.0000
# 3 10.1214 16.6269 78.6735 0.0000 22.0536 0.0000
# 4 0.0000 0.0000 0.0000 36.9367 0.0000 -0.8002
# 5 11.7979 5.7135 22.0536 0.0000 48.0334 0.0000
# 6 0.0000 0.0000 0.0000 -0.8002 0.0000 36.0283
#
#
#
# Elastic Compliance Matrix: (Units=1/GPa)
#
#
# Indices 1 2 3 4 5 6 
#
# 1 0.005798 -0.000850 -0.000224 0.000000 -0.001220 0.000000
# 2 -0.000850 0.006969 -0.001365 0.000000 0.000007 0.000000
# 3 -0.000224 -0.001365 0.014883 0.000000 -0.006616 0.000000
# 4 0.000000 0.000000 0.000000 0.027086 0.000000 0.000602
# 5 -0.001220 0.000007 -0.006616 0.000000 0.024155 0.000000
# 6 0.000000 0.000000 0.000000 0.000602 0.000000 0.027769
#
#
# Mechanical properties :
#
#
# Convention : Reuss Voigt Hill
#
# Bulk Modulus (GPa) = 43.91926 56.47497 50.19711
# Shear Modulus (GPa) = 41.97139 47.97549 44.97344
#
# Velocity S-wave (km/s) = 3.93656 4.20872 4.07491
# Velocity P-wave (km/s) = 6.07270 6.66852 6.37757
#
# Compressibility (1/GPa) = 0.02276905
#
# Stress axis : x y z
#
# Youngs Moduli (GPa) = 172.48689 143.50205 67.19260
#
# Poissons Ratio (x) = 0.12204 0.01506
# Poissons Ratio (y) = 0.14668 0.09173
# Poissons Ratio (z) = 0.03867 0.19591
#
# Static dielectric constant tensor:
#      x y z
#    x 2.128930 0.000000 -0.076070 
#    y 0.000000 2.162580 0.000000 
#    z -0.076070 0.000000 2.154970 
# 
# From -- ./inp_files/33697.got.cif
#   From: 2010.05.17/outbox.cif.g08.bks.cpg/sg14_17_cif.got.tgz:33697.got - 2010.06.03 17:49:19.
