data_PCOD9246873
_publ_section_title
;
Structure prediction by ZEFSAII (Michael W. Deem and Ramdas Pophale) SiO2 
 PCOD9246873
Probable space group: P 21/C
;
_chemical_formula_sum "Si O2"
_cell_formula_units_Z 28
_cell_length_a 16.108947
_cell_length_b 8.035820
_cell_length_c 14.204011
_cell_angle_alpha 90.000000
_cell_angle_beta 133.392003
_cell_angle_gamma 90.000000
_cell_volume 1336.121402
_symmetry_space_group_name_H-M "P 21/C"
_symmetry_group_IT_number 14
_symmetry_cell_setting 'monoclinic'
loop_
_space_group_symop_operation_xyz
x,y,z
-x,1/2+y,1/2-z
-x,-y,-z
x,1/2-y,1/2+z
loop_
_atom_site_type_symbol
_atom_site_label
_atom_site_fract_x
_atom_site_fract_y
_atom_site_fract_z
Si Si1 0.814715 0.802287 0.035180
Si Si2 0.514189 0.808311 0.040301
Si Si3 0.613507 0.301614 0.226470
Si Si4 0.228465 0.295718 0.787834
Si Si5 0.442460 0.163036 0.231254
Si Si6 0.851149 0.087485 0.909425
Si Si7 0.055324 0.330988 0.016041
O O1 0.681621 0.778184 0.902490
O O2 0.906331 0.677673 0.061472
O O3 0.849363 0.970989 0.002633
O O4 0.818650 0.770430 0.149437
O O5 0.636454 0.732437 0.105334
O O6 0.509650 0.777189 0.147547
O O7 0.418619 0.710410 0.907685
O O8 0.500000 0.000000 0.000000
O O9 0.535019 0.171135 0.220891
O O10 0.578149 0.481343 0.240480
O O11 0.748190 0.282628 0.344662
O O12 0.190715 0.474698 0.713495
O O13 0.172828 0.181366 0.664846
O O14 0.031439 0.817559 0.021366
O O15 0.000000 0.500000 0.000000
#
# Coordination Sequence:
#
# PCOD9246873 Si02
#       7
#     4   4   4   4   4   4   4
#     4  10  21  42  68  91 127 173 221 265 335 390
#     4  12  24  38  65  95 136 171 217 273 331 392
#     4  11  23  41  65  99 132 171 220 260 342 395
#     4  11  22  44  68  93 131 175 221 270 335 391
#     4  11  22  39  65  95 132 175 212 269 326 401
#     4  10  24  45  67  94 138 175 214 281 338 395
#     4  11  25  43  68  96 130 170 223 278 332 395
#
# _framework density 20.956178000000001
#
# number of rings (size 3 to 8) (size 9 to 14) (size 15 to 20)
#    0.000    1.143    5.714    3.000    4.000    3.429 
#    0.000    1.429    0.000    0.000    0.000    0.000 
#    0.000    0.000    0.000    0.000    0.000    0.000 
#
# Total GULP energy -156145.397183 kJ/mol
# GULP energy per Si atom -5576.621328 kJ/mol
# Density = 2.090848 g / cm^3
# Si number density = 20.956178 Si / 1000 Ang^3
#
#
#
# Elastic Constant Matrix: (Units=GPa)
#
#
# Indices 1 2 3 4 5 6 
#
# 1 96.4191 -4.0806 9.5187 0.0000 -14.1896 0.0000
# 2 -4.0806 56.4759 6.4636 0.0000 -5.3832 0.0000
# 3 9.5187 6.4636 29.9555 0.0000 -9.4781 0.0000
# 4 0.0000 0.0000 0.0000 23.5844 0.0000 3.4520
# 5 -14.1896 -5.3832 -9.4781 0.0000 39.0123 0.0000
# 6 0.0000 0.0000 0.0000 3.4520 0.0000 32.0356
#
#
#
# Elastic Compliance Matrix: (Units=1/GPa)
#
#
# Indices 1 2 3 4 5 6 
#
# 1 0.011238 0.001471 -0.002742 0.000000 0.003624 0.000000
# 2 0.001471 0.018450 -0.003763 0.000000 0.002167 0.000000
# 3 -0.002742 -0.003763 0.037466 0.000000 0.007586 0.000000
# 4 0.000000 0.000000 0.000000 0.043080 0.000000 -0.004642
# 5 0.003624 0.002167 0.007586 0.000000 0.029093 0.000000
# 6 0.000000 0.000000 0.000000 -0.004642 0.000000 0.031716
#
#
# Mechanical properties :
#
#
# Convention : Reuss Voigt Hill
#
# Bulk Modulus (GPa) = 17.51698 22.96154 20.23926
# Shear Modulus (GPa) = 24.98261 30.32303 27.65282
#
# Velocity S-wave (km/s) = 3.45648 3.80804 3.63651
# Velocity P-wave (km/s) = 4.93018 5.50596 5.22600
#
# Compressibility (1/GPa) = 0.05708746
#
# Stress axis : x y z
#
# Youngs Moduli (GPa) = 88.98629 54.20010 26.69066
#
# Poissons Ratio (x) = -0.07974 0.07318
# Poissons Ratio (y) = -0.13092 0.10044
# Poissons Ratio (z) = 0.24397 0.20395
#
# Static dielectric constant tensor:
#      x y z
#    x 1.764130 0.000000 0.003950 
#    y 0.000000 1.837030 0.000000 
#    z 0.003950 0.000000 1.735460 
# 
# From -- ./inp_files/46563.got.cif
#   From: 2010.05.17/outbox.cif.g08.bks.cpg/sg14_24_cif.got.tgz:46563.got - 2010.06.03 17:49:19.
