data_PCOD9246848
_publ_section_title
;
Structure prediction by ZEFSAII (Michael W. Deem and Ramdas Pophale) SiO2 
 PCOD9246848
Probable space group: P 21/C
;
_chemical_formula_sum "Si O2"
_cell_formula_units_Z 24
_cell_length_a 19.877249
_cell_length_b 10.940429
_cell_length_c 13.751933
_cell_angle_alpha 90.000000
_cell_angle_beta 21.383538
_cell_angle_gamma 90.000000
_cell_volume 1090.390539
_symmetry_space_group_name_H-M "P 21/C"
_symmetry_group_IT_number 14
_symmetry_cell_setting 'monoclinic'
loop_
_space_group_symop_operation_xyz
x,y,z
-x,1/2+y,1/2-z
-x,-y,-z
x,1/2-y,1/2+z
loop_
_atom_site_type_symbol
_atom_site_label
_atom_site_fract_x
_atom_site_fract_y
_atom_site_fract_z
Si Si1 0.226027 0.853975 0.706918
Si Si2 0.272906 0.789888 0.964382
Si Si3 0.852296 0.778293 0.494879
Si Si4 0.844928 0.905502 0.311853
Si Si5 0.629284 0.932294 0.194644
Si Si6 0.347279 0.303995 0.541932
O O1 0.264542 0.731727 0.593236
O O2 0.414648 0.899966 0.501473
O O3 0.170882 0.955892 0.700373
O O4 0.049251 0.853226 0.013731
O O5 0.442996 0.704830 0.703466
O O6 0.320059 0.926669 0.868397
O O7 0.070481 0.758130 0.200238
O O8 0.801851 0.877043 0.480734
O O9 0.750073 0.653129 0.602391
O O10 0.788372 0.823732 0.686158
O O11 0.706181 0.827777 0.431602
O O12 0.665844 0.892464 0.032950
#
# Coordination Sequence:
#
# PCOD9246848 Si02
#       6
#     4   4   4   4   4   4
#     4  10  21  42  68  91 128 175 213 263 322 386
#     4  11  23  41  67  93 132 169 214 267 323 379
#     4  11  25  40  64  98 126 167 220 264 316 387
#     4  10  21  42  67  93 129 170 213 268 322 383
#     4  10  24  42  66  93 132 169 214 266 327 379
#     4  10  22  45  63  97 129 168 213 266 324 390
#
# _framework density 22.010463000000001
#
# number of rings (size 3 to 8) (size 9 to 14) (size 15 to 20)
#    0.000    1.667    3.333    0.000    4.667    1.333 
#    0.000    3.333    0.000    0.000    0.000    0.000 
#    0.000    0.000    0.000    0.000    0.000    0.000 
#
# Total GULP energy -134179.456158 kJ/mol
# GULP energy per Si atom -5590.810673 kJ/mol
# Density = 2.196037 g / cm^3
# Si number density = 22.010463 Si / 1000 Ang^3
#
#
#
# Elastic Constant Matrix: (Units=GPa)
#
#
# Indices 1 2 3 4 5 6 
#
# 1 64.5177 1.1034 28.7109 0.0000 5.0877 0.0000
# 2 1.1034 28.7786 0.3456 0.0000 0.3054 0.0000
# 3 28.7109 0.3456 101.8917 0.0000 -32.0615 0.0000
# 4 0.0000 0.0000 0.0000 19.8363 0.0000 -5.9312
# 5 5.0877 0.3054 -32.0615 0.0000 49.6071 0.0000
# 6 0.0000 0.0000 0.0000 -5.9312 0.0000 8.5899
#
#
#
# Elastic Compliance Matrix: (Units=1/GPa)
#
#
# Indices 1 2 3 4 5 6 
#
# 1 0.019472 -0.000581 -0.007672 0.000000 -0.006952 0.000000
# 2 -0.000581 0.034772 -0.000004 0.000000 -0.000157 0.000000
# 3 -0.007672 -0.000004 0.015344 0.000000 0.010704 0.000000
# 4 0.000000 0.000000 0.000000 0.063529 0.000000 0.043866
# 5 -0.006952 -0.000157 0.010704 0.000000 0.027791 0.000000
# 6 0.000000 0.000000 0.000000 0.043866 0.000000 0.146705
#
#
# Mechanical properties :
#
#
# Convention : Reuss Voigt Hill
#
# Bulk Modulus (GPa) = 18.84129 28.38977 23.61553
# Shear Modulus (GPa) = 14.62767 26.60853 20.61810
#
# Velocity S-wave (km/s) = 2.58074 3.48070 3.06394
# Velocity P-wave (km/s) = 4.17840 5.39259 4.82385
#
# Compressibility (1/GPa) = 0.05307491
#
# Stress axis : x y z
#
# Youngs Moduli (GPa) = 51.35552 28.75879 65.16996
#
# Poissons Ratio (x) = 0.01670 0.50001
# Poissons Ratio (y) = 0.02982 0.00024
# Poissons Ratio (z) = 0.39402 0.00011
#
# Static dielectric constant tensor:
#      x y z
#    x 1.823270 0.000000 -0.004800 
#    y 0.000000 1.797470 0.000000 
#    z -0.004800 0.000000 1.817610 
# 
# From -- ./inp_files/50435.got.cif
#   From: 2010.05.17/outbox.cif.g08.bks.cpg/sg14_26_cif.got.tgz:50435.got - 2010.06.03 17:49:19.
