data_PCOD9246602
_publ_section_title
;
Structure prediction by ZEFSAII (Michael W. Deem and Ramdas Pophale) SiO2 
 PCOD9246602
Probable space group: P 21/C
;
_chemical_formula_sum "Si O2"
_cell_formula_units_Z 32
_cell_length_a 21.172872
_cell_length_b 7.599859
_cell_length_c 18.351762
_cell_angle_alpha 90.000000
_cell_angle_beta 151.509670
_cell_angle_gamma 90.000000
_cell_volume 1408.610602
_symmetry_space_group_name_H-M "P 21/C"
_symmetry_group_IT_number 14
_symmetry_cell_setting 'monoclinic'
loop_
_space_group_symop_operation_xyz
x,y,z
-x,1/2+y,1/2-z
-x,-y,-z
x,1/2-y,1/2+z
loop_
_atom_site_type_symbol
_atom_site_label
_atom_site_fract_x
_atom_site_fract_y
_atom_site_fract_z
Si Si1 0.167006 0.168678 0.847257
Si Si2 0.015450 0.867050 0.082495
Si Si3 0.038918 0.968709 0.264412
Si Si4 0.820985 0.875722 0.312797
Si Si5 0.291178 0.768770 0.855511
Si Si6 0.322230 0.694472 0.040371
Si Si7 0.539126 0.792222 0.028231
Si Si8 0.557069 0.686726 0.878378
O O1 0.096373 0.339905 0.808151
O O2 0.156457 0.170725 0.749117
O O3 0.071470 0.023278 0.784865
O O4 0.320434 0.190584 0.024075
O O5 0.970699 0.913307 0.118518
O O6 0.173670 0.864560 0.249116
O O7 0.944055 0.686467 0.985264
O O8 0.000000 0.000000 0.000000
O O9 0.172686 0.852900 0.414372
O O10 0.773727 0.078271 0.259846
O O11 0.689723 0.773379 0.207294
O O12 0.423401 0.696040 0.954122
O O13 0.321450 0.823994 0.969085
O O14 0.390315 0.511374 0.081850
O O15 0.420246 0.773621 0.199276
O O16 0.538052 0.736124 0.943551
O O17 0.500000 0.000000 0.000000
#
# Coordination Sequence:
#
# PCOD9246602 Si02
#       8
#     4   4   4   4   4   4   4   4
#     4  10  22  40  63  90 125 164 204 255 311 371
#     4  11  22  42  62  89 127 164 208 260 311 374
#     4  10  23  41  60  93 124 163 207 260 308 373
#     4  10  21  41  67  86 128 166 203 256 321 368
#     4  10  23  41  64  94 123 163 209 261 314 376
#     4  10  24  41  64  90 130 161 212 265 309 382
#     4   9  21  41  65  92 124 161 210 262 315 376
#     4  10  23  42  62  94 126 168 210 259 322 374
#
# _framework density 22.717420000000001
#
# number of rings (size 3 to 8) (size 9 to 14) (size 15 to 20)
#    0.000    2.000    1.250    0.375   10.500    2.500 
#    9.000    0.000    0.000    0.000    0.000    0.000 
#    0.000    0.000    0.000    0.000    0.000    0.000 
#
# Total GULP energy -178619.914335 kJ/mol
# GULP energy per Si atom -5581.872323 kJ/mol
# Density = 2.266571 g / cm^3
# Si number density = 22.717420 Si / 1000 Ang^3
#
#
#
# Elastic Constant Matrix: (Units=GPa)
#
#
# Indices 1 2 3 4 5 6 
#
# 1 91.7916 -8.7867 22.9764 0.0000 33.3517 0.0000
# 2 -8.7867 58.2341 -4.1084 0.0000 -0.9160 0.0000
# 3 22.9764 -4.1084 89.9649 0.0000 1.9593 0.0000
# 4 0.0000 0.0000 0.0000 23.4040 0.0000 -5.1493
# 5 33.3517 -0.9160 1.9593 0.0000 32.9215 0.0000
# 6 0.0000 0.0000 0.0000 -5.1493 0.0000 29.1562
#
#
#
# Elastic Compliance Matrix: (Units=1/GPa)
#
#
# Indices 1 2 3 4 5 6 
#
# 1 0.019129 0.002279 -0.004366 0.000000 -0.019056 0.000000
# 2 0.002279 0.017505 0.000257 0.000000 -0.001837 0.000000
# 3 -0.004366 0.000257 0.012162 0.000000 0.003707 0.000000
# 4 0.000000 0.000000 0.000000 0.044455 0.000000 0.007851
# 5 -0.019056 -0.001837 0.003707 0.000000 0.049408 0.000000
# 6 0.000000 0.000000 0.000000 0.007851 0.000000 0.035685
#
#
# Mechanical properties :
#
#
# Convention : Reuss Voigt Hill
#
# Bulk Modulus (GPa) = 22.15571 28.90589 25.53080
# Shear Modulus (GPa) = 25.37432 32.42362 28.89897
#
# Velocity S-wave (km/s) = 3.34571 3.78201 3.57053
# Velocity P-wave (km/s) = 4.96981 5.64120 5.31611
#
# Compressibility (1/GPa) = 0.04513508
#
# Stress axis : x y z
#
# Youngs Moduli (GPa) = 52.27663 57.12602 82.22589
#
# Poissons Ratio (x) = -0.13016 0.35903
# Poissons Ratio (y) = -0.11911 -0.02117
# Poissons Ratio (z) = 0.22826 -0.01471
#
# Static dielectric constant tensor:
#      x y z
#    x 1.901110 0.000000 0.021710 
#    y 0.000000 1.993780 0.000000 
#    z 0.021710 0.000000 1.853110 
# 
# From -- ./inp_files/61153.got.cif
#   From: 2010.05.17/outbox.cif.g08.bks.cpg/sg14_31_cif.got.tgz:61153.got - 2010.06.03 17:49:19.
