data_PCOD9246315
_publ_section_title
;
Structure prediction by ZEFSAII (Michael W. Deem and Ramdas Pophale) SiO2 
 PCOD9246315
Probable space group: P 21/C
;
_chemical_formula_sum "Si O2"
_cell_formula_units_Z 26
_cell_length_a 19.678080
_cell_length_b 4.937845
_cell_length_c 28.964536
_cell_angle_alpha 90.000000
_cell_angle_beta 155.693379
_cell_angle_gamma 90.000000
_cell_volume 1158.464893
_symmetry_space_group_name_H-M "P 21/C"
_symmetry_group_IT_number 14
_symmetry_cell_setting 'monoclinic'
loop_
_space_group_symop_operation_xyz
x,y,z
-x,1/2+y,1/2-z
-x,-y,-z
x,1/2-y,1/2+z
loop_
_atom_site_type_symbol
_atom_site_label
_atom_site_fract_x
_atom_site_fract_y
_atom_site_fract_z
Si Si1 0.500000 0.000000 0.500000
Si Si2 0.122958 0.980748 0.423757
Si Si3 0.142390 0.151735 0.128791
Si Si4 0.569723 0.728793 0.120881
Si Si5 0.766639 0.466570 0.666317
Si Si6 0.908997 0.652103 0.996368
Si Si7 0.245373 0.470237 0.445645
O O1 0.502674 0.952436 0.443735
O O2 0.673709 0.184969 0.604715
O O3 0.172840 0.088981 0.505269
O O4 0.218690 0.175287 0.448736
O O5 0.926433 0.031893 0.297298
O O6 0.155119 0.676287 0.425893
O O7 0.280925 0.209229 0.252023
O O8 0.201443 0.216607 0.112932
O O9 0.990199 0.360702 0.036866
O O10 0.063130 0.862408 0.091745
O O11 0.429684 0.913476 0.055171
O O12 0.632305 0.824292 0.106922
O O13 0.821510 0.532571 0.648353
#
# Coordination Sequence:
#
# PCOD9246315 Si02
#       7
#     2   4   4   4   4   4   4
#     4  10  22  36  64  88 124 154 220 262 312 366
#     4  12  24  43  62  94 132 174 205 269 332 394
#     4  10  21  40  69  98 121 164 222 275 322 371
#     4  11  24  41  65  94 127 176 220 275 315 391
#     4  11  24  40  66  89 128 174 223 262 318 387
#     4  10  21  40  67  98 126 159 220 276 320 390
#     4  11  27  39  60  93 137 167 214 258 333 389
#
# _framework density 22.443493
#
# number of rings (size 3 to 8) (size 9 to 14) (size 15 to 20)
#    0.000    1.231    1.538    4.615   10.769    0.000 
#    0.000    1.538    0.000    0.000    0.000    0.000 
#    0.000    0.000    0.000    0.000    0.000    0.000 
#
# Total GULP energy -144761.727845 kJ/mol
# GULP energy per Si atom -5567.758763 kJ/mol
# Density = 2.239241 g / cm^3
# Si number density = 22.443493 Si / 1000 Ang^3
#
#
#
# Elastic Constant Matrix: (Units=GPa)
#
#
# Indices 1 2 3 4 5 6 
#
# 1 97.7163 12.1518 25.9846 0.0000 -12.2920 0.0000
# 2 12.1518 51.4158 -8.6613 0.0000 -8.0798 0.0000
# 3 25.9846 -8.6613 104.8741 0.0000 -24.6352 0.0000
# 4 0.0000 0.0000 0.0000 6.1059 0.0000 -3.1603
# 5 -12.2920 -8.0798 -24.6352 0.0000 25.3694 0.0000
# 6 0.0000 0.0000 0.0000 -3.1603 0.0000 45.0983
#
#
#
# Elastic Compliance Matrix: (Units=1/GPa)
#
#
# Indices 1 2 3 4 5 6 
#
# 1 0.011546 -0.002819 -0.002578 0.000000 0.002193 0.000000
# 2 -0.002819 0.022677 0.005113 0.000000 0.010822 0.000000
# 3 -0.002578 0.005113 0.013843 0.000000 0.013822 0.000000
# 4 0.000000 0.000000 0.000000 0.169940 0.000000 0.011909
# 5 0.002193 0.010822 0.013822 0.000000 0.057348 0.000000
# 6 0.000000 0.000000 0.000000 0.011909 0.000000 0.023008
#
#
# Mechanical properties :
#
#
# Convention : Reuss Voigt Hill
#
# Bulk Modulus (GPa) = 21.05293 34.77293 27.91293
# Shear Modulus (GPa) = 15.88497 30.28345 23.08421
#
# Velocity S-wave (km/s) = 2.66329 3.67729 3.21058
# Velocity P-wave (km/s) = 4.34261 5.79285 5.11935
#
# Compressibility (1/GPa) = 0.04749933
#
# Stress axis : x y z
#
# Youngs Moduli (GPa) = 86.61255 44.09663 72.23780
#
# Poissons Ratio (x) = 0.12429 0.18626
# Poissons Ratio (y) = 0.24412 -0.36938
# Poissons Ratio (z) = 0.22332 -0.22548
#
# Static dielectric constant tensor:
#      x y z
#    x 1.974350 0.000000 -0.087560 
#    y 0.000000 -0.205480 0.000000 
#    z -0.087560 0.000000 1.313500 
# 
# From -- ./inp_files/74087.got.cif
#   From: 2010.05.17/outbox.cif.g08.bks.cpg/sg14_38_cif.got.tgz:74087.got - 2010.06.03 17:49:19.
