data_PCOD9246472
_publ_section_title
;
Structure prediction by ZEFSAII (Michael W. Deem and Ramdas Pophale) SiO2 
 PCOD9246472
Probable space group: P 21/C
;
_chemical_formula_sum "Si O2"
_cell_formula_units_Z 32
_cell_length_a 10.016333
_cell_length_b 11.681202
_cell_length_c 12.264012
_cell_angle_alpha 90.000000
_cell_angle_beta 113.213436
_cell_angle_gamma 90.000000
_cell_volume 1318.756629
_symmetry_space_group_name_H-M "P 21/C"
_symmetry_group_IT_number 14
_symmetry_cell_setting 'monoclinic'
loop_
_space_group_symop_operation_xyz
x,y,z
-x,1/2+y,1/2-z
-x,-y,-z
x,1/2-y,1/2+z
loop_
_atom_site_type_symbol
_atom_site_label
_atom_site_fract_x
_atom_site_fract_y
_atom_site_fract_z
Si Si1 0.823356 0.389947 0.436946
Si Si2 0.348562 0.910716 0.343472
Si Si3 0.885339 0.794354 0.702503
Si Si4 0.397353 0.128887 0.262724
Si Si5 0.551464 0.207749 0.974086
Si Si6 0.983540 0.688303 0.939604
Si Si7 0.836943 0.528660 0.031493
Si Si8 0.289590 0.112781 0.993714
O O1 0.767943 0.390241 0.292924
O O2 0.702741 0.337492 0.479189
O O3 0.820259 0.515060 0.494423
O O4 0.960350 0.305533 0.489256
O O5 0.418007 0.796932 0.416693
O O6 0.450131 0.002009 0.313420
O O7 0.290181 0.984610 0.429337
O O8 0.765348 0.848174 0.744468
O O9 0.983212 0.718400 0.811571
O O10 0.941935 0.901456 0.650913
O O11 0.802280 0.711867 0.592842
O O12 0.494400 0.218345 0.354953
O O13 0.379225 0.142420 0.130475
O O14 0.428522 0.110778 0.955393
O O15 0.099700 0.588005 0.994266
O O16 0.836371 0.623914 0.934411
#
# Coordination Sequence:
#
# PCOD9246472 Si02
#       8
#     4   4   4   4   4   4   4   4
#     4  11  24  40  64 100 135 170 225 275 340 403
#     4  10  21  41  63  94 128 174 219 276 331 398
#     4  10  22  40  66  89 126 173 220 276 339 398
#     4   9  20  39  61  92 125 170 227 269 327 399
#     4  11  20  39  65  95 132 174 217 275 335 400
#     4  11  24  41  64  95 131 174 223 280 332 407
#     4  10  23  43  62  91 130 164 229 270 330 401
#     4  10  22  41  63  94 133 173 220 276 337 397
#
# _framework density 24.265279
#
# number of rings (size 3 to 8) (size 9 to 14) (size 15 to 20)
#    0.000    1.750    1.250    2.250    3.500    0.000 
#    2.250    7.500    0.000    0.000    0.000    0.000 
#    0.000    0.000    0.000    0.000    0.000    0.000 
#
# Total GULP energy -178138.284047 kJ/mol
# GULP energy per Si atom -5566.821376 kJ/mol
# Density = 2.421005 g / cm^3
# Si number density = 24.265279 Si / 1000 Ang^3
#
#
#
# Elastic Constant Matrix: (Units=GPa)
#
#
# Indices 1 2 3 4 5 6 
#
# 1 58.5277 28.2704 -12.9622 0.0000 -15.1984 0.0000
# 2 28.2704 122.0712 29.9600 0.0000 2.4684 0.0000
# 3 -12.9622 29.9600 62.3827 0.0000 0.1563 0.0000
# 4 0.0000 0.0000 0.0000 31.8012 0.0000 0.7526
# 5 -15.1984 2.4684 0.1563 0.0000 21.4911 0.0000
# 6 0.0000 0.0000 0.0000 0.7526 0.0000 10.7948
#
#
#
# Elastic Compliance Matrix: (Units=1/GPa)
#
#
# Indices 1 2 3 4 5 6 
#
# 1 0.030356 -0.010226 0.011162 0.000000 0.022561 0.000000
# 2 -0.010226 0.012754 -0.008229 0.000000 -0.008637 0.000000
# 3 0.011162 -0.008229 0.022280 0.000000 0.008677 0.000000
# 4 0.000000 0.000000 0.000000 0.031497 0.000000 -0.002196
# 5 0.022561 -0.008637 0.008677 0.000000 0.063415 0.000000
# 6 0.000000 0.000000 0.000000 -0.002196 0.000000 0.092790
#
#
# Mechanical properties :
#
#
# Convention : Reuss Voigt Hill
#
# Bulk Modulus (GPa) = 19.68304 37.05756 28.37030
# Shear Modulus (GPa) = 17.56779 25.99831 21.78305
#
# Velocity S-wave (km/s) = 2.69362 3.27681 2.99942
# Velocity P-wave (km/s) = 4.21940 5.44257 4.86955
#
# Compressibility (1/GPa) = 0.05080517
#
# Stress axis : x y z
#
# Youngs Moduli (GPa) = 32.94243 78.40477 44.88429
#
# Poissons Ratio (x) = 0.80176 -0.50100
# Poissons Ratio (y) = 0.33686 0.36933
# Poissons Ratio (z) = -0.36771 0.64516
#
# Static dielectric constant tensor:
#      x y z
#    x 2.042280 0.000000 0.015430 
#    y 0.000000 1.984720 0.000000 
#    z 0.015430 0.000000 2.020860 
# 
# From -- ./inp_files/29162.got.cif
#   From: 2010.05.17/outbox.cif.g08.bks.cpg/sg14_15_cif.got.tgz:29162.got - 2010.06.03 17:49:19.
