data_PCOD9246908
_publ_section_title
;
Structure prediction by ZEFSAII (Michael W. Deem and Ramdas Pophale) SiO2 
 PCOD9246908
Probable space group: P 21/C
;
_chemical_formula_sum "Si O2"
_cell_formula_units_Z 32
_cell_length_a 12.502283
_cell_length_b 24.559574
_cell_length_c 9.398270
_cell_angle_alpha 90.000000
_cell_angle_beta 154.881909
_cell_angle_gamma 90.000000
_cell_volume 1224.956766
_symmetry_space_group_name_H-M "P 21/C"
_symmetry_group_IT_number 14
_symmetry_cell_setting 'monoclinic'
loop_
_space_group_symop_operation_xyz
x,y,z
-x,1/2+y,1/2-z
-x,-y,-z
x,1/2-y,1/2+z
loop_
_atom_site_type_symbol
_atom_site_label
_atom_site_fract_x
_atom_site_fract_y
_atom_site_fract_z
Si Si1 0.626138 0.853336 0.667158
Si Si2 0.814443 0.484506 0.588828
Si Si3 0.098481 0.808667 0.400674
Si Si4 0.926537 0.917925 0.840841
Si Si5 0.799546 0.075677 0.350988
Si Si6 0.400128 0.937311 0.595128
Si Si7 0.387662 0.781437 0.137737
Si Si8 0.904415 0.803044 0.664445
O O1 0.505623 0.881208 0.658834
O O2 0.481297 0.809198 0.398271
O O3 0.889396 0.827693 0.034750
O O4 0.669000 0.904726 0.612415
O O5 0.005923 0.456810 0.708676
O O6 0.737096 0.440595 0.615675
O O7 0.559845 0.512570 0.229806
O O8 0.960302 0.537099 0.828317
O O9 0.981706 0.754172 0.332141
O O10 0.150009 0.861394 0.555767
O O11 0.340332 0.782143 0.612259
O O12 0.118243 0.936671 0.194373
O O13 0.968264 0.857319 0.826871
O O14 0.600257 0.060280 0.234354
O O15 0.603339 0.797386 0.285783
O O16 0.101964 0.802576 0.772904
#
# Coordination Sequence:
#
# PCOD9246908 Si02
#       8
#     4   4   4   4   4   4   4   4
#     4  11  22  41  74 108 145 181 246 310 373 448
#     4  11  26  45  65 100 150 190 248 306 373 438
#     4  10  21  42  70 101 141 196 242 300 372 448
#     4  11  23  44  68 105 143 186 244 316 372 440
#     4  11  25  45  67 101 140 196 245 301 372 454
#     4  12  21  42  74 102 132 191 251 305 371 439
#     4   9  21  40  65 107 146 183 239 301 372 442
#     4   9  21  41  67 103 146 182 237 302 373 440
#
# _framework density 26.123370000000001
#
# number of rings (size 3 to 8) (size 9 to 14) (size 15 to 20)
#    0.750    0.750    3.750    0.750    1.750    3.000 
#    4.500    1.250    0.000    0.000    0.000    0.000 
#    0.000    0.000    0.000    0.000    0.000    0.000 
#
# Total GULP energy -178727.662455 kJ/mol
# GULP energy per Si atom -5585.239452 kJ/mol
# Density = 2.606391 g / cm^3
# Si number density = 26.123370 Si / 1000 Ang^3
#
#
#
# Elastic Constant Matrix: (Units=GPa)
#
#
# Indices 1 2 3 4 5 6 
#
# 1 116.6351 49.2958 40.5938 0.0000 6.4268 0.0000
# 2 49.2958 168.6830 41.6844 0.0000 1.2444 0.0000
# 3 40.5938 41.6844 84.2667 0.0000 19.3920 0.0000
# 4 0.0000 0.0000 0.0000 42.4475 0.0000 8.9553
# 5 6.4268 1.2444 19.3920 0.0000 30.1590 0.0000
# 6 0.0000 0.0000 0.0000 8.9553 0.0000 41.3914
#
#
#
# Elastic Compliance Matrix: (Units=1/GPa)
#
#
# Indices 1 2 3 4 5 6 
#
# 1 0.010959 -0.002131 -0.004352 0.000000 0.000551 0.000000
# 2 -0.002131 0.007294 -0.003071 0.000000 0.002128 0.000000
# 3 -0.004352 -0.003071 0.017887 0.000000 -0.010447 0.000000
# 4 0.000000 0.000000 0.000000 0.024685 0.000000 -0.005341
# 5 0.000551 0.002128 -0.010447 0.000000 0.039670 0.000000
# 6 0.000000 0.000000 0.000000 -0.005341 0.000000 0.025315
#
#
# Mechanical properties :
#
#
# Convention : Reuss Voigt Hill
#
# Bulk Modulus (GPa) = 58.71470 70.30364 64.50917
# Shear Modulus (GPa) = 33.20146 38.66696 35.93421
#
# Velocity S-wave (km/s) = 3.56890 3.85147 3.71288
# Velocity P-wave (km/s) = 6.28550 6.83732 6.56721
#
# Compressibility (1/GPa) = 0.01703151
#
# Stress axis : x y z
#
# Youngs Moduli (GPa) = 91.25153 137.09125 55.90705
#
# Poissons Ratio (x) = 0.29218 0.24328
# Poissons Ratio (y) = 0.19448 0.17171
# Poissons Ratio (z) = 0.39709 0.42106
#
# Static dielectric constant tensor:
#      x y z
#    x 2.099870 0.000000 0.069890 
#    y 0.000000 2.031210 0.000000 
#    z 0.069890 0.000000 2.102260 
# 
# From -- ./inp_files/38218.got.cif
#   From: 2010.05.17/outbox.cif.g08.bks.cpg/sg14_20_cif.got.tgz:38218.got - 2010.06.03 17:49:19.
