data_PCOD9246864
_publ_section_title
;
Structure prediction by ZEFSAII (Michael W. Deem and Ramdas Pophale) SiO2 
 PCOD9246864
Probable space group: P 21/C
;
_chemical_formula_sum "Si O2"
_cell_formula_units_Z 32
_cell_length_a 11.609349
_cell_length_b 8.903374
_cell_length_c 27.380409
_cell_angle_alpha 90.000000
_cell_angle_beta 148.830395
_cell_angle_gamma 90.000000
_cell_volume 1464.785972
_symmetry_space_group_name_H-M "P 21/C"
_symmetry_group_IT_number 14
_symmetry_cell_setting 'monoclinic'
loop_
_space_group_symop_operation_xyz
x,y,z
-x,1/2+y,1/2-z
-x,-y,-z
x,1/2-y,1/2+z
loop_
_atom_site_type_symbol
_atom_site_label
_atom_site_fract_x
_atom_site_fract_y
_atom_site_fract_z
Si Si1 0.491390 0.662496 0.605768
Si Si2 0.653223 0.416506 0.876265
Si Si3 0.912063 0.809238 0.639528
Si Si4 0.976882 0.902367 0.561940
Si Si5 0.106446 0.054399 0.987777
Si Si6 0.567380 0.176413 0.519225
Si Si7 0.821629 0.021850 0.792813
Si Si8 0.963323 0.768718 0.768099
O O1 0.434310 0.761359 0.632933
O O2 0.346414 0.514205 0.561141
O O3 0.415953 0.757701 0.529949
O O4 0.758279 0.650071 0.696940
O O5 0.441696 0.523310 0.798134
O O6 0.773100 0.406315 0.867795
O O7 0.833016 0.479323 0.979695
O O8 0.950856 0.927376 0.610254
O O9 0.658638 0.748415 0.541797
O O10 0.943708 0.843967 0.707612
O O11 0.085595 0.678904 0.691665
O O12 0.893373 0.734619 0.517799
O O13 0.937087 0.990929 0.885960
O O14 0.000000 0.000000 0.000000
O O15 0.792402 0.208470 0.630350
O O16 0.500000 0.000000 0.500000
O O17 0.899248 0.896165 0.783327
#
# Coordination Sequence:
#
# PCOD9246864 Si02
#       8
#     4   4   4   4   4   4   4   4
#     4  10  21  42  67  98 132 176 229 274 340 411
#     4  10  21  43  69  92 132 176 223 280 337 402
#     4  10  24  40  64 101 131 173 226 274 349 407
#     4  10  22  42  65  96 133 173 224 283 341 407
#     4  11  21  44  64  97 134 177 219 282 344 403
#     4  11  23  42  66  96 135 177 227 284 338 418
#     4  10  23  45  65  92 136 170 228 280 338 412
#     4  10  23  41  66  96 132 183 221 280 341 407
#
# _framework density 21.846195999999999
#
# number of rings (size 3 to 8) (size 9 to 14) (size 15 to 20)
#    0.000    1.750    2.500    0.750    7.000    0.500 
#    9.000    2.500    0.000    0.000    0.000    0.000 
#    0.000    0.000    0.000    0.000    0.000    0.000 
#
# Total GULP energy -178760.577752 kJ/mol
# GULP energy per Si atom -5586.268055 kJ/mol
# Density = 2.179647 g / cm^3
# Si number density = 21.846196 Si / 1000 Ang^3
#
#
#
# Elastic Constant Matrix: (Units=GPa)
#
#
# Indices 1 2 3 4 5 6 
#
# 1 141.2215 0.0497 32.9633 0.0000 -5.7323 0.0000
# 2 0.0497 20.4098 -6.6429 0.0000 9.0226 0.0000
# 3 32.9633 -6.6429 98.5061 0.0000 17.1318 0.0000
# 4 0.0000 0.0000 0.0000 26.0739 0.0000 8.9287
# 5 -5.7323 9.0226 17.1318 0.0000 44.7214 0.0000
# 6 0.0000 0.0000 0.0000 8.9287 0.0000 23.1297
#
#
#
# Elastic Compliance Matrix: (Units=1/GPa)
#
#
# Indices 1 2 3 4 5 6 
#
# 1 0.007964 -0.002309 -0.003299 0.000000 0.002750 0.000000
# 2 -0.002309 0.057877 0.007240 0.000000 -0.014746 0.000000
# 3 -0.003299 0.007240 0.012933 0.000000 -0.006838 0.000000
# 4 0.000000 0.000000 0.000000 0.044195 0.000000 -0.017060
# 5 0.002750 -0.014746 -0.006838 0.000000 0.028308 0.000000
# 6 0.000000 0.000000 0.000000 -0.017060 0.000000 0.049820
#
#
# Mechanical properties :
#
#
# Convention : Reuss Voigt Hill
#
# Bulk Modulus (GPa) = 12.18936 34.76417 23.47676
# Shear Modulus (GPa) = 22.20468 34.36949 28.28708
#
# Velocity S-wave (km/s) = 3.19158 3.97072 3.60228
# Velocity P-wave (km/s) = 4.37873 6.08029 5.29826
#
# Compressibility (1/GPa) = 0.08203877
#
# Stress axis : x y z
#
# Youngs Moduli (GPa) = 125.57243 17.27796 77.32131
#
# Poissons Ratio (x) = 0.03989 0.25507
# Poissons Ratio (y) = 0.28994 -0.55983
# Poissons Ratio (z) = 0.41425 -0.12510
#
# Static dielectric constant tensor:
#      x y z
#    x 1.850970 0.000000 -0.016460 
#    y 0.000000 1.813440 0.000000 
#    z -0.016460 0.000000 1.820910 
# 
# From -- ./inp_files/80022.got.cif
#   From: 2010.05.17/outbox.cif.g08.bks.cpg/sg14_41_cif.got.tgz:80022.got - 2010.06.03 17:49:19.
