data_PCOD9246296
_publ_section_title
;
Structure prediction by ZEFSAII (Michael W. Deem and Ramdas Pophale) SiO2 
 PCOD9246296
Probable space group: P 21/C
;
_chemical_formula_sum "Si O2"
_cell_formula_units_Z 32
_cell_length_a 5.842638
_cell_length_b 21.282978
_cell_length_c 11.394025
_cell_angle_alpha 90.000000
_cell_angle_beta 89.683440
_cell_angle_gamma 90.000000
_cell_volume 1416.810982
_symmetry_space_group_name_H-M "P 21/C"
_symmetry_group_IT_number 14
_symmetry_cell_setting 'monoclinic'
loop_
_space_group_symop_operation_xyz
x,y,z
-x,1/2+y,1/2-z
-x,-y,-z
x,1/2-y,1/2+z
loop_
_atom_site_type_symbol
_atom_site_label
_atom_site_fract_x
_atom_site_fract_y
_atom_site_fract_z
Si Si1 0.607270 0.785355 0.861618
Si Si2 0.661954 0.914316 0.298186
Si Si3 0.313325 0.898996 0.894110
Si Si4 0.048533 0.593953 0.622434
Si Si5 0.712225 0.192832 0.733818
Si Si6 0.087577 0.178726 0.543779
Si Si7 0.357062 0.484567 0.734747
Si Si8 0.950294 0.631679 0.212461
O O1 0.454116 0.836700 0.928441
O O2 0.447842 0.753678 0.761324
O O3 0.712673 0.730443 0.941200
O O4 0.814427 0.821743 0.799513
O O5 0.462907 0.863261 0.291751
O O6 0.794215 0.914205 0.172811
O O7 0.833590 0.886600 0.394185
O O8 0.543215 0.981044 0.316456
O O9 0.498674 0.952918 0.871032
O O10 0.188637 0.886519 0.771149
O O11 0.113398 0.913078 0.986986
O O12 0.131922 0.663586 0.663825
O O13 0.192664 0.539040 0.686209
O O14 0.876647 0.202455 0.622193
O O15 0.024831 0.164984 0.411568
O O16 0.207575 0.430470 0.794756
#
# Coordination Sequence:
#
# PCOD9246296 Si02
#       8
#     4   4   4   4   4   4   4   4
#     4  10  23  43  61  94 124 168 213 258 326 381
#     4   9  20  40  66  94 122 170 213 260 316 376
#     4  11  24  40  62  99 130 168 212 264 324 374
#     4  10  21  40  67  92 128 169 215 259 312 387
#     4   9  20  41  64  92 122 164 215 262 315 375
#     4  10  22  44  66  90 127 165 217 264 317 387
#     4  10  22  41  63  94 131 166 214 263 319 376
#     4  11  25  41  62  95 131 163 209 268 322 379
#
# _framework density 22.585937000000001
#
# number of rings (size 3 to 8) (size 9 to 14) (size 15 to 20)
#    0.000    2.000    0.000    1.875    1.750   10.500 
#   13.500    8.750    0.000    0.000    0.000    0.000 
#    0.000    0.000    0.000    0.000    0.000    0.000 
#
# Total GULP energy -178796.492749 kJ/mol
# GULP energy per Si atom -5587.390398 kJ/mol
# Density = 2.253453 g / cm^3
# Si number density = 22.585937 Si / 1000 Ang^3
#
#
#
# Elastic Constant Matrix: (Units=GPa)
#
#
# Indices 1 2 3 4 5 6 
#
# 1 80.8152 21.6048 7.1599 0.0000 -7.5542 0.0000
# 2 21.6048 85.2949 -5.1973 0.0000 2.1710 0.0000
# 3 7.1599 -5.1973 33.0265 0.0000 -7.8886 0.0000
# 4 0.0000 0.0000 0.0000 5.8930 0.0000 3.5147
# 5 -7.5542 2.1710 -7.8886 0.0000 14.1170 0.0000
# 6 0.0000 0.0000 0.0000 3.5147 0.0000 32.3703
#
#
#
# Elastic Compliance Matrix: (Units=1/GPa)
#
#
# Indices 1 2 3 4 5 6 
#
# 1 0.014264 -0.003916 -0.002010 0.000000 0.007112 0.000000
# 2 -0.003916 0.012923 0.002201 0.000000 -0.002853 0.000000
# 3 -0.002010 0.002201 0.035455 0.000000 0.018399 0.000000
# 4 0.000000 0.000000 0.000000 0.181441 0.000000 -0.019700
# 5 0.007112 -0.002853 0.018399 0.000000 0.085362 0.000000
# 6 0.000000 0.000000 0.000000 -0.019700 0.000000 0.033032
#
#
# Mechanical properties :
#
#
# Convention : Reuss Voigt Hill
#
# Bulk Modulus (GPa) = 18.11863 27.36350 22.74106
# Shear Modulus (GPa) = 12.87582 22.18068 17.52825
#
# Velocity S-wave (km/s) = 2.39023 3.13718 2.78882
# Velocity P-wave (km/s) = 3.95690 5.02634 4.52334
#
# Compressibility (1/GPa) = 0.05519182
#
# Stress axis : x y z
#
# Youngs Moduli (GPa) = 70.10770 77.38267 28.20440
#
# Poissons Ratio (x) = 0.30306 0.05669
# Poissons Ratio (y) = 0.27457 -0.06208
# Poissons Ratio (z) = 0.14091 -0.17033
#
# Static dielectric constant tensor:
#      x y z
#    x 1.820140 0.000000 0.020480 
#    y 0.000000 1.860070 0.000000 
#    z 0.020480 0.000000 1.813750 
# 
# From -- ./inp_files/21812.got.cif
#   From: 2010.05.17/outbox.cif.g08.bks.cpg/sg14_11_cif.got.tgz:21812.got - 2010.06.03 17:49:19.
