data_PCOD9246919
_publ_section_title
;
Structure prediction by ZEFSAII (Michael W. Deem and Ramdas Pophale) SiO2 
 PCOD9246919
Probable space group: P 21/C
;
_chemical_formula_sum "Si O2"
_cell_formula_units_Z 28
_cell_length_a 5.233246
_cell_length_b 20.093757
_cell_length_c 10.754560
_cell_angle_alpha 90.000000
_cell_angle_beta 104.314442
_cell_angle_gamma 90.000000
_cell_volume 1095.791312
_symmetry_space_group_name_H-M "P 21/C"
_symmetry_group_IT_number 14
_symmetry_cell_setting 'monoclinic'
loop_
_space_group_symop_operation_xyz
x,y,z
-x,1/2+y,1/2-z
-x,-y,-z
x,1/2-y,1/2+z
loop_
_atom_site_type_symbol
_atom_site_label
_atom_site_fract_x
_atom_site_fract_y
_atom_site_fract_z
Si Si1 0.063075 0.006114 0.215846
Si Si2 0.748377 0.697057 0.758801
Si Si3 0.451484 0.805467 0.598595
Si Si4 0.252315 0.627684 0.310378
Si Si5 0.972006 0.714630 0.469139
Si Si6 0.282468 0.075894 0.997320
Si Si7 0.689939 0.122564 0.665525
O O1 0.241674 0.955276 0.313816
O O2 0.950512 0.072641 0.264918
O O3 0.815994 0.963180 0.134113
O O4 0.207525 0.032577 0.109389
O O5 0.680137 0.750288 0.643054
O O6 0.741967 0.739949 0.885681
O O7 0.509394 0.645356 0.749417
O O8 0.032308 0.662204 0.791065
O O9 0.439148 0.849006 0.722363
O O10 0.436176 0.855269 0.480811
O O11 0.187477 0.759932 0.562387
O O12 0.416061 0.594909 0.443616
O O13 0.112228 0.689546 0.357472
O O14 0.873671 0.645822 0.515927
#
# Coordination Sequence:
#
# PCOD9246919 Si02
#       7
#     4   4   4   4   4   4   4
#     4  10  24  42  66  98 136 181 242 274 335 409
#     4  11  24  44  66 102 141 177 228 282 349 414
#     4  11  23  42  69  98 142 173 224 287 353 411
#     4  11  23  43  67  99 134 183 226 285 343 408
#     4  10  23  40  67 101 132 178 229 283 351 404
#     4  10  21  42  70  94 133 181 231 288 333 399
#     4  11  27  43  70 102 137 185 229 286 343 409
#
# _framework density 25.552312000000001
#
# number of rings (size 3 to 8) (size 9 to 14) (size 15 to 20)
#    0.000    1.429    1.429    3.000    4.000    5.143 
#    0.000    0.714    0.000    0.000    0.000    0.000 
#    0.000    0.000    0.000    0.000    0.000    0.000 
#
# Total GULP energy -156837.844429 kJ/mol
# GULP energy per Si atom -5601.351587 kJ/mol
# Density = 2.549415 g / cm^3
# Si number density = 25.552312 Si / 1000 Ang^3
#
#
#
# Elastic Constant Matrix: (Units=GPa)
#
#
# Indices 1 2 3 4 5 6 
#
# 1 69.6954 17.1670 -4.7801 0.0000 12.4229 0.0000
# 2 17.1670 72.6476 -2.5999 0.0000 -1.9191 0.0000
# 3 -4.7801 -2.5999 58.7829 0.0000 4.6221 0.0000
# 4 0.0000 0.0000 0.0000 31.3831 0.0000 -2.3603
# 5 12.4229 -1.9191 4.6221 0.0000 30.2216 0.0000
# 6 0.0000 0.0000 0.0000 -2.3603 0.0000 52.4518
#
#
#
# Elastic Compliance Matrix: (Units=1/GPa)
#
#
# Indices 1 2 3 4 5 6 
#
# 1 0.016807 -0.004105 0.001770 0.000000 -0.007440 0.000000
# 2 -0.004105 0.014808 0.000116 0.000000 0.002610 0.000000
# 3 0.001770 0.000116 0.017427 0.000000 -0.003386 0.000000
# 4 0.000000 0.000000 0.000000 0.031973 0.000000 0.001439
# 5 -0.007440 0.002610 -0.003386 0.000000 0.036831 0.000000
# 6 0.000000 0.000000 0.000000 0.001439 0.000000 0.019130
#
#
# Mechanical properties :
#
#
# Convention : Reuss Voigt Hill
#
# Bulk Modulus (GPa) = 22.41917 24.52221 23.47069
# Shear Modulus (GPa) = 31.99375 35.56721 33.78048
#
# Velocity S-wave (km/s) = 3.54232 3.73492 3.63989
# Velocity P-wave (km/s) = 5.05209 5.31198 5.18367
#
# Compressibility (1/GPa) = 0.04460468
#
# Stress axis : x y z
#
# Youngs Moduli (GPa) = 59.49989 67.53044 57.38209
#
# Poissons Ratio (x) = 0.27719 -0.10157
# Poissons Ratio (y) = 0.24423 -0.00665
# Poissons Ratio (z) = -0.10532 -0.00783
#
# Static dielectric constant tensor:
#      x y z
#    x 2.000120 0.000000 -0.018570 
#    y 0.000000 2.014800 0.000000 
#    z -0.018570 0.000000 2.059850 
# 
# From -- ./inp_files/21839.got.cif
#   From: 2010.05.17/outbox.cif.g08.bks.cpg/sg14_11_cif.got.tgz:21839.got - 2010.06.03 17:49:19.
