data_PCOD9246148
_publ_section_title
;
Structure prediction by ZEFSAII (Michael W. Deem and Ramdas Pophale) SiO2 
 PCOD9246148
Probable space group: P 21/C
;
_chemical_formula_sum "Si O2"
_cell_formula_units_Z 28
_cell_length_a 21.108388
_cell_length_b 5.494171
_cell_length_c 10.952726
_cell_angle_alpha 90.000000
_cell_angle_beta 109.693761
_cell_angle_gamma 90.000000
_cell_volume 1195.922759
_symmetry_space_group_name_H-M "P 21/C"
_symmetry_group_IT_number 14
_symmetry_cell_setting 'monoclinic'
loop_
_space_group_symop_operation_xyz
x,y,z
-x,1/2+y,1/2-z
-x,-y,-z
x,1/2-y,1/2+z
loop_
_atom_site_type_symbol
_atom_site_label
_atom_site_fract_x
_atom_site_fract_y
_atom_site_fract_z
Si Si1 0.856953 0.659024 0.251283
Si Si2 0.051530 0.799458 0.083844
Si Si3 0.706635 0.720463 0.236261
Si Si4 0.663048 0.290985 0.828220
Si Si5 0.523228 0.207558 0.108881
Si Si6 0.395514 0.060767 0.512154
Si Si7 0.084956 0.102669 0.461954
O O1 0.892903 0.397577 0.289121
O O2 0.778347 0.666672 0.223529
O O3 0.876547 0.723847 0.125324
O O4 0.889439 0.797182 0.389492
O O5 0.995639 0.629403 0.111074
O O6 0.089954 0.683528 0.993661
O O7 0.000000 0.000000 0.000000
O O8 0.686571 0.479732 0.304986
O O9 0.706016 0.982125 0.302793
O O10 0.650986 0.741717 0.094230
O O11 0.585142 0.341526 0.738603
O O12 0.655074 0.361460 0.964240
O O13 0.452682 0.290707 0.124121
O O14 0.559332 0.414604 0.053069
O O15 0.500000 0.000000 0.000000
#
# Coordination Sequence:
#
# PCOD9246148 Si02
#       7
#     4   4   4   4   4   4   4
#     4  11  26  43  73 103 141 196 235 300 362 439
#     4   9  22  42  68 106 138 182 231 296 359 424
#     4  11  27  46  64 104 137 186 236 281 356 431
#     4  11  26  44  69  95 137 182 231 285 352 425
#     4  10  21  40  63  99 126 171 228 288 347 418
#     4  10  24  41  67  96 138 173 228 294 352 421
#     4  10  24  45  72 105 145 181 245 298 362 431
#
# _framework density 23.412882
#
# number of rings (size 3 to 8) (size 9 to 14) (size 15 to 20)
#    0.000    1.714    1.429    0.000   14.000    1.143 
#    0.000    0.000    0.000    0.000    0.000    0.000 
#    0.000    0.000    0.000    0.000    0.000    0.000 
#
# Total GULP energy -155877.191503 kJ/mol
# GULP energy per Si atom -5567.042554 kJ/mol
# Density = 2.335959 g / cm^3
# Si number density = 23.412882 Si / 1000 Ang^3
#
#
#
# Elastic Constant Matrix: (Units=GPa)
#
#
# Indices 1 2 3 4 5 6 
#
# 1 118.0366 16.7133 22.4624 0.0000 -8.8066 0.0000
# 2 16.7133 55.2205 9.5835 0.0000 -5.5393 0.0000
# 3 22.4624 9.5835 38.8743 0.0000 -19.6280 0.0000
# 4 0.0000 0.0000 0.0000 31.4005 0.0000 -2.5458
# 5 -8.8066 -5.5393 -19.6280 0.0000 28.9033 0.0000
# 6 0.0000 0.0000 0.0000 -2.5458 0.0000 21.1381
#
#
#
# Elastic Compliance Matrix: (Units=1/GPa)
#
#
# Indices 1 2 3 4 5 6 
#
# 1 0.009774 -0.002085 -0.005831 0.000000 -0.001381 0.000000
# 2 -0.002085 0.019373 -0.003070 0.000000 0.000993 0.000000
# 3 -0.005831 -0.003070 0.043608 0.000000 0.027249 0.000000
# 4 0.000000 0.000000 0.000000 0.032161 0.000000 0.003873
# 5 -0.001381 0.000993 0.027249 0.000000 0.052872 0.000000
# 6 0.000000 0.000000 0.000000 0.003873 0.000000 0.047774
#
#
# Mechanical properties :
#
#
# Convention : Reuss Voigt Hill
#
# Bulk Modulus (GPa) = 19.69158 34.40553 27.04855
# Shear Modulus (GPa) = 20.45320 27.17987 23.81654
#
# Velocity S-wave (km/s) = 2.95886 3.41089 3.19288
# Velocity P-wave (km/s) = 4.48352 5.49902 5.01703
#
# Compressibility (1/GPa) = 0.05078313
#
# Stress axis : x y z
#
# Youngs Moduli (GPa) = 102.31537 51.61940 22.93150
#
# Poissons Ratio (x) = 0.10761 0.13371
# Poissons Ratio (y) = 0.21330 0.07040
# Poissons Ratio (z) = 0.59659 0.15847
#
# Static dielectric constant tensor:
#      x y z
#    x 1.873750 0.000000 0.001680 
#    y 0.000000 2.233010 0.000000 
#    z 0.001680 0.000000 2.050040 
# 
# From -- ./inp_files/34745.got.cif
#   From: 2010.05.17/outbox.cif.g08.bks.cpg/sg14_18_cif.got.tgz:34745.got - 2010.06.03 17:49:19.
