data_PCOD9246533
_publ_section_title
;
Structure prediction by ZEFSAII (Michael W. Deem and Ramdas Pophale) SiO2 
 PCOD9246533
Probable space group: P 21/C
;
_chemical_formula_sum "Si O2"
_cell_formula_units_Z 32
_cell_length_a 16.471915
_cell_length_b 8.633998
_cell_length_c 21.180990
_cell_angle_alpha 90.000000
_cell_angle_beta 25.066275
_cell_angle_gamma 90.000000
_cell_volume 1276.222016
_symmetry_space_group_name_H-M "P 21/C"
_symmetry_group_IT_number 14
_symmetry_cell_setting 'monoclinic'
loop_
_space_group_symop_operation_xyz
x,y,z
-x,1/2+y,1/2-z
-x,-y,-z
x,1/2-y,1/2+z
loop_
_atom_site_type_symbol
_atom_site_label
_atom_site_fract_x
_atom_site_fract_y
_atom_site_fract_z
Si Si1 0.844691 0.296186 0.418246
Si Si2 0.140471 0.434521 0.346871
Si Si3 0.869973 0.260144 0.694285
Si Si4 0.571510 0.039187 0.590035
Si Si5 0.145499 0.141004 0.402991
Si Si6 0.858613 0.978932 0.799103
Si Si7 0.522303 0.018321 0.199891
Si Si8 0.460827 0.210512 0.919199
O O1 0.909760 0.439961 0.329822
O O2 0.713686 0.374639 0.565730
O O3 0.689088 0.190797 0.490147
O O4 0.002257 0.162823 0.317007
O O5 0.132981 0.553496 0.293710
O O6 0.354360 0.441416 0.222391
O O7 0.111500 0.250805 0.366524
O O8 0.000000 0.500000 0.500000
O O9 0.861826 0.125383 0.750862
O O10 0.683163 0.229140 0.781497
O O11 0.067562 0.232038 0.518554
O O12 0.565119 0.014171 0.670183
O O13 0.635978 0.879089 0.513045
O O14 0.360495 0.093291 0.268176
O O15 0.000000 0.000000 0.500000
O O16 0.649561 0.904026 0.956295
O O17 0.563729 0.859291 0.133583
#
# Coordination Sequence:
#
# PCOD9246533 Si02
#       8
#     4   4   4   4   4   4   4   4
#     4  11  24  44  65  94 136 175 231 289 330 414
#     4   9  21  40  59  94 137 170 213 279 337 416
#     4  10  21  41  65  90 135 179 224 281 346 416
#     4  11  21  40  67  96 135 172 222 283 352 402
#     4  11  20  38  65  99 137 169 221 284 349 406
#     4  11  24  44  64  92 133 184 237 275 344 411
#     4  11  22  39  66 101 133 177 222 285 355 407
#     4  10  22  39  65  95 134 176 227 287 329 416
#
# _framework density 25.074006000000001
#
# number of rings (size 3 to 8) (size 9 to 14) (size 15 to 20)
#    0.000    1.500    2.500    2.625    0.000    0.000 
#    6.750    3.750    0.000    0.000    0.000    0.000 
#    0.000    0.000    0.000    0.000    0.000    0.000 
#
# Total GULP energy -178771.369099 kJ/mol
# GULP energy per Si atom -5586.605284 kJ/mol
# Density = 2.501694 g / cm^3
# Si number density = 25.074006 Si / 1000 Ang^3
#
#
#
# Elastic Constant Matrix: (Units=GPa)
#
#
# Indices 1 2 3 4 5 6 
#
# 1 59.9723 31.8192 16.5701 0.0000 -0.4223 0.0000
# 2 31.8192 137.1215 33.2897 0.0000 0.0598 0.0000
# 3 16.5701 33.2897 83.8651 0.0000 -10.3040 0.0000
# 4 0.0000 0.0000 0.0000 38.0538 0.0000 4.0124
# 5 -0.4223 0.0598 -10.3040 0.0000 19.9761 0.0000
# 6 0.0000 0.0000 0.0000 4.0124 0.0000 30.1335
#
#
#
# Elastic Compliance Matrix: (Units=1/GPa)
#
#
# Indices 1 2 3 4 5 6 
#
# 1 0.019408 -0.003927 -0.002375 0.000000 -0.000803 0.000000
# 2 -0.003927 0.008925 -0.002969 0.000000 -0.001641 0.000000
# 3 -0.002375 -0.002969 0.014484 0.000000 0.007430 0.000000
# 4 0.000000 0.000000 0.000000 0.026653 0.000000 -0.003549
# 5 -0.000803 -0.001641 0.007430 0.000000 0.053880 0.000000
# 6 0.000000 0.000000 0.000000 -0.003549 0.000000 0.033658
#
#
# Mechanical properties :
#
#
# Convention : Reuss Voigt Hill
#
# Bulk Modulus (GPa) = 41.18977 49.36854 45.27916
# Shear Modulus (GPa) = 27.22684 30.91799 29.07241
#
# Velocity S-wave (km/s) = 3.29881 3.51532 3.40878
# Velocity P-wave (km/s) = 5.56529 6.01735 5.79573
#
# Compressibility (1/GPa) = 0.02427787
#
# Stress axis : x y z
#
# Youngs Moduli (GPa) = 51.52443 112.03896 69.04004
#
# Poissons Ratio (x) = 0.43996 0.16394
# Poissons Ratio (y) = 0.20233 0.20496
# Poissons Ratio (z) = 0.12235 0.33261
#
# Static dielectric constant tensor:
#      x y z
#    x 2.976710 0.000000 0.601740 
#    y 0.000000 2.081250 0.000000 
#    z 0.601740 0.000000 2.295890 
# 
# From -- ./inp_files/77989.got.cif
#   From: 2010.05.17/outbox.cif.g08.bks.cpg/sg14_39_cif.got.tgz:77989.got - 2010.06.03 17:49:19.
