data_PCOD9246111
_publ_section_title
;
Structure prediction by ZEFSAII (Michael W. Deem and Ramdas Pophale) SiO2 
 PCOD9246111
Probable space group: P 21/C
;
_chemical_formula_sum "Si O2"
_cell_formula_units_Z 20
_cell_length_a 8.414923
_cell_length_b 7.357171
_cell_length_c 12.982767
_cell_angle_alpha 90.000000
_cell_angle_beta 104.354726
_cell_angle_gamma 90.000000
_cell_volume 778.669459
_symmetry_space_group_name_H-M "P 21/C"
_symmetry_group_IT_number 14
_symmetry_cell_setting 'monoclinic'
loop_
_space_group_symop_operation_xyz
x,y,z
-x,1/2+y,1/2-z
-x,-y,-z
x,1/2-y,1/2+z
loop_
_atom_site_type_symbol
_atom_site_label
_atom_site_fract_x
_atom_site_fract_y
_atom_site_fract_z
Si Si1 0.928782 0.072536 0.148738
Si Si2 0.683688 0.319085 0.458753
Si Si3 0.736476 0.480341 0.812426
Si Si4 0.069120 0.169132 0.374110
Si Si5 0.380699 0.247483 0.052476
O O1 0.856114 0.195189 0.047864
O O2 0.767083 0.031923 0.195414
O O3 0.064356 0.150802 0.248020
O O4 0.987514 0.877881 0.119420
O O5 0.669949 0.203691 0.352936
O O6 0.657766 0.534314 0.437757
O O7 0.547097 0.243870 0.515430
O O8 0.927525 0.472773 0.879828
O O9 0.635247 0.644251 0.843501
O O10 0.240560 0.160307 0.458080
#
# Coordination Sequence:
#
# PCOD9246111 Si02
#       5
#     4   4   4   4   4
#     4   9  22  39  58  96 125 162 215 262 303 375
#     4  10  22  42  62  89 132 161 209 262 312 376
#     4  10  22  39  65  90 122 169 208 253 322 372
#     4   9  21  38  61  89 126 161 213 259 308 369
#     4  10  21  40  63  88 121 167 209 260 315 372
#
# _framework density 25.684840000000001
#
# number of rings (size 3 to 8) (size 9 to 14) (size 15 to 20)
#    1.200    1.200    0.000    1.200    2.800    4.800 
#   10.800    0.000    0.000    0.000    0.000    0.000 
#    0.000    0.000    0.000    0.000    0.000    0.000 
#
# Total GULP energy -111761.944128 kJ/mol
# GULP energy per Si atom -5588.097206 kJ/mol
# Density = 2.562638 g / cm^3
# Si number density = 25.684840 Si / 1000 Ang^3
#
#
#
# Elastic Constant Matrix: (Units=GPa)
#
#
# Indices 1 2 3 4 5 6 
#
# 1 65.9271 46.6239 49.3559 0.0000 -17.2640 0.0000
# 2 46.6239 102.3786 28.5414 0.0000 -19.0767 0.0000
# 3 49.3559 28.5414 97.1400 0.0000 -19.8451 0.0000
# 4 0.0000 0.0000 0.0000 24.0875 0.0000 -9.1500
# 5 -17.2640 -19.0767 -19.8451 0.0000 49.6222 0.0000
# 6 0.0000 0.0000 0.0000 -9.1500 0.0000 43.0555
#
#
#
# Elastic Compliance Matrix: (Units=1/GPa)
#
#
# Indices 1 2 3 4 5 6 
#
# 1 0.033658 -0.011215 -0.013389 0.000000 0.002044 0.000000
# 2 -0.011215 0.014830 0.001860 0.000000 0.002544 0.000000
# 3 -0.013389 0.001860 0.017146 0.000000 0.002914 0.000000
# 4 0.000000 0.000000 0.000000 0.045161 0.000000 0.009598
# 5 0.002044 0.002544 0.002914 0.000000 0.023007 0.000000
# 6 0.000000 0.000000 0.000000 0.009598 0.000000 0.025265
#
#
# Mechanical properties :
#
#
# Convention : Reuss Voigt Hill
#
# Bulk Modulus (GPa) = 49.63250 57.16535 53.39892
# Shear Modulus (GPa) = 23.66651 32.74801 28.20726
#
# Velocity S-wave (km/s) = 3.03878 3.57458 3.31752
# Velocity P-wave (km/s) = 5.62831 6.27229 5.95900
#
# Compressibility (1/GPa) = 0.02014809
#
# Stress axis : x y z
#
# Youngs Moduli (GPa) = 29.71076 67.42994 58.32330
#
# Poissons Ratio (x) = 0.75620 0.78087
# Poissons Ratio (y) = 0.33319 -0.10850
# Poissons Ratio (z) = 0.39779 -0.12544
#
# Static dielectric constant tensor:
#      x y z
#    x 2.038040 0.000000 -0.022320 
#    y 0.000000 2.013630 0.000000 
#    z -0.022320 0.000000 2.023740 
# 
# From -- ./inp_files/38848.got.cif
#   From: 2010.05.17/outbox.cif.g08.bks.cpg/sg14_20_cif.got.tgz:38848.got - 2010.06.03 17:49:19.
