data_PCOD9246927
_publ_section_title
;
Structure prediction by ZEFSAII (Michael W. Deem and Ramdas Pophale) SiO2 
 PCOD9246927
Probable space group: P 21/C
;
_chemical_formula_sum "Si O2"
_cell_formula_units_Z 28
_cell_length_a 8.627975
_cell_length_b 9.927642
_cell_length_c 14.073018
_cell_angle_alpha 90.000000
_cell_angle_beta 115.058113
_cell_angle_gamma 90.000000
_cell_volume 1091.973917
_symmetry_space_group_name_H-M "P 21/C"
_symmetry_group_IT_number 14
_symmetry_cell_setting 'monoclinic'
loop_
_space_group_symop_operation_xyz
x,y,z
-x,1/2+y,1/2-z
-x,-y,-z
x,1/2-y,1/2+z
loop_
_atom_site_type_symbol
_atom_site_label
_atom_site_fract_x
_atom_site_fract_y
_atom_site_fract_z
Si Si1 0.670085 0.441268 0.836090
Si Si2 0.515633 0.191776 0.696492
Si Si3 0.075651 0.051652 0.739398
Si Si4 0.851838 0.696177 0.447526
Si Si5 0.191646 0.582244 0.457053
Si Si6 0.165004 0.173552 0.355635
Si Si7 0.563211 0.313085 0.986167
O O1 0.638865 0.295160 0.781807
O O2 0.515152 0.543161 0.770233
O O3 0.836312 0.512523 0.836742
O O4 0.665616 0.419976 0.948407
O O5 0.324174 0.256503 0.646337
O O6 0.569577 0.173180 0.600882
O O7 0.184765 0.975270 0.848975
O O8 0.898007 0.972165 0.693550
O O9 0.079870 0.206084 0.771920
O O10 0.816537 0.546676 0.478194
O O11 0.880899 0.790179 0.547291
O O12 0.027735 0.677302 0.435968
O O13 0.359441 0.668107 0.515306
O O14 0.368386 0.182533 0.401840
#
# Coordination Sequence:
#
# PCOD9246927 Si02
#       7
#     4   4   4   4   4   4   4
#     4  12  26  44  70 105 143 187 233 294 363 413
#     4  11  26  46  70 107 142 187 240 294 354 432
#     4  11  24  43  67 106 135 184 235 292 350 422
#     4   9  22  42  69  96 142 185 233 284 357 416
#     4  10  21  42  71 100 136 185 234 291 346 422
#     4  10  24  44  69 100 139 182 237 290 355 417
#     4  11  24  47  73 103 144 185 239 293 353 431
#
# _framework density 25.641638
#
# number of rings (size 3 to 8) (size 9 to 14) (size 15 to 20)
#    0.000    1.429    1.429    2.143    8.000    2.857 
#    5.143    3.571    0.000    0.000    0.000    0.000 
#    0.000    0.000    0.000    0.000    0.000    0.000 
#
# Total GULP energy -156953.633891 kJ/mol
# GULP energy per Si atom -5605.486925 kJ/mol
# Density = 2.558328 g / cm^3
# Si number density = 25.641638 Si / 1000 Ang^3
#
#
#
# Elastic Constant Matrix: (Units=GPa)
#
#
# Indices 1 2 3 4 5 6 
#
# 1 90.0422 30.6582 30.1185 0.0000 -11.1739 0.0000
# 2 30.6582 83.2389 33.9429 0.0000 2.9916 0.0000
# 3 30.1185 33.9429 72.4600 0.0000 -2.1089 0.0000
# 4 0.0000 0.0000 0.0000 47.9038 0.0000 6.2878
# 5 -11.1739 2.9916 -2.1089 0.0000 27.0033 0.0000
# 6 0.0000 0.0000 0.0000 6.2878 0.0000 43.4846
#
#
#
# Elastic Compliance Matrix: (Units=1/GPa)
#
#
# Indices 1 2 3 4 5 6 
#
# 1 0.014557 -0.003941 -0.004026 0.000000 0.006146 0.000000
# 2 -0.003941 0.016048 -0.005992 0.000000 -0.003877 0.000000
# 3 -0.004026 -0.005992 0.018293 0.000000 0.000427 0.000000
# 4 0.000000 0.000000 0.000000 0.021279 0.000000 -0.003077
# 5 0.006146 -0.003877 0.000427 0.000000 0.040038 0.000000
# 6 0.000000 0.000000 0.000000 -0.003077 0.000000 0.023442
#
#
# Mechanical properties :
#
#
# Convention : Reuss Voigt Hill
#
# Bulk Modulus (GPa) = 47.66297 48.35336 48.00817
# Shear Modulus (GPa) = 29.66152 33.74643 31.70398
#
# Velocity S-wave (km/s) = 3.40482 3.63172 3.52010
# Velocity P-wave (km/s) = 5.83829 6.04021 5.94010
#
# Compressibility (1/GPa) = 0.02098065
#
# Stress axis : x y z
#
# Youngs Moduli (GPa) = 68.69565 62.31353 54.66437
#
# Poissons Ratio (x) = 0.24557 0.22007
# Poissons Ratio (y) = 0.27072 0.32756
# Poissons Ratio (z) = 0.27656 0.37340
#
# Static dielectric constant tensor:
#      x y z
#    x 2.021110 0.000000 -0.030990 
#    y 0.000000 2.003440 0.000000 
#    z -0.030990 0.000000 1.997460 
# 
# From -- ./inp_files/55238.got.cif
#   From: 2010.05.17/outbox.cif.g08.bks.cpg/sg14_28_cif.got.tgz:55238.got - 2010.06.03 17:49:19.
