data_PCOD9246162
_publ_section_title
;
Structure prediction by ZEFSAII (Michael W. Deem and Ramdas Pophale) SiO2 
 PCOD9246162
Probable space group: P 21/C
;
_chemical_formula_sum "Si O2"
_cell_formula_units_Z 32
_cell_length_a 18.085215
_cell_length_b 13.144023
_cell_length_c 26.168894
_cell_angle_alpha 90.000000
_cell_angle_beta 163.939092
_cell_angle_gamma 90.000000
_cell_volume 1721.005501
_symmetry_space_group_name_H-M "P 21/C"
_symmetry_group_IT_number 14
_symmetry_cell_setting 'monoclinic'
loop_
_space_group_symop_operation_xyz
x,y,z
-x,1/2+y,1/2-z
-x,-y,-z
x,1/2-y,1/2+z
loop_
_atom_site_type_symbol
_atom_site_label
_atom_site_fract_x
_atom_site_fract_y
_atom_site_fract_z
Si Si1 0.054036 0.261042 0.705031
Si Si2 0.286354 0.343112 0.061441
Si Si3 0.412063 0.816008 0.667556
Si Si4 0.587504 0.912756 0.095670
Si Si5 0.899853 0.260398 0.716621
Si Si6 0.982152 0.018042 0.547904
Si Si7 0.477857 0.416901 0.940744
Si Si8 0.682729 0.988957 0.779292
O O1 0.184101 0.151744 0.780726
O O2 0.762543 0.254478 0.486365
O O3 0.047379 0.275531 0.760922
O O4 0.238973 0.341766 0.799110
O O5 0.416364 0.255738 0.182261
O O6 0.515997 0.411822 0.186930
O O7 0.124747 0.421850 0.990444
O O8 0.093488 0.289689 0.891844
O O9 0.211386 0.886923 0.567316
O O10 0.583137 0.893560 0.747033
O O11 0.723213 0.956003 0.236214
O O12 0.341733 0.840207 0.943290
O O13 0.500000 0.000000 0.000000
O O14 0.750886 0.150501 0.619417
O O15 0.000000 0.000000 0.500000
O O16 0.500000 0.500000 0.000000
O O17 0.399474 0.464676 0.833934
O O18 0.000000 0.000000 0.000000
#
# Coordination Sequence:
#
# PCOD9246162 Si02
#       8
#     4   4   4   4   4   4   4   4
#     4  10  22  40  64  89 122 166 211 247 323 377
#     4  11  24  41  65  95 127 165 218 262 321 380
#     4  10  23  43  62  90 126 169 211 259 317 378
#     4  10  21  40  64  90 123 161 205 260 314 371
#     4  11  23  41  64  94 127 168 207 266 316 379
#     4  10  23  41  63  94 124 162 212 263 313 375
#     4  11  24  41  65  97 129 167 213 262 321 386
#     4  11  24  44  67  92 132 172 213 270 320 379
#
# _framework density 18.593781
#
# number of rings (size 3 to 8) (size 9 to 14) (size 15 to 20)
#    0.000    1.500    2.500    1.500    3.500    4.000 
#    0.000    0.000    0.000    0.000    0.000    0.000 
#    0.000    0.000    0.000    0.000    0.000    0.000 
#
# Total GULP energy -178713.628609 kJ/mol
# GULP energy per Si atom -5584.800894 kJ/mol
# Density = 1.855146 g / cm^3
# Si number density = 18.593781 Si / 1000 Ang^3
#
#
#
# Elastic Constant Matrix: (Units=GPa)
#
#
# Indices 1 2 3 4 5 6 
#
# 1 116.1274 39.6411 55.1903 0.0000 -30.2985 0.0000
# 2 39.6411 81.2465 54.0454 0.0000 -24.4855 0.0000
# 3 55.1903 54.0454 149.6573 0.0000 -32.2105 0.0000
# 4 0.0000 0.0000 0.0000 26.9482 0.0000 -15.7836
# 5 -30.2985 -24.4855 -32.2105 0.0000 37.3788 0.0000
# 6 0.0000 0.0000 0.0000 -15.7836 0.0000 23.3741
#
#
#
# Elastic Compliance Matrix: (Units=1/GPa)
#
#
# Indices 1 2 3 4 5 6 
#
# 1 0.012180 -0.002582 -0.002208 0.000000 0.006279 0.000000
# 2 -0.002582 0.018308 -0.004332 0.000000 0.006167 0.000000
# 3 -0.002208 -0.004332 0.009901 0.000000 0.003904 0.000000
# 4 0.000000 0.000000 0.000000 0.061387 0.000000 0.041452
# 5 0.006279 0.006167 0.003904 0.000000 0.039247 0.000000
# 6 0.000000 0.000000 0.000000 0.041452 0.000000 0.070774
#
#
# Mechanical properties :
#
#
# Convention : Reuss Voigt Hill
#
# Bulk Modulus (GPa) = 45.15565 71.64276 58.39921
# Shear Modulus (GPa) = 21.05946 30.75051 25.90498
#
# Velocity S-wave (km/s) = 3.36907 4.07111 3.73662
# Velocity P-wave (km/s) = 6.28270 7.79184 7.07761
#
# Compressibility (1/GPa) = 0.02214562
#
# Stress axis : x y z
#
# Youngs Moduli (GPa) = 82.10079 54.62008 100.99985
#
# Poissons Ratio (x) = 0.14101 0.22301
# Poissons Ratio (y) = 0.21196 0.43755
# Poissons Ratio (z) = 0.18128 0.23662
#
# Static dielectric constant tensor:
#      x y z
#    x 1.604950 0.000000 0.002430 
#    y 0.000000 1.640170 0.000000 
#    z 0.002430 0.000000 1.652580 
# 
# From -- ./inp_files/68731.got.cif
#   From: 2010.05.17/outbox.cif.g08.bks.cpg/sg14_35_cif.got.tgz:68731.got - 2010.06.03 17:49:19.
