data_PCOD9246458
_publ_section_title
;
Structure prediction by ZEFSAII (Michael W. Deem and Ramdas Pophale) SiO2 
 PCOD9246458
Probable space group: P 21/C
;
_chemical_formula_sum "Si O2"
_cell_formula_units_Z 32
_cell_length_a 10.555740
_cell_length_b 20.016807
_cell_length_c 10.182001
_cell_angle_alpha 90.000000
_cell_angle_beta 133.322050
_cell_angle_gamma 90.000000
_cell_volume 1565.145996
_symmetry_space_group_name_H-M "P 21/C"
_symmetry_group_IT_number 14
_symmetry_cell_setting 'monoclinic'
loop_
_space_group_symop_operation_xyz
x,y,z
-x,1/2+y,1/2-z
-x,-y,-z
x,1/2-y,1/2+z
loop_
_atom_site_type_symbol
_atom_site_label
_atom_site_fract_x
_atom_site_fract_y
_atom_site_fract_z
Si Si1 0.722252 0.131928 0.002245
Si Si2 0.970622 0.494015 0.636071
Si Si3 0.255317 0.108834 0.044490
Si Si4 0.902503 0.745777 0.522926
Si Si5 0.879883 0.230357 0.564022
Si Si6 0.590688 0.319078 0.684482
Si Si7 0.655396 0.949001 0.624840
Si Si8 0.571024 0.677101 0.898097
O O1 0.539509 0.140032 0.795051
O O2 0.830112 0.063926 0.065306
O O3 0.832593 0.191531 0.015803
O O4 0.692463 0.152075 0.132409
O O5 0.894072 0.564838 0.632067
O O6 0.000000 0.500000 0.500000
O O7 0.165600 0.473470 0.817333
O O8 0.417487 0.136891 0.078797
O O9 0.321683 0.059742 0.203638
O O10 0.179149 0.173569 0.063742
O O11 0.752251 0.792506 0.475238
O O12 0.044281 0.727315 0.735963
O O13 0.977812 0.780585 0.447695
O O14 0.712631 0.186738 0.401356
O O15 0.531887 0.242124 0.620947
O O16 0.604400 0.877647 0.530790
O O17 0.500000 0.000000 0.500000
#
# Coordination Sequence:
#
# PCOD9246458 Si02
#       8
#     4   4   4   4   4   4   4   4
#     4  11  22  41  62  93 131 169 220 270 323 398
#     4  10  21  41  63  89 122 172 222 266 325 391
#     4  10  23  39  62  91 130 169 220 271 327 394
#     4  11  22  38  64  95 133 172 216 282 329 399
#     4  11  22  38  62  95 129 170 218 274 337 386
#     4  10  24  38  61  95 131 173 216 273 337 392
#     4  11  23  41  69  96 127 169 226 274 329 398
#     4  10  23  36  64  91 130 167 217 271 336 390
#
# _framework density 20.445378000000002
#
# number of rings (size 3 to 8) (size 9 to 14) (size 15 to 20)
#    0.000    1.500    1.250    4.500    8.750    2.500 
#    0.000    0.000    0.000    2.250    0.000    0.000 
#    0.000    0.000    0.000    0.000    0.000    0.000 
#
# Total GULP energy -178511.163442 kJ/mol
# GULP energy per Si atom -5578.473858 kJ/mol
# Density = 2.039884 g / cm^3
# Si number density = 20.445378 Si / 1000 Ang^3
#
#
#
# Elastic Constant Matrix: (Units=GPa)
#
#
# Indices 1 2 3 4 5 6 
#
# 1 76.0396 37.7702 11.1493 0.0000 18.2630 0.0000
# 2 37.7702 99.4845 22.0603 0.0000 24.8640 0.0000
# 3 11.1493 22.0603 70.3550 0.0000 14.3384 0.0000
# 4 0.0000 0.0000 0.0000 16.1399 0.0000 -9.4073
# 5 18.2630 24.8640 14.3384 0.0000 25.7093 0.0000
# 6 0.0000 0.0000 0.0000 -9.4073 0.0000 19.6674
#
#
#
# Elastic Compliance Matrix: (Units=1/GPa)
#
#
# Indices 1 2 3 4 5 6 
#
# 1 0.017336 -0.004658 0.000344 0.000000 -0.008002 0.000000
# 2 -0.004658 0.014700 -0.001859 0.000000 -0.009870 0.000000
# 3 0.000344 -0.001859 0.016275 0.000000 -0.007523 0.000000
# 4 0.000000 0.000000 0.000000 0.085909 0.000000 0.041092
# 5 -0.008002 -0.009870 -0.007523 0.000000 0.058322 0.000000
# 6 0.000000 0.000000 0.000000 0.041092 0.000000 0.070501
#
#
# Mechanical properties :
#
#
# Convention : Reuss Voigt Hill
#
# Bulk Modulus (GPa) = 27.80554 43.09320 35.44937
# Shear Modulus (GPa) = 17.39865 23.96326 20.68096
#
# Velocity S-wave (km/s) = 2.92032 3.42725 3.18389
# Velocity P-wave (km/s) = 5.00005 6.06502 5.55810
#
# Compressibility (1/GPa) = 0.03596406
#
# Stress axis : x y z
#
# Youngs Moduli (GPa) = 57.68244 68.02948 61.44264
#
# Poissons Ratio (x) = 0.31690 -0.02114
# Poissons Ratio (y) = 0.26870 0.11425
# Poissons Ratio (z) = -0.01985 0.12649
#
# Static dielectric constant tensor:
#      x y z
#    x 1.723820 0.000000 0.040520 
#    y 0.000000 1.766970 0.000000 
#    z 0.040520 0.000000 1.849020 
# 
# From -- ./inp_files/30479.got.cif
#   From: 2010.05.17/outbox.cif.g08.bks.cpg/sg14_16_cif.got.tgz:30479.got - 2010.06.03 17:49:19.
