data_PCOD9246601
_publ_section_title
;
Structure prediction by ZEFSAII (Michael W. Deem and Ramdas Pophale) SiO2 
 PCOD9246601
Probable space group: P 21/C
;
_chemical_formula_sum "Si O2"
_cell_formula_units_Z 28
_cell_length_a 8.283736
_cell_length_b 16.754318
_cell_length_c 16.755185
_cell_angle_alpha 90.000000
_cell_angle_beta 148.347235
_cell_angle_gamma 90.000000
_cell_volume 1220.313116
_symmetry_space_group_name_H-M "P 21/C"
_symmetry_group_IT_number 14
_symmetry_cell_setting 'monoclinic'
loop_
_space_group_symop_operation_xyz
x,y,z
-x,1/2+y,1/2-z
-x,-y,-z
x,1/2-y,1/2+z
loop_
_atom_site_type_symbol
_atom_site_label
_atom_site_fract_x
_atom_site_fract_y
_atom_site_fract_z
Si Si1 0.475940 0.187238 0.990354
Si Si2 0.318558 0.536873 0.525233
Si Si3 0.562350 0.916529 0.291679
Si Si4 0.546214 0.628169 0.051136
Si Si5 0.227827 0.911800 0.570503
Si Si6 0.874107 0.405649 0.260233
Si Si7 0.795623 0.102131 0.251072
O O1 0.641520 0.119622 0.005388
O O2 0.514169 0.277841 0.984156
O O3 0.124892 0.160107 0.844851
O O4 0.602668 0.173081 0.131733
O O5 0.327383 0.560326 0.622341
O O6 0.621423 0.479335 0.650087
O O7 0.048178 0.480904 0.375716
O O8 0.372462 0.872299 0.279685
O O9 0.889575 0.885262 0.395693
O O10 0.695631 0.994054 0.393905
O O11 0.491937 0.616716 0.122141
O O12 0.871141 0.607730 0.147976
O O13 0.300566 0.577927 0.895791
O O14 0.223789 0.889591 0.662004
#
# Coordination Sequence:
#
# PCOD9246601 Si02
#       7
#     4   4   4   4   4   4   4
#     4  11  25  45  64 103 141 181 233 285 349 427
#     4  10  23  43  70 100 137 180 239 290 337 412
#     4  10  21  41  67 108 134 171 240 287 339 407
#     4  12  25  44  72 100 140 186 228 281 363 411
#     4  10  23  41  68 105 138 172 234 291 336 414
#     4  11  22  42  71  97 134 185 226 289 339 406
#     4  10  22  46  69  98 138 184 233 285 344 409
#
# _framework density 22.944929999999999
#
# number of rings (size 3 to 8) (size 9 to 14) (size 15 to 20)
#    0.000    1.429    1.429    3.857    4.000    2.857 
#    5.143    0.000    0.000    0.000    0.000    0.000 
#    0.000    0.000    0.000    0.000    0.000    0.000 
#
# Total GULP energy -156368.349329 kJ/mol
# GULP energy per Si atom -5584.583905 kJ/mol
# Density = 2.289271 g / cm^3
# Si number density = 22.944930 Si / 1000 Ang^3
#
#
#
# Elastic Constant Matrix: (Units=GPa)
#
#
# Indices 1 2 3 4 5 6 
#
# 1 136.7416 26.8335 33.3031 0.0000 -4.0295 0.0000
# 2 26.8335 79.2257 20.0244 0.0000 -14.9738 0.0000
# 3 33.3031 20.0244 107.6032 0.0000 -3.3459 0.0000
# 4 0.0000 0.0000 0.0000 18.5737 0.0000 -2.3944
# 5 -4.0295 -14.9738 -3.3459 0.0000 30.5352 0.0000
# 6 0.0000 0.0000 0.0000 -2.3944 0.0000 18.0556
#
#
#
# Elastic Compliance Matrix: (Units=1/GPa)
#
#
# Indices 1 2 3 4 5 6 
#
# 1 0.008281 -0.002316 -0.002140 0.000000 -0.000278 0.000000
# 2 -0.002316 0.015197 -0.001896 0.000000 0.006939 0.000000
# 3 -0.002140 -0.001896 0.010306 0.000000 -0.000083 0.000000
# 4 0.000000 0.000000 0.000000 0.054776 0.000000 0.007264
# 5 -0.000278 0.006939 -0.000083 0.000000 0.036106 0.000000
# 6 0.000000 0.000000 0.000000 0.007264 0.000000 0.056348
#
#
# Mechanical properties :
#
#
# Convention : Reuss Voigt Hill
#
# Bulk Modulus (GPa) = 47.43891 53.76584 50.60237
# Shear Modulus (GPa) = 24.90725 29.66019 27.28372
#
# Velocity S-wave (km/s) = 3.29830 3.59927 3.45207
# Velocity P-wave (km/s) = 5.93507 6.38408 6.16366
#
# Compressibility (1/GPa) = 0.02107974
#
# Stress axis : x y z
#
# Youngs Moduli (GPa) = 120.76278 65.80159 97.03036
#
# Poissons Ratio (x) = 0.15240 0.20769
# Poissons Ratio (y) = 0.27970 0.18392
# Poissons Ratio (z) = 0.25849 0.12473
#
# Static dielectric constant tensor:
#      x y z
#    x 1.913310 0.000000 0.027890 
#    y 0.000000 1.859140 0.000000 
#    z 0.027890 0.000000 1.938710 
# 
# From -- ./inp_files/56159.got.cif
#   From: 2010.05.17/outbox.cif.g08.bks.cpg/sg14_29_cif.got.tgz:56159.got - 2010.06.03 17:49:19.
