data_PCOD9246730
_publ_section_title
;
Structure prediction by ZEFSAII (Michael W. Deem and Ramdas Pophale) SiO2 
 PCOD9246730
Probable space group: P 21/C
;
_chemical_formula_sum "Si O2"
_cell_formula_units_Z 26
_cell_length_a 11.855311
_cell_length_b 11.775286
_cell_length_c 13.871855
_cell_angle_alpha 90.000000
_cell_angle_beta 149.642396
_cell_angle_gamma 90.000000
_cell_volume 978.701487
_symmetry_space_group_name_H-M "P 21/C"
_symmetry_group_IT_number 14
_symmetry_cell_setting 'monoclinic'
loop_
_space_group_symop_operation_xyz
x,y,z
-x,1/2+y,1/2-z
-x,-y,-z
x,1/2-y,1/2+z
loop_
_atom_site_type_symbol
_atom_site_label
_atom_site_fract_x
_atom_site_fract_y
_atom_site_fract_z
Si Si1 0.717730 0.290151 0.538477
Si Si2 0.299494 0.956674 0.222426
Si Si3 0.040371 0.750925 0.970309
Si Si4 0.992928 0.423583 0.879527
Si Si5 0.389148 0.343961 0.926194
Si Si6 0.534138 0.013747 0.213021
Si Si7 0.500000 0.000000 0.000000
O O1 0.766146 0.243351 0.468300
O O2 0.941882 0.342748 0.749970
O O3 0.599778 0.198865 0.518046
O O4 0.546294 0.399733 0.409877
O O5 0.094202 0.872512 0.059959
O O6 0.512484 0.873539 0.397820
O O7 0.355112 0.023679 0.165391
O O8 0.300253 0.038546 0.313604
O O9 0.022865 0.658946 0.040183
O O10 0.812143 0.761198 0.743995
O O11 0.779513 0.505731 0.716561
O O12 0.226315 0.488649 0.063887
O O13 0.509003 0.092971 0.101936
#
# Coordination Sequence:
#
# PCOD9246730 Si02
#       7
#     4   4   4   4   4   4   2
#     4  10  22  38  61  92 120 161 217 251 311 383
#     4  10  23  39  65  89 133 159 209 263 318 374
#     4  11  22  39  65  89 122 169 209 260 320 370
#     4  11  21  41  63  87 129 164 205 264 313 371
#     4  11  21  41  61  94 123 165 210 261 310 383
#     4  10  21  42  62  89 123 168 197 266 316 366
#     4  10  24  38  60  92 126 158 218 252 308 386
#
# _framework density 26.565812999999999
#
# number of rings (size 3 to 8) (size 9 to 14) (size 15 to 20)
#    0.000    1.538    3.077    1.846    2.154    0.000 
#    0.000    1.538    0.000    0.000    0.000    0.000 
#    0.000    0.000    0.000    0.000    0.000    0.000 
#
# Total GULP energy -144995.184578 kJ/mol
# GULP energy per Si atom -5576.737868 kJ/mol
# Density = 2.650535 g / cm^3
# Si number density = 26.565813 Si / 1000 Ang^3
#
#
#
# Elastic Constant Matrix: (Units=GPa)
#
#
# Indices 1 2 3 4 5 6 
#
# 1 72.5470 0.6978 15.4515 0.0000 -14.7528 0.0000
# 2 0.6978 77.4707 14.0317 0.0000 2.8867 0.0000
# 3 15.4515 14.0317 190.7088 0.0000 -4.2857 0.0000
# 4 0.0000 0.0000 0.0000 40.7653 0.0000 -6.6875
# 5 -14.7528 2.8867 -4.2857 0.0000 34.3579 0.0000
# 6 0.0000 0.0000 0.0000 -6.6875 0.0000 28.5763
#
#
#
# Elastic Compliance Matrix: (Units=1/GPa)
#
#
# Indices 1 2 3 4 5 6 
#
# 1 0.015331 -0.000183 -0.001083 0.000000 0.006463 0.000000
# 2 -0.000183 0.013136 -0.000981 0.000000 -0.001304 0.000000
# 3 -0.001083 -0.000981 0.005410 0.000000 0.000292 0.000000
# 4 0.000000 0.000000 0.000000 0.025510 0.000000 0.005970
# 5 0.006463 -0.001304 0.000292 0.000000 0.032027 0.000000
# 6 0.000000 0.000000 0.000000 0.005970 0.000000 0.036391
#
#
# Mechanical properties :
#
#
# Convention : Reuss Voigt Hill
#
# Bulk Modulus (GPa) = 34.03347 44.56539 39.29943
# Shear Modulus (GPa) = 35.18810 41.44293 38.31552
#
# Velocity S-wave (km/s) = 3.64340 3.95398 3.80186
# Velocity P-wave (km/s) = 5.52612 6.13654 5.83931
#
# Compressibility (1/GPa) = 0.02938284
#
# Stress axis : x y z
#
# Youngs Moduli (GPa) = 65.22734 76.12638 184.83867
#
# Poissons Ratio (x) = 0.01391 0.20026
# Poissons Ratio (y) = 0.01192 0.18133
# Poissons Ratio (z) = 0.07067 0.07468
#
# Static dielectric constant tensor:
#      x y z
#    x 1.722490 0.000000 0.281720 
#    y 0.000000 1.777080 0.000000 
#    z 0.281720 0.000000 1.966130 
# 
# From -- ./inp_files/30408.got.cif
#   From: 2010.05.17/outbox.cif.g08.bks.cpg/sg14_16_cif.got.tgz:30408.got - 2010.06.03 17:49:19.
