data_PCOD9246554
_publ_section_title
;
Structure prediction by ZEFSAII (Michael W. Deem and Ramdas Pophale) SiO2 
 PCOD9246554
Probable space group: P 21/C
;
_chemical_formula_sum "Si O2"
_cell_formula_units_Z 32
_cell_length_a 11.693677
_cell_length_b 15.758403
_cell_length_c 13.988175
_cell_angle_alpha 90.000000
_cell_angle_beta 147.985179
_cell_angle_gamma 90.000000
_cell_volume 1366.513080
_symmetry_space_group_name_H-M "P 21/C"
_symmetry_group_IT_number 14
_symmetry_cell_setting 'monoclinic'
loop_
_space_group_symop_operation_xyz
x,y,z
-x,1/2+y,1/2-z
-x,-y,-z
x,1/2-y,1/2+z
loop_
_atom_site_type_symbol
_atom_site_label
_atom_site_fract_x
_atom_site_fract_y
_atom_site_fract_z
Si Si1 0.180673 0.233809 0.800555
Si Si2 0.410431 0.662238 0.840906
Si Si3 0.454144 0.647533 0.646314
Si Si4 0.708467 0.687642 0.297484
Si Si5 0.700474 0.554711 0.677636
Si Si6 0.806900 0.514718 0.283638
Si Si7 0.968361 0.429324 0.756417
Si Si8 0.977704 0.250357 0.835684
O O1 0.118753 0.270927 0.654051
O O2 0.293506 0.144099 0.871895
O O3 0.977958 0.224799 0.725076
O O4 0.359659 0.300392 0.964390
O O5 0.414782 0.650990 0.730423
O O6 0.333359 0.570397 0.823736
O O7 0.234448 0.728123 0.756959
O O8 0.518441 0.743470 0.661105
O O9 0.647395 0.584635 0.747868
O O10 0.247501 0.609529 0.446165
O O11 0.674969 0.592943 0.237568
O O12 0.825966 0.695441 0.481618
O O13 0.500000 0.500000 0.500000
O O14 0.907681 0.503715 0.787424
O O15 0.000000 0.500000 0.500000
O O16 0.896196 0.539389 0.240725
O O17 0.038452 0.349338 0.871569
#
# Coordination Sequence:
#
# PCOD9246554 Si02
#       8
#     4   4   4   4   4   4   4   4
#     4  11  24  44  65  97 139 177 225 294 349 414
#     4  12  24  41  72 103 133 185 235 286 358 420
#     4  10  21  41  65  95 139 175 229 287 343 427
#     4  11  23  43  65  97 137 182 229 290 353 413
#     4   9  20  38  66  92 129 175 226 276 339 411
#     4  12  23  41  70 101 137 182 243 298 350 424
#     4  11  22  43  68 101 136 183 240 291 344 427
#     4  12  23  41  70  97 137 182 226 287 356 417
#
# _framework density 23.417266000000001
#
# number of rings (size 3 to 8) (size 9 to 14) (size 15 to 20)
#    0.000    1.000    5.000    3.000    0.000    0.500 
#    2.250    2.500    0.000    0.000    0.000    0.000 
#    0.000    0.000    0.000    0.000    0.000    0.000 
#
# Total GULP energy -178635.737093 kJ/mol
# GULP energy per Si atom -5582.366784 kJ/mol
# Density = 2.336397 g / cm^3
# Si number density = 23.417266 Si / 1000 Ang^3
#
#
#
# Elastic Constant Matrix: (Units=GPa)
#
#
# Indices 1 2 3 4 5 6 
#
# 1 173.4582 63.6164 19.4394 0.0000 -0.4652 0.0000
# 2 63.6164 159.2853 7.4850 0.0000 9.7581 0.0000
# 3 19.4394 7.4850 33.6955 0.0000 3.8470 0.0000
# 4 0.0000 0.0000 0.0000 36.3170 0.0000 7.3731
# 5 -0.4652 9.7581 3.8470 0.0000 23.1826 0.0000
# 6 0.0000 0.0000 0.0000 7.3731 0.0000 48.7242
#
#
#
# Elastic Compliance Matrix: (Units=1/GPa)
#
#
# Indices 1 2 3 4 5 6 
#
# 1 0.007231 -0.002831 -0.003767 0.000000 0.001962 0.000000
# 2 -0.002831 0.007596 0.000324 0.000000 -0.003308 0.000000
# 3 -0.003767 0.000324 0.032417 0.000000 -0.005591 0.000000
# 4 0.000000 0.000000 0.000000 0.028408 0.000000 -0.004299
# 5 0.001962 -0.003308 -0.005591 0.000000 0.045495 0.000000
# 6 0.000000 0.000000 0.000000 -0.004299 0.000000 0.021174
#
#
# Mechanical properties :
#
#
# Convention : Reuss Voigt Hill
#
# Bulk Modulus (GPa) = 28.82197 60.83561 44.82879
# Shear Modulus (GPa) = 30.04173 40.03797 35.03985
#
# Velocity S-wave (km/s) = 3.58563 4.13941 3.87243
# Velocity P-wave (km/s) = 5.42927 6.99154 6.25934
#
# Compressibility (1/GPa) = 0.03469576
#
# Stress axis : x y z
#
# Youngs Moduli (GPa) = 138.29802 131.64523 30.84794
#
# Poissons Ratio (x) = 0.37269 0.11619
# Poissons Ratio (y) = 0.39153 -0.00998
# Poissons Ratio (z) = 0.52092 -0.04259
#
# Static dielectric constant tensor:
#      x y z
#    x 1.944420 0.000000 0.010220 
#    y 0.000000 1.892970 0.000000 
#    z 0.010220 0.000000 1.923500 
# 
# From -- ./inp_files/45123.got.cif
#   From: 2010.05.17/outbox.cif.g08.bks.cpg/sg14_23_cif.got.tgz:45123.got - 2010.06.03 17:49:19.
