data_PCOD9246682
_publ_section_title
;
Structure prediction by ZEFSAII (Michael W. Deem and Ramdas Pophale) SiO2 
 PCOD9246682
Probable space group: P 21/C
;
_chemical_formula_sum "Si O2"
_cell_formula_units_Z 20
_cell_length_a 15.519278
_cell_length_b 7.807241
_cell_length_c 18.930736
_cell_angle_alpha 90.000000
_cell_angle_beta 160.367573
_cell_angle_gamma 90.000000
_cell_volume 770.648032
_symmetry_space_group_name_H-M "P 21/C"
_symmetry_group_IT_number 14
_symmetry_cell_setting 'monoclinic'
loop_
_space_group_symop_operation_xyz
x,y,z
-x,1/2+y,1/2-z
-x,-y,-z
x,1/2-y,1/2+z
loop_
_atom_site_type_symbol
_atom_site_label
_atom_site_fract_x
_atom_site_fract_y
_atom_site_fract_z
Si Si1 0.884926 0.336516 0.955441
Si Si2 0.982054 0.696396 0.576344
Si Si3 0.769287 0.955389 0.177888
Si Si4 0.014781 0.531858 0.288468
Si Si5 0.381358 0.646928 0.105780
O O1 0.668112 0.371151 0.847098
O O2 0.856709 0.198290 0.872259
O O3 0.121816 0.302953 0.190892
O O4 0.000000 0.500000 0.000000
O O5 0.029451 0.551526 0.670012
O O6 0.063765 0.872169 0.679337
O O7 0.679352 0.685693 0.324400
O O8 0.797294 0.918427 0.117766
O O9 0.500000 0.000000 0.000000
O O10 0.201773 0.694763 0.442829
O O11 0.743254 0.509067 0.035995
#
# Coordination Sequence:
#
# PCOD9246682 Si02
#       5
#     4   4   4   4   4
#     4   9  22  41  66  96 131 183 235 280 345 426
#     4  11  24  40  71 101 138 180 236 292 348 417
#     4  10  21  41  70  99 132 185 241 279 341 422
#     4  11  24  42  68 101 144 180 228 298 351 419
#     4  11  25  44  70 102 142 185 236 291 358 415
#
# _framework density 25.952185
#
# number of rings (size 3 to 8) (size 9 to 14) (size 15 to 20)
#    0.000    1.600    2.000    1.200   14.000    0.800 
#    0.000    1.000    0.000    0.000    0.000    0.000 
#    0.000    0.000    0.000    0.000    0.000    0.000 
#
# Total GULP energy -111442.530361 kJ/mol
# GULP energy per Si atom -5572.126518 kJ/mol
# Density = 2.589312 g / cm^3
# Si number density = 25.952185 Si / 1000 Ang^3
#
#
#
# Elastic Constant Matrix: (Units=GPa)
#
#
# Indices 1 2 3 4 5 6 
#
# 1 148.5759 34.7852 26.9383 0.0000 -7.7039 0.0000
# 2 34.7852 83.1801 28.5097 0.0000 -8.9245 0.0000
# 3 26.9383 28.5097 134.5973 0.0000 -4.2232 0.0000
# 4 0.0000 0.0000 0.0000 30.9829 0.0000 3.4067
# 5 -7.7039 -8.9245 -4.2232 0.0000 37.2937 0.0000
# 6 0.0000 0.0000 0.0000 3.4067 0.0000 19.7893
#
#
#
# Elastic Compliance Matrix: (Units=1/GPa)
#
#
# Indices 1 2 3 4 5 6 
#
# 1 0.007586 -0.002776 -0.000905 0.000000 0.000800 0.000000
# 2 -0.002776 0.014278 -0.002388 0.000000 0.002573 0.000000
# 3 -0.000905 -0.002388 0.008122 0.000000 0.000161 0.000000
# 4 0.000000 0.000000 0.000000 0.032899 0.000000 -0.005663
# 5 0.000800 0.002573 0.000161 0.000000 0.027613 0.000000
# 6 0.000000 0.000000 0.000000 -0.005663 0.000000 0.051507
#
#
# Mechanical properties :
#
#
# Convention : Reuss Voigt Hill
#
# Bulk Modulus (GPa) = 56.03273 60.75774 58.39524
# Shear Modulus (GPa) = 31.23199 36.02118 33.62658
#
# Velocity S-wave (km/s) = 3.47283 3.72961 3.60351
# Velocity P-wave (km/s) = 6.14153 6.48142 6.31376
#
# Compressibility (1/GPa) = 0.01784671
#
# Stress axis : x y z
#
# Youngs Moduli (GPa) = 131.81858 70.03965 123.12915
#
# Poissons Ratio (x) = 0.19446 0.11145
# Poissons Ratio (y) = 0.36598 0.29401
# Poissons Ratio (z) = 0.11931 0.16724
#
# Static dielectric constant tensor:
#      x y z
#    x 2.204300 0.000000 -0.123020 
#    y 0.000000 2.290480 0.000000 
#    z -0.123020 0.000000 2.727130 
# 
# From -- ./inp_files/68279.got.cif
#   From: 2010.05.17/outbox.cif.g08.bks.cpg/sg14_35_cif.got.tgz:68279.got - 2010.06.03 17:49:19.
