data_PCOD9246249
_publ_section_title
;
Structure prediction by ZEFSAII (Michael W. Deem and Ramdas Pophale) SiO2 
 PCOD9246249
Probable space group: P 21/C
;
_chemical_formula_sum "Si O2"
_cell_formula_units_Z 18
_cell_length_a 16.490400
_cell_length_b 6.138485
_cell_length_c 8.596559
_cell_angle_alpha 90.000000
_cell_angle_beta 131.951840
_cell_angle_gamma 90.000000
_cell_volume 647.170790
_symmetry_space_group_name_H-M "P 21/C"
_symmetry_group_IT_number 14
_symmetry_cell_setting 'monoclinic'
loop_
_space_group_symop_operation_xyz
x,y,z
-x,1/2+y,1/2-z
-x,-y,-z
x,1/2-y,1/2+z
loop_
_atom_site_type_symbol
_atom_site_label
_atom_site_fract_x
_atom_site_fract_y
_atom_site_fract_z
Si Si1 0.500000 0.500000 0.000000
Si Si2 0.355056 0.075465 0.784957
Si Si3 0.334445 0.781299 0.052679
Si Si4 0.121091 0.251253 0.082211
Si Si5 0.103449 0.566334 0.337592
O O1 0.445461 0.250181 0.944028
O O2 0.405643 0.558781 0.748978
O O3 0.236441 0.180428 0.656919
O O4 0.369830 0.967529 0.632195
O O5 0.349514 0.871752 0.899243
O O6 0.207352 0.787620 0.934222
O O7 0.121668 0.352229 0.253463
O O8 0.013336 0.348994 0.862800
O O9 0.108809 0.997029 0.025851
#
# Coordination Sequence:
#
# PCOD9246249 Si02
#       5
#     2   4   4   4   4
#     4  12  26  48  72 108 150 204 252 322 376 474
#     4  11  26  47  75 110 150 201 261 317 394 454
#     4  11  26  45  73 108 147 201 257 322 381 463
#     4  10  21  40  66 104 145 196 248 314 379 458
#     4  10  21  40  66 101 149 193 252 309 383 450
#
# _framework density 27.813368000000001
#
# number of rings (size 3 to 8) (size 9 to 14) (size 15 to 20)
#    0.000    1.333    2.222    2.000    3.111    4.444 
#    0.000    0.000    0.000    0.000    0.000    0.000 
#    0.000    0.000    0.000    0.000    0.444    0.000 
#
# Total GULP energy -100444.415025 kJ/mol
# GULP energy per Si atom -5580.245279 kJ/mol
# Density = 2.775006 g / cm^3
# Si number density = 27.813368 Si / 1000 Ang^3
#
#
#
# Elastic Constant Matrix: (Units=GPa)
#
#
# Indices 1 2 3 4 5 6 
#
# 1 84.5714 79.2376 51.7353 0.0000 78.4074 0.0000
# 2 79.2376 59.6562 36.9968 0.0000 -33.0502 0.0000
# 3 51.7353 36.9968 146.8794 0.0000 32.0136 0.0000
# 4 0.0000 0.0000 0.0000 69.5585 0.0000 -19.4847
# 5 78.4074 -33.0502 32.0136 0.0000 26.1859 0.0000
# 6 0.0000 0.0000 0.0000 -19.4847 0.0000 27.5887
#
#
#
# Elastic Compliance Matrix: (Units=1/GPa)
#
#
# Indices 1 2 3 4 5 6 
#
# 1 0.000999 0.005565 -0.003589 0.000000 0.008421 0.000000
# 2 0.005565 0.004461 -0.000926 0.000000 -0.009900 0.000000
# 3 -0.003589 -0.000926 0.008477 0.000000 -0.000787 0.000000
# 4 0.000000 0.000000 0.000000 0.017922 0.000000 0.012657
# 5 0.008421 -0.009900 -0.000787 0.000000 0.001440 0.000000
# 6 0.000000 0.000000 0.000000 0.012657 0.000000 0.045186
#
#
# Mechanical properties :
#
#
# Convention : Reuss Voigt Hill
#
# Bulk Modulus (GPa) = 62.35769 69.67181 66.01475
# Shear Modulus (GPa) = 61.17628 32.87579 47.02604
#
# Velocity S-wave (km/s) = 4.69500 3.44177 4.11636
# Velocity P-wave (km/s) = 7.20135 6.39520 6.81021
#
# Compressibility (1/GPa) = 0.01603651
#
# Stress axis : x y z
#
# Youngs Moduli (GPa) = 1001.44847 224.15618 117.96474
#
# Poissons Ratio (x) = -1.24738 0.42336
# Poissons Ratio (y) = -5.57286 0.10925
# Poissons Ratio (z) = 3.59407 0.20759
#
# Static dielectric constant tensor:
#      x y z
#    x 2.278110 0.000000 -0.060960 
#    y 0.000000 2.998660 0.000000 
#    z -0.060960 0.000000 2.104930 
# 
# From -- ./inp_files/17331.got.cif
#   From: 2010.05.17/outbox.cif.g08.bks.cpg/sg14_9_cif.got.tgz:17331.got - 2010.06.03 17:49:19.
