data_PCOD9246322
_publ_section_title
;
Structure prediction by ZEFSAII (Michael W. Deem and Ramdas Pophale) SiO2 
 PCOD9246322
Probable space group: P 21/C
;
_chemical_formula_sum "Si O2"
_cell_formula_units_Z 32
_cell_length_a 15.167919
_cell_length_b 11.166182
_cell_length_c 10.596065
_cell_angle_alpha 90.000000
_cell_angle_beta 52.825005
_cell_angle_gamma 90.000000
_cell_volume 1429.951175
_symmetry_space_group_name_H-M "P 21/C"
_symmetry_group_IT_number 14
_symmetry_cell_setting 'monoclinic'
loop_
_space_group_symop_operation_xyz
x,y,z
-x,1/2+y,1/2-z
-x,-y,-z
x,1/2-y,1/2+z
loop_
_atom_site_type_symbol
_atom_site_label
_atom_site_fract_x
_atom_site_fract_y
_atom_site_fract_z
Si Si1 0.837220 0.245188 0.523619
Si Si2 0.883628 0.518551 0.539651
Si Si3 0.460429 0.222506 0.059071
Si Si4 0.345759 0.053506 0.763461
Si Si5 0.408796 0.791297 0.795416
Si Si6 0.948276 0.765205 0.802990
Si Si7 0.749933 0.623894 0.379915
Si Si8 0.076145 0.920555 0.343849
O O1 0.857410 0.387949 0.503176
O O2 0.711987 0.229957 0.586478
O O3 0.861308 0.188948 0.639760
O O4 0.936917 0.189585 0.356516
O O5 0.770009 0.541216 0.710933
O O6 0.907927 0.636889 0.437464
O O7 0.000000 0.500000 0.500000
O O8 0.424398 0.358097 0.121758
O O9 0.532431 0.190543 0.120185
O O10 0.346587 0.148302 0.137563
O O11 0.524510 0.219352 0.870321
O O12 0.392268 0.922977 0.750907
O O13 0.310508 0.107431 0.931791
O O14 0.842562 0.769873 0.801834
O O15 0.985517 0.640348 0.830291
O O16 0.825773 0.507198 0.288887
O O17 0.000000 0.000000 0.500000
#
# Coordination Sequence:
#
# PCOD9246322 Si02
#       8
#     4   4   4   4   4   4   4   4
#     4  11  25  43  69 105 143 193 238 309 362 448
#     4  10  21  40  68 100 140 190 226 303 372 438
#     4  12  26  50  75 106 143 201 248 314 363 446
#     4  10  24  46  71 105 141 186 253 307 370 441
#     4  11  27  47  77 102 146 194 258 304 369 435
#     4  11  23  43  69 103 148 181 241 295 377 448
#     4  11  26  45  72 108 148 192 242 315 375 443
#     4  12  25  42  67 110 150 187 240 293 381 457
#
# _framework density 22.378385999999999
#
# number of rings (size 3 to 8) (size 9 to 14) (size 15 to 20)
#    0.000    1.000    3.750    2.625    8.750    1.500 
#    0.000    2.500    0.000    0.000    0.000    0.000 
#    0.000    0.000    0.000    0.000    0.000    0.000 
#
# Total GULP energy -178450.222943 kJ/mol
# GULP energy per Si atom -5576.569467 kJ/mol
# Density = 2.232745 g / cm^3
# Si number density = 22.378386 Si / 1000 Ang^3
#
#
#
# Elastic Constant Matrix: (Units=GPa)
#
#
# Indices 1 2 3 4 5 6 
#
# 1 142.8795 28.7424 47.3510 0.0000 -28.0739 0.0000
# 2 28.7424 73.8753 18.1200 0.0000 -9.1584 0.0000
# 3 47.3510 18.1200 93.8059 0.0000 -17.0900 0.0000
# 4 0.0000 0.0000 0.0000 38.1243 0.0000 -3.5773
# 5 -28.0739 -9.1584 -17.0900 0.0000 30.4298 0.0000
# 6 0.0000 0.0000 0.0000 -3.5773 0.0000 40.9315
#
#
#
# Elastic Compliance Matrix: (Units=1/GPa)
#
#
# Indices 1 2 3 4 5 6 
#
# 1 0.009834 -0.002195 -0.003350 0.000000 0.006530 0.000000
# 2 -0.002195 0.014958 -0.001482 0.000000 0.001645 0.000000
# 3 -0.003350 -0.001482 0.013360 0.000000 0.003967 0.000000
# 4 0.000000 0.000000 0.000000 0.026447 0.000000 0.002311
# 5 0.006530 0.001645 0.003967 0.000000 0.041610 0.000000
# 6 0.000000 0.000000 0.000000 0.002311 0.000000 0.024633
#
#
# Mechanical properties :
#
#
# Convention : Reuss Voigt Hill
#
# Bulk Modulus (GPa) = 41.49667 55.44305 48.46986
# Shear Modulus (GPa) = 32.69514 36.32026 34.50770
#
# Velocity S-wave (km/s) = 3.82647 4.03303 3.93110
# Velocity P-wave (km/s) = 6.17300 6.82027 6.50469
#
# Compressibility (1/GPa) = 0.02409832
#
# Stress axis : x y z
#
# Youngs Moduli (GPa) = 101.69000 66.85576 74.84866
#
# Poissons Ratio (x) = 0.14673 0.25076
# Poissons Ratio (y) = 0.22318 0.11091
# Poissons Ratio (z) = 0.34068 0.09907
#
# Static dielectric constant tensor:
#      x y z
#    x 1.937500 0.000000 0.040350 
#    y 0.000000 1.812710 0.000000 
#    z 0.040350 0.000000 1.888050 
# 
# From -- ./inp_files/32362.got.cif
#   From: 2010.05.17/outbox.cif.g08.bks.cpg/sg14_17_cif.got.tgz:32362.got - 2010.06.03 17:49:19.
