data_PCOD9246948
_publ_section_title
;
Structure prediction by ZEFSAII (Michael W. Deem and Ramdas Pophale) SiO2 
 PCOD9246948
Probable space group: P 21/C
;
_chemical_formula_sum "Si O2"
_cell_formula_units_Z 20
_cell_length_a 12.326122
_cell_length_b 13.824612
_cell_length_c 10.664900
_cell_angle_alpha 90.000000
_cell_angle_beta 153.652327
_cell_angle_gamma 90.000000
_cell_volume 806.566342
_symmetry_space_group_name_H-M "P 21/C"
_symmetry_group_IT_number 14
_symmetry_cell_setting 'monoclinic'
loop_
_space_group_symop_operation_xyz
x,y,z
-x,1/2+y,1/2-z
-x,-y,-z
x,1/2-y,1/2+z
loop_
_atom_site_type_symbol
_atom_site_label
_atom_site_fract_x
_atom_site_fract_y
_atom_site_fract_z
Si Si1 0.737273 0.020222 0.163534
Si Si2 0.945009 0.792594 0.774353
Si Si3 0.216164 0.756446 0.809984
Si Si4 0.402390 0.364114 0.916457
Si Si5 0.806912 0.006205 0.966386
O O1 0.705872 0.132854 0.096498
O O2 0.748974 0.965440 0.043181
O O3 0.000000 0.000000 0.500000
O O4 0.500000 0.000000 0.000000
O O5 0.028375 0.745107 0.731253
O O6 0.680615 0.786798 0.564923
O O7 0.106360 0.753708 0.056642
O O8 0.989785 0.909826 0.806628
O O9 0.442437 0.683473 0.034897
O O10 0.174615 0.420889 0.616301
O O11 0.574261 0.436386 0.170976
#
# Coordination Sequence:
#
# PCOD9246948 Si02
#       5
#     4   4   4   4   4
#     4  11  27  45  68  99 145 184 233 290 354 427
#     4  10  22  40  66  96 143 177 236 290 354 415
#     4  10  25  41  63 104 131 185 233 288 350 424
#     4  10  21  42  73  95 139 177 234 298 348 422
#     4   9  22  42  66 104 129 183 239 283 355 423
#
# _framework density 24.796471
#
# number of rings (size 3 to 8) (size 9 to 14) (size 15 to 20)
#    0.000    2.000    0.000    0.600   11.200    4.800 
#    0.000    0.000    0.000    0.000    0.000    0.000 
#    0.000    0.000    0.000    0.000    0.000    0.000 
#
# Total GULP energy -111638.489480 kJ/mol
# GULP energy per Si atom -5581.924474 kJ/mol
# Density = 2.474003 g / cm^3
# Si number density = 24.796471 Si / 1000 Ang^3
#
#
#
# Elastic Constant Matrix: (Units=GPa)
#
#
# Indices 1 2 3 4 5 6 
#
# 1 223.5933 40.3726 36.4872 0.0000 8.8878 0.0000
# 2 40.3726 41.3234 18.5794 0.0000 -8.8118 0.0000
# 3 36.4872 18.5794 60.1129 0.0000 7.7685 0.0000
# 4 0.0000 0.0000 0.0000 26.6127 0.0000 1.6053
# 5 8.8878 -8.8118 7.7685 0.0000 33.6007 0.0000
# 6 0.0000 0.0000 0.0000 1.6053 0.0000 44.6479
#
#
#
# Elastic Compliance Matrix: (Units=1/GPa)
#
#
# Indices 1 2 3 4 5 6 
#
# 1 0.005830 -0.005611 -0.001459 0.000000 -0.002676 0.000000
# 2 -0.005611 0.036921 -0.009740 0.000000 0.013419 0.000000
# 3 -0.001459 -0.009740 0.021452 0.000000 -0.007128 0.000000
# 4 0.000000 0.000000 0.000000 0.037658 0.000000 -0.001354
# 5 -0.002676 0.013419 -0.007128 0.000000 0.035636 0.000000
# 6 0.000000 0.000000 0.000000 -0.001354 0.000000 0.022446
#
#
# Mechanical properties :
#
#
# Convention : Reuss Voigt Hill
#
# Bulk Modulus (GPa) = 32.69575 57.32310 45.00943
# Shear Modulus (GPa) = 24.53897 36.27828 30.40862
#
# Velocity S-wave (km/s) = 3.14923 3.82912 3.50570
# Velocity P-wave (km/s) = 5.14177 6.53584 5.88026
#
# Compressibility (1/GPa) = 0.03058501
#
# Stress axis : x y z
#
# Youngs Moduli (GPa) = 171.53015 27.08450 46.61493
#
# Poissons Ratio (x) = 0.15196 0.06800
# Poissons Ratio (y) = 0.96238 0.45403
# Poissons Ratio (z) = 0.25021 0.26381
#
# Static dielectric constant tensor:
#      x y z
#    x 1.457140 0.000000 -0.661570 
#    y 0.000000 2.086770 0.000000 
#    z -0.661570 0.000000 1.063520 
# 
# From -- ./inp_files/29923.got.cif
#   From: 2010.05.17/outbox.cif.g08.bks.cpg/sg14_15_cif.got.tgz:29923.got - 2010.06.03 17:49:19.
