data_PCOD9246058
_publ_section_title
;
Structure prediction by ZEFSAII (Michael W. Deem and Ramdas Pophale) SiO2 
 PCOD9246058
Probable space group: P 21/C
;
_chemical_formula_sum "Si O2"
_cell_formula_units_Z 32
_cell_length_a 12.658667
_cell_length_b 15.948494
_cell_length_c 13.459421
_cell_angle_alpha 90.000000
_cell_angle_beta 147.833110
_cell_angle_gamma 90.000000
_cell_volume 1446.643866
_symmetry_space_group_name_H-M "P 21/C"
_symmetry_group_IT_number 14
_symmetry_cell_setting 'monoclinic'
loop_
_space_group_symop_operation_xyz
x,y,z
-x,1/2+y,1/2-z
-x,-y,-z
x,1/2-y,1/2+z
loop_
_atom_site_type_symbol
_atom_site_label
_atom_site_fract_x
_atom_site_fract_y
_atom_site_fract_z
Si Si1 0.328834 0.954292 0.749184
Si Si2 0.717948 0.700671 0.182074
Si Si3 0.390494 0.900312 0.025826
Si Si4 0.324285 0.790733 0.451803
Si Si5 0.928369 0.412931 0.118356
Si Si6 0.955346 0.910051 0.719864
Si Si7 0.679841 0.660732 0.493888
Si Si8 0.063980 0.261701 0.956644
O O1 0.340232 0.928735 0.872901
O O2 0.122103 0.930688 0.535643
O O3 0.489960 0.894894 0.823275
O O4 0.411438 0.047425 0.795078
O O5 0.850385 0.634497 0.228316
O O6 0.632326 0.764134 0.031076
O O7 0.855704 0.753611 0.367914
O O8 0.522564 0.661664 0.077208
O O9 0.407918 0.800626 0.049489
O O10 0.190848 0.921025 0.927059
O O11 0.195740 0.836266 0.433969
O O12 0.160991 0.772418 0.235964
O O13 0.871518 0.498687 0.129046
O O14 0.157671 0.395209 0.319686
O O15 0.934510 0.847197 0.607817
O O16 0.789907 0.699122 0.487269
#
# Coordination Sequence:
#
# PCOD9246058 Si02
#       8
#     4   4   4   4   4   4   4   4
#     4  11  22  39  66  89 122 168 202 260 326 352
#     4  11  22  41  68  87 125 172 202 260 321 362
#     4  10  22  42  60  93 131 154 217 270 300 379
#     4  10  22  42  60  93 128 157 218 257 298 393
#     4  11  24  40  65  92 128 166 206 262 316 375
#     4  10  23  42  60  96 129 157 218 259 303 387
#     4  10  21  40  61  91 124 153 210 262 300 377
#     4   9  22  40  63  89 120 165 207 256 311 366
#
# _framework density 22.120163000000002
#
# number of rings (size 3 to 8) (size 9 to 14) (size 15 to 20)
#    0.000    1.750    2.500    1.500    5.250    1.000 
#    2.250    2.500    0.000    0.000    0.000    0.000 
#    0.000    0.000    0.000    0.000    0.000    0.000 
#
# Total GULP energy -178803.582331 kJ/mol
# GULP energy per Si atom -5587.611948 kJ/mol
# Density = 2.206982 g / cm^3
# Si number density = 22.120163 Si / 1000 Ang^3
#
#
#
# Elastic Constant Matrix: (Units=GPa)
#
#
# Indices 1 2 3 4 5 6 
#
# 1 47.2211 6.1188 2.2361 0.0000 18.2558 0.0000
# 2 6.1188 68.3298 -1.6103 0.0000 4.5436 0.0000
# 3 2.2361 -1.6103 59.1046 0.0000 -3.2121 0.0000
# 4 0.0000 0.0000 0.0000 23.6919 0.0000 5.3117
# 5 18.2558 4.5436 -3.2121 0.0000 22.9588 0.0000
# 6 0.0000 0.0000 0.0000 5.3117 0.0000 27.3744
#
#
#
# Elastic Compliance Matrix: (Units=1/GPa)
#
#
# Indices 1 2 3 4 5 6 
#
# 1 0.031042 -0.001191 -0.002555 0.000000 -0.024805 0.000000
# 2 -0.001191 0.014879 0.000344 0.000000 -0.001950 0.000000
# 3 -0.002555 0.000344 0.017263 0.000000 0.004379 0.000000
# 4 0.000000 0.000000 0.000000 0.044128 0.000000 -0.008563
# 5 -0.024805 -0.001950 0.004379 0.000000 0.064279 0.000000
# 6 0.000000 0.000000 0.000000 -0.008563 0.000000 0.038192
#
#
# Mechanical properties :
#
#
# Convention : Reuss Voigt Hill
#
# Bulk Modulus (GPa) = 17.73604 20.90497 19.32050
# Shear Modulus (GPa) = 21.24232 25.99906 23.62069
#
# Velocity S-wave (km/s) = 3.10226 3.43207 3.27132
# Velocity P-wave (km/s) = 4.56809 5.01763 4.79813
#
# Compressibility (1/GPa) = 0.05638237
#
# Stress axis : x y z
#
# Youngs Moduli (GPa) = 32.21457 67.20755 57.92682
#
# Poissons Ratio (x) = 0.08001 0.14800
# Poissons Ratio (y) = 0.03835 -0.01995
# Poissons Ratio (z) = 0.08230 -0.02315
#
# Static dielectric constant tensor:
#      x y z
#    x 1.822650 0.000000 -0.004810 
#    y 0.000000 1.837840 0.000000 
#    z -0.004810 0.000000 1.834050 
# 
# From -- ./inp_files/30473.got.cif
#   From: 2010.05.17/outbox.cif.g08.bks.cpg/sg14_16_cif.got.tgz:30473.got - 2010.06.03 17:49:19.
