data_PCOD9246214
_publ_section_title
;
Structure prediction by ZEFSAII (Michael W. Deem and Ramdas Pophale) SiO2 
 PCOD9246214
Probable space group: P 21/C
;
_chemical_formula_sum "Si O2"
_cell_formula_units_Z 28
_cell_length_a 10.053154
_cell_length_b 15.004851
_cell_length_c 8.982291
_cell_angle_alpha 90.000000
_cell_angle_beta 115.683480
_cell_angle_gamma 90.000000
_cell_volume 1221.077700
_symmetry_space_group_name_H-M "P 21/C"
_symmetry_group_IT_number 14
_symmetry_cell_setting 'monoclinic'
loop_
_space_group_symop_operation_xyz
x,y,z
-x,1/2+y,1/2-z
-x,-y,-z
x,1/2-y,1/2+z
loop_
_atom_site_type_symbol
_atom_site_label
_atom_site_fract_x
_atom_site_fract_y
_atom_site_fract_z
Si Si1 0.014406 0.625391 0.149386
Si Si2 0.420047 0.695480 0.321373
Si Si3 0.247192 0.159964 0.968679
Si Si4 0.949347 0.755837 0.873913
Si Si5 0.717153 0.012239 0.179707
Si Si6 0.609072 0.135346 0.530722
Si Si7 0.688180 0.551630 0.986310
O O1 0.043888 0.681956 0.312269
O O2 0.840822 0.603962 0.068470
O O3 0.115768 0.539169 0.196148
O O4 0.040390 0.687532 0.019467
O O5 0.593811 0.704858 0.437848
O O6 0.363721 0.606675 0.378697
O O7 0.399990 0.675997 0.138216
O O8 0.344367 0.786410 0.336441
O O9 0.159308 0.198738 0.784454
O O10 0.278028 0.055772 0.953822
O O11 0.148414 0.183599 0.063042
O O12 0.650426 0.964694 0.293842
O O13 0.446778 0.100173 0.499125
O O14 0.706155 0.046115 0.568305
#
# Coordination Sequence:
#
# PCOD9246214 Si02
#       7
#     4   4   4   4   4   4   4
#     4  11  22  43  64  94 127 168 208 257 307 383
#     4  11  23  41  62  94 126 164 206 265 309 377
#     4  11  21  41  63  93 119 166 208 265 305 375
#     4  10  23  39  69  90 120 165 217 253 311 369
#     4  11  25  39  64  93 132 163 207 254 324 367
#     4  10  23  41  65  93 126 163 215 257 322 359
#     4  10  21  40  65  92 121 170 208 254 311 379
#
# _framework density 22.930565000000001
#
# number of rings (size 3 to 8) (size 9 to 14) (size 15 to 20)
#    0.000    1.429    1.429    4.286    2.000    2.857 
#    7.714    0.000    0.000    0.000    0.000    0.000 
#    0.000    0.000    0.000    0.000    0.000    0.000 
#
# Total GULP energy -156774.769582 kJ/mol
# GULP energy per Si atom -5599.098914 kJ/mol
# Density = 2.287837 g / cm^3
# Si number density = 22.930565 Si / 1000 Ang^3
#
#
#
# Elastic Constant Matrix: (Units=GPa)
#
#
# Indices 1 2 3 4 5 6 
#
# 1 64.8810 17.1878 26.6539 0.0000 -6.1393 0.0000
# 2 17.1878 112.2270 30.7323 0.0000 -26.3177 0.0000
# 3 26.6539 30.7323 58.8789 0.0000 -23.3208 0.0000
# 4 0.0000 0.0000 0.0000 38.4175 0.0000 -9.8235
# 5 -6.1393 -26.3177 -23.3208 0.0000 24.6418 0.0000
# 6 0.0000 0.0000 0.0000 -9.8235 0.0000 37.3021
#
#
#
# Elastic Compliance Matrix: (Units=1/GPa)
#
#
# Indices 1 2 3 4 5 6 
#
# 1 0.019646 -0.001731 -0.010851 0.000000 -0.007224 0.000000
# 2 -0.001731 0.012172 -0.000946 0.000000 0.011673 0.000000
# 3 -0.010851 -0.000946 0.033462 0.000000 0.027955 0.000000
# 4 0.000000 0.000000 0.000000 0.027909 0.000000 0.007350
# 5 -0.007224 0.011673 0.027955 0.000000 0.077705 0.000000
# 6 0.000000 0.000000 0.000000 0.007350 0.000000 0.028744
#
#
# Mechanical properties :
#
#
# Convention : Reuss Voigt Hill
#
# Bulk Modulus (GPa) = 26.16190 42.79276 34.47733
# Shear Modulus (GPa) = 20.88245 30.83315 25.85780
#
# Velocity S-wave (km/s) = 3.02102 3.67090 3.36170
# Velocity P-wave (km/s) = 4.85826 6.05555 5.48965
#
# Compressibility (1/GPa) = 0.03822353
#
# Stress axis : x y z
#
# Youngs Moduli (GPa) = 50.90192 82.15463 29.88451
#
# Poissons Ratio (x) = 0.14224 0.32427
# Poissons Ratio (y) = 0.08813 0.02827
# Poissons Ratio (z) = 0.55233 0.07772
#
# Static dielectric constant tensor:
#      x y z
#    x 1.841540 0.000000 0.006210 
#    y 0.000000 1.870930 0.000000 
#    z 0.006210 0.000000 1.835360 
# 
# From -- ./inp_files/12987.got.cif
#   From: 2010.05.17/outbox.cif.g08.bks.cpg/sg14_7_cif.got.tgz:12987.got - 2010.06.03 17:49:19.
