data_PCOD9246790
_publ_section_title
;
Structure prediction by ZEFSAII (Michael W. Deem and Ramdas Pophale) SiO2 
 PCOD9246790
Probable space group: P 21/C
;
_chemical_formula_sum "Si O2"
_cell_formula_units_Z 28
_cell_length_a 8.562580
_cell_length_b 18.718448
_cell_length_c 14.166716
_cell_angle_alpha 90.000000
_cell_angle_beta 32.518528
_cell_angle_gamma 90.000000
_cell_volume 1220.620217
_symmetry_space_group_name_H-M "P 21/C"
_symmetry_group_IT_number 14
_symmetry_cell_setting 'monoclinic'
loop_
_space_group_symop_operation_xyz
x,y,z
-x,1/2+y,1/2-z
-x,-y,-z
x,1/2-y,1/2+z
loop_
_atom_site_type_symbol
_atom_site_label
_atom_site_fract_x
_atom_site_fract_y
_atom_site_fract_z
Si Si1 0.338288 0.207222 0.344841
Si Si2 0.655423 0.844979 0.028332
Si Si3 0.501853 0.344587 0.025394
Si Si4 0.946109 0.761962 0.710754
Si Si5 0.764984 0.104444 0.191622
Si Si6 0.369546 0.974084 0.403013
Si Si7 0.912509 0.411502 0.143586
O O1 0.407522 0.276327 0.372948
O O2 0.179250 0.226725 0.329378
O O3 0.630940 0.159968 0.184344
O O4 0.110253 0.155698 0.514458
O O5 0.799852 0.817275 0.858953
O O6 0.893943 0.889832 0.965447
O O7 0.362753 0.887233 0.156742
O O8 0.176216 0.314371 0.193350
O O9 0.537378 0.412002 0.074729
O O10 0.621831 0.366526 0.862359
O O11 0.715069 0.281191 0.954030
O O12 0.633819 0.026596 0.242673
O O13 0.227792 0.940116 0.382584
O O14 0.121033 0.025728 0.574493
#
# Coordination Sequence:
#
# PCOD9246790 Si02
#       7
#     4   4   4   4   4   4   4
#     4  11  21  41  64  93 130 171 201 273 320 381
#     4  11  23  41  63 102 126 163 217 272 310 376
#     4  11  22  43  61  99 121 169 209 270 312 386
#     4  11  25  39  67  95 132 159 218 262 326 375
#     4  10  23  38  66  90 131 165 214 258 319 376
#     4  10  21  42  65  88 129 177 211 249 326 387
#     4  10  22  40  67  90 127 172 213 255 323 377
#
# _framework density 22.939157999999999
#
# number of rings (size 3 to 8) (size 9 to 14) (size 15 to 20)
#    0.000    1.429    2.857    2.143    4.000    0.571 
#    0.000    4.286    0.000    0.000    0.000    0.000 
#    0.000    0.000    0.000    0.000    0.000    0.000 
#
# Total GULP energy -156686.073309 kJ/mol
# GULP energy per Si atom -5595.931190 kJ/mol
# Density = 2.288695 g / cm^3
# Si number density = 22.939158 Si / 1000 Ang^3
#
#
#
# Elastic Constant Matrix: (Units=GPa)
#
#
# Indices 1 2 3 4 5 6 
#
# 1 55.3204 20.7745 10.5123 0.0000 -1.0816 0.0000
# 2 20.7745 102.0570 33.8424 0.0000 -22.0582 0.0000
# 3 10.5123 33.8424 65.1021 0.0000 -35.2679 0.0000
# 4 0.0000 0.0000 0.0000 20.2651 0.0000 0.3335
# 5 -1.0816 -22.0582 -35.2679 0.0000 33.9942 0.0000
# 6 0.0000 0.0000 0.0000 0.3335 0.0000 3.0240
#
#
#
# Elastic Compliance Matrix: (Units=1/GPa)
#
#
# Indices 1 2 3 4 5 6 
#
# 1 0.020430 -0.004027 -0.005181 0.000000 -0.007338 0.000000
# 2 -0.004027 0.012765 -0.003580 0.000000 0.004441 0.000000
# 3 -0.005181 -0.003580 0.038154 0.000000 0.037096 0.000000
# 4 0.000000 0.000000 0.000000 0.049436 0.000000 -0.005452
# 5 -0.007338 0.004441 0.037096 0.000000 0.070551 0.000000
# 6 0.000000 0.000000 0.000000 -0.005452 0.000000 0.331284
#
#
# Mechanical properties :
#
#
# Convention : Reuss Voigt Hill
#
# Bulk Modulus (GPa) = 21.84614 39.19311 30.51963
# Shear Modulus (GPa) = 8.87388 21.94670 15.41029
#
# Velocity S-wave (km/s) = 1.96897 3.09647 2.59470
# Velocity P-wave (km/s) = 3.83579 5.46872 4.72336
#
# Compressibility (1/GPa) = 0.04577468
#
# Stress axis : x y z
#
# Youngs Moduli (GPa) = 48.94847 78.33931 26.20968
#
# Poissons Ratio (x) = 0.31544 0.13578
# Poissons Ratio (y) = 0.19710 0.09382
# Poissons Ratio (z) = 0.25359 0.28042
#
# Static dielectric constant tensor:
#      x y z
#    x 1.867080 0.000000 -0.020410 
#    y 0.000000 1.859530 0.000000 
#    z -0.020410 0.000000 1.872830 
# 
# From -- ./inp_files/16830.got.cif
#   From: 2010.05.17/outbox.cif.g08.bks.cpg/sg14_9_cif.got.tgz:16830.got - 2010.06.03 17:49:19.
