data_PCOD9246577
_publ_section_title
;
Structure prediction by ZEFSAII (Michael W. Deem and Ramdas Pophale) SiO2 
 PCOD9246577
Probable space group: P 21/C
;
_chemical_formula_sum "Si O2"
_cell_formula_units_Z 32
_cell_length_a 9.569084
_cell_length_b 10.250015
_cell_length_c 32.325598
_cell_angle_alpha 90.000000
_cell_angle_beta 27.787643
_cell_angle_gamma 90.000000
_cell_volume 1478.120500
_symmetry_space_group_name_H-M "P 21/C"
_symmetry_group_IT_number 14
_symmetry_cell_setting 'monoclinic'
loop_
_space_group_symop_operation_xyz
x,y,z
-x,1/2+y,1/2-z
-x,-y,-z
x,1/2-y,1/2+z
loop_
_atom_site_type_symbol
_atom_site_label
_atom_site_fract_x
_atom_site_fract_y
_atom_site_fract_z
Si Si1 0.365005 0.454794 0.727284
Si Si2 0.976930 0.891176 0.970212
Si Si3 0.175032 0.232241 0.717829
Si Si4 0.176325 0.875142 0.438232
Si Si5 0.531656 0.991123 0.712916
Si Si6 0.916911 0.100576 0.863531
Si Si7 0.311962 0.339120 0.540199
Si Si8 0.832447 0.255339 0.222555
O O1 0.195362 0.366065 0.738808
O O2 0.286416 0.438322 0.795809
O O3 0.336857 0.608100 0.727387
O O4 0.702260 0.403607 0.635771
O O5 0.751928 0.886866 0.990263
O O6 0.963858 0.750156 0.994734
O O7 0.000000 0.000000 0.000000
O O8 0.506662 0.169715 0.624610
O O9 0.994959 0.136871 0.796069
O O10 0.019834 0.259401 0.715389
O O11 0.273966 0.916722 0.366712
O O12 0.000000 0.000000 0.500000
O O13 0.387705 0.866738 0.727334
O O14 0.238954 0.080272 0.801281
O O15 0.759088 0.960682 0.910886
O O16 0.663852 0.195602 0.948753
O O17 0.066432 0.238672 0.622389
#
# Coordination Sequence:
#
# PCOD9246577 Si02
#       8
#     4   4   4   4   4   4   4   4
#     4  11  24  42  66  95 130 175 234 275 336 411
#     4  11  24  40  66 102 131 171 233 288 335 410
#     4  10  25  43  65  98 135 175 230 279 343 413
#     4  10  24  45  66  95 139 175 225 285 343 409
#     4  10  22  42  70  92 130 184 225 274 343 405
#     4   9  20  38  66  88 127 173 217 276 330 398
#     4  10  21  41  66  94 134 172 222 279 343 394
#     4  11  24  41  68  95 137 179 225 277 347 408
#
# _framework density 21.649114999999998
#
# number of rings (size 3 to 8) (size 9 to 14) (size 15 to 20)
#    0.000    1.750    2.500    0.750   12.250    4.000 
#    2.250    0.625    0.000    0.000    0.000    0.000 
#    0.000    0.000    0.000    0.000    0.000    0.000 
#
# Total GULP energy -178413.620966 kJ/mol
# GULP energy per Si atom -5575.425655 kJ/mol
# Density = 2.159984 g / cm^3
# Si number density = 21.649115 Si / 1000 Ang^3
#
#
#
# Elastic Constant Matrix: (Units=GPa)
#
#
# Indices 1 2 3 4 5 6 
#
# 1 133.0064 49.4011 -3.3914 0.0000 10.3118 0.0000
# 2 49.4011 130.0805 15.6623 0.0000 1.8975 0.0000
# 3 -3.3914 15.6623 44.7088 0.0000 0.3894 0.0000
# 4 0.0000 0.0000 0.0000 26.7558 0.0000 8.1541
# 5 10.3118 1.8975 0.3894 0.0000 14.9356 0.0000
# 6 0.0000 0.0000 0.0000 8.1541 0.0000 28.9879
#
#
#
# Elastic Compliance Matrix: (Units=1/GPa)
#
#
# Indices 1 2 3 4 5 6 
#
# 1 0.009435 -0.003745 0.002081 0.000000 -0.006092 0.000000
# 2 -0.003745 0.009526 -0.003634 0.000000 0.001470 0.000000
# 3 0.002081 -0.003634 0.023812 0.000000 -0.001596 0.000000
# 4 0.000000 0.000000 0.000000 0.040880 0.000000 -0.011499
# 5 -0.006092 0.001470 -0.001596 0.000000 0.071015 0.000000
# 6 0.000000 0.000000 0.000000 -0.011499 0.000000 0.037732
#
#
# Mechanical properties :
#
#
# Convention : Reuss Voigt Hill
#
# Bulk Modulus (GPa) = 31.07896 47.90440 39.49168
# Shear Modulus (GPa) = 23.39507 30.54409 26.96958
#
# Velocity S-wave (km/s) = 3.29089 3.76023 3.53336
# Velocity P-wave (km/s) = 5.36906 6.40532 5.90995
#
# Compressibility (1/GPa) = 0.03217611
#
# Stress axis : x y z
#
# Youngs Moduli (GPa) = 105.99221 104.97840 41.99613
#
# Poissons Ratio (x) = 0.39311 -0.08738
# Poissons Ratio (y) = 0.39691 0.15261
# Poissons Ratio (z) = -0.22052 0.38148
#
# Static dielectric constant tensor:
#      x y z
#    x 1.779450 0.000000 0.050470 
#    y 0.000000 2.052940 0.000000 
#    z 0.050470 0.000000 1.791490 
# 
# From -- ./inp_files/79638.got.cif
#   From: 2010.05.17/outbox.cif.g08.bks.cpg/sg14_40_cif.got.tgz:79638.got - 2010.06.03 17:49:19.
