data_PCOD9246262
_publ_section_title
;
Structure prediction by ZEFSAII (Michael W. Deem and Ramdas Pophale) SiO2 
 PCOD9246262
Probable space group: P 21/C
;
_chemical_formula_sum "Si O2"
_cell_formula_units_Z 24
_cell_length_a 14.120936
_cell_length_b 11.883392
_cell_length_c 10.036326
_cell_angle_alpha 90.000000
_cell_angle_beta 144.339144
_cell_angle_gamma 90.000000
_cell_volume 981.831569
_symmetry_space_group_name_H-M "P 21/C"
_symmetry_group_IT_number 14
_symmetry_cell_setting 'monoclinic'
loop_
_space_group_symop_operation_xyz
x,y,z
-x,1/2+y,1/2-z
-x,-y,-z
x,1/2-y,1/2+z
loop_
_atom_site_type_symbol
_atom_site_label
_atom_site_fract_x
_atom_site_fract_y
_atom_site_fract_z
Si Si1 0.665636 0.300524 0.088472
Si Si2 0.378169 0.486465 0.087481
Si Si3 0.854380 0.619070 0.971688
Si Si4 0.653561 0.462523 0.577739
Si Si5 0.097924 0.953977 0.976462
Si Si6 0.705858 0.848877 0.771209
O O1 0.697369 0.168770 0.124212
O O2 0.774108 0.360693 0.325420
O O3 0.692342 0.386267 0.993890
O O4 0.470547 0.309588 0.882336
O O5 0.565970 0.489179 0.338813
O O6 0.289220 0.404328 0.086195
O O7 0.345134 0.429000 0.909495
O O8 0.002801 0.599095 0.242089
O O9 0.809657 0.530113 0.805961
O O10 0.819010 0.741448 0.870778
O O11 0.500000 0.500000 0.500000
O O12 0.177527 0.068842 0.014287
O O13 0.000000 0.000000 0.000000
#
# Coordination Sequence:
#
# PCOD9246262 Si02
#       6
#     4   4   4   4   4   4
#     4  11  22  41  70  96 129 179 224 272 329 409
#     4  10  21  40  66  93 129 171 221 266 337 387
#     4  11  23  42  63  99 135 175 218 277 336 399
#     4  10  22  39  64 101 128 168 222 278 330 391
#     4  11  23  44  65  96 135 183 216 272 353 394
#     4  11  23  42  69  96 134 176 225 280 327 406
#
# _framework density 24.444110999999999
#
# number of rings (size 3 to 8) (size 9 to 14) (size 15 to 20)
#    0.000    1.333    6.667    2.000    4.667    0.000 
#    0.000    1.667    0.000    6.000    0.000    0.000 
#    0.000    0.000    0.000    0.000    0.000    0.000 
#
# Total GULP energy -133760.773353 kJ/mol
# GULP energy per Si atom -5573.365556 kJ/mol
# Density = 2.438847 g / cm^3
# Si number density = 24.444111 Si / 1000 Ang^3
#
#
#
# Elastic Constant Matrix: (Units=GPa)
#
#
# Indices 1 2 3 4 5 6 
#
# 1 36.5511 12.0904 -12.1665 0.0000 3.5571 0.0000
# 2 12.0904 207.4075 102.4521 0.0000 -1.7290 0.0000
# 3 -12.1665 102.4521 210.4942 0.0000 -6.0803 0.0000
# 4 0.0000 0.0000 0.0000 43.4896 0.0000 0.9751
# 5 3.5571 -1.7290 -6.0803 0.0000 26.1131 0.0000
# 6 0.0000 0.0000 0.0000 0.9751 0.0000 12.9582
#
#
#
# Elastic Compliance Matrix: (Units=1/GPa)
#
#
# Indices 1 2 3 4 5 6 
#
# 1 0.029917 -0.003393 0.003278 0.000000 -0.003537 0.000000
# 2 -0.003393 0.006735 -0.003471 0.000000 0.000100 0.000000
# 3 0.003278 -0.003471 0.006655 0.000000 0.000873 0.000000
# 4 0.000000 0.000000 0.000000 0.023033 0.000000 -0.001733
# 5 -0.003537 0.000100 0.000873 0.000000 0.038987 0.000000
# 6 0.000000 0.000000 0.000000 -0.001733 0.000000 0.077301
#
#
# Mechanical properties :
#
#
# Convention : Reuss Voigt Hill
#
# Bulk Modulus (GPa) = 27.67393 73.24498 50.45945
# Shear Modulus (GPa) = 24.77170 39.98397 32.37783
#
# Velocity S-wave (km/s) = 3.18685 4.04880 3.64341
# Velocity P-wave (km/s) = 4.98871 7.20322 6.19571
#
# Compressibility (1/GPa) = 0.03613509
#
# Stress axis : x y z
#
# Youngs Moduli (GPa) = 33.42620 148.48587 150.26508
#
# Poissons Ratio (x) = 0.50379 -0.49263
# Poissons Ratio (y) = 0.11341 0.52159
# Poissons Ratio (z) = -0.10958 0.51541
#
# Static dielectric constant tensor:
#      x y z
#    x 2.138280 0.000000 -0.014960 
#    y 0.000000 1.928690 0.000000 
#    z -0.014960 0.000000 2.074080 
# 
# From -- ./inp_files/33984.got.cif
#   From: 2010.05.17/outbox.cif.g08.bks.cpg/sg14_17_cif.got.tgz:33984.got - 2010.06.03 17:49:19.
