data_PCOD9246547
_publ_section_title
;
Structure prediction by ZEFSAII (Michael W. Deem and Ramdas Pophale) SiO2 
 PCOD9246547
Probable space group: P 21/C
;
_chemical_formula_sum "Si O2"
_cell_formula_units_Z 28
_cell_length_a 13.428853
_cell_length_b 8.353449
_cell_length_c 10.583899
_cell_angle_alpha 90.000000
_cell_angle_beta 112.320980
_cell_angle_gamma 90.000000
_cell_volume 1098.311075
_symmetry_space_group_name_H-M "P 21/C"
_symmetry_group_IT_number 14
_symmetry_cell_setting 'monoclinic'
loop_
_space_group_symop_operation_xyz
x,y,z
-x,1/2+y,1/2-z
-x,-y,-z
x,1/2-y,1/2+z
loop_
_atom_site_type_symbol
_atom_site_label
_atom_site_fract_x
_atom_site_fract_y
_atom_site_fract_z
Si Si1 0.199805 0.997705 0.385570
Si Si2 0.990196 0.266029 0.111871
Si Si3 0.180045 0.683805 0.648746
Si Si4 0.271581 0.322005 0.500553
Si Si5 0.378586 0.652105 0.124083
Si Si6 0.601930 0.827873 0.206290
Si Si7 0.121581 0.528131 0.290737
O O1 0.111827 0.882133 0.405593
O O2 0.189777 0.977947 0.232063
O O3 0.319581 0.935758 0.479298
O O4 0.194505 0.170023 0.442800
O O5 0.090360 0.380925 0.184617
O O6 0.982358 0.119897 0.205574
O O7 0.943707 0.197397 0.959920
O O8 0.288352 0.721439 0.624950
O O9 0.184521 0.837191 0.745881
O O10 0.344485 0.329598 0.407343
O O11 0.335589 0.281315 0.658620
O O12 0.190611 0.470174 0.443668
O O13 0.484836 0.748578 0.141076
O O14 0.400184 0.508038 0.235382
#
# Coordination Sequence:
#
# PCOD9246547 Si02
#       7
#     4   4   4   4   4   4   4
#     4   9  22  40  62  93 131 169 217 269 329 395
#     4  10  22  40  66  97 125 174 214 274 333 399
#     4  10  21  41  65  94 128 171 217 276 330 393
#     4  11  25  44  65  99 134 177 223 278 329 394
#     4  10  23  41  62  94 132 170 219 276 329 389
#     4  11  26  42  67  97 132 179 223 274 336 391
#     4  11  22  43  65  94 135 167 224 273 334 394
#
# _framework density 25.493689
#
# number of rings (size 3 to 8) (size 9 to 14) (size 15 to 20)
#    0.000    1.714    1.429    1.286    6.000    4.000 
#    5.143    3.571    0.000    0.000    0.000    0.000 
#    0.000    0.000    0.000    0.000    0.000    0.000 
#
# Total GULP energy -156521.403109 kJ/mol
# GULP energy per Si atom -5590.050111 kJ/mol
# Density = 2.543566 g / cm^3
# Si number density = 25.493689 Si / 1000 Ang^3
#
#
#
# Elastic Constant Matrix: (Units=GPa)
#
#
# Indices 1 2 3 4 5 6 
#
# 1 82.9933 27.1126 5.8339 0.0000 7.7136 0.0000
# 2 27.1126 68.7701 10.4487 0.0000 11.3265 0.0000
# 3 5.8339 10.4487 68.2396 0.0000 8.4800 0.0000
# 4 0.0000 0.0000 0.0000 44.0053 0.0000 5.7740
# 5 7.7136 11.3265 8.4800 0.0000 32.4430 0.0000
# 6 0.0000 0.0000 0.0000 5.7740 0.0000 28.7631
#
#
#
# Elastic Compliance Matrix: (Units=1/GPa)
#
#
# Indices 1 2 3 4 5 6 
#
# 1 0.013900 -0.005212 -0.000213 0.000000 -0.001430 0.000000
# 2 -0.005212 0.017588 -0.001693 0.000000 -0.004458 0.000000
# 3 -0.000213 -0.001693 0.015351 0.000000 -0.003371 0.000000
# 4 0.000000 0.000000 0.000000 0.023339 0.000000 -0.004685
# 5 -0.001430 -0.004458 -0.003371 0.000000 0.033601 0.000000
# 6 0.000000 0.000000 0.000000 -0.004685 0.000000 0.035707
#
#
# Mechanical properties :
#
#
# Convention : Reuss Voigt Hill
#
# Bulk Modulus (GPa) = 30.67330 34.08818 32.38074
# Shear Modulus (GPa) = 30.37873 32.81612 31.59743
#
# Velocity S-wave (km/s) = 3.45573 3.59168 3.52436
# Velocity P-wave (km/s) = 5.28967 5.53177 5.41207
#
# Compressibility (1/GPa) = 0.03260164
#
# Stress axis : x y z
#
# Youngs Moduli (GPa) = 71.94383 56.85792 65.14420
#
# Poissons Ratio (x) = 0.29636 0.01385
# Poissons Ratio (y) = 0.37499 0.11031
# Poissons Ratio (z) = 0.01529 0.09628
#
# Static dielectric constant tensor:
#      x y z
#    x 1.999180 0.000000 -0.044210 
#    y 0.000000 2.029240 0.000000 
#    z -0.044210 0.000000 2.115700 
# 
# From -- ./inp_files/31606.got.cif
#   From: 2010.05.17/outbox.cif.g08.bks.cpg/sg14_16_cif.got.tgz:31606.got - 2010.06.03 17:49:19.
