data_PCOD9246307
_publ_section_title
;
Structure prediction by ZEFSAII (Michael W. Deem and Ramdas Pophale) SiO2 
 PCOD9246307
Probable space group: P 21/C
;
_chemical_formula_sum "Si O2"
_cell_formula_units_Z 12
_cell_length_a 27.489460
_cell_length_b 5.478268
_cell_length_c 18.316076
_cell_angle_alpha 90.000000
_cell_angle_beta 9.617990
_cell_angle_gamma 90.000000
_cell_volume 460.852593
_symmetry_space_group_name_H-M "P 21/C"
_symmetry_group_IT_number 14
_symmetry_cell_setting 'monoclinic'
loop_
_space_group_symop_operation_xyz
x,y,z
-x,1/2+y,1/2-z
-x,-y,-z
x,1/2-y,1/2+z
loop_
_atom_site_type_symbol
_atom_site_label
_atom_site_fract_x
_atom_site_fract_y
_atom_site_fract_z
Si Si1 0.168130 0.999997 0.523042
Si Si2 0.730325 0.000005 0.345364
Si Si3 0.464201 0.000006 0.889878
O O1 0.999997 0.249995 0.750004
O O2 0.233996 0.999999 0.512843
O O3 0.500000 0.000000 0.000000
O O4 0.692078 0.750794 0.358957
O O5 0.469367 0.000008 0.793426
O O6 0.692085 0.249219 0.358947
O O7 0.000000 0.000000 0.000000
#
# Coordination Sequence:
#
# PCOD9246307 Si02
#       3
#     4   4   4
#     4  12  28  41  63  98 143 182 213 262 337 376
#     4  10  21  40  67  96 123 164 223 280 322 378
#     4  10  23  39  59  94 135 171 219 276 324 388
#
# _framework density 26.038692000000001
#
# number of rings (size 3 to 8) (size 9 to 14) (size 15 to 20)
#    0.000    1.333    0.000    4.000   13.333    0.000 
#    0.000    0.000    0.000    8.000    0.000    0.000 
#    0.000    0.000    0.000    0.000    0.000    0.000 
#
# Total GULP energy -67102.005372 kJ/mol
# GULP energy per Si atom -5591.833781 kJ/mol
# Density = 2.597943 g / cm^3
# Si number density = 26.038692 Si / 1000 Ang^3
#
#
#
# Elastic Constant Matrix: (Units=GPa)
#
#
# Indices 1 2 3 4 5 6 
#
# 1 132.1401 43.5703 24.8775 0.0000 -15.1457 0.0000
# 2 43.5703 374.7545 114.7994 0.0000 -61.4573 0.0000
# 3 24.8775 114.7994 133.9540 0.0000 -25.9091 0.0000
# 4 0.0000 0.0000 0.0000 64.0530 0.0000 -34.4997
# 5 -15.1457 -61.4573 -25.9091 0.0000 67.5512 0.0000
# 6 0.0000 0.0000 0.0000 -34.4997 0.0000 7.5881
#
#
#
# Elastic Compliance Matrix: (Units=1/GPa)
#
#
# Indices 1 2 3 4 5 6 
#
# 1 0.008011 -0.000502 -0.000863 0.000000 0.001009 0.000000
# 2 -0.000502 0.004004 -0.002868 0.000000 0.002430 0.000000
# 3 -0.000863 -0.002868 0.010306 0.000000 0.001150 0.000000
# 4 0.000000 0.000000 0.000000 -0.010776 0.000000 -0.048992
# 5 0.001009 0.002430 0.001150 0.000000 0.017682 0.000000
# 6 0.000000 0.000000 0.000000 -0.048992 0.000000 -0.090960
#
#
# Mechanical properties :
#
#
# Convention : Reuss Voigt Hill
#
# Bulk Modulus (GPa) = 72.17160 111.92702 92.04931
# Shear Modulus (GPa) = -102.77692 58.34521 -22.21585
#
# Velocity S-wave (km/s) = -6.28940 4.73875 -2.92410
# Velocity P-wave (km/s) = 4.99648 8.54513 4.90176
#
# Compressibility (1/GPa) = 0.01385587
#
# Stress axis : x y z
#
# Youngs Moduli (GPa) = 124.82523 249.75827 97.03163
#
# Poissons Ratio (x) = 0.12530 0.08371
# Poissons Ratio (y) = 0.06262 0.27830
# Poissons Ratio (z) = 0.10769 0.71634
#
# Static dielectric constant tensor:
#      x y z
#    x 2.203370 0.000000 0.260950 
#    y 0.000000 1.957480 0.000000 
#    z 0.260950 0.000000 2.141300 
# 
# From -- ./inp_files/70585.got.cif
#   From: 2010.05.17/outbox.cif.g08.bks.cpg/sg14_36_cif.got.tgz:70585.got - 2010.06.03 17:49:19.
