data_PCOD9246814
_publ_section_title
;
Structure prediction by ZEFSAII (Michael W. Deem and Ramdas Pophale) SiO2 
 PCOD9246814
Probable space group: P 21/C
;
_chemical_formula_sum "Si O2"
_cell_formula_units_Z 20
_cell_length_a 10.051652
_cell_length_b 21.074158
_cell_length_c 5.210669
_cell_angle_alpha 90.000000
_cell_angle_beta 46.201365
_cell_angle_gamma 90.000000
_cell_volume 796.680213
_symmetry_space_group_name_H-M "P 21/C"
_symmetry_group_IT_number 14
_symmetry_cell_setting 'monoclinic'
loop_
_space_group_symop_operation_xyz
x,y,z
-x,1/2+y,1/2-z
-x,-y,-z
x,1/2-y,1/2+z
loop_
_atom_site_type_symbol
_atom_site_label
_atom_site_fract_x
_atom_site_fract_y
_atom_site_fract_z
Si Si1 0.220154 0.896426 0.322459
Si Si2 0.600270 0.731917 0.870596
Si Si3 0.406285 0.438105 0.758290
Si Si4 0.830079 0.654071 0.247227
Si Si5 0.188293 0.525725 0.364139
O O1 0.232420 0.917282 0.604486
O O2 0.045196 0.850834 0.521653
O O3 0.431219 0.885920 0.953457
O O4 0.173766 0.951753 0.174094
O O5 0.488782 0.751338 0.769501
O O6 0.704037 0.666730 0.669376
O O7 0.767631 0.784225 0.666357
O O8 0.500000 0.500000 0.500000
O O9 0.244093 0.406557 0.808988
O O10 0.330151 0.468596 0.120986
O O11 0.000000 0.500000 0.500000
#
# Coordination Sequence:
#
# PCOD9246814 Si02
#       5
#     4   4   4   4   4
#     4  11  24  39  61  91 124 167 201 260 304 378
#     4   8  20  39  63  86 114 163 211 266 315 372
#     4  10  23  41  61  98 133 168 209 257 320 392
#     4  10  21  42  66  87 128 161 222 255 336 362
#     4  11  22  39  60  89 128 168 201 245 309 376
#
# _framework density 25.104177
#
# number of rings (size 3 to 8) (size 9 to 14) (size 15 to 20)
#    1.200    0.800    2.000    1.200    5.600    0.000 
#    7.200    2.000    0.000    0.000    0.000    0.000 
#    0.000    0.000    0.000    0.000    0.000    0.000 
#
# Total GULP energy -111417.992266 kJ/mol
# GULP energy per Si atom -5570.899613 kJ/mol
# Density = 2.504704 g / cm^3
# Si number density = 25.104177 Si / 1000 Ang^3
#
#
#
# Elastic Constant Matrix: (Units=GPa)
#
#
# Indices 1 2 3 4 5 6 
#
# 1 90.9254 -1.4239 14.6986 0.0000 1.1159 0.0000
# 2 -1.4239 82.7071 -8.3685 0.0000 6.5072 0.0000
# 3 14.6986 -8.3685 31.0828 0.0000 -6.1197 0.0000
# 4 0.0000 0.0000 0.0000 26.9243 0.0000 0.3104
# 5 1.1159 6.5072 -6.1197 0.0000 49.2778 0.0000
# 6 0.0000 0.0000 0.0000 0.3104 0.0000 32.4962
#
#
#
# Elastic Compliance Matrix: (Units=1/GPa)
#
#
# Indices 1 2 3 4 5 6 
#
# 1 0.011964 -0.000318 -0.005933 0.000000 -0.000966 0.000000
# 2 -0.000318 0.012514 0.003276 0.000000 -0.001238 0.000000
# 3 -0.005933 0.003276 0.036699 0.000000 0.004259 0.000000
# 4 0.000000 0.000000 0.000000 0.037145 0.000000 -0.000355
# 5 -0.000966 -0.001238 0.004259 0.000000 0.021007 0.000000
# 6 0.000000 0.000000 0.000000 -0.000355 0.000000 0.030776
#
#
# Mechanical properties :
#
#
# Convention : Reuss Voigt Hill
#
# Bulk Modulus (GPa) = 18.10772 23.83641 20.97206
# Shear Modulus (GPa) = 28.65887 35.06028 31.85957
#
# Velocity S-wave (km/s) = 3.38242 3.74115 3.56630
# Velocity P-wave (km/s) = 4.74163 5.30822 5.03291
#
# Compressibility (1/GPa) = 0.05522507
#
# Stress axis : x y z
#
# Youngs Moduli (GPa) = 83.58358 79.90868 27.24904
#
# Poissons Ratio (x) = 0.02544 0.16168
# Poissons Ratio (y) = 0.02661 -0.08927
# Poissons Ratio (z) = 0.49594 -0.26178
#
# Static dielectric constant tensor:
#      x y z
#    x 2.082960 0.000000 0.127420 
#    y 0.000000 2.109520 0.000000 
#    z 0.127420 0.000000 2.139510 
# 
# From -- ./inp_files/3239.got.cif
#   From: 2010.05.17/outbox.cif.g08.bks.cpg/sg14_2_cif.got.tgz:3239.got - 2010.06.03 17:49:19.
