data_PCOD9246497
_publ_section_title
;
Structure prediction by ZEFSAII (Michael W. Deem and Ramdas Pophale) SiO2 
 PCOD9246497
Probable space group: P 21/C
;
_chemical_formula_sum "Si O2"
_cell_formula_units_Z 28
_cell_length_a 9.090600
_cell_length_b 13.673781
_cell_length_c 12.186892
_cell_angle_alpha 90.000000
_cell_angle_beta 90.000586
_cell_angle_gamma 90.000000
_cell_volume 1514.865695
_symmetry_space_group_name_H-M "P 21/C"
_symmetry_group_IT_number 14
_symmetry_cell_setting 'monoclinic'
loop_
_space_group_symop_operation_xyz
x,y,z
-x,1/2+y,1/2-z
-x,-y,-z
x,1/2-y,1/2+z
loop_
_atom_site_type_symbol
_atom_site_label
_atom_site_fract_x
_atom_site_fract_y
_atom_site_fract_z
Si Si1 0.500005 0.249995 0.597672
Si Si2 0.778645 0.721375 0.546670
Si Si3 0.947589 0.608290 0.969452
Si Si4 0.221349 0.721372 0.046669
Si Si5 0.719012 0.887668 0.273041
Si Si6 0.052406 0.608291 0.469453
Si Si7 0.280977 0.887665 0.773045
O O1 0.373360 0.288920 0.517358
O O2 0.626644 0.211073 0.517353
O O3 0.416832 0.169867 0.671714
O O4 0.583184 0.330123 0.671713
O O5 0.836613 0.833750 0.552494
O O6 0.766286 0.669029 0.663223
O O7 0.902226 0.669214 0.472872
O O8 0.856648 0.610026 0.856860
O O9 0.000000 0.500000 0.000000
O O10 0.097768 0.669214 0.972866
O O11 0.233700 0.669024 0.163221
O O12 0.163386 0.833748 0.052494
O O13 0.679185 0.000002 0.249994
O O14 0.143341 0.610028 0.356860
O O15 0.000000 0.500000 0.500000
#
# Coordination Sequence:
#
# PCOD9246497 Si02
#       7
#     4   4   4   4   4   4   4
#     4  10  24  42  58  94 128 166 208 260 310 386
#     4  10  22  40  64  90 127 162 209 262 313 378
#     4  10  21  41  64  92 123 162 212 266 313 370
#     4  10  22  40  64  90 127 162 209 262 313 378
#     4  11  22  42  65  91 126 169 213 258 323 379
#     4  10  21  41  64  92 123 162 212 266 313 370
#     4  11  22  42  65  91 126 169 213 258 323 379
#
# _framework density 18.483487
#
# number of rings (size 3 to 8) (size 9 to 14) (size 15 to 20)
#    0.000    1.714    2.857    0.857    0.000   10.286 
#    5.143    0.000    0.000    0.000    0.000    0.000 
#    0.000    0.000    0.000    0.000    0.000    0.000 
#
# Total GULP energy -156108.933025 kJ/mol
# GULP energy per Si atom -5575.319037 kJ/mol
# Density = 1.844142 g / cm^3
# Si number density = 18.483487 Si / 1000 Ang^3
#
#
#
# Elastic Constant Matrix: (Units=GPa)
#
#
# Indices 1 2 3 4 5 6 
#
# 1 167.9610 67.9401 80.6875 0.0000 -0.0161 0.0000
# 2 67.9401 152.1859 90.6846 0.0000 -0.0142 0.0000
# 3 80.6875 90.6846 127.1956 0.0000 -0.0151 0.0000
# 4 0.0000 0.0000 0.0000 28.7278 0.0000 -0.0011
# 5 -0.0161 -0.0142 -0.0151 0.0000 10.5800 0.0000
# 6 0.0000 0.0000 0.0000 -0.0011 0.0000 30.6242
#
#
#
# Elastic Compliance Matrix: (Units=1/GPa)
#
#
# Indices 1 2 3 4 5 6 
#
# 1 0.008655 -0.001030 -0.004756 0.000000 0.000005 0.000000
# 2 -0.001030 0.011547 -0.007579 0.000000 0.000003 0.000000
# 3 -0.004756 -0.007579 0.016283 0.000000 0.000006 0.000000
# 4 0.000000 0.000000 0.000000 0.034809 0.000000 0.000001
# 5 0.000005 0.000003 0.000006 0.000000 0.094518 0.000000
# 6 0.000000 0.000000 0.000000 0.000001 0.000000 0.032654
#
#
# Mechanical properties :
#
#
# Convention : Reuss Voigt Hill
#
# Bulk Modulus (GPa) = 102.51861 102.88521 102.70191
# Shear Modulus (GPa) = 21.88678 27.85508 24.87093
#
# Velocity S-wave (km/s) = 3.44485 3.88625 3.67219
# Velocity P-wave (km/s) = 8.45033 8.71329 8.58282
#
# Compressibility (1/GPa) = 0.00975433
#
# Stress axis : x y z
#
# Youngs Moduli (GPa) = 115.53730 86.60323 61.41456
#
# Poissons Ratio (x) = 0.08918 0.29211
# Poissons Ratio (y) = 0.11897 0.46547
# Poissons Ratio (z) = 0.54954 0.65638
#
# Static dielectric constant tensor:
#      x y z
#    x 1.621190 0.000000 0.000000 
#    y 0.000000 2.126170 0.000000 
#    z 0.000000 0.000000 1.627320 
# 
# From -- ./inp_files/24925.got.cif
#   From: 2010.05.17/outbox.cif.g08.bks.cpg/sg14_13_cif.got.tgz:24925.got - 2010.06.03 17:49:19.
