data_PCOD9246665
_publ_section_title
;
Structure prediction by ZEFSAII (Michael W. Deem and Ramdas Pophale) SiO2 
 PCOD9246665
Probable space group: P 21/C
;
_chemical_formula_sum "Si O2"
_cell_formula_units_Z 24
_cell_length_a 16.071144
_cell_length_b 7.717617
_cell_length_c 31.836881
_cell_angle_alpha 90.000000
_cell_angle_beta 161.802478
_cell_angle_gamma 90.000000
_cell_volume 1233.172798
_symmetry_space_group_name_H-M "P 21/C"
_symmetry_group_IT_number 14
_symmetry_cell_setting 'monoclinic'
loop_
_space_group_symop_operation_xyz
x,y,z
-x,1/2+y,1/2-z
-x,-y,-z
x,1/2-y,1/2+z
loop_
_atom_site_type_symbol
_atom_site_label
_atom_site_fract_x
_atom_site_fract_y
_atom_site_fract_z
Si Si1 0.154461 0.280481 0.173369
Si Si2 0.402446 0.673266 0.050100
Si Si3 0.256875 0.623660 0.394915
Si Si4 0.313244 0.556187 0.871322
Si Si5 0.753663 0.439310 0.853107
Si Si6 0.790117 0.031607 0.862179
O O1 0.364027 0.263002 0.311541
O O2 0.256298 0.425135 0.189790
O O3 0.137321 0.093307 0.141919
O O4 0.864165 0.335373 0.050574
O O5 0.521425 0.490866 0.090793
O O6 0.333404 0.778449 0.974641
O O7 0.500000 0.500000 0.500000
O O8 0.239642 0.748720 0.346445
O O9 0.966320 0.543705 0.262416
O O10 0.500000 0.500000 0.000000
O O11 0.778248 0.239445 0.849954
O O12 0.492166 0.463274 0.756005
O O13 0.000000 0.500000 0.000000
O O14 0.000000 0.000000 0.000000
#
# Coordination Sequence:
#
# PCOD9246665 Si02
#       6
#     4   4   4   4   4   4
#     4  12  24  43  67  95 149 172 223 299 339 392
#     4  11  24  44  62 102 139 175 215 285 348 378
#     4  11  23  44  72  96 130 177 227 267 327 415
#     4  10  21  41  69  95 129 175 223 260 328 406
#     4  12  23  43  71  97 130 182 232 278 338 412
#     4  12  23  43  70  99 128 181 236 275 336 414
#
# _framework density 19.461993
#
# number of rings (size 3 to 8) (size 9 to 14) (size 15 to 20)
#    0.000    0.667    5.000    4.000    2.333    0.000 
#    6.000    0.000    0.000    0.000    0.000    0.000 
#    0.000    0.000    0.000    0.000    0.000    0.000 
#
# Total GULP energy -134050.591949 kJ/mol
# GULP energy per Si atom -5585.441331 kJ/mol
# Density = 1.941770 g / cm^3
# Si number density = 19.461993 Si / 1000 Ang^3
#
#
#
# Elastic Constant Matrix: (Units=GPa)
#
#
# Indices 1 2 3 4 5 6 
#
# 1 93.6331 42.5788 32.7313 0.0000 19.3726 0.0000
# 2 42.5788 123.1118 18.1237 0.0000 -2.4595 0.0000
# 3 32.7313 18.1237 128.8027 0.0000 8.7181 0.0000
# 4 0.0000 0.0000 0.0000 29.5385 0.0000 -0.4603
# 5 19.3726 -2.4595 8.7181 0.0000 42.8038 0.0000
# 6 0.0000 0.0000 0.0000 -0.4603 0.0000 38.8358
#
#
#
# Elastic Compliance Matrix: (Units=1/GPa)
#
#
# Indices 1 2 3 4 5 6 
#
# 1 0.015294 -0.005021 -0.002730 0.000000 -0.006654 0.000000
# 2 -0.005021 0.009965 -0.000323 0.000000 0.002911 0.000000
# 3 -0.002730 -0.000323 0.008538 0.000000 -0.000522 0.000000
# 4 0.000000 0.000000 0.000000 0.033860 0.000000 0.000401
# 5 -0.006654 0.002911 -0.000522 0.000000 0.026648 0.000000
# 6 0.000000 0.000000 0.000000 0.000401 0.000000 0.025754
#
#
# Mechanical properties :
#
#
# Convention : Reuss Voigt Hill
#
# Bulk Modulus (GPa) = 56.65716 59.15724 57.90720
# Shear Modulus (GPa) = 35.18893 39.04321 37.11607
#
# Velocity S-wave (km/s) = 4.25677 4.48384 4.37178
# Velocity P-wave (km/s) = 7.30308 7.56761 7.43652
#
# Compressibility (1/GPa) = 0.01765002
#
# Stress axis : x y z
#
# Youngs Moduli (GPa) = 65.38474 100.35274 117.11914
#
# Poissons Ratio (x) = 0.50383 0.31970
# Poissons Ratio (y) = 0.32827 0.03787
# Poissons Ratio (z) = 0.17848 0.03245
#
# Static dielectric constant tensor:
#      x y z
#    x 1.667000 0.000000 -0.004890 
#    y 0.000000 1.731580 0.000000 
#    z -0.004890 0.000000 1.633500 
# 
# From -- ./inp_files/80203.got.cif
#   From: 2010.05.17/outbox.cif.g08.bks.cpg/sg14_41_cif.got.tgz:80203.got - 2010.06.03 17:49:19.
