data_PCOD9246471
_publ_section_title
;
Structure prediction by ZEFSAII (Michael W. Deem and Ramdas Pophale) SiO2 
 PCOD9246471
Probable space group: P 21/C
;
_chemical_formula_sum "Si O2"
_cell_formula_units_Z 32
_cell_length_a 4.980501
_cell_length_b 10.733235
_cell_length_c 24.137790
_cell_angle_alpha 90.000000
_cell_angle_beta 73.515160
_cell_angle_gamma 90.000000
_cell_volume 1237.291873
_symmetry_space_group_name_H-M "P 21/C"
_symmetry_group_IT_number 14
_symmetry_cell_setting 'monoclinic'
loop_
_space_group_symop_operation_xyz
x,y,z
-x,1/2+y,1/2-z
-x,-y,-z
x,1/2-y,1/2+z
loop_
_atom_site_type_symbol
_atom_site_label
_atom_site_fract_x
_atom_site_fract_y
_atom_site_fract_z
Si Si1 0.769052 0.150248 0.474862
Si Si2 0.048996 0.810286 0.733985
Si Si3 0.366588 0.051103 0.919459
Si Si4 0.414121 0.471997 0.792052
Si Si5 0.132961 0.137226 0.139874
Si Si6 0.634114 0.975076 0.578500
Si Si7 0.078369 0.349214 0.526726
Si Si8 0.233702 0.103058 0.814095
O O1 0.573855 0.131496 0.432875
O O2 0.049434 0.073307 0.444482
O O3 0.894182 0.275801 0.493305
O O4 0.608732 0.086743 0.536007
O O5 0.880201 0.922634 0.713745
O O6 0.886337 0.787155 0.801920
O O7 0.996982 0.693065 0.697677
O O8 0.365856 0.855945 0.723270
O O9 0.334193 0.142062 0.869120
O O10 0.597603 0.949180 0.889493
O O11 0.369385 0.120035 0.978555
O O12 0.080259 0.973645 0.944733
O O13 0.414180 0.511890 0.855588
O O14 0.524419 0.578114 0.744359
O O15 0.098811 0.216388 0.085559
O O16 0.897314 0.033261 0.167245
#
# Coordination Sequence:
#
# PCOD9246471 Si02
#       8
#     4   4   4   4   4   4   4   4
#     4  10  23  44  64  97 129 175 219 274 329 391
#     4  11  25  42  68  98 128 177 220 267 338 395
#     4  10  21  41  63  93 134 167 224 275 337 396
#     4  11  24  44  65  98 130 170 221 272 330 399
#     4  10  22  44  61  96 138 170 227 281 324 414
#     4  10  23  43  65  93 136 167 223 276 325 397
#     4  10  23  38  65  96 128 178 220 276 339 395
#     4  10  24  42  63  96 132 171 218 279 327 397
#
# _framework density 25.862936000000001
#
# number of rings (size 3 to 8) (size 9 to 14) (size 15 to 20)
#    0.000    1.750    1.250    1.125    7.000    1.000 
#    9.000    0.000    0.000    0.000    0.000    0.000 
#    0.000    0.000    0.000    0.000    0.000    0.000 
#
# Total GULP energy -178950.134113 kJ/mol
# GULP energy per Si atom -5592.191691 kJ/mol
# Density = 2.580407 g / cm^3
# Si number density = 25.862936 Si / 1000 Ang^3
#
#
#
# Elastic Constant Matrix: (Units=GPa)
#
#
# Indices 1 2 3 4 5 6 
#
# 1 81.3945 -2.9188 17.9502 0.0000 0.0944 0.0000
# 2 -2.9188 33.6623 -2.0337 0.0000 -8.3597 0.0000
# 3 17.9502 -2.0337 191.2456 0.0000 3.6255 0.0000
# 4 0.0000 0.0000 0.0000 18.0746 0.0000 0.0528
# 5 0.0944 -8.3597 3.6255 0.0000 23.7285 0.0000
# 6 0.0000 0.0000 0.0000 0.0528 0.0000 35.4280
#
#
#
# Elastic Compliance Matrix: (Units=1/GPa)
#
#
# Indices 1 2 3 4 5 6 
#
# 1 0.012587 0.001153 -0.001179 0.000000 0.000536 0.000000
# 2 0.001153 0.032664 0.000021 0.000000 0.011500 0.000000
# 3 -0.001179 0.000021 0.005355 0.000000 -0.000806 0.000000
# 4 0.000000 0.000000 0.000000 0.055326 0.000000 -0.000082
# 5 0.000536 0.011500 -0.000806 0.000000 0.046316 0.000000
# 6 0.000000 0.000000 0.000000 -0.000082 0.000000 0.028226
#
#
# Mechanical properties :
#
#
# Convention : Reuss Voigt Hill
#
# Bulk Modulus (GPa) = 19.76440 36.92197 28.34319
# Shear Modulus (GPa) = 25.33576 34.99985 30.16781
#
# Velocity S-wave (km/s) = 3.13328 3.68269 3.41904
# Velocity P-wave (km/s) = 4.55505 5.69122 5.15453
#
# Compressibility (1/GPa) = 0.05059601
#
# Stress axis : x y z
#
# Youngs Moduli (GPa) = 79.44923 30.61477 186.73888
#
# Poissons Ratio (x) = -0.03531 0.22022
# Poissons Ratio (y) = -0.09163 -0.00394
# Poissons Ratio (z) = 0.09369 -0.00065
#
# Static dielectric constant tensor:
#      x y z
#    x 2.062320 0.000000 0.063090 
#    y 0.000000 2.131820 0.000000 
#    z 0.063090 0.000000 2.108250 
# 
# From -- ./inp_files/71298.got.cif
#   From: 2010.05.17/outbox.cif.g08.bks.cpg/sg14_36_cif.got.tgz:71298.got - 2010.06.03 17:49:19.
