data_PCOD9246002
_publ_section_title
;
Structure prediction by ZEFSAII (Michael W. Deem and Ramdas Pophale) SiO2 
 PCOD9246002
Probable space group: P 21/C
;
_chemical_formula_sum "Si O2"
_cell_formula_units_Z 32
_cell_length_a 14.037028
_cell_length_b 11.938308
_cell_length_c 13.642219
_cell_angle_alpha 90.000000
_cell_angle_beta 148.068150
_cell_angle_gamma 90.000000
_cell_volume 1209.163122
_symmetry_space_group_name_H-M "P 21/C"
_symmetry_group_IT_number 14
_symmetry_cell_setting 'monoclinic'
loop_
_space_group_symop_operation_xyz
x,y,z
-x,1/2+y,1/2-z
-x,-y,-z
x,1/2-y,1/2+z
loop_
_atom_site_type_symbol
_atom_site_label
_atom_site_fract_x
_atom_site_fract_y
_atom_site_fract_z
Si Si1 0.177554 0.196715 0.041845
Si Si2 0.917482 0.118721 0.963906
Si Si3 0.910350 0.580156 0.743202
Si Si4 0.557556 0.497625 0.161982
Si Si5 0.298443 0.873485 0.567129
Si Si6 0.507425 0.629936 0.431727
Si Si7 0.549384 0.616665 0.675729
Si Si8 0.819889 0.353852 0.587801
O O1 0.320897 0.106403 0.207275
O O2 0.289544 0.312261 0.138480
O O3 0.108695 0.137881 0.881872
O O4 0.012894 0.204832 0.974799
O O5 0.951062 0.142920 0.108005
O O6 0.703079 0.103966 0.781089
O O7 0.000000 0.000000 0.000000
O O8 0.724708 0.623197 0.626724
O O9 0.900025 0.445016 0.730083
O O10 0.109068 0.603327 0.955368
O O11 0.500000 0.500000 0.000000
O O12 0.382124 0.524501 0.077633
O O13 0.441088 0.822055 0.769767
O O14 0.236983 0.772705 0.442724
O O15 0.467198 0.674020 0.504704
O O16 0.414454 0.507807 0.333634
O O17 0.381584 0.594489 0.601676
#
# Coordination Sequence:
#
# PCOD9246002 Si02
#       8
#     4   4   4   4   4   4   4   4
#     4  11  21  43  69 105 140 185 235 301 381 433
#     4  10  21  39  68  99 138 180 222 303 365 427
#     4  11  23  44  69  99 144 183 238 310 365 435
#     4  11  21  38  64 102 140 180 230 296 369 435
#     4  12  25  43  71 103 141 198 240 297 380 443
#     4  10  23  47  67  98 140 194 247 299 357 440
#     4  10  22  43  74  95 143 195 240 302 362 442
#     4  11  22  44  65 101 142 181 239 304 366 440
#
# _framework density 26.464585
#
# number of rings (size 3 to 8) (size 9 to 14) (size 15 to 20)
#    0.000    1.250    5.000    1.500    3.500    2.000 
#    2.250    8.125    0.000    0.000    0.000    0.000 
#    0.000    0.000    0.000    0.000    0.000    0.000 
#
# Total GULP energy -178353.773222 kJ/mol
# GULP energy per Si atom -5573.555413 kJ/mol
# Density = 2.640435 g / cm^3
# Si number density = 26.464585 Si / 1000 Ang^3
#
#
#
# Elastic Constant Matrix: (Units=GPa)
#
#
# Indices 1 2 3 4 5 6 
#
# 1 150.6435 5.7869 26.6328 0.0000 27.5015 0.0000
# 2 5.7869 76.1963 12.3257 0.0000 18.7697 0.0000
# 3 26.6328 12.3257 104.7844 0.0000 17.6010 0.0000
# 4 0.0000 0.0000 0.0000 9.3662 0.0000 18.3358
# 5 27.5015 18.7697 17.6010 0.0000 33.5323 0.0000
# 6 0.0000 0.0000 0.0000 18.3358 0.0000 35.4966
#
#
#
# Elastic Compliance Matrix: (Units=1/GPa)
#
#
# Indices 1 2 3 4 5 6 
#
# 1 0.007998 0.001209 -0.001052 0.000000 -0.006684 0.000000
# 2 0.001209 0.015421 -0.000554 0.000000 -0.009333 0.000000
# 3 -0.001052 -0.000554 0.010615 0.000000 -0.004399 0.000000
# 4 0.000000 0.000000 0.000000 -9.511674 0.000000 4.913257
# 5 -0.006684 -0.009333 -0.004399 0.000000 0.042837 0.000000
# 6 0.000000 0.000000 0.000000 4.913257 0.000000 -2.509772
#
#
# Mechanical properties :
#
#
# Convention : Reuss Voigt Hill
#
# Bulk Modulus (GPa) = 30.08383 46.79054 38.43719
# Shear Modulus (GPa) = -0.41902 34.80427 17.19263
#
# Velocity S-wave (km/s) = -0.39834 3.63040 2.55158
# Velocity P-wave (km/s) = 3.34375 5.94070 4.82040
#
# Compressibility (1/GPa) = 0.03324044
#
# Stress axis : x y z
#
# Youngs Moduli (GPa) = 125.03059 64.84775 94.20745
#
# Poissons Ratio (x) = -0.07842 0.09914
# Poissons Ratio (y) = -0.15120 0.05215
# Poissons Ratio (z) = 0.13157 0.03590
#
# Static dielectric constant tensor:
#      x y z
#    x 2.262150 0.000000 -0.091660 
#    y 0.000000 2.210570 0.000000 
#    z -0.091660 0.000000 2.231220 
# 
# From -- ./inp_files/47441.got.cif
#   From: 2010.05.17/outbox.cif.g08.bks.cpg/sg14_24_cif.got.tgz:47441.got - 2010.06.03 17:49:19.
