data_PCOD9246406
_publ_section_title
;
Structure prediction by ZEFSAII (Michael W. Deem and Ramdas Pophale) SiO2 
 PCOD9246406
Probable space group: P 21/C
;
_chemical_formula_sum "Si O2"
_cell_formula_units_Z 28
_cell_length_a 9.664855
_cell_length_b 14.249090
_cell_length_c 12.564850
_cell_angle_alpha 90.000000
_cell_angle_beta 129.873978
_cell_angle_gamma 90.000000
_cell_volume 1327.985988
_symmetry_space_group_name_H-M "P 21/C"
_symmetry_group_IT_number 14
_symmetry_cell_setting 'monoclinic'
loop_
_space_group_symop_operation_xyz
x,y,z
-x,1/2+y,1/2-z
-x,-y,-z
x,1/2-y,1/2+z
loop_
_atom_site_type_symbol
_atom_site_label
_atom_site_fract_x
_atom_site_fract_y
_atom_site_fract_z
Si Si1 0.066155 0.911313 0.967605
Si Si2 0.241992 0.327593 0.204779
Si Si3 0.444662 0.953486 0.204275
Si Si4 0.118414 0.311562 0.812877
Si Si5 0.497735 0.392871 0.038139
Si Si6 0.476217 0.663775 0.182913
Si Si7 0.905924 0.286401 0.909538
O O1 0.943804 0.885476 0.807150
O O2 0.275514 0.930703 0.046462
O O3 0.057421 0.819356 0.035813
O O4 0.000000 0.000000 0.000000
O O5 0.373113 0.416294 0.260483
O O6 0.176849 0.285985 0.285875
O O7 0.367730 0.241121 0.224107
O O8 0.059909 0.343883 0.049054
O O9 0.415357 0.896942 0.302100
O O10 0.457361 0.062117 0.244278
O O11 0.953679 0.297229 0.810541
O O12 0.295309 0.354555 0.954739
O O13 0.500000 0.500000 0.000000
O O14 0.565459 0.338535 0.965653
O O15 0.293446 0.686678 0.154115
#
# Coordination Sequence:
#
# PCOD9246406 Si02
#       7
#     4   4   4   4   4   4   4
#     4  11  23  42  66  93 131 173 216 262 332 392
#     4  10  21  41  60  91 126 164 210 265 318 383
#     4  11  20  39  66  93 125 169 213 263 324 390
#     4  10  22  41  63  91 130 165 217 266 323 385
#     4   9  18  37  65  91 121 167 210 257 320 394
#     4  10  22  40  64  95 130 164 213 271 323 384
#     4  11  22  42  64  92 127 168 213 273 316 384
#
# _framework density 21.084561000000001
#
# number of rings (size 3 to 8) (size 9 to 14) (size 15 to 20)
#    0.000    1.714    2.857    3.429    0.000    2.857 
#    5.143    0.714    0.000    0.000    0.000    0.000 
#    0.000    0.000    0.000    0.000    0.000    0.000 
#
# Total GULP energy -156301.578263 kJ/mol
# GULP energy per Si atom -5582.199224 kJ/mol
# Density = 2.103657 g / cm^3
# Si number density = 21.084561 Si / 1000 Ang^3
#
#
#
# Elastic Constant Matrix: (Units=GPa)
#
#
# Indices 1 2 3 4 5 6 
#
# 1 128.6984 0.9490 3.0675 0.0000 -2.1029 0.0000
# 2 0.9490 40.0982 -3.9569 0.0000 -3.5305 0.0000
# 3 3.0675 -3.9569 29.0820 0.0000 13.9943 0.0000
# 4 0.0000 0.0000 0.0000 17.0772 0.0000 13.5777
# 5 -2.1029 -3.5305 13.9943 0.0000 25.0781 0.0000
# 6 0.0000 0.0000 0.0000 13.5777 0.0000 20.2303
#
#
#
# Elastic Compliance Matrix: (Units=1/GPa)
#
#
# Indices 1 2 3 4 5 6 
#
# 1 0.007834 -0.000209 -0.001581 0.000000 0.001510 0.000000
# 2 -0.000209 0.025376 0.002412 0.000000 0.002209 0.000000
# 3 -0.001581 0.002412 0.047549 0.000000 -0.026327 0.000000
# 4 0.000000 0.000000 0.000000 0.125558 0.000000 -0.084269
# 5 0.001510 0.002209 -0.026327 0.000000 0.055004 0.000000
# 6 0.000000 0.000000 0.000000 -0.084269 0.000000 0.105988
#
#
# Mechanical properties :
#
#
# Convention : Reuss Voigt Hill
#
# Bulk Modulus (GPa) = 12.19472 21.99977 17.09724
# Shear Modulus (GPa) = 12.70971 25.66504 19.18738
#
# Velocity S-wave (km/s) = 2.45786 3.49269 3.01993
# Velocity P-wave (km/s) = 3.72170 5.16932 4.50405
#
# Compressibility (1/GPa) = 0.08200270
#
# Stress axis : x y z
#
# Youngs Moduli (GPa) = 127.64865 39.40696 21.03100
#
# Poissons Ratio (x) = 0.00822 0.03326
# Poissons Ratio (y) = 0.02662 -0.05072
# Poissons Ratio (z) = 0.20185 -0.09503
#
# Static dielectric constant tensor:
#      x y z
#    x 1.768910 0.000000 -0.009860 
#    y 0.000000 1.744920 0.000000 
#    z -0.009860 0.000000 1.779880 
# 
# From -- ./inp_files/25592.got.cif
#   From: 2010.05.17/outbox.cif.g08.bks.cpg/sg14_13_cif.got.tgz:25592.got - 2010.06.03 17:49:19.
