data_PCOD9246477
_publ_section_title
;
Structure prediction by ZEFSAII (Michael W. Deem and Ramdas Pophale) SiO2 
 PCOD9246477
Probable space group: P 21/C
;
_chemical_formula_sum "Si O2"
_cell_formula_units_Z 32
_cell_length_a 24.368414
_cell_length_b 8.711442
_cell_length_c 14.553880
_cell_angle_alpha 90.000000
_cell_angle_beta 151.388558
_cell_angle_gamma 90.000000
_cell_volume 1479.487085
_symmetry_space_group_name_H-M "P 21/C"
_symmetry_group_IT_number 14
_symmetry_cell_setting 'monoclinic'
loop_
_space_group_symop_operation_xyz
x,y,z
-x,1/2+y,1/2-z
-x,-y,-z
x,1/2-y,1/2+z
loop_
_atom_site_type_symbol
_atom_site_label
_atom_site_fract_x
_atom_site_fract_y
_atom_site_fract_z
Si Si1 0.037665 0.224516 0.634173
Si Si2 0.376580 0.347135 0.777127
Si Si3 0.149602 0.711269 0.986217
Si Si4 0.125663 0.875374 0.756224
Si Si5 0.223870 0.077635 0.496901
Si Si6 0.377391 0.934934 0.102398
Si Si7 0.372303 0.859961 0.395186
Si Si8 0.423684 0.896421 0.685786
O O1 0.954599 0.243686 0.599154
O O2 0.960987 0.229990 0.429492
O O3 0.082530 0.049557 0.700306
O O4 0.141032 0.343455 0.799913
O O5 0.285461 0.212479 0.643731
O O6 0.363473 0.439352 0.661668
O O7 0.359972 0.472698 0.831084
O O8 0.507955 0.292061 0.966769
O O9 0.141900 0.808022 0.881175
O O10 0.154796 0.535055 0.961920
O O11 0.266492 0.758402 0.208436
O O12 0.249208 0.885335 0.888404
O O13 0.324778 0.978988 0.597574
O O14 0.437110 0.782234 0.231274
O O15 0.458537 0.007227 0.143980
O O16 0.385234 0.884750 0.522594
#
# Coordination Sequence:
#
# PCOD9246477 Si02
#       8
#     4   4   4   4   4   4   4   4
#     4  11  26  44  68  97 130 183 233 275 335 398
#     4  10  21  41  67  92 138 175 217 275 340 397
#     4  12  24  44  69  95 135 176 228 280 334 396
#     4  11  23  48  68  93 141 179 221 286 334 393
#     4  12  24  44  66 102 131 175 225 279 332 409
#     4  11  20  42  65  95 135 174 212 275 335 402
#     4  10  21  41  63  96 133 177 215 276 336 399
#     4  11  23  38  70 102 132 177 220 272 347 403
#
# _framework density 21.629117999999998
#
# number of rings (size 3 to 8) (size 9 to 14) (size 15 to 20)
#    0.000    1.000    3.750    3.000    0.000    1.000 
#    9.000    5.000    0.000    0.000    0.000    0.000 
#    0.000    0.000    0.000    0.000    0.000    0.000 
#
# Total GULP energy -179014.965739 kJ/mol
# GULP energy per Si atom -5594.217679 kJ/mol
# Density = 2.157989 g / cm^3
# Si number density = 21.629118 Si / 1000 Ang^3
#
#
#
# Elastic Constant Matrix: (Units=GPa)
#
#
# Indices 1 2 3 4 5 6 
#
# 1 44.9955 -8.9519 5.2460 0.0000 0.1662 0.0000
# 2 -8.9519 56.3025 10.2832 0.0000 8.5225 0.0000
# 3 5.2460 10.2832 79.0559 0.0000 5.9337 0.0000
# 4 0.0000 0.0000 0.0000 24.2963 0.0000 12.9862
# 5 0.1662 8.5225 5.9337 0.0000 33.2094 0.0000
# 6 0.0000 0.0000 0.0000 12.9862 0.0000 22.3627
#
#
#
# Elastic Compliance Matrix: (Units=1/GPa)
#
#
# Indices 1 2 3 4 5 6 
#
# 1 0.023300 0.004201 -0.002030 0.000000 -0.000832 0.000000
# 2 0.004201 0.019579 -0.002480 0.000000 -0.004602 0.000000
# 3 -0.002030 -0.002480 0.013236 0.000000 -0.001718 0.000000
# 4 0.000000 0.000000 0.000000 0.059683 0.000000 -0.034659
# 5 -0.000832 -0.004602 -0.001718 0.000000 0.031604 0.000000
# 6 0.000000 0.000000 0.000000 -0.034659 0.000000 0.064844
#
#
# Mechanical properties :
#
#
# Convention : Reuss Voigt Hill
#
# Bulk Modulus (GPa) = 18.01909 21.50095 19.76002
# Shear Modulus (GPa) = 21.61109 27.55877 24.58493
#
# Velocity S-wave (km/s) = 3.16439 3.57340 3.37509
# Velocity P-wave (km/s) = 4.65834 5.19499 4.93397
#
# Compressibility (1/GPa) = 0.05549669
#
# Stress axis : x y z
#
# Youngs Moduli (GPa) = 42.91828 51.07560 75.55403
#
# Poissons Ratio (x) = -0.21459 0.15339
# Poissons Ratio (y) = -0.18032 0.18738
# Poissons Ratio (z) = 0.08713 0.12667
#
# Static dielectric constant tensor:
#      x y z
#    x 1.760690 0.000000 0.003640 
#    y 0.000000 1.790070 0.000000 
#    z 0.003640 0.000000 1.818780 
# 
# From -- ./inp_files/51377.got.cif
#   From: 2010.05.17/outbox.cif.g08.bks.cpg/sg14_26_cif.got.tgz:51377.got - 2010.06.03 17:49:19.
