data_PCOD9246290
_publ_section_title
;
Structure prediction by ZEFSAII (Michael W. Deem and Ramdas Pophale) SiO2 
 PCOD9246290
Probable space group: P 21/C
;
_chemical_formula_sum "Si O2"
_cell_formula_units_Z 32
_cell_length_a 11.484084
_cell_length_b 11.634841
_cell_length_c 12.169208
_cell_angle_alpha 90.000000
_cell_angle_beta 50.434490
_cell_angle_gamma 90.000000
_cell_volume 1253.474131
_symmetry_space_group_name_H-M "P 21/C"
_symmetry_group_IT_number 14
_symmetry_cell_setting 'monoclinic'
loop_
_space_group_symop_operation_xyz
x,y,z
-x,1/2+y,1/2-z
-x,-y,-z
x,1/2-y,1/2+z
loop_
_atom_site_type_symbol
_atom_site_label
_atom_site_fract_x
_atom_site_fract_y
_atom_site_fract_z
Si Si1 0.509541 0.408656 0.591102
Si Si2 0.190128 0.511410 0.003298
Si Si3 0.069998 0.097315 0.038162
Si Si4 0.036920 0.836179 0.455918
Si Si5 0.188571 0.333245 0.703348
Si Si6 0.597601 0.818208 0.565463
Si Si7 0.630916 0.336875 0.969173
Si Si8 0.596824 0.596484 0.707460
O O1 0.500000 0.500000 0.500000
O O2 0.334445 0.369757 0.688179
O O3 0.618578 0.299705 0.499781
O O4 0.575478 0.479103 0.653433
O O5 0.043881 0.431149 0.072726
O O6 0.220897 0.589820 0.091903
O O7 0.321547 0.419000 0.919881
O O8 0.190336 0.603713 0.903689
O O9 0.966467 0.211782 0.095487
O O10 0.227318 0.119408 0.880152
O O11 0.128533 0.091344 0.132544
O O12 0.000000 0.000000 0.000000
O O13 0.944378 0.823854 0.627307
O O14 0.265540 0.222790 0.598040
O O15 0.442868 0.857174 0.603356
O O16 0.554223 0.704760 0.656863
O O17 0.505049 0.389267 0.126064
#
# Coordination Sequence:
#
# PCOD9246290 Si02
#       8
#     4   4   4   4   4   4   4   4
#     4  11  20  40  66  95 125 159 205 269 310 360
#     4  11  24  43  61  89 131 158 215 260 303 379
#     4  11  23  41  65  94 126 161 212 262 303 379
#     4  11  24  43  63  86 128 175 200 256 318 372
#     4  10  21  40  67  89 122 170 205 241 331 373
#     4  10  21  41  62  90 125 158 203 258 314 369
#     4  11  24  38  68  93 121 165 211 256 318 370
#     4  11  22  40  66  91 127 163 205 255 318 373
#
# _framework density 25.529048
#
# number of rings (size 3 to 8) (size 9 to 14) (size 15 to 20)
#    0.000    1.250    6.250    2.625    3.500    2.000 
#    0.000    1.250    0.000    0.000    0.000    0.000 
#    0.000    0.000    0.000    0.000    0.000    0.000 
#
# Total GULP energy -178596.942886 kJ/mol
# GULP energy per Si atom -5581.154465 kJ/mol
# Density = 2.547094 g / cm^3
# Si number density = 25.529048 Si / 1000 Ang^3
#
#
#
# Elastic Constant Matrix: (Units=GPa)
#
#
# Indices 1 2 3 4 5 6 
#
# 1 163.0225 77.5066 -3.2931 0.0000 9.5870 0.0000
# 2 77.5066 165.1414 -0.3732 0.0000 8.9742 0.0000
# 3 -3.2931 -0.3732 53.1486 0.0000 4.5625 0.0000
# 4 0.0000 0.0000 0.0000 12.4292 0.0000 -1.5511
# 5 9.5870 8.9742 4.5625 0.0000 20.0384 0.0000
# 6 0.0000 0.0000 0.0000 -1.5511 0.0000 62.0105
#
#
#
# Elastic Compliance Matrix: (Units=1/GPa)
#
#
# Indices 1 2 3 4 5 6 
#
# 1 0.008013 -0.003631 0.000674 0.000000 -0.002361 0.000000
# 2 -0.003631 0.007856 -0.000017 0.000000 -0.001777 0.000000
# 3 0.000674 -0.000017 0.019260 0.000000 -0.004700 0.000000
# 4 0.000000 0.000000 0.000000 0.080707 0.000000 0.002019
# 5 -0.002361 -0.001777 -0.004700 0.000000 0.052900 0.000000
# 6 0.000000 0.000000 0.000000 0.002019 0.000000 0.016177
#
#
# Mechanical properties :
#
#
# Convention : Reuss Voigt Hill
#
# Bulk Modulus (GPa) = 34.26984 58.77703 46.52343
# Shear Modulus (GPa) = 24.92663 39.39378 32.16020
#
# Velocity S-wave (km/s) = 3.12813 3.93249 3.55315
# Velocity P-wave (km/s) = 5.14781 6.61006 5.92422
#
# Compressibility (1/GPa) = 0.02918018
#
# Stress axis : x y z
#
# Youngs Moduli (GPa) = 124.80016 127.29037 51.92043
#
# Poissons Ratio (x) = 0.46217 -0.03498
# Poissons Ratio (y) = 0.45313 0.00089
# Poissons Ratio (z) = -0.08407 0.00219
#
# Static dielectric constant tensor:
#      x y z
#    x 2.144590 0.000000 -0.054540 
#    y 0.000000 2.102210 0.000000 
#    z -0.054540 0.000000 2.181360 
# 
# From -- ./inp_files/44639.got.cif
#   From: 2010.05.17/outbox.cif.g08.bks.cpg/sg14_23_cif.got.tgz:44639.got - 2010.06.03 17:49:19.
