data_PCOD9246971
_publ_section_title
;
Structure prediction by ZEFSAII (Michael W. Deem and Ramdas Pophale) SiO2 
 PCOD9246971
Probable space group: P 21/C
;
_chemical_formula_sum "Si O2"
_cell_formula_units_Z 24
_cell_length_a 6.737855
_cell_length_b 16.085047
_cell_length_c 10.466283
_cell_angle_alpha 90.000000
_cell_angle_beta 79.285449
_cell_angle_gamma 90.000000
_cell_volume 1114.546081
_symmetry_space_group_name_H-M "P 21/C"
_symmetry_group_IT_number 14
_symmetry_cell_setting 'monoclinic'
loop_
_space_group_symop_operation_xyz
x,y,z
-x,1/2+y,1/2-z
-x,-y,-z
x,1/2-y,1/2+z
loop_
_atom_site_type_symbol
_atom_site_label
_atom_site_fract_x
_atom_site_fract_y
_atom_site_fract_z
Si Si1 0.935308 0.868308 0.990348
Si Si2 0.172981 0.101432 0.556339
Si Si3 0.150429 0.504078 0.289848
Si Si4 0.477347 0.625501 0.174567
Si Si5 0.258962 0.237408 0.179959
Si Si6 0.890546 0.213518 0.420987
O O1 0.764575 0.808814 0.953133
O O2 0.865071 0.925992 0.113968
O O3 0.999286 0.928830 0.868118
O O4 0.112016 0.804976 0.013857
O O5 0.105130 0.024617 0.650938
O O6 0.342680 0.086078 0.430320
O O7 0.277629 0.166621 0.642229
O O8 0.990588 0.150540 0.511005
O O9 0.363148 0.551276 0.260235
O O10 0.570592 0.693454 0.258410
O O11 0.313332 0.673922 0.107481
O O12 0.051772 0.225553 0.285957
#
# Coordination Sequence:
#
# PCOD9246971 Si02
#       6
#     4   4   4   4   4   4
#     4  10  22  41  67  90 125 170 203 252 314 365
#     4  10  23  41  64  91 127 162 206 259 308 361
#     4  11  22  41  63  94 128 160 206 258 314 361
#     4  11  24  39  68  94 122 163 213 251 310 372
#     4  10  21  43  64  93 124 163 209 256 303 370
#     4  10  21  43  67  87 123 169 208 250 303 376
#
# _framework density 21.533431
#
# number of rings (size 3 to 8) (size 9 to 14) (size 15 to 20)
#    0.000    1.667    3.333    0.500    2.333    1.333 
#    3.000    1.667    0.000    0.000    0.000    0.000 
#    0.000    0.000    0.000    0.000    0.000    0.000 
#
# Total GULP energy -134090.100993 kJ/mol
# GULP energy per Si atom -5587.087541 kJ/mol
# Density = 2.148442 g / cm^3
# Si number density = 21.533431 Si / 1000 Ang^3
#
#
#
# Elastic Constant Matrix: (Units=GPa)
#
#
# Indices 1 2 3 4 5 6 
#
# 1 60.7171 12.3526 2.3933 0.0000 5.3290 0.0000
# 2 12.3526 84.0300 22.9024 0.0000 -2.7334 0.0000
# 3 2.3933 22.9024 46.4298 0.0000 -5.4025 0.0000
# 4 0.0000 0.0000 0.0000 59.2127 0.0000 8.3093
# 5 5.3290 -2.7334 -5.4025 0.0000 17.7651 0.0000
# 6 0.0000 0.0000 0.0000 8.3093 0.0000 17.9391
#
#
#
# Elastic Compliance Matrix: (Units=1/GPa)
#
#
# Indices 1 2 3 4 5 6 
#
# 1 0.017533 -0.002699 -0.000241 0.000000 -0.005748 0.000000
# 2 -0.002699 0.014164 -0.006738 0.000000 0.000940 0.000000
# 3 -0.000241 -0.006738 0.025670 0.000000 0.006842 0.000000
# 4 0.000000 0.000000 0.000000 0.018062 0.000000 -0.008366
# 5 -0.005748 0.000940 0.006842 0.000000 0.060240 0.000000
# 6 0.000000 0.000000 0.000000 -0.008366 0.000000 0.059619
#
#
# Mechanical properties :
#
#
# Convention : Reuss Voigt Hill
#
# Bulk Modulus (GPa) = 26.30839 29.60817 27.95828
# Shear Modulus (GPa) = 21.99582 29.21862 25.60722
#
# Velocity S-wave (km/s) = 3.19952 3.68760 3.45220
# Velocity P-wave (km/s) = 5.08854 5.64898 5.37606
#
# Compressibility (1/GPa) = 0.03801068
#
# Stress axis : x y z
#
# Youngs Moduli (GPa) = 57.03584 70.60000 38.95546
#
# Poissons Ratio (x) = 0.19052 0.00941
# Poissons Ratio (y) = 0.15391 0.26250
# Poissons Ratio (z) = 0.01377 0.47573
#
# Static dielectric constant tensor:
#      x y z
#    x 1.752110 0.000000 0.006150 
#    y 0.000000 1.802180 0.000000 
#    z 0.006150 0.000000 1.815080 
# 
# From -- ./inp_files/21148.got.cif
#   From: 2010.05.17/outbox.cif.g08.bks.cpg/sg14_11_cif.got.tgz:21148.got - 2010.06.03 17:49:19.
