data_PCOD9246538
_publ_section_title
;
Structure prediction by ZEFSAII (Michael W. Deem and Ramdas Pophale) SiO2 
 PCOD9246538
Probable space group: P 21/C
;
_chemical_formula_sum "Si O2"
_cell_formula_units_Z 16
_cell_length_a 10.779649
_cell_length_b 7.251553
_cell_length_c 8.109257
_cell_angle_alpha 90.000000
_cell_angle_beta 62.701889
_cell_angle_gamma 90.000000
_cell_volume 563.298806
_symmetry_space_group_name_H-M "P 21/C"
_symmetry_group_IT_number 14
_symmetry_cell_setting 'monoclinic'
loop_
_space_group_symop_operation_xyz
x,y,z
-x,1/2+y,1/2-z
-x,-y,-z
x,1/2-y,1/2+z
loop_
_atom_site_type_symbol
_atom_site_label
_atom_site_fract_x
_atom_site_fract_y
_atom_site_fract_z
Si Si1 0.408872 0.418633 0.402664
Si Si2 0.838080 0.491875 0.252839
Si Si3 0.093624 0.418951 0.298486
Si Si4 0.337395 0.988200 0.454968
O O1 0.500000 0.500000 0.500000
O O2 0.264476 0.524952 0.525689
O O3 0.246035 0.923863 0.353915
O O4 0.505941 0.421019 0.180537
O O5 0.860331 0.709549 0.203223
O O6 0.635714 0.792747 0.559806
O O7 0.988203 0.413268 0.206240
O O8 0.000000 0.500000 0.500000
O O9 0.230862 0.539219 0.170595
#
# Coordination Sequence:
#
# PCOD9246538 Si02
#       4
#     4   4   4   4
#     4   9  20  40  64  92 126 164 209 260 312 370
#     4  10  22  42  63  90 127 162 206 260 313 374
#     4  11  22  39  64  93 126 164 206 256 315 377
#     4  10  21  41  65  91 127 166 208 260 312 373
#
# _framework density 28.404107
#
# number of rings (size 3 to 8) (size 9 to 14) (size 15 to 20)
#    0.000    2.000    0.000    3.750    0.000    2.000 
#    0.000   32.500    0.000    0.000    0.000    0.000 
#    0.000    0.000    0.000    0.000    0.000    0.000 
#
# Total GULP energy -89612.156552 kJ/mol
# GULP energy per Si atom -5600.759784 kJ/mol
# Density = 2.833946 g / cm^3
# Si number density = 28.404107 Si / 1000 Ang^3
#
#
#
# Elastic Constant Matrix: (Units=GPa)
#
#
# Indices 1 2 3 4 5 6 
#
# 1 150.0744 29.9864 57.8448 0.0000 -19.9216 0.0000
# 2 29.9864 81.9316 35.8827 0.0000 8.3546 0.0000
# 3 57.8448 35.8827 272.9405 0.0000 -56.6485 0.0000
# 4 0.0000 0.0000 0.0000 43.9519 0.0000 -0.9006
# 5 -19.9216 8.3546 -56.6485 0.0000 62.4903 0.0000
# 6 0.0000 0.0000 0.0000 -0.9006 0.0000 37.2124
#
#
#
# Elastic Compliance Matrix: (Units=1/GPa)
#
#
# Indices 1 2 3 4 5 6 
#
# 1 0.007810 -0.002684 -0.000876 0.000000 0.002055 0.000000
# 2 -0.002684 0.014755 -0.002412 0.000000 -0.005015 0.000000
# 3 -0.000876 -0.002412 0.005143 0.000000 0.004706 0.000000
# 4 0.000000 0.000000 0.000000 0.022763 0.000000 0.000551
# 5 0.002055 -0.005015 0.004706 0.000000 0.021594 0.000000
# 6 0.000000 0.000000 0.000000 0.000551 0.000000 0.026886
#
#
# Mechanical properties :
#
#
# Convention : Reuss Voigt Hill
#
# Bulk Modulus (GPa) = 63.43313 83.59714 73.51513
# Shear Modulus (GPa) = 43.04760 54.14644 48.59702
#
# Velocity S-wave (km/s) = 3.89722 4.37084 4.14081
# Velocity P-wave (km/s) = 6.52931 7.41401 6.98568
#
# Compressibility (1/GPa) = 0.01576463
#
# Stress axis : x y z
#
# Youngs Moduli (GPa) = 128.03988 67.77191 194.43472
#
# Poissons Ratio (x) = 0.18193 0.17029
# Poissons Ratio (y) = 0.34371 0.46893
# Poissons Ratio (z) = 0.11214 0.16345
#
# Static dielectric constant tensor:
#      x y z
#    x 2.165130 0.000000 0.034830 
#    y 0.000000 2.143050 0.000000 
#    z 0.034830 0.000000 2.310260 
# 
# From -- ./inp_files/11566.got.cif
#   From: 2010.05.17/outbox.cif.g08.bks.cpg/sg14_6_cif.got.tgz:11566.got - 2010.06.03 17:49:19.
