data_PCOD9246973
_publ_section_title
;
Structure prediction by ZEFSAII (Michael W. Deem and Ramdas Pophale) SiO2 
 PCOD9246973
Probable space group: P 21/C
;
_chemical_formula_sum "Si O2"
_cell_formula_units_Z 28
_cell_length_a 15.627536
_cell_length_b 7.979975
_cell_length_c 13.189059
_cell_angle_alpha 90.000000
_cell_angle_beta 51.120900
_cell_angle_gamma 90.000000
_cell_volume 1280.409643
_symmetry_space_group_name_H-M "P 21/C"
_symmetry_group_IT_number 14
_symmetry_cell_setting 'monoclinic'
loop_
_space_group_symop_operation_xyz
x,y,z
-x,1/2+y,1/2-z
-x,-y,-z
x,1/2-y,1/2+z
loop_
_atom_site_type_symbol
_atom_site_label
_atom_site_fract_x
_atom_site_fract_y
_atom_site_fract_z
Si Si1 0.287293 0.468299 0.755003
Si Si2 0.497805 0.253902 0.576496
Si Si3 0.860831 0.157175 0.794223
Si Si4 0.354997 0.926120 0.689960
Si Si5 0.302837 0.783864 0.419786
Si Si6 0.032734 0.056327 0.126080
Si Si7 0.844982 0.626144 0.671034
O O1 0.409671 0.403754 0.633387
O O2 0.227058 0.602870 0.726336
O O3 0.296607 0.541669 0.862215
O O4 0.208971 0.306870 0.802066
O O5 0.565897 0.204761 0.425274
O O6 0.589072 0.258507 0.595464
O O7 0.427276 0.089619 0.655643
O O8 0.958333 0.276222 0.682533
O O9 0.908569 0.990298 0.812843
O O10 0.798669 0.254506 0.930733
O O11 0.308958 0.848974 0.825598
O O12 0.248442 0.002378 0.713454
O O13 0.115878 0.072551 0.970433
O O14 0.951607 0.900988 0.160454
#
# Coordination Sequence:
#
# PCOD9246973 Si02
#       7
#     4   4   4   4   4   4   4
#     4  11  26  44  67 105 136 182 230 288 342 423
#     4  10  23  42  68  96 132 177 220 280 349 411
#     4  12  27  43  69 102 138 183 238 287 350 408
#     4  10  21  43  64  95 132 171 218 280 338 410
#     4  12  23  41  66  97 133 176 225 283 338 416
#     4  11  24  44  69  97 135 187 228 291 344 406
#     4  10  22  45  69  94 138 178 232 284 344 409
#
# _framework density 21.868001
#
# number of rings (size 3 to 8) (size 9 to 14) (size 15 to 20)
#    0.000    1.143    1.429    4.286    4.000    4.000 
#    7.714    0.000    0.000    0.000    0.000    0.000 
#    0.000    0.000    0.000    0.000    0.000    0.000 
#
# Total GULP energy -156372.560512 kJ/mol
# GULP energy per Si atom -5584.734304 kJ/mol
# Density = 2.181823 g / cm^3
# Si number density = 21.868001 Si / 1000 Ang^3
#
#
#
# Elastic Constant Matrix: (Units=GPa)
#
#
# Indices 1 2 3 4 5 6 
#
# 1 64.2274 22.6750 -8.0065 0.0000 5.8727 0.0000
# 2 22.6750 88.2890 33.0975 0.0000 -15.0992 0.0000
# 3 -8.0065 33.0975 62.9317 0.0000 -9.0750 0.0000
# 4 0.0000 0.0000 0.0000 34.5330 0.0000 -8.7170
# 5 5.8727 -15.0992 -9.0750 0.0000 30.7592 0.0000
# 6 0.0000 0.0000 0.0000 -8.7170 0.0000 41.3876
#
#
#
# Elastic Compliance Matrix: (Units=1/GPa)
#
#
# Indices 1 2 3 4 5 6 
#
# 1 0.019864 -0.008429 0.006075 0.000000 -0.006138 0.000000
# 2 -0.008429 0.018444 -0.009645 0.000000 0.007817 0.000000
# 3 0.006075 -0.009645 0.021814 0.000000 0.000541 0.000000
# 4 0.000000 0.000000 0.000000 0.030584 0.000000 0.006441
# 5 -0.006138 0.007817 0.000541 0.000000 0.037680 0.000000
# 6 0.000000 0.000000 0.000000 0.006441 0.000000 0.025519
#
#
# Mechanical properties :
#
#
# Convention : Reuss Voigt Hill
#
# Bulk Modulus (GPa) = 27.68252 34.55335 31.11794
# Shear Modulus (GPa) = 26.32378 32.51475 29.41927
#
# Velocity S-wave (km/s) = 3.47329 3.86017 3.67183
# Velocity P-wave (km/s) = 5.36389 5.97520 5.67778
#
# Compressibility (1/GPa) = 0.03612388
#
# Stress axis : x y z
#
# Youngs Moduli (GPa) = 50.34271 54.21872 45.84248
#
# Poissons Ratio (x) = 0.45699 -0.27849
# Poissons Ratio (y) = 0.42432 0.44216
# Poissons Ratio (z) = -0.30583 0.52295
#
# Static dielectric constant tensor:
#      x y z
#    x 1.804810 0.000000 -0.006090 
#    y 0.000000 1.854820 0.000000 
#    z -0.006090 0.000000 1.759060 
# 
# From -- ./inp_files/31734.got.cif
#   From: 2010.05.17/outbox.cif.g08.bks.cpg/sg14_16_cif.got.tgz:31734.got - 2010.06.03 17:49:19.
