data_PCOD9246772
_publ_section_title
;
Structure prediction by ZEFSAII (Michael W. Deem and Ramdas Pophale) SiO2 
 PCOD9246772
Probable space group: P 21/C
;
_chemical_formula_sum "Si O2"
_cell_formula_units_Z 32
_cell_length_a 11.328344
_cell_length_b 8.378146
_cell_length_c 12.956859
_cell_angle_alpha 90.000000
_cell_angle_beta 76.784524
_cell_angle_gamma 90.000000
_cell_volume 1197.175193
_symmetry_space_group_name_H-M "P 21/C"
_symmetry_group_IT_number 14
_symmetry_cell_setting 'monoclinic'
loop_
_space_group_symop_operation_xyz
x,y,z
-x,1/2+y,1/2-z
-x,-y,-z
x,1/2-y,1/2+z
loop_
_atom_site_type_symbol
_atom_site_label
_atom_site_fract_x
_atom_site_fract_y
_atom_site_fract_z
Si Si1 0.707097 0.127689 0.829199
Si Si2 0.187378 0.488322 0.385757
Si Si3 0.924442 0.793307 0.257866
Si Si4 0.482137 0.684494 0.910866
Si Si5 0.196063 0.795069 0.516661
Si Si6 0.562614 0.390543 0.763018
Si Si7 0.288850 0.310389 0.549519
Si Si8 0.101106 0.523433 0.863220
O O1 0.593093 0.230194 0.819280
O O2 0.767449 0.055125 0.715669
O O3 0.684075 0.991034 0.917277
O O4 0.804338 0.247828 0.863751
O O5 0.090827 0.437699 0.320069
O O6 0.151217 0.639796 0.462260
O O7 0.309508 0.539576 0.302434
O O8 0.223040 0.340252 0.453529
O O9 0.800595 0.762751 0.346928
O O10 0.940987 0.642098 0.178667
O O11 0.017563 0.842077 0.327685
O O12 0.341828 0.688511 0.971000
O O13 0.504103 0.522324 0.845272
O O14 0.504640 0.829293 0.825211
O O15 0.587870 0.710104 0.973289
O O16 0.125833 0.943337 0.479470
#
# Coordination Sequence:
#
# PCOD9246772 Si02
#       8
#     4   4   4   4   4   4   4   4
#     4  10  22  42  63  89 130 166 208 256 309 375
#     4  10  21  42  64  91 126 168 205 254 310 371
#     4  11  24  42  68  89 125 164 210 266 311 374
#     4  11  22  36  63  94 129 167 204 257 305 375
#     4  10  23  41  62  94 127 166 208 255 314 372
#     4  11  22  37  65  87 134 167 208 251 308 378
#     4  10  23  41  63  98 125 166 211 249 315 376
#     4  11  23  43  64  91 123 163 211 262 316 367
#
# _framework density 26.729588
#
# number of rings (size 3 to 8) (size 9 to 14) (size 15 to 20)
#    0.000    1.500    3.750    1.500    1.750    8.000 
#    0.000    5.000    0.000    0.000    0.000    0.000 
#    0.000    0.000    0.000    0.000    0.000    0.000 
#
# Total GULP energy -179359.499796 kJ/mol
# GULP energy per Si atom -5604.984369 kJ/mol
# Density = 2.666875 g / cm^3
# Si number density = 26.729588 Si / 1000 Ang^3
#
#
#
# Elastic Constant Matrix: (Units=GPa)
#
#
# Indices 1 2 3 4 5 6 
#
# 1 66.3413 11.1974 8.7148 0.0000 16.1071 0.0000
# 2 11.1974 77.6386 4.4860 0.0000 -2.3523 0.0000
# 3 8.7148 4.4860 81.1822 0.0000 12.3856 0.0000
# 4 0.0000 0.0000 0.0000 44.7807 0.0000 18.5883
# 5 16.1071 -2.3523 12.3856 0.0000 50.3569 0.0000
# 6 0.0000 0.0000 0.0000 18.5883 0.0000 37.9051
#
#
#
# Elastic Compliance Matrix: (Units=1/GPa)
#
#
# Indices 1 2 3 4 5 6 
#
# 1 0.016908 -0.002550 -0.000863 0.000000 -0.005315 0.000000
# 2 -0.002550 0.013338 -0.000709 0.000000 0.001613 0.000000
# 3 -0.000863 -0.000709 0.012897 0.000000 -0.002929 0.000000
# 4 0.000000 0.000000 0.000000 0.028039 0.000000 -0.013750
# 5 -0.005315 0.001613 -0.002929 0.000000 0.022354 0.000000
# 6 0.000000 0.000000 0.000000 -0.013750 0.000000 0.033125
#
#
# Mechanical properties :
#
#
# Convention : Reuss Voigt Hill
#
# Bulk Modulus (GPa) = 28.65534 30.43984 29.54759
# Shear Modulus (GPa) = 34.12118 39.99280 37.05699
#
# Velocity S-wave (km/s) = 3.57674 3.87227 3.72743
# Velocity P-wave (km/s) = 5.27268 5.60405 5.44089
#
# Compressibility (1/GPa) = 0.03489750
#
# Stress axis : x y z
#
# Youngs Moduli (GPa) = 59.14458 74.97500 77.53911
#
# Poissons Ratio (x) = 0.19116 0.06694
# Poissons Ratio (y) = 0.15080 0.05501
# Poissons Ratio (z) = 0.05106 0.05319
#
# Static dielectric constant tensor:
#      x y z
#    x 2.059040 0.000000 0.010360 
#    y 0.000000 2.094830 0.000000 
#    z 0.010360 0.000000 2.059350 
# 
# From -- ./inp_files/43435.got.cif
#   From: 2010.05.17/outbox.cif.g08.bks.cpg/sg14_22_cif.got.tgz:43435.got - 2010.06.03 17:49:19.
