data_PCOD9246255
_publ_section_title
;
Structure prediction by ZEFSAII (Michael W. Deem and Ramdas Pophale) SiO2 
 PCOD9246255
Probable space group: P 21/C
;
_chemical_formula_sum "Si O2"
_cell_formula_units_Z 24
_cell_length_a 26.711664
_cell_length_b 9.921705
_cell_length_c 12.554778
_cell_angle_alpha 90.000000
_cell_angle_beta 18.614173
_cell_angle_gamma 90.000000
_cell_volume 1062.063938
_symmetry_space_group_name_H-M "P 21/C"
_symmetry_group_IT_number 14
_symmetry_cell_setting 'monoclinic'
loop_
_space_group_symop_operation_xyz
x,y,z
-x,1/2+y,1/2-z
-x,-y,-z
x,1/2-y,1/2+z
loop_
_atom_site_type_symbol
_atom_site_label
_atom_site_fract_x
_atom_site_fract_y
_atom_site_fract_z
Si Si1 0.110407 0.111225 0.639061
Si Si2 0.128705 0.697706 0.759200
Si Si3 0.517238 0.349443 0.920793
Si Si4 0.691549 0.857638 0.341019
Si Si5 0.972703 0.026843 0.706505
Si Si6 0.649859 0.910333 0.669090
O O1 0.225005 0.213037 0.342289
O O2 0.211283 0.047889 0.530757
O O3 0.035227 0.020794 0.699935
O O4 0.971270 0.194108 0.975262
O O5 0.314254 0.712529 0.390429
O O6 0.057127 0.672719 0.785898
O O7 0.092876 0.557091 0.892695
O O8 0.500000 0.500000 0.000000
O O9 0.477453 0.352781 0.875135
O O10 0.389523 0.246354 0.225943
O O11 0.685227 0.911933 0.473040
O O12 0.803160 0.956152 0.047943
O O13 0.500000 0.000000 0.000000
#
# Coordination Sequence:
#
# PCOD9246255 Si02
#       6
#     4   4   4   4   4   4
#     4  10  23  42  65  93 133 176 217 278 329 394
#     4  10  22  40  67  98 122 174 229 265 322 404
#     4  11  24  43  70  95 127 176 224 267 322 404
#     4  10  23  42  63  94 131 172 217 273 330 388
#     4  10  21  40  66  89 129 168 223 266 326 390
#     4  11  27  44  62  98 139 171 213 279 344 388
#
# _framework density 22.59751
#
# number of rings (size 3 to 8) (size 9 to 14) (size 15 to 20)
#    0.000    1.667    1.667    1.000    9.333    3.333 
#    3.000    0.000    0.000    0.000    0.000    0.000 
#    0.000    0.000    0.000    0.000    0.000    0.000 
#
# Total GULP energy -134174.827709 kJ/mol
# GULP energy per Si atom -5590.617821 kJ/mol
# Density = 2.254608 g / cm^3
# Si number density = 22.597510 Si / 1000 Ang^3
#
#
#
# Elastic Constant Matrix: (Units=GPa)
#
#
# Indices 1 2 3 4 5 6 
#
# 1 125.7755 4.2204 32.7578 0.0000 -11.4035 0.0000
# 2 4.2204 44.3167 1.0298 0.0000 -1.1499 0.0000
# 3 32.7578 1.0298 70.2743 0.0000 -13.1081 0.0000
# 4 0.0000 0.0000 0.0000 32.7842 0.0000 1.4228
# 5 -11.4035 -1.1499 -13.1081 0.0000 41.4177 0.0000
# 6 0.0000 0.0000 0.0000 1.4228 0.0000 26.0781
#
#
#
# Elastic Compliance Matrix: (Units=1/GPa)
#
#
# Indices 1 2 3 4 5 6 
#
# 1 0.009133 -0.000745 -0.004018 0.000000 0.001222 0.000000
# 2 -0.000745 0.022645 0.000100 0.000000 0.000455 0.000000
# 3 -0.004018 0.000100 0.016893 0.000000 0.004243 0.000000
# 4 0.000000 0.000000 0.000000 0.030575 0.000000 -0.001668
# 5 0.001222 0.000455 0.004243 0.000000 0.025836 0.000000
# 6 0.000000 0.000000 0.000000 -0.001668 0.000000 0.038437
#
#
# Mechanical properties :
#
#
# Convention : Reuss Voigt Hill
#
# Bulk Modulus (GPa) = 25.41577 35.15359 30.28468
# Shear Modulus (GPa) = 30.12763 33.54659 31.83711
#
# Velocity S-wave (km/s) = 3.65530 3.85713 3.75757
# Velocity P-wave (km/s) = 5.39319 5.95204 5.67950
#
# Compressibility (1/GPa) = 0.03934565
#
# Stress axis : x y z
#
# Youngs Moduli (GPa) = 109.49242 44.15934 59.19602
#
# Poissons Ratio (x) = 0.03288 0.23787
# Poissons Ratio (y) = 0.08154 -0.00593
# Poissons Ratio (z) = 0.43999 -0.00443
#
# Static dielectric constant tensor:
#      x y z
#    x 1.890160 0.000000 -0.057150 
#    y 0.000000 1.895460 0.000000 
#    z -0.057150 0.000000 1.818220 
# 
# From -- ./inp_files/35895.got.cif
#   From: 2010.05.17/outbox.cif.g08.bks.cpg/sg14_18_cif.got.tgz:35895.got - 2010.06.03 17:49:19.
