data_PCOD9246331
_publ_section_title
;
Structure prediction by ZEFSAII (Michael W. Deem and Ramdas Pophale) SiO2 
 PCOD9246331
Probable space group: P 21/C
;
_chemical_formula_sum "Si O2"
_cell_formula_units_Z 24
_cell_length_a 8.205750
_cell_length_b 14.611757
_cell_length_c 9.975327
_cell_angle_alpha 90.000000
_cell_angle_beta 86.894124
_cell_angle_gamma 90.000000
_cell_volume 1194.289098
_symmetry_space_group_name_H-M "P 21/C"
_symmetry_group_IT_number 14
_symmetry_cell_setting 'monoclinic'
loop_
_space_group_symop_operation_xyz
x,y,z
-x,1/2+y,1/2-z
-x,-y,-z
x,1/2-y,1/2+z
loop_
_atom_site_type_symbol
_atom_site_label
_atom_site_fract_x
_atom_site_fract_y
_atom_site_fract_z
Si Si1 0.598311 0.708216 0.130140
Si Si2 0.187924 0.297350 0.144109
Si Si3 0.512181 0.537335 0.307332
Si Si4 0.852754 0.965238 0.195588
Si Si5 0.016427 0.868912 0.941883
Si Si6 0.634156 0.132699 0.932520
O O1 0.717429 0.758961 0.229946
O O2 0.558726 0.608988 0.191849
O O3 0.440847 0.774257 0.122007
O O4 0.685995 0.697400 0.983830
O O5 0.112735 0.394636 0.188189
O O6 0.051303 0.225116 0.109341
O O7 0.336488 0.492045 0.288460
O O8 0.487387 0.597446 0.443829
O O9 0.632549 0.452623 0.329667
O O10 0.954199 0.058491 0.178465
O O11 0.891643 0.914002 0.053386
O O12 0.188109 0.856877 0.010988
#
# Coordination Sequence:
#
# PCOD9246331 Si02
#       6
#     4   4   4   4   4   4
#     4  12  24  41  72  95 132 174 224 274 326 386
#     4  12  23  45  66 101 130 177 215 276 332 390
#     4  10  21  40  68  95 127 172 224 264 323 393
#     4  10  22  43  67  93 133 172 220 259 330 393
#     4  10  23  40  72  94 131 181 218 262 330 405
#     4  10  21  41  66  98 124 175 223 263 320 403
#
# _framework density 20.095638999999998
#
# number of rings (size 3 to 8) (size 9 to 14) (size 15 to 20)
#    0.000    1.333    5.000    0.000    7.000    3.333 
#    0.000    0.833    0.000    0.000    0.000    0.000 
#    0.000    0.000    0.000    0.000    0.000    0.000 
#
# Total GULP energy -134146.876143 kJ/mol
# GULP energy per Si atom -5589.453173 kJ/mol
# Density = 2.004990 g / cm^3
# Si number density = 20.095639 Si / 1000 Ang^3
#
#
#
# Elastic Constant Matrix: (Units=GPa)
#
#
# Indices 1 2 3 4 5 6 
#
# 1 74.8461 61.0643 18.3668 0.0000 2.2887 0.0000
# 2 61.0643 155.8563 50.4720 0.0000 5.7775 0.0000
# 3 18.3668 50.4720 55.3311 0.0000 -12.4243 0.0000
# 4 0.0000 0.0000 0.0000 50.9742 0.0000 5.6402
# 5 2.2887 5.7775 -12.4243 0.0000 13.3256 0.0000
# 6 0.0000 0.0000 0.0000 5.6402 0.0000 33.5594
#
#
#
# Elastic Compliance Matrix: (Units=1/GPa)
#
#
# Indices 1 2 3 4 5 6 
#
# 1 0.019670 -0.008128 0.001161 0.000000 0.001228 0.000000
# 2 -0.008128 0.015550 -0.016046 0.000000 -0.020306 0.000000
# 3 0.001161 -0.016046 0.042803 0.000000 0.046665 0.000000
# 4 0.000000 0.000000 0.000000 0.019990 0.000000 -0.003360
# 5 0.001228 -0.020306 0.046665 0.000000 0.127145 0.000000
# 6 0.000000 0.000000 0.000000 -0.003360 0.000000 0.030362
#
#
# Mechanical properties :
#
#
# Convention : Reuss Voigt Hill
#
# Bulk Modulus (GPa) = 31.25387 60.64887 45.95137
# Shear Modulus (GPa) = 16.01485 29.98054 22.99769
#
# Velocity S-wave (km/s) = 2.82606 3.86669 3.38659
# Velocity P-wave (km/s) = 5.12203 7.08384 6.18126
#
# Compressibility (1/GPa) = 0.03199603
#
# Stress axis : x y z
#
# Youngs Moduli (GPa) = 50.83962 64.31046 23.36302
#
# Poissons Ratio (x) = 0.52271 -0.02712
# Poissons Ratio (y) = 0.41322 0.37487
# Poissons Ratio (z) = -0.05900 1.03190
#
# Static dielectric constant tensor:
#      x y z
#    x 1.709980 0.000000 -0.001100 
#    y 0.000000 1.728530 0.000000 
#    z -0.001100 0.000000 1.704560 
# 
# From -- ./inp_files/8626.got.cif
#   From: 2010.05.17/outbox.cif.g08.bks.cpg/sg14_5_cif.got.tgz:8626.got - 2010.06.03 17:49:19.
