data_PCOD9246636
_publ_section_title
;
Structure prediction by ZEFSAII (Michael W. Deem and Ramdas Pophale) SiO2 
 PCOD9246636
Probable space group: P 21/C
;
_chemical_formula_sum "Si O2"
_cell_formula_units_Z 20
_cell_length_a 5.199847
_cell_length_b 8.050348
_cell_length_c 21.416436
_cell_angle_alpha 90.000000
_cell_angle_beta 77.420050
_cell_angle_gamma 90.000000
_cell_volume 874.982041
_symmetry_space_group_name_H-M "P 21/C"
_symmetry_group_IT_number 14
_symmetry_cell_setting 'monoclinic'
loop_
_space_group_symop_operation_xyz
x,y,z
-x,1/2+y,1/2-z
-x,-y,-z
x,1/2-y,1/2+z
loop_
_atom_site_type_symbol
_atom_site_label
_atom_site_fract_x
_atom_site_fract_y
_atom_site_fract_z
Si Si1 0.982939 0.386217 0.878842
Si Si2 0.951103 0.194362 0.011773
Si Si3 0.418733 0.372374 0.058775
Si Si4 0.158520 0.321130 0.739485
Si Si5 0.288950 0.643391 0.799215
O O1 0.033912 0.279861 0.814261
O O2 0.213298 0.524418 0.861146
O O3 0.722503 0.499119 0.886110
O O4 0.981647 0.286604 0.942924
O O5 0.662252 0.245025 0.053046
O O6 0.176540 0.265013 0.044585
O O7 0.000000 0.000000 0.000000
O O8 0.500000 0.500000 0.000000
O O9 0.247003 0.511643 0.744638
O O10 0.422397 0.217810 0.714016
O O11 0.932635 0.283228 0.701294
#
# Coordination Sequence:
#
# PCOD9246636 Si02
#       5
#     4   4   4   4   4
#     4   9  23  41  65  87 129 165 205 250 324 367
#     4  11  23  42  64  97 125 157 213 267 301 373
#     4  10  21  41  68  88 124 165 203 247 317 379
#     4  10  22  40  62  88 124 159 211 255 304 371
#     4  10  22  40  62  86 125 159 206 256 304 370
#
# _framework density 22.857610000000001
#
# number of rings (size 3 to 8) (size 9 to 14) (size 15 to 20)
#    1.200    0.800    0.000    4.200    0.000    9.600 
#   10.800    0.000    0.000    0.000    0.000    0.000 
#    0.000    0.000    0.000    0.000    0.000    0.000 
#
# Total GULP energy -111535.471647 kJ/mol
# GULP energy per Si atom -5576.773582 kJ/mol
# Density = 2.280559 g / cm^3
# Si number density = 22.857610 Si / 1000 Ang^3
#
#
#
# Elastic Constant Matrix: (Units=GPa)
#
#
# Indices 1 2 3 4 5 6 
#
# 1 192.6425 64.8165 41.7386 0.0000 -26.7818 0.0000
# 2 64.8165 118.1485 15.3881 0.0000 -17.7687 0.0000
# 3 41.7386 15.3881 60.1375 0.0000 -29.2724 0.0000
# 4 0.0000 0.0000 0.0000 48.9530 0.0000 -2.4008
# 5 -26.7818 -17.7687 -29.2724 0.0000 31.5129 0.0000
# 6 0.0000 0.0000 0.0000 -2.4008 0.0000 31.4214
#
#
#
# Elastic Compliance Matrix: (Units=1/GPa)
#
#
# Indices 1 2 3 4 5 6 
#
# 1 0.007254 -0.003375 -0.003827 0.000000 0.000707 0.000000
# 2 -0.003375 0.010821 0.002094 0.000000 0.005179 0.000000
# 3 -0.003827 0.002094 0.032382 0.000000 0.028008 0.000000
# 4 0.000000 0.000000 0.000000 0.020505 0.000000 0.001567
# 5 0.000707 0.005179 0.028008 0.000000 0.061271 0.000000
# 6 0.000000 0.000000 0.000000 0.001567 0.000000 0.031945
#
#
# Mechanical properties :
#
#
# Convention : Reuss Voigt Hill
#
# Bulk Modulus (GPa) = 24.84945 68.31276 46.58111
# Shear Modulus (GPa) = 26.62310 38.97648 32.79979
#
# Velocity S-wave (km/s) = 3.41653 4.13387 3.79220
# Velocity P-wave (km/s) = 5.14379 7.26197 6.29265
#
# Compressibility (1/GPa) = 0.04024233
#
# Stress axis : x y z
#
# Youngs Moduli (GPa) = 137.85763 92.40934 30.88152
#
# Poissons Ratio (x) = 0.31185 0.11818
# Poissons Ratio (y) = 0.46523 -0.06467
# Poissons Ratio (z) = 0.52754 -0.19351
#
# Static dielectric constant tensor:
#      x y z
#    x 1.709270 0.000000 -0.179790 
#    y 0.000000 1.818550 0.000000 
#    z -0.179790 0.000000 1.708060 
# 
# From -- ./inp_files/75527.got.cif
#   From: 2010.05.17/outbox.cif.g08.bks.cpg/sg14_38_cif.got.tgz:75527.got - 2010.06.03 17:49:19.
