data_PCOD9246950
_publ_section_title
;
Structure prediction by ZEFSAII (Michael W. Deem and Ramdas Pophale) SiO2 
 PCOD9246950
Probable space group: P 21/C
;
_chemical_formula_sum "Si O2"
_cell_formula_units_Z 30
_cell_length_a 17.423448
_cell_length_b 6.712004
_cell_length_c 14.623239
_cell_angle_alpha 90.000000
_cell_angle_beta 119.439375
_cell_angle_gamma 90.000000
_cell_volume 1489.314208
_symmetry_space_group_name_H-M "P 21/C"
_symmetry_group_IT_number 14
_symmetry_cell_setting 'monoclinic'
loop_
_space_group_symop_operation_xyz
x,y,z
-x,1/2+y,1/2-z
-x,-y,-z
x,1/2-y,1/2+z
loop_
_atom_site_type_symbol
_atom_site_label
_atom_site_fract_x
_atom_site_fract_y
_atom_site_fract_z
Si Si1 0.100301 0.196821 0.621694
Si Si2 0.500000 0.500000 0.000000
Si Si3 0.099467 0.914634 0.236168
Si Si4 0.950098 0.599185 0.106910
Si Si5 0.452507 0.256822 0.650232
Si Si6 0.753577 0.095383 0.225810
Si Si7 0.637320 0.399060 0.833837
Si Si8 0.620760 0.148950 0.988655
O O1 0.093511 0.419644 0.654042
O O2 0.102485 0.172286 0.513288
O O3 0.185126 0.093037 0.716414
O O4 0.015261 0.074750 0.608465
O O5 0.524030 0.604630 0.916772
O O6 0.547430 0.287676 0.992969
O O7 0.182229 0.774619 0.264864
O O8 0.012561 0.777018 0.179313
O O9 0.103293 0.017413 0.337779
O O10 0.540757 0.306720 0.757299
O O11 0.417479 0.460988 0.587662
O O12 0.379916 0.135569 0.665975
O O13 0.699960 0.145010 0.285882
O O14 0.685067 0.066123 0.104265
O O15 0.670281 0.292513 0.945067
#
# Coordination Sequence:
#
# PCOD9246950 Si02
#       8
#     4   2   4   4   4   4   4   4
#     4  10  23  43  66 101 131 173 216 272 336 399
#     4  10  22  38  68  92 120 176 228 282 330 400
#     4  11  22  44  68 101 132 180 216 274 339 407
#     4  10  21  42  74  95 129 171 227 266 316 420
#     4  11  22  41  68  91 126 180 235 276 337 395
#     4  11  27  43  63 100 141 170 219 284 347 394
#     4  11  24  43  65  97 131 176 231 284 335 415
#     4  11  24  44  68  97 131 177 228 289 338 403
#
# _framework density 20.143498999999998
#
# number of rings (size 3 to 8) (size 9 to 14) (size 15 to 20)
#    0.000    1.333    4.000    0.800    1.867    3.200 
#    2.400    0.000    0.000    0.000    0.000    0.000 
#    0.000    0.000    0.000    0.000    0.000    0.000 
#
# Total GULP energy -167116.554603 kJ/mol
# GULP energy per Si atom -5570.551820 kJ/mol
# Density = 2.009765 g / cm^3
# Si number density = 20.143499 Si / 1000 Ang^3
#
#
#
# Elastic Constant Matrix: (Units=GPa)
#
#
# Indices 1 2 3 4 5 6 
#
# 1 80.8079 29.1106 40.1904 0.0000 -25.7301 0.0000
# 2 29.1106 87.2596 30.1672 0.0000 -6.9492 0.0000
# 3 40.1904 30.1672 80.4564 0.0000 -20.1485 0.0000
# 4 0.0000 0.0000 0.0000 31.2304 0.0000 -19.8444
# 5 -25.7301 -6.9492 -20.1485 0.0000 21.4916 0.0000
# 6 0.0000 0.0000 0.0000 -19.8444 0.0000 13.9631
#
#
#
# Elastic Compliance Matrix: (Units=1/GPa)
#
#
# Indices 1 2 3 4 5 6 
#
# 1 0.023258 -0.004478 -0.004350 0.000000 0.022319 0.000000
# 2 -0.004478 0.014033 -0.004222 0.000000 -0.004782 0.000000
# 3 -0.004350 -0.004222 0.019000 0.000000 0.011239 0.000000
# 4 0.000000 0.000000 0.000000 0.330311 0.000000 0.469439
# 5 0.022319 -0.004782 0.011239 0.000000 0.082241 0.000000
# 6 0.000000 0.000000 0.000000 0.469439 0.000000 0.738784
#
#
# Mechanical properties :
#
#
# Convention : Reuss Voigt Hill
#
# Bulk Modulus (GPa) = 33.12275 49.71783 41.42029
# Shear Modulus (GPa) = 4.01997 23.27406 13.64701
#
# Velocity S-wave (km/s) = 1.41421 3.40282 2.60569
# Velocity P-wave (km/s) = 4.37559 6.33832 5.44610
#
# Compressibility (1/GPa) = 0.03019073
#
# Stress axis : x y z
#
# Youngs Moduli (GPa) = 42.99542 71.26149 52.63209
#
# Poissons Ratio (x) = 0.31910 0.22894
# Poissons Ratio (y) = 0.19253 0.22223
# Poissons Ratio (z) = 0.18703 0.30089
#
# Static dielectric constant tensor:
#      x y z
#    x 1.708870 0.000000 0.005730 
#    y 0.000000 1.694180 0.000000 
#    z 0.005730 0.000000 1.706950 
# 
# From -- ./inp_files/48137.got.cif
#   From: 2010.05.17/outbox.cif.g08.bks.cpg/sg14_25_cif.got.tgz:48137.got - 2010.06.03 17:49:19.
