data_PCOD9246045
_publ_section_title
;
Structure prediction by ZEFSAII (Michael W. Deem and Ramdas Pophale) SiO2 
 PCOD9246045
Probable space group: P 21/C
;
_chemical_formula_sum "Si O2"
_cell_formula_units_Z 32
_cell_length_a 7.796070
_cell_length_b 25.905813
_cell_length_c 7.991796
_cell_angle_alpha 90.000000
_cell_angle_beta 119.768305
_cell_angle_gamma 90.000000
_cell_volume 1401.061512
_symmetry_space_group_name_H-M "P 21/C"
_symmetry_group_IT_number 14
_symmetry_cell_setting 'monoclinic'
loop_
_space_group_symop_operation_xyz
x,y,z
-x,1/2+y,1/2-z
-x,-y,-z
x,1/2-y,1/2+z
loop_
_atom_site_type_symbol
_atom_site_label
_atom_site_fract_x
_atom_site_fract_y
_atom_site_fract_z
Si Si1 0.410910 0.161114 0.860962
Si Si2 0.723607 0.341005 0.288421
Si Si3 0.166819 0.093356 0.519465
Si Si4 0.239684 0.925204 0.474711
Si Si5 0.617832 0.726597 0.031103
Si Si6 0.653506 0.004729 0.219382
Si Si7 0.944963 0.979918 0.789958
Si Si8 0.820424 0.685994 0.444418
O O1 0.620442 0.137651 0.908132
O O2 0.270135 0.145357 0.636365
O O3 0.452749 0.221721 0.905245
O O4 0.295831 0.149354 0.977852
O O5 0.712101 0.381591 0.132710
O O6 0.948557 0.326277 0.434954
O O7 0.578285 0.296162 0.149432
O O8 0.959643 0.090307 0.520552
O O9 0.134232 0.076299 0.309932
O O10 0.309565 0.048274 0.662452
O O11 0.392654 0.946336 0.685355
O O12 0.200695 0.976500 0.348603
O O13 0.718390 0.688523 0.214143
O O14 0.782955 0.755656 0.997660
O O15 0.861911 0.014484 0.230936
O O16 0.500000 0.000000 0.000000
O O17 0.000000 0.000000 0.000000
#
# Coordination Sequence:
#
# PCOD9246045 Si02
#       8
#     4   4   4   4   4   4   4   4
#     4  10  21  40  60  93 119 158 214 248 310 375
#     4  12  23  41  67  90 126 167 209 255 319 374
#     4   9  18  39  59  80 128 163 196 264 301 368
#     4   9  19  39  57  87 121 170 197 251 321 360
#     4  10  22  43  62  91 121 161 211 255 311 374
#     4   9  19  34  60  83 120 160 201 247 308 370
#     4   9  19  36  60  86 125 161 203 251 316 366
#     4  10  23  42  63  87 130 153 207 262 315 355
#
# _framework density 22.839827
#
# number of rings (size 3 to 8) (size 9 to 14) (size 15 to 20)
#    0.750    1.500    2.500    1.500    1.750    3.000 
#    2.250    3.750    2.750    0.000    0.000    0.000 
#    0.000    0.000    0.000    0.000    0.000    0.000 
#
# Total GULP energy -178190.182776 kJ/mol
# GULP energy per Si atom -5568.443212 kJ/mol
# Density = 2.278784 g / cm^3
# Si number density = 22.839827 Si / 1000 Ang^3
#
#
#
# Elastic Constant Matrix: (Units=GPa)
#
#
# Indices 1 2 3 4 5 6 
#
# 1 88.9206 3.8691 19.7473 0.0000 6.1662 0.0000
# 2 3.8691 43.8806 -11.2977 0.0000 10.9963 0.0000
# 3 19.7473 -11.2977 96.1171 0.0000 5.1892 0.0000
# 4 0.0000 0.0000 0.0000 28.2684 0.0000 1.1721
# 5 6.1662 10.9963 5.1892 0.0000 26.3306 0.0000
# 6 0.0000 0.0000 0.0000 1.1721 0.0000 25.6043
#
#
#
# Elastic Compliance Matrix: (Units=1/GPa)
#
#
# Indices 1 2 3 4 5 6 
#
# 1 0.011983 -0.001256 -0.002513 0.000000 -0.001786 0.000000
# 2 -0.001256 0.026883 0.004051 0.000000 -0.011731 0.000000
# 3 -0.002513 0.004051 0.011579 0.000000 -0.003385 0.000000
# 4 0.000000 0.000000 0.000000 0.035443 0.000000 -0.001622
# 5 -0.001786 -0.011731 -0.003385 0.000000 0.043963 0.000000
# 6 0.000000 0.000000 0.000000 -0.001622 0.000000 0.039130
#
#
# Mechanical properties :
#
#
# Convention : Reuss Voigt Hill
#
# Bulk Modulus (GPa) = 19.60440 28.17287 23.88863
# Shear Modulus (GPa) = 26.96596 30.48062 28.72329
#
# Velocity S-wave (km/s) = 3.43979 3.65710 3.55011
# Velocity P-wave (km/s) = 4.93744 5.49493 5.22363
#
# Compressibility (1/GPa) = 0.05100896
#
# Stress axis : x y z
#
# Youngs Moduli (GPa) = 83.45438 37.19874 86.36159
#
# Poissons Ratio (x) = 0.04672 0.21703
# Poissons Ratio (y) = 0.10481 -0.34987
# Poissons Ratio (z) = 0.20972 -0.15070
#
# Static dielectric constant tensor:
#      x y z
#    x 1.885070 0.000000 -0.079350 
#    y 0.000000 1.923870 0.000000 
#    z -0.079350 0.000000 1.890980 
# 
# From -- ./inp_files/11282.got.cif
#   From: 2010.05.17/outbox.cif.g08.bks.cpg/sg14_6_cif.got.tgz:11282.got - 2010.06.03 17:49:19.
