data_PCOD9246857
_publ_section_title
;
Structure prediction by ZEFSAII (Michael W. Deem and Ramdas Pophale) SiO2 
 PCOD9246857
Probable space group: P 21/C
;
_chemical_formula_sum "Si O2"
_cell_formula_units_Z 28
_cell_length_a 10.634521
_cell_length_b 19.868406
_cell_length_c 5.375938
_cell_angle_alpha 90.000000
_cell_angle_beta 68.546417
_cell_angle_gamma 90.000000
_cell_volume 1057.186332
_symmetry_space_group_name_H-M "P 21/C"
_symmetry_group_IT_number 14
_symmetry_cell_setting 'monoclinic'
loop_
_space_group_symop_operation_xyz
x,y,z
-x,1/2+y,1/2-z
-x,-y,-z
x,1/2-y,1/2+z
loop_
_atom_site_type_symbol
_atom_site_label
_atom_site_fract_x
_atom_site_fract_y
_atom_site_fract_z
Si Si1 0.182356 0.985831 0.582035
Si Si2 0.530693 0.042313 0.731878
Si Si3 0.715142 0.284146 0.814171
Si Si4 0.016905 0.232652 0.578524
Si Si5 0.440289 0.294927 0.866650
Si Si6 0.718061 0.888644 0.212937
Si Si7 0.058494 0.401921 0.813632
O O1 0.310205 0.944123 0.392911
O O2 0.064651 0.935688 0.744921
O O3 0.230432 0.036385 0.759165
O O4 0.128961 0.037135 0.410166
O O5 0.426258 0.103463 0.815744
O O6 0.500000 0.000000 0.500000
O O7 0.500000 0.000000 0.000000
O O8 0.689545 0.225036 0.625597
O O9 0.879794 0.279623 0.684092
O O10 0.591373 0.329205 0.795003
O O11 0.089622 0.258926 0.283626
O O12 0.996850 0.153313 0.546676
O O13 0.429279 0.243013 0.110970
O O14 0.323116 0.349134 0.007226
O O15 0.833430 0.866668 0.942003
#
# Coordination Sequence:
#
# PCOD9246857 Si02
#       7
#     4   4   4   4   4   4   4
#     4  10  24  45  67 102 136 182 239 276 354 404
#     4  10  21  42  67  95 129 171 221 282 327 398
#     4   8  16  36  59  87 127 162 216 268 322 397
#     4  10  23  42  65  98 133 175 226 274 339 409
#     4  10  23  39  65  98 134 176 222 282 346 405
#     4  11  24  42  71  97 140 180 234 288 347 409
#     4  11  24  43  71  97 140 185 223 293 338 417
#
# _framework density 26.485396999999999
#
# number of rings (size 3 to 8) (size 9 to 14) (size 15 to 20)
#    0.000    2.000    1.429    0.429    4.000    4.571 
#    0.000    5.714    0.000    0.000    0.000    0.000 
#    0.000    0.000    0.000    0.000    0.000    0.000 
#
# Total GULP energy -156213.174728 kJ/mol
# GULP energy per Si atom -5579.041955 kJ/mol
# Density = 2.642511 g / cm^3
# Si number density = 26.485397 Si / 1000 Ang^3
#
#
#
# Elastic Constant Matrix: (Units=GPa)
#
#
# Indices 1 2 3 4 5 6 
#
# 1 113.4421 33.1804 39.6221 0.0000 -29.3312 0.0000
# 2 33.1804 90.5597 39.6490 0.0000 -8.6171 0.0000
# 3 39.6221 39.6490 140.2223 0.0000 -0.5839 0.0000
# 4 0.0000 0.0000 0.0000 37.4093 0.0000 8.6266
# 5 -29.3312 -8.6171 -0.5839 0.0000 59.9065 0.0000
# 6 0.0000 0.0000 0.0000 8.6266 0.0000 30.4890
#
#
#
# Elastic Compliance Matrix: (Units=1/GPa)
#
#
# Indices 1 2 3 4 5 6 
#
# 1 0.011910 -0.002722 -0.002573 0.000000 0.005415 0.000000
# 2 -0.002722 0.013417 -0.003022 0.000000 0.000568 0.000000
# 3 -0.002573 -0.003022 0.008706 0.000000 -0.001610 0.000000
# 4 0.000000 0.000000 0.000000 0.028597 0.000000 -0.008091
# 5 0.005415 0.000568 -0.001610 0.000000 0.019410 0.000000
# 6 0.000000 0.000000 0.000000 -0.008091 0.000000 0.035088
#
#
# Mechanical properties :
#
#
# Convention : Reuss Voigt Hill
#
# Bulk Modulus (GPa) = 57.47548 63.23635 60.35591
# Shear Modulus (GPa) = 35.82621 41.01247 38.41934
#
# Velocity S-wave (km/s) = 3.68187 3.93936 3.81279
# Velocity P-wave (km/s) = 6.31053 6.67976 6.49777
#
# Compressibility (1/GPa) = 0.01739873
#
# Stress axis : x y z
#
# Youngs Moduli (GPa) = 83.96361 74.53253 114.85680
#
# Poissons Ratio (x) = 0.20287 0.29555
# Poissons Ratio (y) = 0.22854 0.34713
# Poissons Ratio (z) = 0.21605 0.22526
#
# Static dielectric constant tensor:
#      x y z
#    x 2.160880 0.000000 -0.065200 
#    y 0.000000 2.110020 0.000000 
#    z -0.065200 0.000000 2.090370 
# 
# From -- ./inp_files/2923.got.cif
#   From: 2010.05.17/outbox.cif.g08.bks.cpg/sg14_2_cif.got.tgz:2923.got - 2010.06.03 17:49:19.
