data_PCOD9246213
_publ_section_title
;
Structure prediction by ZEFSAII (Michael W. Deem and Ramdas Pophale) SiO2 
 PCOD9246213
Probable space group: P 21/C
;
_chemical_formula_sum "Si O2"
_cell_formula_units_Z 24
_cell_length_a 10.003546
_cell_length_b 10.079345
_cell_length_c 9.419506
_cell_angle_alpha 90.000000
_cell_angle_beta 87.235266
_cell_angle_gamma 90.000000
_cell_volume 948.655666
_symmetry_space_group_name_H-M "P 21/C"
_symmetry_group_IT_number 14
_symmetry_cell_setting 'monoclinic'
loop_
_space_group_symop_operation_xyz
x,y,z
-x,1/2+y,1/2-z
-x,-y,-z
x,1/2-y,1/2+z
loop_
_atom_site_type_symbol
_atom_site_label
_atom_site_fract_x
_atom_site_fract_y
_atom_site_fract_z
Si Si1 0.349448 0.500475 0.081130
Si Si2 0.356651 0.769639 0.944803
Si Si3 0.484207 0.595424 0.695746
Si Si4 0.907003 0.124233 0.967362
Si Si5 0.755220 0.919765 0.831139
Si Si6 0.833405 0.720609 0.053312
O O1 0.306868 0.648989 0.048581
O O2 0.379366 0.452276 0.238994
O O3 0.240092 0.402926 0.019031
O O4 0.500000 0.500000 0.000000
O O5 0.459979 0.850268 0.039063
O O6 0.219933 0.848787 0.926109
O O7 0.427155 0.708388 0.804730
O O8 0.389075 0.467078 0.709671
O O9 0.836358 0.060180 0.831079
O O10 0.008471 0.247532 0.964726
O O11 0.000000 0.000000 0.000000
O O12 0.763285 0.847233 0.982299
O O13 0.809546 0.812354 0.718698
#
# Coordination Sequence:
#
# PCOD9246213 Si02
#       6
#     4   4   4   4   4   4
#     4  10  21  40  65  91 130 163 213 260 321 369
#     4  10  21  41  66  88 127 172 204 268 317 368
#     4  10  22  42  65  89 131 165 213 262 317 373
#     4   9  22  42  63  91 129 161 214 260 313 375
#     4  10  22  43  61  96 129 166 212 258 313 377
#     4  11  22  41  67  93 128 172 205 268 315 371
#
# _framework density 25.298960000000001
#
# number of rings (size 3 to 8) (size 9 to 14) (size 15 to 20)
#    0.000    2.000    3.333    0.000    2.333    6.000 
#   12.000    0.833    0.000    0.000    0.000    0.000 
#    0.000    0.000    0.000    0.000    0.000    0.000 
#
# Total GULP energy -133993.095389 kJ/mol
# GULP energy per Si atom -5583.045641 kJ/mol
# Density = 2.524138 g / cm^3
# Si number density = 25.298960 Si / 1000 Ang^3
#
#
#
# Elastic Constant Matrix: (Units=GPa)
#
#
# Indices 1 2 3 4 5 6 
#
# 1 123.4254 65.1777 61.0632 0.0000 8.1758 0.0000
# 2 65.1777 97.8762 6.8842 0.0000 -4.2410 0.0000
# 3 61.0632 6.8842 82.2807 0.0000 -4.7427 0.0000
# 4 0.0000 0.0000 0.0000 42.8188 0.0000 13.6347
# 5 8.1758 -4.2410 -4.7427 0.0000 23.6545 0.0000
# 6 0.0000 0.0000 0.0000 13.6347 0.0000 64.4242
#
#
#
# Elastic Compliance Matrix: (Units=1/GPa)
#
#
# Indices 1 2 3 4 5 6 
#
# 1 0.030765 -0.019729 -0.022255 0.000000 -0.018633 0.000000
# 2 -0.019729 0.022997 0.013505 0.000000 0.013650 0.000000
# 3 -0.022255 0.013505 0.028452 0.000000 0.015818 0.000000
# 4 0.000000 0.000000 0.000000 0.025042 0.000000 -0.005300
# 5 -0.018633 0.013650 0.015818 0.000000 0.054334 0.000000
# 6 0.000000 0.000000 0.000000 -0.005300 0.000000 0.016644
#
#
# Mechanical properties :
#
#
# Convention : Reuss Voigt Hill
#
# Bulk Modulus (GPa) = 39.59824 63.31472 51.45648
# Shear Modulus (GPa) = 20.52441 37.54330 29.03385
#
# Velocity S-wave (km/s) = 2.85138 3.85643 3.39134
# Velocity P-wave (km/s) = 5.15040 6.70152 5.97649
#
# Compressibility (1/GPa) = 0.02525364
#
# Stress axis : x y z
#
# Youngs Moduli (GPa) = 32.50396 43.48430 35.14712
#
# Poissons Ratio (x) = 0.85792 0.78221
# Poissons Ratio (y) = 0.64128 -0.47465
# Poissons Ratio (z) = 0.72339 -0.58724
#
# Static dielectric constant tensor:
#      x y z
#    x 2.108310 0.000000 0.029400 
#    y 0.000000 2.057590 0.000000 
#    z 0.029400 0.000000 2.043630 
# 
# From -- ./inp_files/28091.got.cif
#   From: 2010.05.17/outbox.cif.g08.bks.cpg/sg14_15_cif.got.tgz:28091.got - 2010.06.03 17:49:19.
