data_PCOD9246629
_publ_section_title
;
Structure prediction by ZEFSAII (Michael W. Deem and Ramdas Pophale) SiO2 
 PCOD9246629
Probable space group: P 21/C
;
_chemical_formula_sum "Si O2"
_cell_formula_units_Z 28
_cell_length_a 13.964060
_cell_length_b 7.284748
_cell_length_c 20.449542
_cell_angle_alpha 90.000000
_cell_angle_beta 28.148620
_cell_angle_gamma 90.000000
_cell_volume 981.366400
_symmetry_space_group_name_H-M "P 21/C"
_symmetry_group_IT_number 14
_symmetry_cell_setting 'monoclinic'
loop_
_space_group_symop_operation_xyz
x,y,z
-x,1/2+y,1/2-z
-x,-y,-z
x,1/2-y,1/2+z
loop_
_atom_site_type_symbol
_atom_site_label
_atom_site_fract_x
_atom_site_fract_y
_atom_site_fract_z
Si Si1 0.107753 0.798427 0.702776
Si Si2 0.205622 0.133749 0.446561
Si Si3 0.128218 0.429416 0.769399
Si Si4 0.415670 0.855069 0.689881
Si Si5 0.880498 0.473106 0.448911
Si Si6 0.000000 0.000000 0.000000
Si Si7 0.500000 0.500000 0.000000
Si Si8 0.554770 0.926576 0.828944
O O1 0.165122 0.601275 0.697624
O O2 0.298915 0.928693 0.579413
O O3 0.988463 0.782523 0.705489
O O4 0.958405 0.897382 0.844177
O O5 0.390088 0.087406 0.384442
O O6 0.159471 0.355607 0.471782
O O7 0.012652 0.025472 0.590726
O O8 0.295912 0.094790 0.321733
O O9 0.342091 0.354015 0.666999
O O10 0.458656 0.642301 0.650781
O O11 0.392848 0.935955 0.632127
O O12 0.212782 0.885845 0.852346
O O13 0.021362 0.372250 0.415736
O O14 0.671147 0.374897 0.556480
#
# Coordination Sequence:
#
# PCOD9246629 Si02
#       8
#     4   4   4   4   4   2   2   4
#     4  11  24  43  67 100 135 188 233 289 351 423
#     4  10  21  41  67  99 130 180 226 282 354 414
#     4  11  23  43  67  98 139 183 236 291 349 427
#     4  11  22  39  73  97 138 176 234 285 345 417
#     4  10  23  40  66  96 140 175 222 291 348 410
#     4  12  20  42  62 104 134 174 228 286 336 406
#     4  12  20  44  70  98 128 192 236 274 360 430
#     4  11  22  43  69  98 135 181 230 289 352 420
#
# _framework density 28.531647
#
# number of rings (size 3 to 8) (size 9 to 14) (size 15 to 20)
#    0.000    1.143    5.714    1.286    0.000    0.571 
#    5.143    1.429    0.000    0.000    0.000    0.000 
#    0.000    0.000    0.000    0.000    0.000    0.000 
#
# Total GULP energy -156369.619220 kJ/mol
# GULP energy per Si atom -5584.629258 kJ/mol
# Density = 2.846671 g / cm^3
# Si number density = 28.531647 Si / 1000 Ang^3
#
#
#
# Elastic Constant Matrix: (Units=GPa)
#
#
# Indices 1 2 3 4 5 6 
#
# 1 202.9064 0.5468 24.7623 0.0000 -24.8919 0.0000
# 2 0.5468 84.7143 2.0637 0.0000 -9.5307 0.0000
# 3 24.7623 2.0637 101.7798 0.0000 1.3895 0.0000
# 4 0.0000 0.0000 0.0000 25.5680 0.0000 -7.5831
# 5 -24.8919 -9.5307 1.3895 0.0000 60.1937 0.0000
# 6 0.0000 0.0000 0.0000 -7.5831 0.0000 32.3470
#
#
#
# Elastic Compliance Matrix: (Units=1/GPa)
#
#
# Indices 1 2 3 4 5 6 
#
# 1 0.005373 0.000256 -0.001344 0.000000 0.002293 0.000000
# 2 0.000256 0.012038 -0.000334 0.000000 0.002020 0.000000
# 3 -0.001344 -0.000334 0.010170 0.000000 -0.000843 0.000000
# 4 0.000000 0.000000 0.000000 0.042034 0.000000 0.009854
# 5 0.002293 0.002020 -0.000843 0.000000 0.017901 0.000000
# 6 0.000000 0.000000 0.000000 0.009854 0.000000 0.033225
#
#
# Mechanical properties :
#
#
# Convention : Reuss Voigt Hill
#
# Bulk Modulus (GPa) = 40.42325 49.34957 44.88641
# Shear Modulus (GPa) = 37.92753 47.75690 42.84221
#
# Velocity S-wave (km/s) = 3.64993 4.09568 3.87921
# Velocity P-wave (km/s) = 5.65343 6.30080 5.98587
#
# Compressibility (1/GPa) = 0.02473824
#
# Stress axis : x y z
#
# Youngs Moduli (GPa) = 186.11461 83.06969 98.32516
#
# Poissons Ratio (x) = -0.02127 0.13212
# Poissons Ratio (y) = -0.04766 0.03284
# Poissons Ratio (z) = 0.25009 0.02774
#
# Static dielectric constant tensor:
#      x y z
#    x -19.336340 0.000000 -2.244260 
#    y 0.000000 5.531080 0.000000 
#    z -2.244260 0.000000 1.931590 
# 
# From -- ./inp_files/68178.got.cif
#   From: 2010.05.17/outbox.cif.g08.bks.cpg/sg14_35_cif.got.tgz:68178.got - 2010.06.03 17:49:19.
