data_PCOD9246808
_publ_section_title
;
Structure prediction by ZEFSAII (Michael W. Deem and Ramdas Pophale) SiO2 
 PCOD9246808
Probable space group: P 21/C
;
_chemical_formula_sum "Si O2"
_cell_formula_units_Z 28
_cell_length_a 13.903768
_cell_length_b 9.073898
_cell_length_c 14.745313
_cell_angle_alpha 90.000000
_cell_angle_beta 141.633315
_cell_angle_gamma 90.000000
_cell_volume 1154.666440
_symmetry_space_group_name_H-M "P 21/C"
_symmetry_group_IT_number 14
_symmetry_cell_setting 'monoclinic'
loop_
_space_group_symop_operation_xyz
x,y,z
-x,1/2+y,1/2-z
-x,-y,-z
x,1/2-y,1/2+z
loop_
_atom_site_type_symbol
_atom_site_label
_atom_site_fract_x
_atom_site_fract_y
_atom_site_fract_z
Si Si1 0.966956 0.798364 0.687213
Si Si2 0.739930 0.056745 0.020715
Si Si3 0.881512 0.634937 0.928791
Si Si4 0.209860 0.454364 0.634243
Si Si5 0.466900 0.675966 0.088203
Si Si6 0.625582 0.628627 0.582409
Si Si7 0.167564 0.974991 0.301338
O O1 0.877845 0.857797 0.708965
O O2 0.135588 0.876833 0.816793
O O3 0.870318 0.859293 0.530354
O O4 0.025816 0.630959 0.727149
O O5 0.689849 0.902616 0.029486
O O6 0.810969 0.042520 0.973542
O O7 0.599767 0.174961 0.915508
O O8 0.903753 0.813530 0.935411
O O9 0.746199 0.609070 0.755028
O O10 0.000000 0.500000 0.000000
O O11 0.384763 0.391087 0.753083
O O12 0.800383 0.455884 0.280876
O O13 0.535312 0.721923 0.039853
O O14 0.320896 0.571258 0.968359
O O15 0.500000 0.500000 0.500000
#
# Coordination Sequence:
#
# PCOD9246808 Si02
#       7
#     4   4   4   4   4   4   4
#     4  11  25  44  68 100 138 189 234 294 356 421
#     4  10  21  42  66 100 141 184 232 293 357 427
#     4  11  23  40  68 102 134 181 237 283 347 422
#     4  11  25  43  70 102 145 184 235 299 357 424
#     4   9  22  42  68 101 137 186 240 290 357 424
#     4   9  19  40  69  99 139 179 230 288 347 419
#     4  11  26  46  69 102 143 188 239 297 358 422
#
# _framework density 24.249428000000002
#
# number of rings (size 3 to 8) (size 9 to 14) (size 15 to 20)
#    0.000    1.714    1.429    1.286    2.000    9.143 
#    2.571    0.000    0.000    0.000    0.000    0.000 
#    0.000    0.000    0.000    0.000    0.000    0.000 
#
# Total GULP energy -156213.212017 kJ/mol
# GULP energy per Si atom -5579.043286 kJ/mol
# Density = 2.419424 g / cm^3
# Si number density = 24.249428 Si / 1000 Ang^3
#
#
#
# Elastic Constant Matrix: (Units=GPa)
#
#
# Indices 1 2 3 4 5 6 
#
# 1 100.9659 24.1510 31.5937 0.0000 -12.0957 0.0000
# 2 24.1510 81.6622 28.9938 0.0000 10.1999 0.0000
# 3 31.5937 28.9938 118.1786 0.0000 3.2138 0.0000
# 4 0.0000 0.0000 0.0000 39.5442 0.0000 10.1906
# 5 -12.0957 10.1999 3.2138 0.0000 41.1270 0.0000
# 6 0.0000 0.0000 0.0000 10.1906 0.0000 45.4135
#
#
#
# Elastic Compliance Matrix: (Units=1/GPa)
#
#
# Indices 1 2 3 4 5 6 
#
# 1 0.012012 -0.003214 -0.002546 0.000000 0.004529 0.000000
# 2 -0.003214 0.014674 -0.002622 0.000000 -0.004380 0.000000
# 3 -0.002546 -0.002622 0.009809 0.000000 -0.000865 0.000000
# 4 0.000000 0.000000 0.000000 0.026840 0.000000 -0.006023
# 5 0.004529 -0.004380 -0.000865 0.000000 0.026801 0.000000
# 6 0.000000 0.000000 0.000000 -0.006023 0.000000 0.023371
#
#
# Mechanical properties :
#
#
# Convention : Reuss Voigt Hill
#
# Bulk Modulus (GPa) = 50.68002 52.25374 51.46688
# Shear Modulus (GPa) = 36.53652 39.62147 38.07899
#
# Velocity S-wave (km/s) = 3.88583 4.04655 3.96701
# Velocity P-wave (km/s) = 6.40919 6.58999 6.50022
#
# Compressibility (1/GPa) = 0.01973164
#
# Stress axis : x y z
#
# Youngs Moduli (GPa) = 83.24686 68.14737 101.94591
#
# Poissons Ratio (x) = 0.21905 0.25955
# Poissons Ratio (y) = 0.26759 0.26727
# Poissons Ratio (z) = 0.21194 0.17866
#
# Static dielectric constant tensor:
#      x y z
#    x 1.972850 0.000000 0.052230 
#    y 0.000000 1.991570 0.000000 
#    z 0.052230 0.000000 1.956570 
# 
# From -- ./inp_files/55165.got.cif
#   From: 2010.05.17/outbox.cif.g08.bks.cpg/sg14_28_cif.got.tgz:55165.got - 2010.06.03 17:49:19.
