data_PCOD9246064
_publ_section_title
;
Structure prediction by ZEFSAII (Michael W. Deem and Ramdas Pophale) SiO2 
 PCOD9246064
Probable space group: P 21/C
;
_chemical_formula_sum "Si O2"
_cell_formula_units_Z 28
_cell_length_a 15.236740
_cell_length_b 9.480997
_cell_length_c 16.893976
_cell_angle_alpha 90.000000
_cell_angle_beta 32.289418
_cell_angle_gamma 90.000000
_cell_volume 1303.703274
_symmetry_space_group_name_H-M "P 21/C"
_symmetry_group_IT_number 14
_symmetry_cell_setting 'monoclinic'
loop_
_space_group_symop_operation_xyz
x,y,z
-x,1/2+y,1/2-z
-x,-y,-z
x,1/2-y,1/2+z
loop_
_atom_site_type_symbol
_atom_site_label
_atom_site_fract_x
_atom_site_fract_y
_atom_site_fract_z
Si Si1 0.803788 0.495587 0.919186
Si Si2 0.692985 0.708344 0.471431
Si Si3 0.897789 0.279627 0.086112
Si Si4 0.894632 0.540758 0.197120
Si Si5 0.472782 0.841757 0.277935
Si Si6 0.032688 0.105501 0.121794
Si Si7 0.302905 0.581277 0.365008
O O1 0.695653 0.623085 0.965623
O O2 0.976067 0.517480 0.835456
O O3 0.863118 0.408045 0.797868
O O4 0.692708 0.416198 0.068113
O O5 0.747991 0.622281 0.353105
O O6 0.539907 0.647091 0.636863
O O7 0.844599 0.692143 0.417108
O O8 0.841092 0.409903 0.183940
O O9 0.752637 0.183046 0.162905
O O10 0.006933 0.177997 0.057682
O O11 0.006231 0.349472 0.933895
O O12 0.431833 0.675207 0.317760
O O13 0.612411 0.930997 0.218065
O O14 0.129995 0.957551 0.038455
#
# Coordination Sequence:
#
# PCOD9246064 Si02
#       7
#     4   4   4   4   4   4   4
#     4  11  20  39  66  94 123 174 224 264 311 394
#     4  10  21  40  61  96 126 175 220 261 314 395
#     4  11  21  41  64 102 130 167 217 282 331 373
#     4  10  22  37  70  94 135 170 219 274 324 380
#     4  11  23  40  66  90 132 173 217 264 323 400
#     4  10  23  36  68  94 128 166 221 269 322 376
#     4  11  23  41  64  93 131 171 214 271 326 388
#
# _framework density 21.477277999999998
#
# number of rings (size 3 to 8) (size 9 to 14) (size 15 to 20)
#    0.000    1.429    4.286    1.286    2.000    1.143 
#    0.000    1.429    6.286    0.000    0.000    0.000 
#    0.000    0.000    0.000    0.000    0.000    0.000 
#
# Total GULP energy -155935.943933 kJ/mol
# GULP energy per Si atom -5569.140855 kJ/mol
# Density = 2.142839 g / cm^3
# Si number density = 21.477278 Si / 1000 Ang^3
#
#
#
# Elastic Constant Matrix: (Units=GPa)
#
#
# Indices 1 2 3 4 5 6 
#
# 1 52.8479 28.2413 18.6385 0.0000 6.7432 0.0000
# 2 28.2413 92.6608 45.7844 0.0000 6.3719 0.0000
# 3 18.6385 45.7844 133.6931 0.0000 9.6204 0.0000
# 4 0.0000 0.0000 0.0000 31.7207 0.0000 -4.6613
# 5 6.7432 6.3719 9.6204 0.0000 19.4492 0.0000
# 6 0.0000 0.0000 0.0000 -4.6613 0.0000 46.4139
#
#
#
# Elastic Compliance Matrix: (Units=1/GPa)
#
#
# Indices 1 2 3 4 5 6 
#
# 1 0.023287 -0.006386 -0.000652 0.000000 -0.005659 0.000000
# 2 -0.006386 0.014827 -0.004145 0.000000 -0.000593 0.000000
# 3 -0.000652 -0.004145 0.009204 0.000000 -0.002969 0.000000
# 4 0.000000 0.000000 0.000000 0.031997 0.000000 0.003213
# 5 -0.005659 -0.000593 -0.002969 0.000000 0.055041 0.000000
# 6 0.000000 0.000000 0.000000 0.003213 0.000000 0.021868
#
#
# Mechanical properties :
#
#
# Convention : Reuss Voigt Hill
#
# Bulk Modulus (GPa) = 40.07730 51.61448 45.84589
# Shear Modulus (GPa) = 26.75125 31.95261 29.35193
#
# Velocity S-wave (km/s) = 3.53308 3.86131 3.70083
# Velocity P-wave (km/s) = 5.94511 6.63053 6.29715
#
# Compressibility (1/GPa) = 0.02495178
#
# Stress axis : x y z
#
# Youngs Moduli (GPa) = 42.94255 67.44400 108.65120
#
# Poissons Ratio (x) = 0.43070 0.07088
# Poissons Ratio (y) = 0.27423 0.45033
# Poissons Ratio (z) = 0.02801 0.27954
#
# Static dielectric constant tensor:
#      x y z
#    x 1.797920 0.000000 -0.020700 
#    y 0.000000 1.872190 0.000000 
#    z -0.020700 0.000000 1.804890 
# 
# From -- ./inp_files/60291.got.cif
#   From: 2010.05.17/outbox.cif.g08.bks.cpg/sg14_31_cif.got.tgz:60291.got - 2010.06.03 17:49:19.
