data_PCOD9246241
_publ_section_title
;
Structure prediction by ZEFSAII (Michael W. Deem and Ramdas Pophale) SiO2 
 PCOD9246241
Probable space group: P 21/C
;
_chemical_formula_sum "Si O2"
_cell_formula_units_Z 28
_cell_length_a 13.098286
_cell_length_b 11.975756
_cell_length_c 8.659293
_cell_angle_alpha 90.000000
_cell_angle_beta 64.125860
_cell_angle_gamma 90.000000
_cell_volume 1222.148648
_symmetry_space_group_name_H-M "P 21/C"
_symmetry_group_IT_number 14
_symmetry_cell_setting 'monoclinic'
loop_
_space_group_symop_operation_xyz
x,y,z
-x,1/2+y,1/2-z
-x,-y,-z
x,1/2-y,1/2+z
loop_
_atom_site_type_symbol
_atom_site_label
_atom_site_fract_x
_atom_site_fract_y
_atom_site_fract_z
Si Si1 0.174091 0.090631 0.600844
Si Si2 0.207686 0.319693 0.426344
Si Si3 0.298269 0.618498 0.935884
Si Si4 0.952455 0.004652 0.857888
Si Si5 0.776886 0.329610 0.354450
Si Si6 0.533778 0.777145 0.170278
Si Si7 0.467882 0.607610 0.422382
O O1 0.168478 0.193269 0.486422
O O2 0.188063 0.143355 0.762563
O O3 0.062111 0.012421 0.676476
O O4 0.276626 0.007931 0.495184
O O5 0.136234 0.402295 0.585863
O O6 0.342016 0.322028 0.372381
O O7 0.231606 0.643734 0.820306
O O8 0.427985 0.653659 0.814187
O O9 0.245297 0.699898 0.099474
O O10 0.885095 0.118092 0.864241
O O11 0.000000 0.000000 0.000000
O O12 0.666894 0.389102 0.502008
O O13 0.518821 0.648145 0.228488
O O14 0.512897 0.793055 0.003186
O O15 0.500000 0.500000 0.500000
#
# Coordination Sequence:
#
# PCOD9246241 Si02
#       7
#     4   4   4   4   4   4   4
#     4  11  27  45  70 102 140 181 239 285 350 419
#     4  11  25  45  70  99 142 181 231 290 352 413
#     4  10  25  43  70 106 135 184 233 289 350 422
#     4  10  25  45  69  98 131 185 230 287 341 408
#     4  10  23  42  70  97 139 178 237 287 350 410
#     4  10  22  42  67 101 136 179 229 282 351 418
#     4  10  21  40  65  98 137 178 228 287 347 415
#
# _framework density 22.91047
#
# number of rings (size 3 to 8) (size 9 to 14) (size 15 to 20)
#    0.000    1.714    0.000    1.714   12.000    2.286 
#    5.143    0.000    0.000    0.000    0.000    0.000 
#    0.000    0.000    0.000    0.000    0.000    0.000 
#
# Total GULP energy -156422.619696 kJ/mol
# GULP energy per Si atom -5586.522132 kJ/mol
# Density = 2.285832 g / cm^3
# Si number density = 22.910470 Si / 1000 Ang^3
#
#
#
# Elastic Constant Matrix: (Units=GPa)
#
#
# Indices 1 2 3 4 5 6 
#
# 1 91.0489 6.9024 23.1359 0.0000 -13.2735 0.0000
# 2 6.9024 108.7670 40.5762 0.0000 -7.9661 0.0000
# 3 23.1359 40.5762 71.3998 0.0000 2.0694 0.0000
# 4 0.0000 0.0000 0.0000 48.3483 0.0000 -1.5903
# 5 -13.2735 -7.9661 2.0694 0.0000 34.5519 0.0000
# 6 0.0000 0.0000 0.0000 -1.5903 0.0000 35.1489
#
#
#
# Elastic Compliance Matrix: (Units=1/GPa)
#
#
# Indices 1 2 3 4 5 6 
#
# 1 0.013033 0.001556 -0.005272 0.000000 0.005681 0.000000
# 2 0.001556 0.012193 -0.007545 0.000000 0.003861 0.000000
# 3 -0.005272 -0.007545 0.020146 0.000000 -0.004971 0.000000
# 4 0.000000 0.000000 0.000000 0.020714 0.000000 0.000937
# 5 0.005681 0.003861 -0.004971 0.000000 0.032312 0.000000
# 6 0.000000 0.000000 0.000000 0.000937 0.000000 0.028493
#
#
# Mechanical properties :
#
#
# Convention : Reuss Voigt Hill
#
# Bulk Modulus (GPa) = 43.76544 45.82718 44.79631
# Shear Modulus (GPa) = 31.84110 36.98322 34.41216
#
# Velocity S-wave (km/s) = 3.73205 4.02213 3.87980
# Velocity P-wave (km/s) = 6.14127 6.45106 6.29807
#
# Compressibility (1/GPa) = 0.02284908
#
# Stress axis : x y z
#
# Youngs Moduli (GPa) = 76.72815 82.01602 49.63799
#
# Poissons Ratio (x) = -0.12760 0.26169
# Poissons Ratio (y) = -0.11937 0.37452
# Poissons Ratio (z) = 0.40450 0.61882
#
# Static dielectric constant tensor:
#      x y z
#    x 1.912950 0.000000 -0.085580 
#    y 0.000000 1.906210 0.000000 
#    z -0.085580 0.000000 1.929530 
# 
# From -- ./inp_files/15460.got.cif
#   From: 2010.05.17/outbox.cif.g08.bks.cpg/sg14_8_cif.got.tgz:15460.got - 2010.06.03 17:49:19.
