data_PCOD9246321
_publ_section_title
;
Structure prediction by ZEFSAII (Michael W. Deem and Ramdas Pophale) SiO2 
 PCOD9246321
Probable space group: P 21/C
;
_chemical_formula_sum "Si O2"
_cell_formula_units_Z 32
_cell_length_a 24.522085
_cell_length_b 5.366029
_cell_length_c 20.671258
_cell_angle_alpha 90.000000
_cell_angle_beta 151.425251
_cell_angle_gamma 90.000000
_cell_volume 1301.014455
_symmetry_space_group_name_H-M "P 21/C"
_symmetry_group_IT_number 14
_symmetry_cell_setting 'monoclinic'
loop_
_space_group_symop_operation_xyz
x,y,z
-x,1/2+y,1/2-z
-x,-y,-z
x,1/2-y,1/2+z
loop_
_atom_site_type_symbol
_atom_site_label
_atom_site_fract_x
_atom_site_fract_y
_atom_site_fract_z
Si Si1 0.198784 0.921761 0.741408
Si Si2 0.157641 0.622153 0.057934
Si Si3 0.342169 0.068113 0.379320
Si Si4 0.360161 0.240271 0.759178
Si Si5 0.023873 0.278371 0.736504
Si Si6 0.778271 0.493998 0.598161
Si Si7 0.680452 0.364193 0.372887
Si Si8 0.531044 0.639984 0.388128
O O1 0.127140 0.864670 0.602097
O O2 0.295387 0.709808 0.835665
O O3 0.248249 0.204989 0.790709
O O4 0.157683 0.886478 0.772272
O O5 0.230221 0.367156 0.127995
O O6 0.255000 0.797823 0.127051
O O7 0.051766 0.686007 0.902751
O O8 0.382199 0.112479 0.348202
O O9 0.429440 0.125026 0.527839
O O10 0.361559 0.362199 0.689519
O O11 0.460485 0.037045 0.862479
O O12 0.996100 0.556674 0.731298
O O13 0.155474 0.244167 0.852722
O O14 0.768123 0.336514 0.522149
O O15 0.646515 0.532887 0.479378
O O16 0.566209 0.209864 0.264186
#
# Coordination Sequence:
#
# PCOD9246321 Si02
#       8
#     4   4   4   4   4   4   4   4
#     4  10  23  42  69 101 143 182 228 293 347 407
#     4  10  22  45  72 102 135 184 240 280 347 416
#     4  10  21  41  66 100 143 186 233 278 338 417
#     4  10  21  40  68 100 140 188 234 283 337 422
#     4  12  27  49  78 104 134 183 236 295 348 422
#     4  11  26  46  65 106 141 179 233 298 350 414
#     4  11  22  42  68  97 139 190 233 284 341 423
#     4  10  25  37  62 104 140 190 223 290 350 410
#
# _framework density 24.596191999999999
#
# number of rings (size 3 to 8) (size 9 to 14) (size 15 to 20)
#    0.000    1.500    2.500    1.125    5.250    4.000 
#    6.750    0.000    0.000    6.000    0.000    0.000 
#    0.000    0.000    0.000    0.000    0.000    0.000 
#
# Total GULP energy -178459.642550 kJ/mol
# GULP energy per Si atom -5576.863830 kJ/mol
# Density = 2.454021 g / cm^3
# Si number density = 24.596192 Si / 1000 Ang^3
#
#
#
# Elastic Constant Matrix: (Units=GPa)
#
#
# Indices 1 2 3 4 5 6 
#
# 1 78.2010 3.4241 23.4072 0.0000 -30.1768 0.0000
# 2 3.4241 38.6183 3.0610 0.0000 -1.5065 0.0000
# 3 23.4072 3.0610 95.0105 0.0000 -16.2521 0.0000
# 4 0.0000 0.0000 0.0000 26.2604 0.0000 -4.8139
# 5 -30.1768 -1.5065 -16.2521 0.0000 43.5693 0.0000
# 6 0.0000 0.0000 0.0000 -4.8139 0.0000 12.1895
#
#
#
# Elastic Compliance Matrix: (Units=1/GPa)
#
#
# Indices 1 2 3 4 5 6 
#
# 1 0.018008 -0.000954 -0.002433 0.000000 0.011532 0.000000
# 2 -0.000954 0.026027 -0.000601 0.000000 0.000015 0.000000
# 3 -0.002433 -0.000601 0.011592 0.000000 0.002618 0.000000
# 4 0.000000 0.000000 0.000000 0.041052 0.000000 0.016212
# 5 0.011532 0.000015 0.002618 0.000000 0.031916 0.000000
# 6 0.000000 0.000000 0.000000 0.016212 0.000000 0.088441
#
#
# Mechanical properties :
#
#
# Convention : Reuss Voigt Hill
#
# Bulk Modulus (GPa) = 20.98610 30.17938 25.58274
# Shear Modulus (GPa) = 20.75595 28.53301 24.64448
#
# Velocity S-wave (km/s) = 2.90809 3.40966 3.16881
# Velocity P-wave (km/s) = 4.45273 5.27234 4.87977
#
# Compressibility (1/GPa) = 0.04765058
#
# Stress axis : x y z
#
# Youngs Moduli (GPa) = 55.53221 38.42128 86.26819
#
# Poissons Ratio (x) = 0.03665 0.20990
# Poissons Ratio (y) = 0.05297 0.05184
# Poissons Ratio (z) = 0.13512 0.02309
#
# Static dielectric constant tensor:
#      x y z
#    x 2.028150 0.000000 -0.022350 
#    y 0.000000 2.077820 0.000000 
#    z -0.022350 0.000000 1.969860 
# 
# From -- ./inp_files/70113.got.cif
#   From: 2010.05.17/outbox.cif.g08.bks.cpg/sg14_36_cif.got.tgz:70113.got - 2010.06.03 17:49:19.
