data_PCOD9246724
_publ_section_title
;
Structure prediction by ZEFSAII (Michael W. Deem and Ramdas Pophale) SiO2 
 PCOD9246724
Probable space group: P 21/C
;
_chemical_formula_sum "Si O2"
_cell_formula_units_Z 32
_cell_length_a 12.631410
_cell_length_b 19.274254
_cell_length_c 9.535259
_cell_angle_alpha 90.000000
_cell_angle_beta 37.271057
_cell_angle_gamma 90.000000
_cell_volume 1405.847074
_symmetry_space_group_name_H-M "P 21/C"
_symmetry_group_IT_number 14
_symmetry_cell_setting 'monoclinic'
loop_
_space_group_symop_operation_xyz
x,y,z
-x,1/2+y,1/2-z
-x,-y,-z
x,1/2-y,1/2+z
loop_
_atom_site_type_symbol
_atom_site_label
_atom_site_fract_x
_atom_site_fract_y
_atom_site_fract_z
Si Si1 0.468234 0.320680 0.920121
Si Si2 0.464017 0.958795 0.773425
Si Si3 0.681997 0.777878 0.705086
Si Si4 0.987241 0.705880 0.251342
Si Si5 0.746863 0.928045 0.693704
Si Si6 0.852443 0.301459 0.631316
Si Si7 0.072522 0.925814 0.142518
Si Si8 0.795229 0.939396 0.958810
O O1 0.440206 0.402987 0.927549
O O2 0.450411 0.285827 0.785464
O O3 0.654396 0.304869 0.790506
O O4 0.338052 0.284421 0.165485
O O5 0.593523 0.965467 0.768015
O O6 0.273413 0.919900 0.991970
O O7 0.399053 0.034661 0.791304
O O8 0.865323 0.767511 0.435176
O O9 0.675853 0.850146 0.793055
O O10 0.866862 0.637692 0.383045
O O11 0.063389 0.731703 0.024095
O O12 0.131239 0.696466 0.219504
O O13 0.793639 0.958814 0.794242
O O14 0.918529 0.921287 0.416995
O O15 0.941348 0.368984 0.464681
O O16 0.078670 0.007172 0.092901
#
# Coordination Sequence:
#
# PCOD9246724 Si02
#       8
#     4   4   4   4   4   4   4   4
#     4  10  21  42  61  92 127 167 207 272 316 387
#     4   8  21  37  61  89 128 167 209 259 322 376
#     4  11  22  37  66  94 125 162 217 263 328 374
#     4  12  24  40  68  96 126 168 216 270 320 394
#     4  11  18  38  67  92 129 169 216 266 326 372
#     4  11  23  43  65  93 131 167 214 262 336 376
#     4   9  21  39  62  92 127 172 209 267 315 389
#     4  10  22  40  57  96 127 169 218 266 310 400
#
# _framework density 22.762076
#
# number of rings (size 3 to 8) (size 9 to 14) (size 15 to 20)
#    0.750    1.000    1.250    3.750    1.750    0.500 
#    0.000    3.125    0.000    0.000    0.000    0.000 
#    0.000    0.000    0.000    0.000    0.000    0.000 
#
# Total GULP energy -178329.495032 kJ/mol
# GULP energy per Si atom -5572.796720 kJ/mol
# Density = 2.271027 g / cm^3
# Si number density = 22.762076 Si / 1000 Ang^3
#
#
#
# Elastic Constant Matrix: (Units=GPa)
#
#
# Indices 1 2 3 4 5 6 
#
# 1 111.5538 15.6974 4.4700 0.0000 4.9821 0.0000
# 2 15.6974 56.1119 -15.0397 0.0000 6.3746 0.0000
# 3 4.4700 -15.0397 30.4437 0.0000 7.1653 0.0000
# 4 0.0000 0.0000 0.0000 21.9824 0.0000 2.8113
# 5 4.9821 6.3746 7.1653 0.0000 21.5305 0.0000
# 6 0.0000 0.0000 0.0000 2.8113 0.0000 31.8992
#
#
#
# Elastic Compliance Matrix: (Units=1/GPa)
#
#
# Indices 1 2 3 4 5 6 
#
# 1 0.009587 -0.003495 -0.003098 0.000000 -0.000152 0.000000
# 2 -0.003495 0.024143 0.015116 0.000000 -0.011370 0.000000
# 3 -0.003098 0.015116 0.045195 0.000000 -0.018799 0.000000
# 4 0.000000 0.000000 0.000000 0.046009 0.000000 -0.004055
# 5 -0.000152 -0.011370 -0.018799 0.000000 0.056104 0.000000
# 6 0.000000 0.000000 0.000000 -0.004055 0.000000 0.031706
#
#
# Mechanical properties :
#
#
# Convention : Reuss Voigt Hill
#
# Bulk Modulus (GPa) = 10.42002 23.15165 16.78584
# Shear Modulus (GPa) = 21.95986 27.94788 24.95387
#
# Velocity S-wave (km/s) = 3.10942 3.50784 3.31462
# Velocity P-wave (km/s) = 4.18080 5.15750 4.69462
#
# Compressibility (1/GPa) = 0.09596909
#
# Stress axis : x y z
#
# Youngs Moduli (GPa) = 104.30711 41.42064 22.12652
#
# Poissons Ratio (x) = 0.14477 0.06856
# Poissons Ratio (y) = 0.36457 -0.33447
# Poissons Ratio (z) = 0.32319 -0.62612
#
# Static dielectric constant tensor:
#      x y z
#    x 1.857520 0.000000 -0.010050 
#    y 0.000000 1.928970 0.000000 
#    z -0.010050 0.000000 1.853150 
# 
# From -- ./inp_files/14308.got.cif
#   From: 2010.05.17/outbox.cif.g08.bks.cpg/sg14_8_cif.got.tgz:14308.got - 2010.06.03 17:49:19.
