data_PCOD9246858
_publ_section_title
;
Structure prediction by ZEFSAII (Michael W. Deem and Ramdas Pophale) SiO2 
 PCOD9246858
Probable space group: P 21/C
;
_chemical_formula_sum "Si O2"
_cell_formula_units_Z 32
_cell_length_a 14.990919
_cell_length_b 11.594661
_cell_length_c 16.927145
_cell_angle_alpha 90.000000
_cell_angle_beta 31.366586
_cell_angle_gamma 90.000000
_cell_volume 1531.442088
_symmetry_space_group_name_H-M "P 21/C"
_symmetry_group_IT_number 14
_symmetry_cell_setting 'monoclinic'
loop_
_space_group_symop_operation_xyz
x,y,z
-x,1/2+y,1/2-z
-x,-y,-z
x,1/2-y,1/2+z
loop_
_atom_site_type_symbol
_atom_site_label
_atom_site_fract_x
_atom_site_fract_y
_atom_site_fract_z
Si Si1 0.209035 0.208254 0.362198
Si Si2 0.693031 0.490001 0.451655
Si Si3 0.257731 0.926395 0.739803
Si Si4 0.489097 0.150309 0.573439
Si Si5 0.289316 0.970579 0.246278
Si Si6 0.784766 0.233066 0.434004
Si Si7 0.925017 0.642034 0.393490
Si Si8 0.854180 0.252506 0.562416
O O1 0.381350 0.243206 0.186558
O O2 0.208600 0.070036 0.363029
O O3 0.180289 0.275782 0.466428
O O4 0.055667 0.252416 0.423598
O O5 0.749365 0.498981 0.316687
O O6 0.494490 0.528108 0.602933
O O7 0.714576 0.356837 0.459826
O O8 0.804065 0.562295 0.431135
O O9 0.399735 0.843710 0.590332
O O10 0.220659 0.874399 0.853064
O O11 0.076021 0.922186 0.830550
O O12 0.352848 0.047751 0.670406
O O13 0.645246 0.135500 0.516669
O O14 0.215035 0.847550 0.327564
O O15 0.809987 0.228397 0.507058
O O16 0.960429 0.214890 0.254180
#
# Coordination Sequence:
#
# PCOD9246858 Si02
#       8
#     4   4   4   4   4   4   4   4
#     4  11  23  41  70  94 131 174 220 271 327 392
#     4  11  24  42  68  97 134 173 220 271 334 390
#     4   9  22  43  68  96 130 168 216 275 326 389
#     4  10  21  42  67  95 131 166 211 268 331 382
#     4  11  24  43  67  95 135 180 217 269 329 401
#     4  11  24  44  63  98 135 169 219 274 322 395
#     4  10  24  42  66  98 129 170 222 278 326 385
#     4  11  25  40  69  96 132 174 223 265 330 388
#
# _framework density 20.895336
#
# number of rings (size 3 to 8) (size 9 to 14) (size 15 to 20)
#    0.000    1.500    1.250    3.375    7.000    2.000 
#    0.000    0.000    2.750    0.000    0.000    0.000 
#    0.000    0.000    0.000    0.000    0.000    0.000 
#
# Total GULP energy -178646.815722 kJ/mol
# GULP energy per Si atom -5582.712991 kJ/mol
# Density = 2.084778 g / cm^3
# Si number density = 20.895336 Si / 1000 Ang^3
#
#
#
# Elastic Constant Matrix: (Units=GPa)
#
#
# Indices 1 2 3 4 5 6 
#
# 1 98.2988 22.3246 32.3896 0.0000 11.7578 0.0000
# 2 22.3246 54.8055 28.2126 0.0000 -2.1949 0.0000
# 3 32.3896 28.2126 71.2820 0.0000 -15.4966 0.0000
# 4 0.0000 0.0000 0.0000 38.8764 0.0000 0.0948
# 5 11.7578 -2.1949 -15.4966 0.0000 17.7465 0.0000
# 6 0.0000 0.0000 0.0000 0.0948 0.0000 23.0594
#
#
#
# Elastic Compliance Matrix: (Units=1/GPa)
#
#
# Indices 1 2 3 4 5 6 
#
# 1 0.017078 -0.001748 -0.011819 0.000000 -0.021851 0.000000
# 2 -0.001748 0.023675 -0.009489 0.000000 -0.004200 0.000000
# 3 -0.011819 -0.009489 0.030367 0.000000 0.033173 0.000000
# 4 0.000000 0.000000 0.000000 0.025723 0.000000 -0.000106
# 5 -0.021851 -0.004200 0.033173 0.000000 0.099274 0.000000
# 6 0.000000 0.000000 0.000000 -0.000106 0.000000 0.043367
#
#
# Mechanical properties :
#
#
# Convention : Reuss Voigt Hill
#
# Bulk Modulus (GPa) = 39.98688 43.35998 41.67343
# Shear Modulus (GPa) = 17.01082 25.36710 21.18896
#
# Velocity S-wave (km/s) = 2.85633 3.48804 3.18787
# Velocity P-wave (km/s) = 5.48238 6.08424 5.79113
#
# Compressibility (1/GPa) = 0.02500820
#
# Stress axis : x y z
#
# Youngs Moduli (GPa) = 58.55503 42.23888 32.93097
#
# Poissons Ratio (x) = 0.07382 0.38920
# Poissons Ratio (y) = 0.10234 0.31249
# Poissons Ratio (z) = 0.69204 0.40081
#
# Static dielectric constant tensor:
#      x y z
#    x 1.730730 0.000000 0.005140 
#    y 0.000000 1.815760 0.000000 
#    z 0.005140 0.000000 1.751120 
# 
# From -- ./inp_files/59454.got.cif
#   From: 2010.05.17/outbox.cif.g08.bks.cpg/sg14_30_cif.got.tgz:59454.got - 2010.06.03 17:49:19.
