data_PCOD9246983
_publ_section_title
;
Structure prediction by ZEFSAII (Michael W. Deem and Ramdas Pophale) SiO2 
 PCOD9246983
Probable space group: P 21/C
;
_chemical_formula_sum "Si O2"
_cell_formula_units_Z 22
_cell_length_a 8.868432
_cell_length_b 5.142125
_cell_length_c 20.499434
_cell_angle_alpha 90.000000
_cell_angle_beta 125.670886
_cell_angle_gamma 90.000000
_cell_volume 759.434864
_symmetry_space_group_name_H-M "P 21/C"
_symmetry_group_IT_number 14
_symmetry_cell_setting 'monoclinic'
loop_
_space_group_symop_operation_xyz
x,y,z
-x,1/2+y,1/2-z
-x,-y,-z
x,1/2-y,1/2+z
loop_
_atom_site_type_symbol
_atom_site_label
_atom_site_fract_x
_atom_site_fract_y
_atom_site_fract_z
Si Si1 0.413086 0.013872 0.760830
Si Si2 0.266231 0.478526 0.852427
Si Si3 0.000000 0.000000 0.000000
Si Si4 0.612891 0.755434 0.926546
Si Si5 0.195194 0.610825 0.448148
Si Si6 0.071175 0.790871 0.179758
O O1 0.488641 0.288615 0.757200
O O2 0.475058 0.937286 0.849032
O O3 0.193264 0.962688 0.698334
O O4 0.191161 0.549741 0.761569
O O5 0.128564 0.246543 0.836860
O O6 0.487856 0.499643 0.906149
O O7 0.210859 0.694379 0.893346
O O8 0.156377 0.780526 0.009696
O O9 0.815189 0.786077 0.947465
O O10 0.650456 0.890594 0.005611
O O11 0.993721 0.444252 0.401217
#
# Coordination Sequence:
#
# PCOD9246983 Si02
#       6
#     4   4   2   4   4   4
#     4  11  26  46  71 104 144 191 239 297 356 439
#     4  11  22  41  65  98 134 186 230 302 351 433
#     4   8  20  38  68  84 142 172 228 288 354 412
#     4   9  22  42  65 102 138 183 236 293 360 420
#     4  10  21  43  65  95 139 176 238 289 357 426
#     4  11  24  38  72  96 138 186 240 293 361 423
#
# _framework density 28.968907000000002
#
# number of rings (size 3 to 8) (size 9 to 14) (size 15 to 20)
#    1.091    0.727    1.818    1.636    5.091    0.727 
#    3.273    1.818    0.000    0.000    0.000    0.000 
#    0.000    0.000    0.000    0.000    0.000    0.000 
#
# Total GULP energy -122528.699315 kJ/mol
# GULP energy per Si atom -5569.486332 kJ/mol
# Density = 2.890297 g / cm^3
# Si number density = 28.968907 Si / 1000 Ang^3
#
#
#
# Elastic Constant Matrix: (Units=GPa)
#
#
# Indices 1 2 3 4 5 6 
#
# 1 215.5884 53.4314 48.2611 0.0000 45.5789 0.0000
# 2 53.4314 83.9004 19.0936 0.0000 5.9239 0.0000
# 3 48.2611 19.0936 102.7683 0.0000 13.0484 0.0000
# 4 0.0000 0.0000 0.0000 25.9172 0.0000 -10.3169
# 5 45.5789 5.9239 13.0484 0.0000 51.6675 0.0000
# 6 0.0000 0.0000 0.0000 -10.3169 0.0000 62.5012
#
#
#
# Elastic Compliance Matrix: (Units=1/GPa)
#
#
# Indices 1 2 3 4 5 6 
#
# 1 0.007138 -0.003716 -0.001980 0.000000 -0.005371 0.000000
# 2 -0.003716 0.014418 -0.001178 0.000000 0.001923 0.000000
# 3 -0.001980 -0.001178 0.010993 0.000000 -0.000895 0.000000
# 4 0.000000 0.000000 0.000000 0.041298 0.000000 0.006817
# 5 -0.005371 0.001923 -0.000895 0.000000 0.024098 0.000000
# 6 0.000000 0.000000 0.000000 0.006817 0.000000 0.017125
#
#
# Mechanical properties :
#
#
# Convention : Reuss Voigt Hill
#
# Bulk Modulus (GPa) = 53.18734 71.53660 62.36197
# Shear Modulus (GPa) = 37.01396 46.78190 41.89793
#
# Velocity S-wave (km/s) = 3.57839 4.02294 3.80716
# Velocity P-wave (km/s) = 5.95594 6.80637 6.39530
#
# Compressibility (1/GPa) = 0.01880147
#
# Stress axis : x y z
#
# Youngs Moduli (GPa) = 140.09201 69.35900 90.96902
#
# Poissons Ratio (x) = 0.25775 0.18010
# Poissons Ratio (y) = 0.52060 0.10713
# Poissons Ratio (z) = 0.27735 0.08168
#
# Static dielectric constant tensor:
#      x y z
#    x 4.699880 0.000000 -3.431810 
#    y 0.000000 2.721980 0.000000 
#    z -3.431810 0.000000 6.914300 
# 
# From -- ./inp_files/71560.got.cif
#   From: 2010.05.17/outbox.cif.g08.bks.cpg/sg14_36_cif.got.tgz:71560.got - 2010.06.03 17:49:19.
