data_PCOD9246047
_publ_section_title
;
Structure prediction by ZEFSAII (Michael W. Deem and Ramdas Pophale) SiO2 
 PCOD9246047
Probable space group: P 21/C
;
_chemical_formula_sum "Si O2"
_cell_formula_units_Z 28
_cell_length_a 8.765678
_cell_length_b 13.511828
_cell_length_c 11.068770
_cell_angle_alpha 90.000000
_cell_angle_beta 71.584928
_cell_angle_gamma 90.000000
_cell_volume 1243.856934
_symmetry_space_group_name_H-M "P 21/C"
_symmetry_group_IT_number 14
_symmetry_cell_setting 'monoclinic'
loop_
_space_group_symop_operation_xyz
x,y,z
-x,1/2+y,1/2-z
-x,-y,-z
x,1/2-y,1/2+z
loop_
_atom_site_type_symbol
_atom_site_label
_atom_site_fract_x
_atom_site_fract_y
_atom_site_fract_z
Si Si1 0.849059 0.927196 0.248380
Si Si2 0.954869 0.124697 0.295935
Si Si3 0.628474 0.762706 0.195728
Si Si4 0.069338 0.171138 0.518287
Si Si5 0.877437 0.180395 0.945214
Si Si6 0.691923 0.589179 0.357115
Si Si7 0.579439 0.385571 0.396365
O O1 0.700628 0.861377 0.240715
O O2 0.903895 0.882373 0.363484
O O3 0.993532 0.903694 0.119005
O O4 0.833225 0.044151 0.273771
O O5 0.013777 0.101541 0.420170
O O6 0.898033 0.236048 0.334300
O O7 0.121109 0.114695 0.181336
O O8 0.617566 0.675913 0.295462
O O9 0.462140 0.793114 0.176742
O O10 0.764058 0.722350 0.068238
O O11 0.934746 0.258263 0.547044
O O12 0.699751 0.140841 0.974968
O O13 0.660387 0.479756 0.311809
O O14 0.595096 0.586703 0.506337
#
# Coordination Sequence:
#
# PCOD9246047 Si02
#       7
#     4   4   4   4   4   4   4
#     4  11  17  36  61  79 118 152 193 248 288 342
#     4   9  19  37  60  88 109 152 204 236 290 349
#     4  10  22  36  57  88 116 156 197 237 301 354
#     4   8  19  35  56  84 110 153 190 241 291 333
#     4   9  21  34  57  89 108 150 203 235 278 353
#     4  10  21  40  61  79 126 159 187 247 302 342
#     4  11  22  39  60  87 122 158 193 243 302 349
#
# _framework density 22.510628000000001
#
# number of rings (size 3 to 8) (size 9 to 14) (size 15 to 20)
#    0.857    1.429    2.857    1.286    0.000    2.286 
#    0.000    2.143    0.000    4.286    0.000    0.000 
#    0.000    0.000    0.000    0.000    0.000    0.000 
#
# Total GULP energy -156118.170455 kJ/mol
# GULP energy per Si atom -5575.648945 kJ/mol
# Density = 2.245939 g / cm^3
# Si number density = 22.510628 Si / 1000 Ang^3
#
#
#
# Elastic Constant Matrix: (Units=GPa)
#
#
# Indices 1 2 3 4 5 6 
#
# 1 57.2113 -2.2906 1.7207 0.0000 2.2906 0.0000
# 2 -2.2906 74.8721 -9.1903 0.0000 -2.3128 0.0000
# 3 1.7207 -9.1903 38.0802 0.0000 1.2827 0.0000
# 4 0.0000 0.0000 0.0000 19.0625 0.0000 3.5958
# 5 2.2906 -2.3128 1.2827 0.0000 20.9637 0.0000
# 6 0.0000 0.0000 0.0000 3.5958 0.0000 32.7056
#
#
#
# Elastic Compliance Matrix: (Units=1/GPa)
#
#
# Indices 1 2 3 4 5 6 
#
# 1 0.017588 0.000403 -0.000635 0.000000 -0.001838 0.000000
# 2 0.000403 0.013810 0.003272 0.000000 0.001279 0.000000
# 3 -0.000635 0.003272 0.027120 0.000000 -0.001229 0.000000
# 4 0.000000 0.000000 0.000000 0.053570 0.000000 -0.005890
# 5 -0.001838 0.001279 -0.001229 0.000000 0.048119 0.000000
# 6 0.000000 0.000000 0.000000 -0.005890 0.000000 0.031223
#
#
# Mechanical properties :
#
#
# Convention : Reuss Voigt Hill
#
# Bulk Modulus (GPa) = 15.48080 16.73811 16.10945
# Shear Modulus (GPa) = 24.16827 26.54130 25.35478
#
# Velocity S-wave (km/s) = 3.28020 3.43746 3.35975
# Velocity P-wave (km/s) = 4.60850 4.81733 4.71407
#
# Compressibility (1/GPa) = 0.06459616
#
# Stress axis : x y z
#
# Youngs Moduli (GPa) = 56.85717 72.41371 36.87312
#
# Poissons Ratio (x) = -0.02920 0.02343
# Poissons Ratio (y) = -0.02293 -0.12063
# Poissons Ratio (z) = 0.03613 -0.23690
#
# Static dielectric constant tensor:
#      x y z
#    x 1.799010 0.000000 0.019790 
#    y 0.000000 1.900460 0.000000 
#    z 0.019790 0.000000 1.870870 
# 
# From -- ./inp_files/25206.got.cif
#   From: 2010.05.17/outbox.cif.g08.bks.cpg/sg14_13_cif.got.tgz:25206.got - 2010.06.03 17:49:19.
