data_PCOD9246714
_publ_section_title
;
Structure prediction by ZEFSAII (Michael W. Deem and Ramdas Pophale) SiO2 
 PCOD9246714
Probable space group: P 21/C
;
_chemical_formula_sum "Si O2"
_cell_formula_units_Z 20
_cell_length_a 5.276190
_cell_length_b 9.027361
_cell_length_c 17.252026
_cell_angle_alpha 90.000000
_cell_angle_beta 101.318197
_cell_angle_gamma 90.000000
_cell_volume 805.734830
_symmetry_space_group_name_H-M "P 21/C"
_symmetry_group_IT_number 14
_symmetry_cell_setting 'monoclinic'
loop_
_space_group_symop_operation_xyz
x,y,z
-x,1/2+y,1/2-z
-x,-y,-z
x,1/2-y,1/2+z
loop_
_atom_site_type_symbol
_atom_site_label
_atom_site_fract_x
_atom_site_fract_y
_atom_site_fract_z
Si Si1 0.606247 0.007998 0.659680
Si Si2 0.629710 0.293259 0.750665
Si Si3 0.761778 0.194238 0.001387
Si Si4 0.922317 0.058240 0.389027
Si Si5 0.310081 0.377138 0.582852
O O1 0.558408 0.841634 0.689522
O O2 0.313804 0.055599 0.620853
O O3 0.795647 0.008125 0.598869
O O4 0.684811 0.125643 0.729889
O O5 0.884050 0.371781 0.800093
O O6 0.489378 0.366656 0.669216
O O7 0.861463 0.322355 0.950189
O O8 0.720573 0.046590 0.947567
O O9 0.487559 0.205861 0.028585
O O10 0.009437 0.169791 0.072556
#
# Coordination Sequence:
#
# PCOD9246714 Si02
#       5
#     4   4   4   4   4
#     4  10  24  38  65  91 126 164 215 257 322 368
#     4  10  24  42  65  96 123 168 217 264 310 383
#     4  10  21  42  59  97 124 170 202 267 313 371
#     4  10  23  39  64  87 130 163 207 260 320 367
#     4  10  22  37  68  89 128 163 220 251 314 380
#
# _framework density 24.822063
#
# number of rings (size 3 to 8) (size 9 to 14) (size 15 to 20)
#    1.200    0.800    0.000    2.400    5.600    0.000 
#    3.600    6.000    0.000    0.000    0.000    0.000 
#    0.000    0.000    0.000    0.000    0.000    0.000 
#
# Total GULP energy -111503.087200 kJ/mol
# GULP energy per Si atom -5575.154360 kJ/mol
# Density = 2.476557 g / cm^3
# Si number density = 24.822063 Si / 1000 Ang^3
#
#
#
# Elastic Constant Matrix: (Units=GPa)
#
#
# Indices 1 2 3 4 5 6 
#
# 1 134.0281 15.7531 0.7150 0.0000 -33.7028 0.0000
# 2 15.7531 77.7745 12.5675 0.0000 -27.7541 0.0000
# 3 0.7150 12.5675 77.6908 0.0000 0.0390 0.0000
# 4 0.0000 0.0000 0.0000 48.0170 0.0000 -5.1682
# 5 -33.7028 -27.7541 0.0390 0.0000 27.9714 0.0000
# 6 0.0000 0.0000 0.0000 -5.1682 0.0000 31.2873
#
#
#
# Elastic Compliance Matrix: (Units=1/GPa)
#
#
# Indices 1 2 3 4 5 6 
#
# 1 0.011517 0.004257 -0.000804 0.000000 0.018101 0.000000
# 2 0.004257 0.022324 -0.003664 0.000000 0.027285 0.000000
# 3 -0.000804 -0.003664 0.013474 0.000000 -0.004623 0.000000
# 4 0.000000 0.000000 0.000000 0.021203 0.000000 0.003502
# 5 0.018101 0.027285 -0.004623 0.000000 0.084640 0.000000
# 6 0.000000 0.000000 0.000000 0.003502 0.000000 0.032540
#
#
# Mechanical properties :
#
#
# Convention : Reuss Voigt Hill
#
# Bulk Modulus (GPa) = 21.32517 38.61830 29.97173
# Shear Modulus (GPa) = 24.78292 38.81899 31.80095
#
# Velocity S-wave (km/s) = 3.16321 3.95890 3.58321
# Velocity P-wave (km/s) = 4.68520 6.04061 5.40555
#
# Compressibility (1/GPa) = 0.04689295
#
# Stress axis : x y z
#
# Youngs Moduli (GPa) = 86.82892 44.79442 74.21713
#
# Poissons Ratio (x) = -0.19068 0.05964
# Poissons Ratio (y) = -0.36960 0.27194
# Poissons Ratio (z) = 0.06978 0.16413
#
# Static dielectric constant tensor:
#      x y z
#    x 1.984370 0.000000 0.060070 
#    y 0.000000 2.017980 0.000000 
#    z 0.060070 0.000000 2.007280 
# 
# From -- ./inp_files/63102.got.cif
#   From: 2010.05.17/outbox.cif.g08.bks.cpg/sg14_32_cif.got.tgz:63102.got - 2010.06.03 17:49:19.
