data_PCOD9246302
_publ_section_title
;
Structure prediction by ZEFSAII (Michael W. Deem and Ramdas Pophale) SiO2 
 PCOD9246302
Probable space group: P 21/C
;
_chemical_formula_sum "Si O2"
_cell_formula_units_Z 28
_cell_length_a 19.067764
_cell_length_b 10.023234
_cell_length_c 16.397767
_cell_angle_alpha 90.000000
_cell_angle_beta 20.462220
_cell_angle_gamma 90.000000
_cell_volume 1095.597289
_symmetry_space_group_name_H-M "P 21/C"
_symmetry_group_IT_number 14
_symmetry_cell_setting 'monoclinic'
loop_
_space_group_symop_operation_xyz
x,y,z
-x,1/2+y,1/2-z
-x,-y,-z
x,1/2-y,1/2+z
loop_
_atom_site_type_symbol
_atom_site_label
_atom_site_fract_x
_atom_site_fract_y
_atom_site_fract_z
Si Si1 0.612015 0.069260 0.507359
Si Si2 0.248414 0.121938 0.223124
Si Si3 0.345587 0.870874 0.713518
Si Si4 0.638704 0.488431 0.226800
Si Si5 0.079903 0.364914 0.504185
Si Si6 0.017676 0.658053 0.121037
Si Si7 0.689785 0.747770 0.591554
O O1 0.563746 0.151556 0.475285
O O2 0.846667 0.095040 0.262264
O O3 0.514797 0.924875 0.591877
O O4 0.483012 0.136170 0.719280
O O5 0.087032 0.068229 0.333949
O O6 0.144189 0.261466 0.363111
O O7 0.301488 0.046669 0.248809
O O8 0.456503 0.111309 0.945366
O O9 0.196315 0.752972 0.896900
O O10 0.200134 0.998400 0.862226
O O11 0.587023 0.612713 0.225660
O O12 0.851281 0.433470 0.961515
O O13 0.159599 0.294503 0.499214
O O14 0.837561 0.743016 0.354583
#
# Coordination Sequence:
#
# PCOD9246302 Si02
#       7
#     4   4   4   4   4   4   4
#     4  10  21  40  67  94 128 171 215 278 328 393
#     4  10  23  42  70  99 126 176 231 273 335 400
#     4  10  23  36  69 100 127 166 231 271 324 396
#     4  10  25  43  67  94 138 172 224 278 331 405
#     4  10  21  42  67  94 132 174 218 279 334 393
#     4  12  25  42  67  98 133 177 222 278 338 399
#     4  10  26  43  62  95 135 173 218 274 341 398
#
# _framework density 25.556837000000002
#
# number of rings (size 3 to 8) (size 9 to 14) (size 15 to 20)
#    0.000    1.714    1.429    0.857   14.000    3.429 
#    0.000    0.000    0.000    0.000    0.000    0.000 
#    0.000    0.000    0.000    0.000    0.000    0.000 
#
# Total GULP energy -156449.338357 kJ/mol
# GULP energy per Si atom -5587.476370 kJ/mol
# Density = 2.549867 g / cm^3
# Si number density = 25.556837 Si / 1000 Ang^3
#
#
#
# Elastic Constant Matrix: (Units=GPa)
#
#
# Indices 1 2 3 4 5 6 
#
# 1 59.6722 12.7624 42.7220 0.0000 -11.5381 0.0000
# 2 12.7624 60.3977 44.3613 0.0000 -14.8577 0.0000
# 3 42.7220 44.3613 196.0263 0.0000 -23.8470 0.0000
# 4 0.0000 0.0000 0.0000 41.8613 0.0000 -7.9881
# 5 -11.5381 -14.8577 -23.8470 0.0000 52.0822 0.0000
# 6 0.0000 0.0000 0.0000 -7.9881 0.0000 27.1009
#
#
#
# Elastic Compliance Matrix: (Units=1/GPa)
#
#
# Indices 1 2 3 4 5 6 
#
# 1 0.020214 -0.000781 -0.003930 0.000000 0.002456 0.000000
# 2 -0.000781 0.020632 -0.004028 0.000000 0.003868 0.000000
# 3 -0.003930 -0.004028 0.007014 0.000000 0.001192 0.000000
# 4 0.000000 0.000000 0.000000 0.025312 0.000000 0.007461
# 5 0.002456 0.003868 0.001192 0.000000 0.021394 0.000000
# 6 0.000000 0.000000 0.000000 0.007461 0.000000 0.039098
#
#
# Mechanical properties :
#
#
# Convention : Reuss Voigt Hill
#
# Bulk Modulus (GPa) = 32.91367 57.30975 45.11171
# Shear Modulus (GPa) = 31.00388 38.62558 34.81473
#
# Velocity S-wave (km/s) = 3.48679 3.89184 3.69487
# Velocity P-wave (km/s) = 5.39600 6.53210 5.99104
#
# Compressibility (1/GPa) = 0.03038251
#
# Stress axis : x y z
#
# Youngs Moduli (GPa) = 49.47144 48.46766 142.56194
#
# Poissons Ratio (x) = 0.03783 0.56026
# Poissons Ratio (y) = 0.03862 0.57430
# Poissons Ratio (z) = 0.19442 0.19525
#
# Static dielectric constant tensor:
#      x y z
#    x 2.108950 0.000000 0.015330 
#    y 0.000000 2.090460 0.000000 
#    z 0.015330 0.000000 1.974390 
# 
# From -- ./inp_files/61273.got.cif
#   From: 2010.05.17/outbox.cif.g08.bks.cpg/sg14_31_cif.got.tgz:61273.got - 2010.06.03 17:49:19.
