data_PCOD9246008
_publ_section_title
;
Structure prediction by ZEFSAII (Michael W. Deem and Ramdas Pophale) SiO2 
 PCOD9246008
Probable space group: P 21/C
;
_chemical_formula_sum "Si O2"
_cell_formula_units_Z 32
_cell_length_a 16.960480
_cell_length_b 9.373814
_cell_length_c 21.331327
_cell_angle_alpha 90.000000
_cell_angle_beta 150.278017
_cell_angle_gamma 90.000000
_cell_volume 1681.402836
_symmetry_space_group_name_H-M "P 21/C"
_symmetry_group_IT_number 14
_symmetry_cell_setting 'monoclinic'
loop_
_space_group_symop_operation_xyz
x,y,z
-x,1/2+y,1/2-z
-x,-y,-z
x,1/2-y,1/2+z
loop_
_atom_site_type_symbol
_atom_site_label
_atom_site_fract_x
_atom_site_fract_y
_atom_site_fract_z
Si Si1 0.348442 0.032544 0.351637
Si Si2 0.872670 0.277685 0.264567
Si Si3 0.650327 0.641702 0.872191
Si Si4 0.891196 0.768998 0.263380
Si Si5 0.489402 0.377254 0.815934
Si Si6 0.227325 0.816808 0.942226
Si Si7 0.010164 0.019395 0.433134
Si Si8 0.788541 0.634018 0.557812
O O1 0.240874 0.160011 0.304281
O O2 0.403033 0.075563 0.319968
O O3 0.500000 0.000000 0.500000
O O4 0.238917 0.893311 0.280457
O O5 0.794701 0.214552 0.147053
O O6 0.908140 0.151514 0.337061
O O7 0.040976 0.348286 0.359618
O O8 0.522413 0.519652 0.798661
O O9 0.603629 0.756777 0.787283
O O10 0.810679 0.558825 0.963712
O O11 0.684528 0.737488 0.957716
O O12 0.823511 0.846395 0.155192
O O13 0.052066 0.693490 0.350871
O O14 0.944767 0.880388 0.352879
O O15 0.656465 0.303386 0.950469
O O16 0.284275 0.976349 0.997968
O O17 0.000000 0.000000 0.500000
#
# Coordination Sequence:
#
# PCOD9246008 Si02
#       8
#     4   4   4   4   4   4   4   4
#     4  12  24  42  65 103 138 170 214 286 345 391
#     4  10  22  39  64  99 128 168 222 272 332 394
#     4  11  25  44  64  99 131 179 224 270 336 403
#     4  11  22  40  69  97 129 175 223 274 331 392
#     4  12  25  43  68  93 143 174 217 278 340 399
#     4  11  20  40  68  96 128 176 221 276 322 398
#     4  11  23  44  66  94 133 175 223 276 326 401
#     4  10  21  39  69  94 128 169 228 271 320 395
#
# _framework density 19.031728000000001
#
# number of rings (size 3 to 8) (size 9 to 14) (size 15 to 20)
#    0.000    1.000    5.000    2.250    0.000    1.000 
#    2.250    6.875    0.000    0.000    0.000    0.000 
#    0.000    0.000    0.000    0.000    0.000    0.000 
#
# Total GULP energy -178788.554702 kJ/mol
# GULP energy per Si atom -5587.142334 kJ/mol
# Density = 1.898841 g / cm^3
# Si number density = 19.031728 Si / 1000 Ang^3
#
#
#
# Elastic Constant Matrix: (Units=GPa)
#
#
# Indices 1 2 3 4 5 6 
#
# 1 101.3272 61.9836 43.9442 0.0000 -12.1163 0.0000
# 2 61.9836 126.8328 43.2488 0.0000 -3.8582 0.0000
# 3 43.9442 43.2488 86.4481 0.0000 -14.7233 0.0000
# 4 0.0000 0.0000 0.0000 43.7818 0.0000 4.9096
# 5 -12.1163 -3.8582 -14.7233 0.0000 36.7078 0.0000
# 6 0.0000 0.0000 0.0000 4.9096 0.0000 30.6788
#
#
#
# Elastic Compliance Matrix: (Units=1/GPa)
#
#
# Indices 1 2 3 4 5 6 
#
# 1 0.015940 -0.006154 -0.004549 0.000000 0.002790 0.000000
# 2 -0.006154 0.011915 -0.003183 0.000000 -0.002055 0.000000
# 3 -0.004549 -0.003183 0.016271 0.000000 0.004690 0.000000
# 4 0.000000 0.000000 0.000000 0.023258 0.000000 -0.003722
# 5 0.002790 -0.002055 0.004690 0.000000 0.029828 0.000000
# 6 0.000000 0.000000 0.000000 -0.003722 0.000000 0.033191
#
#
# Mechanical properties :
#
#
# Convention : Reuss Voigt Hill
#
# Bulk Modulus (GPa) = 61.14416 68.10682 64.62549
# Shear Modulus (GPa) = 30.55769 33.26244 31.91006
#
# Velocity S-wave (km/s) = 4.01136 4.18513 4.09917
# Velocity P-wave (km/s) = 7.32475 7.69528 7.51230
#
# Compressibility (1/GPa) = 0.01635479
#
# Stress axis : x y z
#
# Youngs Moduli (GPa) = 62.73591 83.93130 61.45926
#
# Poissons Ratio (x) = 0.51650 0.27957
# Poissons Ratio (y) = 0.38607 0.19560
# Poissons Ratio (z) = 0.28538 0.26711
#
# Static dielectric constant tensor:
#      x y z
#    x 1.629290 0.000000 0.006450 
#    y 0.000000 1.663440 0.000000 
#    z 0.006450 0.000000 1.663450 
# 
# From -- ./inp_files/69177.got.cif
#   From: 2010.05.17/outbox.cif.g08.bks.cpg/sg14_35_cif.got.tgz:69177.got - 2010.06.03 17:49:19.
