data_PCOD9246164
_publ_section_title
;
Structure prediction by ZEFSAII (Michael W. Deem and Ramdas Pophale) SiO2 
 PCOD9246164
Probable space group: P 21/C
;
_chemical_formula_sum "Si O2"
_cell_formula_units_Z 32
_cell_length_a 11.523845
_cell_length_b 11.736951
_cell_length_c 16.713186
_cell_angle_alpha 90.000000
_cell_angle_beta 146.771409
_cell_angle_gamma 90.000000
_cell_volume 1238.731593
_symmetry_space_group_name_H-M "P 21/C"
_symmetry_group_IT_number 14
_symmetry_cell_setting 'monoclinic'
loop_
_space_group_symop_operation_xyz
x,y,z
-x,1/2+y,1/2-z
-x,-y,-z
x,1/2-y,1/2+z
loop_
_atom_site_type_symbol
_atom_site_label
_atom_site_fract_x
_atom_site_fract_y
_atom_site_fract_z
Si Si1 0.663302 0.631268 0.937734
Si Si2 0.643557 0.667138 0.215245
Si Si3 0.255504 0.746719 0.412711
Si Si4 0.622603 0.049841 0.293865
Si Si5 0.003263 0.829394 0.426278
Si Si6 0.775448 0.606795 0.523624
Si Si7 0.926879 0.480820 0.766851
Si Si8 0.226420 0.930251 0.258318
O O1 0.683306 0.573887 0.862291
O O2 0.736408 0.759288 0.993216
O O3 0.414907 0.621454 0.813830
O O4 0.824000 0.553666 0.082737
O O5 0.510410 0.609948 0.209562
O O6 0.715329 0.562809 0.200745
O O7 0.843868 0.734061 0.362308
O O8 0.495966 0.753848 0.081760
O O9 0.117590 0.772725 0.413112
O O10 0.186810 0.637595 0.321593
O O11 0.239703 0.854160 0.344960
O O12 0.826441 0.131410 0.409577
O O13 0.447269 0.048111 0.124963
O O14 0.896356 0.945341 0.329772
O O15 0.845636 0.563602 0.650616
O O16 0.981806 0.574842 0.589510
#
# Coordination Sequence:
#
# PCOD9246164 Si02
#       8
#     4   4   4   4   4   4   4   4
#     4  10  24  44  64  94 134 168 213 271 320 381
#     4  10  23  40  67  92 127 169 221 262 317 382
#     4  11  22  36  61  98 124 163 210 273 321 378
#     4   9  24  44  64  94 128 175 217 258 321 383
#     4  10  21  40  64  90 130 172 208 271 320 377
#     4  12  24  41  69  98 130 170 217 267 322 385
#     4  11  22  40  62  97 130 168 212 265 334 376
#     4  11  23  37  66  93 126 164 214 264 319 378
#
# _framework density 25.832877
#
# number of rings (size 3 to 8) (size 9 to 14) (size 15 to 20)
#    0.000    1.500    2.500    1.875    5.250    6.500 
#    0.000    0.000    0.000    3.000    0.000    0.000 
#    0.000    0.000    0.000    0.000    0.000    0.000 
#
# Total GULP energy -179140.227322 kJ/mol
# GULP energy per Si atom -5598.132104 kJ/mol
# Density = 2.577408 g / cm^3
# Si number density = 25.832877 Si / 1000 Ang^3
#
#
#
# Elastic Constant Matrix: (Units=GPa)
#
#
# Indices 1 2 3 4 5 6 
#
# 1 52.5727 33.7219 21.2522 0.0000 -3.6164 0.0000
# 2 33.7219 124.3813 44.7740 0.0000 11.9093 0.0000
# 3 21.2522 44.7740 164.1333 0.0000 -2.2446 0.0000
# 4 0.0000 0.0000 0.0000 40.5213 0.0000 -3.7799
# 5 -3.6164 11.9093 -2.2446 0.0000 34.2470 0.0000
# 6 0.0000 0.0000 0.0000 -3.7799 0.0000 24.3100
#
#
#
# Elastic Compliance Matrix: (Units=1/GPa)
#
#
# Indices 1 2 3 4 5 6 
#
# 1 0.024036 -0.006511 -0.001272 0.000000 0.004719 0.000000
# 2 -0.006511 0.011059 -0.002238 0.000000 -0.004680 0.000000
# 3 -0.001272 -0.002238 0.006883 0.000000 0.001095 0.000000
# 4 0.000000 0.000000 0.000000 0.025042 0.000000 0.003894
# 5 0.004719 -0.004680 0.001095 0.000000 0.031397 0.000000
# 6 0.000000 0.000000 0.000000 0.003894 0.000000 0.041741
#
#
# Mechanical properties :
#
#
# Convention : Reuss Voigt Hill
#
# Bulk Modulus (GPa) = 45.58434 60.06482 52.82458
# Shear Modulus (GPa) = 29.84913 35.90494 32.87703
#
# Velocity S-wave (km/s) = 3.40291 3.73217 3.57134
# Velocity P-wave (km/s) = 5.75534 6.47101 6.12364
#
# Compressibility (1/GPa) = 0.02193736
#
# Stress axis : x y z
#
# Youngs Moduli (GPa) = 41.60407 90.42803 145.29296
#
# Poissons Ratio (x) = 0.58875 0.18476
# Poissons Ratio (y) = 0.27087 0.32511
# Poissons Ratio (z) = 0.05291 0.20235
#
# Static dielectric constant tensor:
#      x y z
#    x 2.132620 0.000000 0.038010 
#    y 0.000000 1.981620 0.000000 
#    z 0.038010 0.000000 2.037050 
# 
# From -- ./inp_files/77824.got.cif
#   From: 2010.05.17/outbox.cif.g08.bks.cpg/sg14_39_cif.got.tgz:77824.got - 2010.06.03 17:49:19.
