data_PCOD9246121
_publ_section_title
;
Structure prediction by ZEFSAII (Michael W. Deem and Ramdas Pophale) SiO2 
 PCOD9246121
Probable space group: P 21/C
;
_chemical_formula_sum "Si O2"
_cell_formula_units_Z 24
_cell_length_a 18.394482
_cell_length_b 8.018954
_cell_length_c 14.847257
_cell_angle_alpha 90.000000
_cell_angle_beta 25.471285
_cell_angle_gamma 90.000000
_cell_volume 941.844576
_symmetry_space_group_name_H-M "P 21/C"
_symmetry_group_IT_number 14
_symmetry_cell_setting 'monoclinic'
loop_
_space_group_symop_operation_xyz
x,y,z
-x,1/2+y,1/2-z
-x,-y,-z
x,1/2-y,1/2+z
loop_
_atom_site_type_symbol
_atom_site_label
_atom_site_fract_x
_atom_site_fract_y
_atom_site_fract_z
Si Si1 0.979631 0.694765 0.008051
Si Si2 0.755541 0.245829 0.931790
Si Si3 0.280304 0.175365 0.837825
Si Si4 0.527002 0.187240 0.936453
Si Si5 0.412843 0.376968 0.372698
Si Si6 0.880704 0.311215 0.479401
O O1 0.141277 0.769645 0.774487
O O2 0.970067 0.779208 0.117006
O O3 0.000000 0.500000 0.000000
O O4 0.828822 0.712176 0.106175
O O5 0.607169 0.375395 0.119983
O O6 0.889798 0.239780 0.864675
O O7 0.664863 0.062727 0.031435
O O8 0.461820 0.185960 0.585189
O O9 0.310356 0.216102 0.908464
O O10 0.187532 0.998643 0.940008
O O11 0.426903 0.207230 0.954273
O O12 0.722280 0.206936 0.694420
O O13 0.500000 0.000000 0.000000
#
# Coordination Sequence:
#
# PCOD9246121 Si02
#       6
#     4   4   4   4   4   4
#     4  12  25  42  63  91 129 168 209 261 322 385
#     4  10  23  41  64  91 123 161 209 260 312 375
#     4  11  23  39  61  90 125 164 204 260 319 376
#     4  11  21  39  67  94 124 164 213 262 307 370
#     4  10  21  40  63  91 122 161 212 259 310 369
#     4  10  23  41  60  89 122 164 211 256 310 369
#
# _framework density 25.481912999999999
#
# number of rings (size 3 to 8) (size 9 to 14) (size 15 to 20)
#    0.000    1.333    0.000    6.000    0.000    8.000 
#    0.000    1.667    0.000    0.000    0.000    0.000 
#    0.000    0.000    0.000    0.000    0.000    0.000 
#
# Total GULP energy -134388.533209 kJ/mol
# GULP energy per Si atom -5599.522217 kJ/mol
# Density = 2.542391 g / cm^3
# Si number density = 25.481913 Si / 1000 Ang^3
#
#
#
# Elastic Constant Matrix: (Units=GPa)
#
#
# Indices 1 2 3 4 5 6 
#
# 1 219.8903 16.3105 23.3295 0.0000 15.7477 0.0000
# 2 16.3105 45.6827 -13.6007 0.0000 1.1874 0.0000
# 3 23.3295 -13.6007 66.0505 0.0000 7.0776 0.0000
# 4 0.0000 0.0000 0.0000 29.8766 0.0000 -7.0944
# 5 15.7477 1.1874 7.0776 0.0000 42.0864 0.0000
# 6 0.0000 0.0000 0.0000 -7.0944 0.0000 33.0540
#
#
#
# Elastic Compliance Matrix: (Units=1/GPa)
#
#
# Indices 1 2 3 4 5 6 
#
# 1 0.005056 -0.002399 -0.002123 0.000000 -0.001467 0.000000
# 2 -0.002399 0.024550 0.005989 0.000000 -0.000802 0.000000
# 3 -0.002123 0.005989 0.017369 0.000000 -0.002296 0.000000
# 4 0.000000 0.000000 0.000000 0.035269 0.000000 0.007570
# 5 -0.001467 -0.000802 -0.002296 0.000000 0.024718 0.000000
# 6 0.000000 0.000000 0.000000 0.007570 0.000000 0.031878
#
#
# Mechanical properties :
#
#
# Convention : Reuss Voigt Hill
#
# Bulk Modulus (GPa) = 20.03640 42.63357 31.33499
# Shear Modulus (GPa) = 32.77775 41.37567 37.07671
#
# Velocity S-wave (km/s) = 3.59041 4.03392 3.81861
# Velocity P-wave (km/s) = 5.00681 6.20193 5.63614
#
# Compressibility (1/GPa) = 0.04990916
#
# Stress axis : x y z
#
# Youngs Moduli (GPa) = 197.78734 40.73253 57.57468
#
# Poissons Ratio (x) = 0.09772 0.12221
# Poissons Ratio (y) = 0.47448 -0.34479
# Poissons Ratio (z) = 0.41981 -0.24393
#
# Static dielectric constant tensor:
#      x y z
#    x 2.102670 0.000000 -0.076740 
#    y 0.000000 1.944370 0.000000 
#    z -0.076740 0.000000 2.067270 
# 
# From -- ./inp_files/48483.got.cif
#   From: 2010.05.17/outbox.cif.g08.bks.cpg/sg14_25_cif.got.tgz:48483.got - 2010.06.03 17:49:19.
