data_PCOD9246890
_publ_section_title
;
Structure prediction by ZEFSAII (Michael W. Deem and Ramdas Pophale) SiO2 
 PCOD9246890
Probable space group: P 21/C
;
_chemical_formula_sum "Si O2"
_cell_formula_units_Z 28
_cell_length_a 9.476333
_cell_length_b 14.237766
_cell_length_c 13.947333
_cell_angle_alpha 90.000000
_cell_angle_beta 136.143738
_cell_angle_gamma 90.000000
_cell_volume 1303.807710
_symmetry_space_group_name_H-M "P 21/C"
_symmetry_group_IT_number 14
_symmetry_cell_setting 'monoclinic'
loop_
_space_group_symop_operation_xyz
x,y,z
-x,1/2+y,1/2-z
-x,-y,-z
x,1/2-y,1/2+z
loop_
_atom_site_type_symbol
_atom_site_label
_atom_site_fract_x
_atom_site_fract_y
_atom_site_fract_z
Si Si1 0.109150 0.124462 0.962788
Si Si2 0.393863 0.399702 0.423432
Si Si3 0.017651 0.615719 0.886477
Si Si4 0.299448 0.450352 0.941656
Si Si5 0.811516 0.313761 0.610396
Si Si6 0.892121 0.560010 0.338785
Si Si7 0.974279 0.837058 0.580209
O O1 0.267715 0.126943 0.955719
O O2 0.029987 0.227267 0.943228
O O3 0.201301 0.084474 0.105948
O O4 0.930613 0.050710 0.850174
O O5 0.500000 0.500000 0.500000
O O6 0.219893 0.401166 0.256387
O O7 0.569155 0.323626 0.490414
O O8 0.147089 0.532429 0.902247
O O9 0.096182 0.713465 0.876570
O O10 0.044510 0.616616 0.014947
O O11 0.229782 0.400585 0.809665
O O12 0.252337 0.374216 0.001053
O O13 0.500000 0.500000 0.000000
O O14 0.891480 0.389876 0.571874
O O15 0.888352 0.344545 0.755354
#
# Coordination Sequence:
#
# PCOD9246890 Si02
#       7
#     4   4   4   4   4   4   4
#     4  11  21  41  69  97 134 174 228 285 343 406
#     4  12  24  44  71 100 136 186 234 285 347 419
#     4  12  25  47  67 102 143 183 232 294 344 420
#     4  11  25  43  67  96 139 184 227 284 350 412
#     4  11  23  43  69  99 134 181 230 282 348 407
#     4  10  21  42  68  97 134 173 224 286 339 413
#     4  11  24  45  68  98 142 180 226 294 351 407
#
# _framework density 21.475560000000002
#
# number of rings (size 3 to 8) (size 9 to 14) (size 15 to 20)
#    0.000    0.857    5.714    1.286    2.000    2.286 
#    2.571    0.000    0.000    0.000    0.000    0.000 
#    0.000    0.000    0.000    0.000    0.000    0.000 
#
# Total GULP energy -156131.917166 kJ/mol
# GULP energy per Si atom -5576.139899 kJ/mol
# Density = 2.142668 g / cm^3
# Si number density = 21.475560 Si / 1000 Ang^3
#
#
#
# Elastic Constant Matrix: (Units=GPa)
#
#
# Indices 1 2 3 4 5 6 
#
# 1 52.3772 -11.3584 32.6796 0.0000 -22.6068 0.0000
# 2 -11.3584 87.4761 5.4253 0.0000 -0.2696 0.0000
# 3 32.6796 5.4253 55.6975 0.0000 -7.2367 0.0000
# 4 0.0000 0.0000 0.0000 17.1108 0.0000 1.1486
# 5 -22.6068 -0.2696 -7.2367 0.0000 43.3152 0.0000
# 6 0.0000 0.0000 0.0000 1.1486 0.0000 41.1755
#
#
#
# Elastic Compliance Matrix: (Units=1/GPa)
#
#
# Indices 1 2 3 4 5 6 
#
# 1 0.043710 0.007216 -0.023898 0.000000 0.018865 0.000000
# 2 0.007216 0.012693 -0.005081 0.000000 0.002996 0.000000
# 3 -0.023898 -0.005081 0.031531 0.000000 -0.007237 0.000000
# 4 0.000000 0.000000 0.000000 0.058552 0.000000 -0.001633
# 5 0.018865 0.002996 -0.007237 0.000000 0.031742 0.000000
# 6 0.000000 0.000000 0.000000 -0.001633 0.000000 0.024332
#
#
# Mechanical properties :
#
#
# Convention : Reuss Voigt Hill
#
# Bulk Modulus (GPa) = 22.51853 27.67153 25.09503
# Shear Modulus (GPa) = 19.16522 31.57392 25.36957
#
# Velocity S-wave (km/s) = 2.99058 3.83851 3.44077
# Velocity P-wave (km/s) = 4.73637 5.70602 5.24366
#
# Compressibility (1/GPa) = 0.04440788
#
# Stress axis : x y z
#
# Youngs Moduli (GPa) = 22.87786 78.78355 31.71523
#
# Poissons Ratio (x) = -0.56850 0.75793
# Poissons Ratio (y) = -0.16509 0.16114
# Poissons Ratio (z) = 0.54674 0.40029
#
# Static dielectric constant tensor:
#      x y z
#    x 1.703690 0.000000 -0.130360 
#    y 0.000000 1.829710 0.000000 
#    z -0.130360 0.000000 1.620160 
# 
# From -- ./inp_files/41287.got.cif
#   From: 2010.05.17/outbox.cif.g08.bks.cpg/sg14_21_cif.got.tgz:41287.got - 2010.06.03 17:49:19.
