data_PCOD9246565
_publ_section_title
;
Structure prediction by ZEFSAII (Michael W. Deem and Ramdas Pophale) SiO2 
 PCOD9246565
Probable space group: P 21/C
;
_chemical_formula_sum "Si O2"
_cell_formula_units_Z 24
_cell_length_a 17.164601
_cell_length_b 16.579191
_cell_length_c 9.946672
_cell_angle_alpha 90.000000
_cell_angle_beta 23.139790
_cell_angle_gamma 90.000000
_cell_volume 1112.347950
_symmetry_space_group_name_H-M "P 21/C"
_symmetry_group_IT_number 14
_symmetry_cell_setting 'monoclinic'
loop_
_space_group_symop_operation_xyz
x,y,z
-x,1/2+y,1/2-z
-x,-y,-z
x,1/2-y,1/2+z
loop_
_atom_site_type_symbol
_atom_site_label
_atom_site_fract_x
_atom_site_fract_y
_atom_site_fract_z
Si Si1 0.320819 0.387651 0.554389
Si Si2 0.266346 0.019064 0.883575
Si Si3 0.028848 0.842060 0.695849
Si Si4 0.063384 0.250318 0.903151
Si Si5 0.665123 0.454067 0.152107
Si Si6 0.060565 0.410918 0.233949
O O1 0.242421 0.458043 0.579667
O O2 0.273760 0.297943 0.574081
O O3 0.549840 0.406568 0.219612
O O4 0.201897 0.392354 0.882408
O O5 0.500000 0.000000 0.500000
O O6 0.168118 0.101470 0.978480
O O7 0.135395 0.948533 0.024407
O O8 0.056678 0.812339 0.499692
O O9 0.215608 0.893367 0.444067
O O10 0.005427 0.768757 0.837460
O O11 0.047484 0.166628 0.848734
O O12 0.500000 0.500000 0.500000
O O13 0.824486 0.521327 0.860937
#
# Coordination Sequence:
#
# PCOD9246565 Si02
#       6
#     4   4   4   4   4   4
#     4  10  21  42  63  93 131 168 218 263 330 389
#     4  10  23  39  66  95 123 168 224 269 317 388
#     4  10  23  43  65  92 136 171 212 272 333 388
#     4  11  22  42  63  92 132 173 213 266 333 387
#     4   9  21  42  66  94 123 172 218 266 324 387
#     4  10  21  41  66  88 131 172 216 268 325 386
#
# _framework density 21.575983999999998
#
# number of rings (size 3 to 8) (size 9 to 14) (size 15 to 20)
#    0.000    2.000    1.667    0.500    4.667    2.667 
#    9.000    0.000    0.000    0.000    0.000    0.000 
#    0.000    0.000    0.000    0.000    0.000    0.000 
#
# Total GULP energy -133769.274669 kJ/mol
# GULP energy per Si atom -5573.719778 kJ/mol
# Density = 2.152688 g / cm^3
# Si number density = 21.575984 Si / 1000 Ang^3
#
#
#
# Elastic Constant Matrix: (Units=GPa)
#
#
# Indices 1 2 3 4 5 6 
#
# 1 79.2898 19.5013 24.3687 0.0000 -19.1385 0.0000
# 2 19.5013 93.2211 38.4932 0.0000 -35.3101 0.0000
# 3 24.3687 38.4932 90.3624 0.0000 -30.0144 0.0000
# 4 0.0000 0.0000 0.0000 18.1778 0.0000 -1.8659
# 5 -19.1385 -35.3101 -30.0144 0.0000 47.4588 0.0000
# 6 0.0000 0.0000 0.0000 -1.8659 0.0000 36.2095
#
#
#
# Elastic Compliance Matrix: (Units=1/GPa)
#
#
# Indices 1 2 3 4 5 6 
#
# 1 0.014416 -0.000566 -0.002349 0.000000 0.003907 0.000000
# 2 -0.000566 0.015822 -0.003485 0.000000 0.009340 0.000000
# 3 -0.002349 -0.003485 0.015202 0.000000 0.006074 0.000000
# 4 0.000000 0.000000 0.000000 0.055305 0.000000 0.002850
# 5 0.003907 0.009340 0.006074 0.000000 0.033437 0.000000
# 6 0.000000 0.000000 0.000000 0.002850 0.000000 0.027764
#
#
# Mechanical properties :
#
#
# Convention : Reuss Voigt Hill
#
# Bulk Modulus (GPa) = 30.63694 47.51110 39.07402
# Shear Modulus (GPa) = 26.93584 32.40323 29.66954
#
# Velocity S-wave (km/s) = 3.53713 3.87954 3.71228
# Velocity P-wave (km/s) = 5.55986 6.49122 6.04351
#
# Compressibility (1/GPa) = 0.03264034
#
# Stress axis : x y z
#
# Youngs Moduli (GPa) = 69.36692 63.20155 65.77997
#
# Poissons Ratio (x) = 0.03577 0.15451
# Poissons Ratio (y) = 0.03926 0.22926
# Poissons Ratio (z) = 0.16294 0.22028
#
# Static dielectric constant tensor:
#      x y z
#    x 1.838170 0.000000 -0.009260 
#    y 0.000000 1.814050 0.000000 
#    z -0.009260 0.000000 1.783550 
# 
# From -- ./inp_files/34384.got.cif
#   From: 2010.05.17/outbox.cif.g08.bks.cpg/sg14_18_cif.got.tgz:34384.got - 2010.06.03 17:49:19.
