data_PCOD9246480
_publ_section_title
;
Structure prediction by ZEFSAII (Michael W. Deem and Ramdas Pophale) SiO2 
 PCOD9246480
Probable space group: P 21/C
;
_chemical_formula_sum "Si O2"
_cell_formula_units_Z 32
_cell_length_a 12.582679
_cell_length_b 21.406480
_cell_length_c 7.663978
_cell_angle_alpha 90.000000
_cell_angle_beta 142.550265
_cell_angle_gamma 90.000000
_cell_volume 1255.228441
_symmetry_space_group_name_H-M "P 21/C"
_symmetry_group_IT_number 14
_symmetry_cell_setting 'monoclinic'
loop_
_space_group_symop_operation_xyz
x,y,z
-x,1/2+y,1/2-z
-x,-y,-z
x,1/2-y,1/2+z
loop_
_atom_site_type_symbol
_atom_site_label
_atom_site_fract_x
_atom_site_fract_y
_atom_site_fract_z
Si Si1 0.990239 0.851420 0.936273
Si Si2 0.257934 0.036410 0.717073
Si Si3 0.654964 0.675034 0.548098
Si Si4 0.462775 0.549571 0.719432
Si Si5 0.981649 0.273303 0.878041
Si Si6 0.304264 0.387507 0.738215
Si Si7 0.930071 0.061002 0.703357
Si Si8 0.317145 0.843344 0.814407
O O1 0.027834 0.816180 0.806529
O O2 0.782777 0.861938 0.695862
O O3 0.043921 0.801218 0.156690
O O4 0.080178 0.917653 0.105352
O O5 0.277432 0.108570 0.787464
O O6 0.388401 0.027413 0.722697
O O7 0.086811 0.006610 0.406635
O O8 0.313172 0.997643 0.961052
O O9 0.622576 0.662747 0.300926
O O10 0.473489 0.688424 0.409416
O O11 0.821152 0.719116 0.791173
O O12 0.399587 0.618915 0.583798
O O13 0.554322 0.561161 0.024167
O O14 0.832359 0.298679 0.810179
O O15 0.123776 0.413360 0.419323
O O16 0.775411 0.100858 0.414099
#
# Coordination Sequence:
#
# PCOD9246480 Si02
#       8
#     4   4   4   4   4   4   4   4
#     4  10  23  41  69  94 132 168 225 280 337 397
#     4   9  19  38  64  93 141 180 218 277 331 397
#     4  11  23  40  69  97 138 177 223 274 334 403
#     4   9  19  38  60  92 135 172 217 269 319 396
#     4  12  22  46  69  94 131 176 215 287 339 397
#     4  10  21  41  64 100 134 175 227 273 333 401
#     4   9  20  41  63  97 134 173 223 273 329 403
#     4  10  21  41  65  94 126 170 216 262 335 389
#
# _framework density 25.493366999999999
#
# number of rings (size 3 to 8) (size 9 to 14) (size 15 to 20)
#    0.750    1.250    1.250    3.750    0.000    2.500 
#    0.000    7.500    0.000    3.750    0.000    0.000 
#    0.000    0.000    0.000    0.000    0.000    0.000 
#
# Total GULP energy -178500.015642 kJ/mol
# GULP energy per Si atom -5578.125489 kJ/mol
# Density = 2.543534 g / cm^3
# Si number density = 25.493367 Si / 1000 Ang^3
#
#
#
# Elastic Constant Matrix: (Units=GPa)
#
#
# Indices 1 2 3 4 5 6 
#
# 1 111.0678 19.9840 45.9390 0.0000 12.5945 0.0000
# 2 19.9840 36.0699 31.2607 0.0000 3.2762 0.0000
# 3 45.9390 31.2607 110.2007 0.0000 -5.5207 0.0000
# 4 0.0000 0.0000 0.0000 30.2483 0.0000 -11.3445
# 5 12.5945 3.2762 -5.5207 0.0000 41.5413 0.0000
# 6 0.0000 0.0000 0.0000 -11.3445 0.0000 23.2375
#
#
#
# Elastic Compliance Matrix: (Units=1/GPa)
#
#
# Indices 1 2 3 4 5 6 
#
# 1 0.011693 -0.002285 -0.004424 0.000000 -0.003953 0.000000
# 2 -0.002285 0.037993 -0.010007 0.000000 -0.003633 0.000000
# 3 -0.004424 -0.010007 0.013957 0.000000 0.003985 0.000000
# 4 0.000000 0.000000 0.000000 0.040470 0.000000 0.019757
# 5 -0.003953 -0.003633 0.003985 0.000000 0.026087 0.000000
# 6 0.000000 0.000000 0.000000 0.019757 0.000000 0.052679
#
#
# Mechanical properties :
#
#
# Convention : Reuss Voigt Hill
#
# Bulk Modulus (GPa) = 33.10128 50.18954 41.64541
# Shear Modulus (GPa) = 22.08674 29.68241 25.88457
#
# Velocity S-wave (km/s) = 2.94661 3.41591 3.18991
# Velocity P-wave (km/s) = 4.95875 5.94037 5.47162
#
# Compressibility (1/GPa) = 0.03021031
#
# Stress axis : x y z
#
# Youngs Moduli (GPa) = 85.52327 26.32096 71.64877
#
# Poissons Ratio (x) = 0.06014 0.31699
# Poissons Ratio (y) = 0.19541 0.71698
# Poissons Ratio (z) = 0.37837 0.26339
#
# Static dielectric constant tensor:
#      x y z
#    x 2.067070 0.000000 -0.049850 
#    y 0.000000 2.076110 0.000000 
#    z -0.049850 0.000000 2.039630 
# 
# From -- ./inp_files/17052.got.cif
#   From: 2010.05.17/outbox.cif.g08.bks.cpg/sg14_9_cif.got.tgz:17052.got - 2010.06.03 17:49:19.
