data_PCOD9246975
_publ_section_title
;
Structure prediction by ZEFSAII (Michael W. Deem and Ramdas Pophale) SiO2 
 PCOD9246975
Probable space group: P 21/C
;
_chemical_formula_sum "Si O2"
_cell_formula_units_Z 30
_cell_length_a 8.701576
_cell_length_b 19.627796
_cell_length_c 15.088362
_cell_angle_alpha 90.000000
_cell_angle_beta 36.265138
_cell_angle_gamma 90.000000
_cell_volume 1524.343915
_symmetry_space_group_name_H-M "P 21/C"
_symmetry_group_IT_number 14
_symmetry_cell_setting 'monoclinic'
loop_
_space_group_symop_operation_xyz
x,y,z
-x,1/2+y,1/2-z
-x,-y,-z
x,1/2-y,1/2+z
loop_
_atom_site_type_symbol
_atom_site_label
_atom_site_fract_x
_atom_site_fract_y
_atom_site_fract_z
Si Si1 0.695028 0.804090 0.358355
Si Si2 0.270008 0.315075 0.946326
Si Si3 0.609402 0.591686 0.747737
Si Si4 0.000000 0.000000 0.000000
Si Si5 0.716521 0.308180 0.425918
Si Si6 0.278102 0.034954 0.362449
Si Si7 0.682071 0.296715 0.229756
Si Si8 0.403929 0.960508 0.958366
O O1 0.692454 0.818223 0.464754
O O2 0.626671 0.870302 0.332739
O O3 0.489352 0.744290 0.437845
O O4 0.988345 0.784149 0.196147
O O5 0.281967 0.391010 0.903387
O O6 0.491224 0.266802 0.803094
O O7 0.981291 0.285542 0.064280
O O8 0.493327 0.514990 0.806515
O O9 0.428895 0.637699 0.769372
O O10 0.886470 0.577244 0.574517
O O11 0.829551 0.002923 0.985875
O O12 0.677149 0.309700 0.337704
O O13 0.674937 0.384052 0.479906
O O14 0.363450 0.041084 0.221126
O O15 0.000000 0.000000 0.500000
O O16 0.500000 0.000000 0.000000
#
# Coordination Sequence:
#
# PCOD9246975 Si02
#       8
#     4   4   4   2   4   4   4   4
#     4  10  23  39  66  94 132 174 225 285 339 411
#     4  10  23  43  64  96 134 177 227 283 347 418
#     4  11  22  39  64  94 130 169 222 282 342 414
#     4  10  22  40  62 102 128 174 226 276 346 414
#     4  10  21  43  64  96 129 177 229 278 347 414
#     4  11  24  41  64  99 134 176 224 274 357 417
#     4  10  22  41  69  92 133 178 223 289 345 410
#     4  11  24  42  72  99 136 181 230 286 345 425
#
# _framework density 19.680598
#
# number of rings (size 3 to 8) (size 9 to 14) (size 15 to 20)
#    0.000    1.600    2.667    1.600    3.733    4.800 
#    0.000    6.667    0.000    0.000    0.000    0.000 
#    0.000    0.000    0.000    0.000    0.000    0.000 
#
# Total GULP energy -167026.677679 kJ/mol
# GULP energy per Si atom -5567.555923 kJ/mol
# Density = 1.963580 g / cm^3
# Si number density = 19.680598 Si / 1000 Ang^3
#
#
#
# Elastic Constant Matrix: (Units=GPa)
#
#
# Indices 1 2 3 4 5 6 
#
# 1 100.0238 49.2031 49.7732 0.0000 -4.6997 0.0000
# 2 49.2031 135.6787 69.3053 0.0000 -7.6036 0.0000
# 3 49.7732 69.3053 84.3347 0.0000 -3.3909 0.0000
# 4 0.0000 0.0000 0.0000 43.6391 0.0000 -3.2779
# 5 -4.6997 -7.6036 -3.3909 0.0000 12.5827 0.0000
# 6 0.0000 0.0000 0.0000 -3.2779 0.0000 38.6270
#
#
#
# Elastic Compliance Matrix: (Units=1/GPa)
#
#
# Indices 1 2 3 4 5 6 
#
# 1 0.014414 -0.001361 -0.007284 0.000000 0.002598 0.000000
# 2 -0.001361 0.013139 -0.009802 0.000000 0.004790 0.000000
# 3 -0.007284 -0.009802 0.024125 0.000000 -0.002142 0.000000
# 4 0.000000 0.000000 0.000000 0.023062 0.000000 0.001957
# 5 0.002598 0.004790 -0.002142 0.000000 0.082762 0.000000
# 6 0.000000 0.000000 0.000000 0.001957 0.000000 0.026055
#
#
# Mechanical properties :
#
#
# Convention : Reuss Voigt Hill
#
# Bulk Modulus (GPa) = 67.63670 72.95559 70.29615
# Shear Modulus (GPa) = 22.18483 29.08679 25.63581
#
# Velocity S-wave (km/s) = 3.36109 3.84857 3.61306
# Velocity P-wave (km/s) = 7.03593 7.54314 7.29395
#
# Compressibility (1/GPa) = 0.01478487
#
# Stress axis : x y z
#
# Youngs Moduli (GPa) = 69.37826 76.10884 41.44998
#
# Poissons Ratio (x) = 0.10356 0.30193
# Poissons Ratio (y) = 0.09440 0.40629
# Poissons Ratio (z) = 0.50536 0.74601
#
# Static dielectric constant tensor:
#      x y z
#    x 1.702180 0.000000 -0.044310 
#    y 0.000000 1.647090 0.000000 
#    z -0.044310 0.000000 1.770120 
# 
# From -- ./inp_files/41793.got.cif
#   From: 2010.05.17/outbox.cif.g08.bks.cpg/sg14_21_cif.got.tgz:41793.got - 2010.06.03 17:49:19.
