data_PCOD9246218
_publ_section_title
;
Structure prediction by ZEFSAII (Michael W. Deem and Ramdas Pophale) SiO2 
 PCOD9246218
Probable space group: P 21/C
;
_chemical_formula_sum "Si O2"
_cell_formula_units_Z 28
_cell_length_a 8.819594
_cell_length_b 13.468787
_cell_length_c 11.311683
_cell_angle_alpha 90.000000
_cell_angle_beta 61.218881
_cell_angle_gamma 90.000000
_cell_volume 1177.711929
_symmetry_space_group_name_H-M "P 21/C"
_symmetry_group_IT_number 14
_symmetry_cell_setting 'monoclinic'
loop_
_space_group_symop_operation_xyz
x,y,z
-x,1/2+y,1/2-z
-x,-y,-z
x,1/2-y,1/2+z
loop_
_atom_site_type_symbol
_atom_site_label
_atom_site_fract_x
_atom_site_fract_y
_atom_site_fract_z
Si Si1 0.735201 0.392361 0.876649
Si Si2 0.372190 0.942866 0.134106
Si Si3 0.712961 0.811443 0.281936
Si Si4 0.881261 0.184734 0.907533
Si Si5 0.996798 0.904314 0.917940
Si Si6 0.355452 0.218816 0.941664
Si Si7 0.463378 0.498850 0.847279
O O1 0.780636 0.285079 0.912397
O O2 0.906829 0.421718 0.740524
O O3 0.574344 0.403351 0.845188
O O4 0.675101 0.466910 0.002682
O O5 0.206169 0.909142 0.123919
O O6 0.368163 0.002575 0.257719
O O7 0.466795 0.840281 0.129862
O O8 0.500000 0.000000 0.000000
O O9 0.650770 0.778467 0.433882
O O10 0.612752 0.914596 0.291417
O O11 0.920005 0.815340 0.208726
O O12 0.675400 0.742820 0.180688
O O13 0.889661 0.172966 0.046127
O O14 0.806135 0.858777 0.980498
O O15 0.000000 0.000000 0.000000
#
# Coordination Sequence:
#
# PCOD9246218 Si02
#       7
#     4   4   4   4   4   4   4
#     4  11  22  41  64  98 131 177 220 274 343 394
#     4  11  23  42  64  99 130 173 226 277 330 403
#     4  10  21  43  63  97 127 175 222 279 336 406
#     4  11  23  38  72  96 130 167 233 274 330 408
#     4  11  22  42  73  96 131 180 225 271 342 412
#     4  10  21  40  65  92 131 171 221 276 337 401
#     4  10  24  42  65  90 140 174 217 276 344 400
#
# _framework density 23.774915
#
# number of rings (size 3 to 8) (size 9 to 14) (size 15 to 20)
#    0.000    1.429    1.429    5.143    2.000    0.000 
#   12.857    0.000    0.000    8.571    0.000    0.000 
#    0.000    0.000    0.000    0.000    0.000    0.000 
#
# Total GULP energy -156525.394599 kJ/mol
# GULP energy per Si atom -5590.192664 kJ/mol
# Density = 2.372080 g / cm^3
# Si number density = 23.774915 Si / 1000 Ang^3
#
#
#
# Elastic Constant Matrix: (Units=GPa)
#
#
# Indices 1 2 3 4 5 6 
#
# 1 105.0550 11.6291 17.6346 0.0000 9.3374 0.0000
# 2 11.6291 65.9327 7.5811 0.0000 0.6547 0.0000
# 3 17.6346 7.5811 122.4127 0.0000 4.6944 0.0000
# 4 0.0000 0.0000 0.0000 26.6409 0.0000 2.0918
# 5 9.3374 0.6547 4.6944 0.0000 33.5485 0.0000
# 6 0.0000 0.0000 0.0000 2.0918 0.0000 36.6423
#
#
#
# Elastic Compliance Matrix: (Units=1/GPa)
#
#
# Indices 1 2 3 4 5 6 
#
# 1 0.010142 -0.001618 -0.001261 0.000000 -0.002615 0.000000
# 2 -0.001618 0.015535 -0.000739 0.000000 0.000251 0.000000
# 3 -0.001261 -0.000739 0.008428 0.000000 -0.000814 0.000000
# 4 0.000000 0.000000 0.000000 0.037705 0.000000 -0.002153
# 5 -0.002615 0.000251 -0.000814 0.000000 0.030644 0.000000
# 6 0.000000 0.000000 0.000000 -0.002153 0.000000 0.027414
#
#
# Mechanical properties :
#
#
# Convention : Reuss Voigt Hill
#
# Bulk Modulus (GPa) = 37.21597 40.78778 39.00188
# Shear Modulus (GPa) = 34.23281 36.47003 35.35142
#
# Velocity S-wave (km/s) = 3.79868 3.92084 3.86024
# Velocity P-wave (km/s) = 5.90994 6.13925 6.02569
#
# Compressibility (1/GPa) = 0.02687018
#
# Stress axis : x y z
#
# Youngs Moduli (GPa) = 98.60061 64.37170 118.65719
#
# Poissons Ratio (x) = 0.10415 0.14957
# Poissons Ratio (y) = 0.15953 0.08764
# Poissons Ratio (z) = 0.12429 0.04755
#
# Static dielectric constant tensor:
#      x y z
#    x 1.920330 0.000000 0.048620 
#    y 0.000000 2.020050 0.000000 
#    z 0.048620 0.000000 1.899640 
# 
# From -- ./inp_files/25126.got.cif
#   From: 2010.05.17/outbox.cif.g08.bks.cpg/sg14_13_cif.got.tgz:25126.got - 2010.06.03 17:49:19.
