data_PCOD9246355
_publ_section_title
;
Structure prediction by ZEFSAII (Michael W. Deem and Ramdas Pophale) SiO2 
 PCOD9246355
Probable space group: P 21/C
;
_chemical_formula_sum "Si O2"
_cell_formula_units_Z 16
_cell_length_a 8.037708
_cell_length_b 12.370520
_cell_length_c 7.603854
_cell_angle_alpha 90.000000
_cell_angle_beta 81.868533
_cell_angle_gamma 90.000000
_cell_volume 748.454683
_symmetry_space_group_name_H-M "P 21/C"
_symmetry_group_IT_number 14
_symmetry_cell_setting 'monoclinic'
loop_
_space_group_symop_operation_xyz
x,y,z
-x,1/2+y,1/2-z
-x,-y,-z
x,1/2-y,1/2+z
loop_
_atom_site_type_symbol
_atom_site_label
_atom_site_fract_x
_atom_site_fract_y
_atom_site_fract_z
Si Si1 0.453681 0.348199 0.466301
Si Si2 0.047630 0.034523 0.690648
Si Si3 0.418138 0.390409 0.082841
Si Si4 0.780328 0.453370 0.503132
O O1 0.499717 0.376463 0.260655
O O2 0.437249 0.220422 0.476197
O O3 0.610323 0.386970 0.558149
O O4 0.290844 0.424371 0.528420
O O5 0.218018 0.101105 0.640929
O O6 0.110545 0.950428 0.834069
O O7 0.000000 0.000000 0.500000
O O8 0.891018 0.085083 0.820678
O O9 0.500000 0.500000 0.000000
#
# Coordination Sequence:
#
# PCOD9246355 Si02
#       4
#     4   4   4   4
#     4  10  23  42  71  92 138 176 227 279 336 399
#     4  10  21  40  69  94 135 165 225 276 329 401
#     4  11  25  42  67 102 132 181 226 274 340 409
#     4   9  21  44  65  97 127 179 219 277 335 389
#
# _framework density 21.377381
#
# number of rings (size 3 to 8) (size 9 to 14) (size 15 to 20)
#    0.000    2.000    0.000    1.500   14.000    0.000 
#    4.500    5.000    0.000    0.000    0.000    0.000 
#    0.000    0.000    0.000    0.000    0.000    0.000 
#
# Total GULP energy -89110.406788 kJ/mol
# GULP energy per Si atom -5569.400424 kJ/mol
# Density = 2.132873 g / cm^3
# Si number density = 21.377381 Si / 1000 Ang^3
#
#
#
# Elastic Constant Matrix: (Units=GPa)
#
#
# Indices 1 2 3 4 5 6 
#
# 1 117.0722 31.9595 34.1121 0.0000 1.1490 0.0000
# 2 31.9595 125.7003 26.1829 0.0000 -29.7574 0.0000
# 3 34.1121 26.1829 118.9764 0.0000 -1.3543 0.0000
# 4 0.0000 0.0000 0.0000 30.5954 0.0000 -7.7199
# 5 1.1490 -29.7574 -1.3543 0.0000 36.5361 0.0000
# 6 0.0000 0.0000 0.0000 -7.7199 0.0000 9.5939
#
#
#
# Elastic Compliance Matrix: (Units=1/GPa)
#
#
# Indices 1 2 3 4 5 6 
#
# 1 0.009964 -0.002662 -0.002300 0.000000 -0.002567 0.000000
# 2 -0.002662 0.011109 -0.001578 0.000000 0.009073 0.000000
# 3 -0.002300 -0.001578 0.009402 0.000000 -0.000865 0.000000
# 4 0.000000 0.000000 0.000000 0.041011 0.000000 0.033001
# 5 -0.002567 0.009073 -0.000865 0.000000 0.034809 0.000000
# 6 0.000000 0.000000 0.000000 0.033001 0.000000 0.130788
#
#
# Mechanical properties :
#
#
# Convention : Reuss Voigt Hill
#
# Bulk Modulus (GPa) = 57.49052 60.69530 59.09291
# Shear Modulus (GPa) = 19.53425 33.31136 26.42281
#
# Velocity S-wave (km/s) = 3.02616 3.95175 3.51952
# Velocity P-wave (km/s) = 6.25793 7.01967 6.64972
#
# Compressibility (1/GPa) = 0.01739417
#
# Stress axis : x y z
#
# Youngs Moduli (GPa) = 100.36350 90.01867 106.36027
#
# Poissons Ratio (x) = 0.23961 0.24465
# Poissons Ratio (y) = 0.26714 0.16786
# Poissons Ratio (z) = 0.23086 0.14207
#
# Static dielectric constant tensor:
#      x y z
#    x 1.801770 0.000000 0.078750 
#    y 0.000000 1.939110 0.000000 
#    z 0.078750 0.000000 1.753580 
# 
# From -- ./inp_files/7501.got.cif
#   From: 2010.05.17/outbox.cif.g08.bks.cpg/sg14_4_cif.got.tgz:7501.got - 2010.06.03 17:49:19.
