data_PCOD9246967
_publ_section_title
;
Structure prediction by ZEFSAII (Michael W. Deem and Ramdas Pophale) SiO2 
 PCOD9246967
Probable space group: P 21/C
;
_chemical_formula_sum "Si O2"
_cell_formula_units_Z 32
_cell_length_a 13.582026
_cell_length_b 8.023942
_cell_length_c 14.608922
_cell_angle_alpha 90.000000
_cell_angle_beta 75.113100
_cell_angle_gamma 90.000000
_cell_volume 1538.661505
_symmetry_space_group_name_H-M "P 21/C"
_symmetry_group_IT_number 14
_symmetry_cell_setting 'monoclinic'
loop_
_space_group_symop_operation_xyz
x,y,z
-x,1/2+y,1/2-z
-x,-y,-z
x,1/2-y,1/2+z
loop_
_atom_site_type_symbol
_atom_site_label
_atom_site_fract_x
_atom_site_fract_y
_atom_site_fract_z
Si Si1 0.409510 0.739279 0.187899
Si Si2 0.581218 0.639818 0.284642
Si Si3 0.940992 0.177821 0.408445
Si Si4 0.548718 0.686654 0.496263
Si Si5 0.082106 0.032242 0.901319
Si Si6 0.180756 0.787067 0.741194
Si Si7 0.122357 0.545504 0.898656
Si Si8 0.732818 0.758425 0.093171
O O1 0.477848 0.664178 0.252000
O O2 0.297930 0.662675 0.217512
O O3 0.403046 0.940851 0.204712
O O4 0.465715 0.714343 0.076831
O O5 0.570991 0.728346 0.385574
O O6 0.667316 0.722378 0.200246
O O7 0.856838 0.200671 0.352666
O O8 0.889409 0.186697 0.520732
O O9 0.029458 0.309413 0.365942
O O10 0.007680 0.009527 0.399303
O O11 0.500000 0.500000 0.500000
O O12 0.652390 0.706577 0.531044
O O13 0.190278 0.087664 0.916288
O O14 0.104111 0.897823 0.819207
O O15 0.000000 0.000000 0.000000
O O16 0.173011 0.609342 0.793712
O O17 0.191035 0.401697 0.929547
#
# Coordination Sequence:
#
# PCOD9246967 Si02
#       8
#     4   4   4   4   4   4   4   4
#     4  10  23  39  64  93 127 164 208 264 324 376
#     4  10  21  43  63  89 126 165 202 269 317 379
#     4  10  23  42  64  88 129 169 217 264 328 377
#     4   9  21  40  64  91 121 167 213 259 314 388
#     4  11  24  41  62  92 128 170 209 270 316 386
#     4  12  23  39  65  95 124 173 219 256 326 395
#     4  10  21  43  63  90 134 164 209 283 315 377
#     4  10  22  42  64  93 126 169 217 258 333 376
#
# _framework density 20.797297
#
# number of rings (size 3 to 8) (size 9 to 14) (size 15 to 20)
#    0.000    1.750    2.500    0.750    5.250    4.000 
#    4.500    1.250    0.000    0.000    0.000    0.000 
#    0.000    0.000    0.000    0.000    0.000    0.000 
#
# Total GULP energy -178412.161546 kJ/mol
# GULP energy per Si atom -5575.380048 kJ/mol
# Density = 2.074996 g / cm^3
# Si number density = 20.797297 Si / 1000 Ang^3
#
#
#
# Elastic Constant Matrix: (Units=GPa)
#
#
# Indices 1 2 3 4 5 6 
#
# 1 120.9259 6.2658 48.8728 0.0000 1.7037 0.0000
# 2 6.2658 31.1605 12.2238 0.0000 9.4974 0.0000
# 3 48.8728 12.2238 131.8589 0.0000 8.4428 0.0000
# 4 0.0000 0.0000 0.0000 11.1241 0.0000 -0.8633
# 5 1.7037 9.4974 8.4428 0.0000 22.4588 0.0000
# 6 0.0000 0.0000 0.0000 -0.8633 0.0000 30.6725
#
#
#
# Elastic Compliance Matrix: (Units=1/GPa)
#
#
# Indices 1 2 3 4 5 6 
#
# 1 0.009754 -0.000845 -0.003599 0.000000 0.000971 0.000000
# 2 -0.000845 0.037721 -0.002220 0.000000 -0.015053 0.000000
# 3 -0.003599 -0.002220 0.009269 0.000000 -0.002273 0.000000
# 4 0.000000 0.000000 0.000000 0.090091 0.000000 0.002536
# 5 0.000971 -0.015053 -0.002273 0.000000 0.051672 0.000000
# 6 0.000000 0.000000 0.000000 0.002536 0.000000 0.032674
#
#
# Mechanical properties :
#
#
# Convention : Reuss Voigt Hill
#
# Bulk Modulus (GPa) = 23.03318 46.51890 34.77604
# Shear Modulus (GPa) = 19.30639 27.28995 23.29817
#
# Velocity S-wave (km/s) = 3.05013 3.62634 3.35064
# Velocity P-wave (km/s) = 4.84804 6.32061 5.63266
#
# Compressibility (1/GPa) = 0.04341564
#
# Stress axis : x y z
#
# Youngs Moduli (GPa) = 102.51928 26.51075 107.88465
#
# Poissons Ratio (x) = 0.02241 0.38829
# Poissons Ratio (y) = 0.08666 0.23947
# Poissons Ratio (z) = 0.36898 0.05885
#
# Static dielectric constant tensor:
#      x y z
#    x 1.733410 0.000000 -0.026350 
#    y 0.000000 1.854050 0.000000 
#    z -0.026350 0.000000 1.752240 
# 
# From -- ./inp_files/43744.got.cif
#   From: 2010.05.17/outbox.cif.g08.bks.cpg/sg14_22_cif.got.tgz:43744.got - 2010.06.03 17:49:19.
