data_PCOD9246733
_publ_section_title
;
Structure prediction by ZEFSAII (Michael W. Deem and Ramdas Pophale) SiO2 
 PCOD9246733
Probable space group: P 21/C
;
_chemical_formula_sum "Si O2"
_cell_formula_units_Z 28
_cell_length_a 16.073128
_cell_length_b 9.654919
_cell_length_c 18.901844
_cell_angle_alpha 90.000000
_cell_angle_beta 157.382302
_cell_angle_gamma 90.000000
_cell_volume 1128.081409
_symmetry_space_group_name_H-M "P 21/C"
_symmetry_group_IT_number 14
_symmetry_cell_setting 'monoclinic'
loop_
_space_group_symop_operation_xyz
x,y,z
-x,1/2+y,1/2-z
-x,-y,-z
x,1/2-y,1/2+z
loop_
_atom_site_type_symbol
_atom_site_label
_atom_site_fract_x
_atom_site_fract_y
_atom_site_fract_z
Si Si1 0.892356 0.297703 0.580339
Si Si2 0.721743 0.489826 0.945582
Si Si3 0.200656 0.571079 0.355615
Si Si4 0.989704 0.236907 0.500550
Si Si5 0.663928 0.981029 0.238368
Si Si6 0.769379 0.150906 0.706880
Si Si7 0.658355 0.629503 0.038949
O O1 0.720062 0.174589 0.456994
O O2 0.832584 0.421748 0.585822
O O3 0.913584 0.309383 0.512683
O O4 0.139647 0.265436 0.800610
O O5 0.621280 0.579322 0.929615
O O6 0.980858 0.517410 0.148700
O O7 0.638232 0.525743 0.802978
O O8 0.429356 0.500607 0.520818
O O9 0.220244 0.727871 0.342181
O O10 0.972606 0.335233 0.419452
O O11 0.218460 0.161272 0.691789
O O12 0.826775 0.108935 0.354660
O O13 0.558855 0.169410 0.591632
O O14 0.746436 0.004906 0.650501
#
# Coordination Sequence:
#
# PCOD9246733 Si02
#       7
#     4   4   4   4   4   4   4
#     4  10  22  41  61  90 127 161 208 259 301 369
#     4  10  21  42  62  91 128 158 209 265 298 366
#     4  11  22  39  66  92 121 170 207 250 317 362
#     4  10  22  40  60  93 129 156 208 259 306 364
#     4  10  22  39  62  96 123 159 206 262 304 367
#     4  11  22  40  62  92 124 169 204 249 313 372
#     4  10  23  39  62  88 127 169 204 249 311 369
#
# _framework density 24.820906000000001
#
# number of rings (size 3 to 8) (size 9 to 14) (size 15 to 20)
#    0.000    1.714    2.857    0.857    4.000    1.143 
#    0.000    5.714    0.000    0.000    0.000    0.000 
#    0.000    0.000    0.000    0.000    0.000    0.000 
#
# Total GULP energy -156653.085011 kJ/mol
# GULP energy per Si atom -5594.753036 kJ/mol
# Density = 2.476441 g / cm^3
# Si number density = 24.820906 Si / 1000 Ang^3
#
#
#
# Elastic Constant Matrix: (Units=GPa)
#
#
# Indices 1 2 3 4 5 6 
#
# 1 121.7795 1.4313 -3.3166 0.0000 -16.8979 0.0000
# 2 1.4313 38.8497 5.6362 0.0000 -4.5439 0.0000
# 3 -3.3166 5.6362 81.0853 0.0000 16.1685 0.0000
# 4 0.0000 0.0000 0.0000 22.4376 0.0000 6.8924
# 5 -16.8979 -4.5439 16.1685 0.0000 39.8703 0.0000
# 6 0.0000 0.0000 0.0000 6.8924 0.0000 10.2141
#
#
#
# Elastic Compliance Matrix: (Units=1/GPa)
#
#
# Indices 1 2 3 4 5 6 
#
# 1 0.008739 0.000197 -0.000434 0.000000 0.003902 0.000000
# 2 0.000197 0.026613 -0.002680 0.000000 0.004204 0.000000
# 3 -0.000434 -0.002680 0.013707 0.000000 -0.006048 0.000000
# 4 0.000000 0.000000 0.000000 0.056222 0.000000 -0.037939
# 5 0.003902 0.004204 -0.006048 0.000000 0.029667 0.000000
# 6 0.000000 0.000000 0.000000 -0.037939 0.000000 0.123505
#
#
# Mechanical properties :
#
#
# Convention : Reuss Voigt Hill
#
# Bulk Modulus (GPa) = 23.13443 27.69072 25.41258
# Shear Modulus (GPa) = 17.94069 30.36863 24.15466
#
# Velocity S-wave (km/s) = 2.69142 3.50167 3.12293
# Velocity P-wave (km/s) = 4.35880 5.24684 4.82330
#
# Compressibility (1/GPa) = 0.04322561
#
# Stress axis : x y z
#
# Youngs Moduli (GPa) = 114.43085 37.57507 72.95423
#
# Poissons Ratio (x) = -0.00742 0.03169
# Poissons Ratio (y) = -0.02260 0.19552
# Poissons Ratio (z) = 0.04971 0.10070
#
# Static dielectric constant tensor:
#      x y z
#    x 1.936350 0.000000 0.015430 
#    y 0.000000 2.004420 0.000000 
#    z 0.015430 0.000000 1.965100 
# 
# From -- ./inp_files/63442.got.cif
#   From: 2010.05.17/outbox.cif.g08.bks.cpg/sg14_32_cif.got.tgz:63442.got - 2010.06.03 17:49:19.
