data_PCOD9246813
_publ_section_title
;
Structure prediction by ZEFSAII (Michael W. Deem and Ramdas Pophale) SiO2 
 PCOD9246813
Probable space group: P 21/C
;
_chemical_formula_sum "Si O2"
_cell_formula_units_Z 32
_cell_length_a 8.165825
_cell_length_b 14.631097
_cell_length_c 11.052000
_cell_angle_alpha 90.000000
_cell_angle_beta 81.771839
_cell_angle_gamma 90.000000
_cell_volume 1306.844882
_symmetry_space_group_name_H-M "P 21/C"
_symmetry_group_IT_number 14
_symmetry_cell_setting 'monoclinic'
loop_
_space_group_symop_operation_xyz
x,y,z
-x,1/2+y,1/2-z
-x,-y,-z
x,1/2-y,1/2+z
loop_
_atom_site_type_symbol
_atom_site_label
_atom_site_fract_x
_atom_site_fract_y
_atom_site_fract_z
Si Si1 0.551696 0.243956 0.779817
Si Si2 0.098632 0.666549 0.775372
Si Si3 0.552741 0.952318 0.303043
Si Si4 0.350685 0.392673 0.940097
Si Si5 0.684656 0.105259 0.113483
Si Si6 0.137212 0.510295 0.591270
Si Si7 0.009433 0.155045 0.205300
Si Si8 0.021535 0.895740 0.533610
O O1 0.739927 0.216979 0.793224
O O2 0.475942 0.145098 0.757863
O O3 0.469392 0.309324 0.888592
O O4 0.562911 0.312270 0.661568
O O5 0.068916 0.576085 0.702982
O O6 0.950843 0.739333 0.780235
O O7 0.124770 0.647186 0.914331
O O8 0.628950 0.927448 0.425140
O O9 0.394298 0.017402 0.353792
O O10 0.655988 0.020741 0.207789
O O11 0.164997 0.357813 0.943417
O O12 0.866003 0.148546 0.119653
O O13 0.700803 0.057658 0.981603
O O14 0.000000 0.500000 0.500000
O O15 0.155623 0.410674 0.647851
O O16 0.923720 0.116607 0.335714
O O17 0.000000 0.000000 0.500000
#
# Coordination Sequence:
#
# PCOD9246813 Si02
#       8
#     4   4   4   4   4   4   4   4
#     4  10  23  41  65  98 124 176 222 269 323 400
#     4  11  25  40  67  98 129 174 223 270 332 398
#     4  10  21  42  66  86 129 174 218 271 326 396
#     4  10  24  41  63  97 128 173 223 272 335 392
#     4   9  21  41  66  93 127 174 220 258 336 396
#     4  10  22  41  63  94 134 170 212 273 337 397
#     4  10  23  40  64  96 131 169 215 270 335 387
#     4  12  23  41  67  98 133 165 222 282 324 387
#
# _framework density 24.486454999999999
#
# number of rings (size 3 to 8) (size 9 to 14) (size 15 to 20)
#    0.000    1.750    1.250    1.500    8.750    5.000 
#    0.000    0.625    0.000    0.000    0.000    0.000 
#    0.000    0.000    0.000    0.000    0.000    0.000 
#
# Total GULP energy -178712.232979 kJ/mol
# GULP energy per Si atom -5584.757281 kJ/mol
# Density = 2.443072 g / cm^3
# Si number density = 24.486455 Si / 1000 Ang^3
#
#
#
# Elastic Constant Matrix: (Units=GPa)
#
#
# Indices 1 2 3 4 5 6 
#
# 1 40.5992 16.5126 -2.6659 0.0000 -6.9982 0.0000
# 2 16.5126 148.9651 31.1988 0.0000 -7.9010 0.0000
# 3 -2.6659 31.1988 86.5535 0.0000 -10.2572 0.0000
# 4 0.0000 0.0000 0.0000 30.6403 0.0000 -4.9480
# 5 -6.9982 -7.9010 -10.2572 0.0000 19.4304 0.0000
# 6 0.0000 0.0000 0.0000 -4.9480 0.0000 33.4085
#
#
#
# Elastic Compliance Matrix: (Units=1/GPa)
#
#
# Indices 1 2 3 4 5 6 
#
# 1 0.027966 -0.003228 0.003267 0.000000 0.010485 0.000000
# 2 -0.003228 0.007685 -0.002813 0.000000 0.000477 0.000000
# 3 0.003267 -0.002813 0.013518 0.000000 0.007169 0.000000
# 4 0.000000 0.000000 0.000000 0.033437 0.000000 0.004952
# 5 0.010485 0.000477 0.007169 0.000000 0.059221 0.000000
# 6 0.000000 0.000000 0.000000 0.004952 0.000000 0.030666
#
#
# Mechanical properties :
#
#
# Convention : Reuss Voigt Hill
#
# Bulk Modulus (GPa) = 22.92458 40.68986 31.80722
# Shear Modulus (GPa) = 25.96323 32.10064 29.03193
#
# Velocity S-wave (km/s) = 3.25977 3.62464 3.44704
# Velocity P-wave (km/s) = 4.85290 5.84557 5.37221
#
# Compressibility (1/GPa) = 0.04362130
#
# Stress axis : x y z
#
# Youngs Moduli (GPa) = 35.75790 130.11838 73.97677
#
# Poissons Ratio (x) = 0.42005 -0.24172
# Poissons Ratio (y) = 0.11543 0.20810
# Poissons Ratio (z) = -0.11684 0.36603
#
# Static dielectric constant tensor:
#      x y z
#    x 2.002230 0.000000 -0.002250 
#    y 0.000000 1.999530 0.000000 
#    z -0.002250 0.000000 1.985620 
# 
# From -- ./inp_files/29350.got.cif
#   From: 2010.05.17/outbox.cif.g08.bks.cpg/sg14_15_cif.got.tgz:29350.got - 2010.06.03 17:49:19.
