data_PCOD9246083
_publ_section_title
;
Structure prediction by ZEFSAII (Michael W. Deem and Ramdas Pophale) SiO2 
 PCOD9246083
Probable space group: P 21/C
;
_chemical_formula_sum "Si O2"
_cell_formula_units_Z 32
_cell_length_a 8.364319
_cell_length_b 20.588818
_cell_length_c 14.565579
_cell_angle_alpha 90.000000
_cell_angle_beta 35.321338
_cell_angle_gamma 90.000000
_cell_volume 1450.236881
_symmetry_space_group_name_H-M "P 21/C"
_symmetry_group_IT_number 14
_symmetry_cell_setting 'monoclinic'
loop_
_space_group_symop_operation_xyz
x,y,z
-x,1/2+y,1/2-z
-x,-y,-z
x,1/2-y,1/2+z
loop_
_atom_site_type_symbol
_atom_site_label
_atom_site_fract_x
_atom_site_fract_y
_atom_site_fract_z
Si Si1 0.609187 0.657056 0.351026
Si Si2 0.489218 0.572012 0.562744
Si Si3 0.117269 0.466789 0.813557
Si Si4 0.173915 0.779968 0.950289
Si Si5 0.088351 0.623579 0.330559
Si Si6 0.018622 0.740404 0.232224
Si Si7 0.896376 0.339556 0.147752
Si Si8 0.656010 0.551468 0.094853
O O1 0.419372 0.609968 0.500476
O O2 0.867746 0.610406 0.207534
O O3 0.472034 0.686826 0.326444
O O4 0.704110 0.714794 0.371809
O O5 0.311202 0.505940 0.652080
O O6 0.353300 0.613398 0.709598
O O7 0.815947 0.583182 0.428810
O O8 0.282960 0.474997 0.831712
O O9 0.813306 0.497660 0.958556
O O10 0.030673 0.833470 0.950440
O O11 0.173891 0.712666 0.896625
O O12 0.086066 0.762856 0.096402
O O13 0.159075 0.678757 0.219719
O O14 0.343881 0.573981 0.223985
O O15 0.039451 0.799206 0.291188
O O16 0.154221 0.384787 0.003719
#
# Coordination Sequence:
#
# PCOD9246083 Si02
#       8
#     4   4   4   4   4   4   4   4
#     4  11  21  39  61  93 122 164 211 250 312 368
#     4  10  22  41  61  91 125 163 207 259 306 358
#     4  10  21  40  67  86 121 166 215 252 306 365
#     4  11  22  35  62  90 125 164 205 251 306 378
#     4  10  23  39  61  92 127 160 207 253 315 359
#     4  10  23  37  60  92 132 159 200 260 306 378
#     4  10  22  39  63  91 125 165 202 251 315 366
#     4  10  21  40  62  89 120 164 208 255 304 366
#
# _framework density 22.065360999999999
#
# number of rings (size 3 to 8) (size 9 to 14) (size 15 to 20)
#    0.000    1.750    2.500    1.125    3.500    2.500 
#    0.000    2.500    0.000    0.000    0.000    0.000 
#    0.000    0.000    0.000    0.000    0.000    0.000 
#
# Total GULP energy -178310.393717 kJ/mol
# GULP energy per Si atom -5572.199804 kJ/mol
# Density = 2.201514 g / cm^3
# Si number density = 22.065361 Si / 1000 Ang^3
#
#
#
# Elastic Constant Matrix: (Units=GPa)
#
#
# Indices 1 2 3 4 5 6 
#
# 1 91.4186 41.7540 19.3265 0.0000 2.8496 0.0000
# 2 41.7540 106.7771 17.5151 0.0000 -6.8209 0.0000
# 3 19.3265 17.5151 61.9685 0.0000 2.7216 0.0000
# 4 0.0000 0.0000 0.0000 37.1985 0.0000 5.5077
# 5 2.8496 -6.8209 2.7216 0.0000 42.1013 0.0000
# 6 0.0000 0.0000 0.0000 5.5077 0.0000 28.7185
#
#
#
# Elastic Compliance Matrix: (Units=1/GPa)
#
#
# Indices 1 2 3 4 5 6 
#
# 1 0.013904 -0.005073 -0.002833 0.000000 -0.001580 0.000000
# 2 -0.005073 0.011806 -0.001859 0.000000 0.002376 0.000000
# 3 -0.002833 -0.001859 0.017601 0.000000 -0.001247 0.000000
# 4 0.000000 0.000000 0.000000 0.027668 0.000000 -0.005306
# 5 -0.001580 0.002376 -0.001247 0.000000 0.024325 0.000000
# 6 0.000000 0.000000 0.000000 -0.005306 0.000000 0.035838
#
#
# Mechanical properties :
#
#
# Convention : Reuss Voigt Hill
#
# Bulk Modulus (GPa) = 42.05153 46.37282 44.21218
# Shear Modulus (GPa) = 31.52590 33.70823 32.61707
#
# Velocity S-wave (km/s) = 3.78398 3.91276 3.84891
# Velocity P-wave (km/s) = 6.17984 6.44008 6.31130
#
# Compressibility (1/GPa) = 0.02378035
#
# Stress axis : x y z
#
# Youngs Moduli (GPa) = 71.92197 84.70372 56.81499
#
# Poissons Ratio (x) = 0.42972 0.16096
# Poissons Ratio (y) = 0.36487 0.10562
# Poissons Ratio (z) = 0.20376 0.15747
#
# Static dielectric constant tensor:
#      x y z
#    x 1.818660 0.000000 0.045000 
#    y 0.000000 1.877100 0.000000 
#    z 0.045000 0.000000 1.911280 
# 
# From -- ./inp_files/42043.got.cif
#   From: 2010.05.17/outbox.cif.g08.bks.cpg/sg14_22_cif.got.tgz:42043.got - 2010.06.03 17:49:19.
