data_PCOD9246677
_publ_section_title
;
Structure prediction by ZEFSAII (Michael W. Deem and Ramdas Pophale) SiO2 
 PCOD9246677
Probable space group: P 21/C
;
_chemical_formula_sum "Si O2"
_cell_formula_units_Z 20
_cell_length_a 10.027615
_cell_length_b 9.548202
_cell_length_c 9.143992
_cell_angle_alpha 90.000000
_cell_angle_beta 123.168682
_cell_angle_gamma 90.000000
_cell_volume 732.847289
_symmetry_space_group_name_H-M "P 21/C"
_symmetry_group_IT_number 14
_symmetry_cell_setting 'monoclinic'
loop_
_space_group_symop_operation_xyz
x,y,z
-x,1/2+y,1/2-z
-x,-y,-z
x,1/2-y,1/2+z
loop_
_atom_site_type_symbol
_atom_site_label
_atom_site_fract_x
_atom_site_fract_y
_atom_site_fract_z
Si Si1 0.909322 0.061735 0.230006
Si Si2 0.187712 0.864432 0.365455
Si Si3 0.345447 0.251257 0.539761
Si Si4 0.834163 0.598355 0.330213
Si Si5 0.621017 0.037065 0.263945
O O1 0.887298 0.226086 0.243663
O O2 0.751843 0.010116 0.216215
O O3 0.981053 0.080719 0.106916
O O4 0.053323 0.961202 0.365672
O O5 0.319606 0.859270 0.568719
O O6 0.247785 0.952043 0.262558
O O7 0.259934 0.195944 0.343412
O O8 0.206371 0.334037 0.542424
O O9 0.482387 0.368267 0.610208
O O10 0.400188 0.112692 0.665358
#
# Coordination Sequence:
#
# PCOD9246677 Si02
#       5
#     4   4   4   4   4
#     4  10  21  41  70  92 128 176 223 269 329 391
#     4   9  22  41  68  92 132 172 223 271 332 384
#     4  11  25  45  66  99 138 178 213 283 326 401
#     4   9  24  42  70  91 141 166 225 269 334 377
#     4  11  25  42  68  92 141 174 222 267 344 386
#
# _framework density 27.290816
#
# number of rings (size 3 to 8) (size 9 to 14) (size 15 to 20)
#    1.200    0.800    0.000    1.800    8.400    2.400 
#    3.600    2.000    0.000    0.000    0.000    0.000 
#    0.000    0.000    0.000    0.000    0.000    0.000 
#
# Total GULP energy -111565.612851 kJ/mol
# GULP energy per Si atom -5578.280643 kJ/mol
# Density = 2.722870 g / cm^3
# Si number density = 27.290816 Si / 1000 Ang^3
#
#
#
# Elastic Constant Matrix: (Units=GPa)
#
#
# Indices 1 2 3 4 5 6 
#
# 1 90.5851 19.6172 16.7476 0.0000 4.9504 0.0000
# 2 19.6172 143.1501 3.9394 0.0000 11.1234 0.0000
# 3 16.7476 3.9394 109.7588 0.0000 3.5996 0.0000
# 4 0.0000 0.0000 0.0000 13.6541 0.0000 5.5524
# 5 4.9504 11.1234 3.5996 0.0000 30.1069 0.0000
# 6 0.0000 0.0000 0.0000 5.5524 0.0000 38.2156
#
#
#
# Elastic Compliance Matrix: (Units=1/GPa)
#
#
# Indices 1 2 3 4 5 6 
#
# 1 0.011736 -0.001470 -0.001699 0.000000 -0.001184 0.000000
# 2 -0.001470 0.007379 0.000041 0.000000 -0.002490 0.000000
# 3 -0.001699 0.000041 0.009397 0.000000 -0.000859 0.000000
# 4 0.000000 0.000000 0.000000 0.077837 0.000000 -0.011309
# 5 -0.001184 -0.002490 -0.000859 0.000000 0.034432 0.000000
# 6 0.000000 0.000000 0.000000 -0.011309 0.000000 0.027810
#
#
# Mechanical properties :
#
#
# Convention : Reuss Voigt Hill
#
# Bulk Modulus (GPa) = 44.92956 47.12249 46.02603
# Shear Modulus (GPa) = 27.43233 36.60798 32.02015
#
# Velocity S-wave (km/s) = 3.17391 3.66649 3.42905
# Velocity P-wave (km/s) = 5.47088 5.93536 5.70785
#
# Compressibility (1/GPa) = 0.02225706
#
# Stress axis : x y z
#
# Youngs Moduli (GPa) = 85.20466 135.51238 106.41837
#
# Poissons Ratio (x) = 0.19915 0.18083
# Poissons Ratio (y) = 0.12522 -0.00437
# Poissons Ratio (z) = 0.14478 -0.00556
#
# Static dielectric constant tensor:
#      x y z
#    x 2.158920 0.000000 -0.007410 
#    y 0.000000 1.693030 0.000000 
#    z -0.007410 0.000000 2.194080 
# 
# From -- ./inp_files/28246.got.cif
#   From: 2010.05.17/outbox.cif.g08.bks.cpg/sg14_15_cif.got.tgz:28246.got - 2010.06.03 17:49:19.
