data_PCOD9246309
_publ_section_title
;
Structure prediction by ZEFSAII (Michael W. Deem and Ramdas Pophale) SiO2 
 PCOD9246309
Probable space group: P 21/C
;
_chemical_formula_sum "Si O2"
_cell_formula_units_Z 28
_cell_length_a 7.248593
_cell_length_b 9.540437
_cell_length_c 21.315064
_cell_angle_alpha 90.000000
_cell_angle_beta 137.018671
_cell_angle_gamma 90.000000
_cell_volume 1004.940015
_symmetry_space_group_name_H-M "P 21/C"
_symmetry_group_IT_number 14
_symmetry_cell_setting 'monoclinic'
loop_
_space_group_symop_operation_xyz
x,y,z
-x,1/2+y,1/2-z
-x,-y,-z
x,1/2-y,1/2+z
loop_
_atom_site_type_symbol
_atom_site_label
_atom_site_fract_x
_atom_site_fract_y
_atom_site_fract_z
Si Si1 0.353391 0.081586 0.258812
Si Si2 0.332752 0.599303 0.526830
Si Si3 0.948142 0.621535 0.723364
Si Si4 0.718755 0.595228 0.914381
Si Si5 0.297964 0.806255 0.746207
Si Si6 0.961644 0.812886 0.051181
Si Si7 0.041661 0.821787 0.379437
O O1 0.537471 0.060864 0.240939
O O2 0.211317 0.226611 0.207667
O O3 0.107728 0.980122 0.215355
O O4 0.562629 0.050586 0.367256
O O5 0.238182 0.442515 0.483491
O O6 0.368301 0.397987 0.369131
O O7 0.116051 0.642889 0.526250
O O8 0.275696 0.713380 0.457977
O O9 0.041926 0.781288 0.728487
O O10 0.069226 0.590027 0.822784
O O11 0.516404 0.713721 0.836966
O O12 0.957204 0.597219 0.921616
O O13 0.803237 0.668541 0.998954
O O14 0.189097 0.731480 0.656728
#
# Coordination Sequence:
#
# PCOD9246309 Si02
#       7
#     4   4   4   4   4   4   4
#     4  10  22  40  61  85 126 175 213 265 334 385
#     4  10  21  40  68  99 131 168 218 276 327 381
#     4  11  24  38  64  98 128 168 222 279 328 390
#     4   9  20  38  62  90 124 169 217 262 323 397
#     4  10  22  40  59  86 127 170 217 267 329 392
#     4  10  21  40  67  96 129 173 220 267 323 397
#     4  10  22  40  63  96 133 166 213 275 332 390
#
# _framework density 27.862359999999999
#
# number of rings (size 3 to 8) (size 9 to 14) (size 15 to 20)
#    0.000    2.000    0.000    3.429    0.000   14.286 
#    0.000    0.000    0.000    6.000    0.000    0.000 
#    0.000    0.000    0.000    0.000    0.000    0.000 
#
# Total GULP energy -156378.859788 kJ/mol
# GULP energy per Si atom -5584.959278 kJ/mol
# Density = 2.779894 g / cm^3
# Si number density = 27.862360 Si / 1000 Ang^3
#
#
#
# Elastic Constant Matrix: (Units=GPa)
#
#
# Indices 1 2 3 4 5 6 
#
# 1 89.6280 16.0283 3.0301 0.0000 17.8818 0.0000
# 2 16.0283 90.0619 15.8444 0.0000 17.6911 0.0000
# 3 3.0301 15.8444 117.7852 0.0000 30.2883 0.0000
# 4 0.0000 0.0000 0.0000 38.5122 0.0000 17.4608
# 5 17.8818 17.6911 30.2883 0.0000 41.8738 0.0000
# 6 0.0000 0.0000 0.0000 17.4608 0.0000 40.9192
#
#
#
# Elastic Compliance Matrix: (Units=1/GPa)
#
#
# Indices 1 2 3 4 5 6 
#
# 1 0.012495 -0.001331 0.001333 0.000000 -0.005738 0.000000
# 2 -0.001331 0.012264 -0.000527 0.000000 -0.004232 0.000000
# 3 0.001333 -0.000527 0.010585 0.000000 -0.008002 0.000000
# 4 0.000000 0.000000 0.000000 0.032194 0.000000 -0.013738
# 5 -0.005738 -0.004232 -0.008002 0.000000 0.033908 0.000000
# 6 0.000000 0.000000 0.000000 -0.013738 0.000000 0.030300
#
#
# Mechanical properties :
#
#
# Convention : Reuss Voigt Hill
#
# Bulk Modulus (GPa) = 29.16064 40.80899 34.98481
# Shear Modulus (GPa) = 34.66727 41.76586 38.21656
#
# Velocity S-wave (km/s) = 3.53120 3.87590 3.70756
# Velocity P-wave (km/s) = 5.20716 5.89140 5.55981
#
# Compressibility (1/GPa) = 0.03429280
#
# Stress axis : x y z
#
# Youngs Moduli (GPa) = 80.03240 81.53684 94.47771
#
# Poissons Ratio (x) = 0.10854 -0.12594
# Poissons Ratio (y) = 0.10654 0.04983
# Poissons Ratio (z) = -0.10669 0.04300
#
# Static dielectric constant tensor:
#      x y z
#    x 2.364630 0.000000 -0.055470 
#    y 0.000000 2.277280 0.000000 
#    z -0.055470 0.000000 2.110990 
# 
# From -- ./inp_files/39645.got.cif
#   From: 2010.05.17/outbox.cif.g08.bks.cpg/sg14_20_cif.got.tgz:39645.got - 2010.06.03 17:49:19.
