data_PCOD9246481
_publ_section_title
;
Structure prediction by ZEFSAII (Michael W. Deem and Ramdas Pophale) SiO2 
 PCOD9246481
Probable space group: P 21/C
;
_chemical_formula_sum "Si O2"
_cell_formula_units_Z 30
_cell_length_a 12.794183
_cell_length_b 19.951019
_cell_length_c 10.947651
_cell_angle_alpha 90.000000
_cell_angle_beta 22.304892
_cell_angle_gamma 90.000000
_cell_volume 1060.597484
_symmetry_space_group_name_H-M "P 21/C"
_symmetry_group_IT_number 14
_symmetry_cell_setting 'monoclinic'
loop_
_space_group_symop_operation_xyz
x,y,z
-x,1/2+y,1/2-z
-x,-y,-z
x,1/2-y,1/2+z
loop_
_atom_site_type_symbol
_atom_site_label
_atom_site_fract_x
_atom_site_fract_y
_atom_site_fract_z
Si Si1 0.679363 0.294462 0.741462
Si Si2 0.551687 0.343221 0.323335
Si Si3 0.779614 0.711284 0.547748
Si Si4 0.754932 0.450727 0.236645
Si Si5 0.969915 0.395360 0.571818
Si Si6 0.417042 0.415723 0.907352
Si Si7 0.500000 0.500000 0.000000
Si Si8 0.901069 0.637435 0.972176
O O1 0.750613 0.218568 0.640881
O O2 0.455317 0.290359 0.092330
O O3 0.543559 0.342043 0.787229
O O4 0.935779 0.337256 0.507577
O O5 0.382016 0.312260 0.396294
O O6 0.731477 0.409773 0.136658
O O7 0.322046 0.357991 0.676844
O O8 0.915446 0.785352 0.408805
O O9 0.982178 0.650811 0.364552
O O10 0.500000 0.500000 0.500000
O O11 0.820047 0.394030 0.271472
O O12 0.000000 0.500000 0.000000
O O13 0.709265 0.441731 0.842857
O O14 0.247479 0.432909 0.224118
O O15 0.225600 0.410755 0.996917
O O16 0.624861 0.474287 0.719502
#
# Coordination Sequence:
#
# PCOD9246481 Si02
#       8
#     4   4   4   4   4   4   2   4
#     4   9  20  41  66 102 139 176 237 301 369 432
#     4  11  23  45  75 105 145 194 247 306 373 447
#     4  10  22  42  72 106 137 184 243 308 369 434
#     4  12  27  52  72 103 152 203 253 301 368 462
#     4  10  21  41  64 100 140 181 236 301 364 440
#     4  10  21  42  69 102 139 182 240 297 372 436
#     4  10  22  40  66  96 136 186 234 294 362 436
#     4  11  24  46  75 107 146 198 245 311 376 448
#
# _framework density 28.285943
#
# number of rings (size 3 to 8) (size 9 to 14) (size 15 to 20)
#    0.000    1.600    2.667    1.200    0.000    4.267 
#    9.600    0.000    0.000    0.000    0.000    0.000 
#    0.000    0.000    0.000    0.000    0.000    0.000 
#
# Total GULP energy -167589.169955 kJ/mol
# GULP energy per Si atom -5586.305665 kJ/mol
# Density = 2.822156 g / cm^3
# Si number density = 28.285943 Si / 1000 Ang^3
#
#
#
# Elastic Constant Matrix: (Units=GPa)
#
#
# Indices 1 2 3 4 5 6 
#
# 1 155.5858 83.3850 47.9743 0.0000 -30.1047 0.0000
# 2 83.3850 232.5204 50.9402 0.0000 -29.1923 0.0000
# 3 47.9743 50.9402 110.2571 0.0000 -26.8623 0.0000
# 4 0.0000 0.0000 0.0000 52.2630 0.0000 -11.4793
# 5 -30.1047 -29.1923 -26.8623 0.0000 58.8686 0.0000
# 6 0.0000 0.0000 0.0000 -11.4793 0.0000 46.2415
#
#
#
# Elastic Compliance Matrix: (Units=1/GPa)
#
#
# Indices 1 2 3 4 5 6 
#
# 1 0.008834 -0.002400 -0.002165 0.000000 0.002340 0.000000
# 2 -0.002400 0.005564 -0.001297 0.000000 0.000940 0.000000
# 3 -0.002165 -0.001297 0.011458 0.000000 0.003478 0.000000
# 4 0.000000 0.000000 0.000000 0.020237 0.000000 0.005024
# 5 0.002340 0.000940 0.003478 0.000000 0.020237 0.000000
# 6 0.000000 0.000000 0.000000 0.005024 0.000000 0.022873
#
#
# Mechanical properties :
#
#
# Convention : Reuss Voigt Hill
#
# Bulk Modulus (GPa) = 70.76350 95.88470 83.32410
# Shear Modulus (GPa) = 47.33186 52.54553 49.93870
#
# Velocity S-wave (km/s) = 4.09508 4.31473 4.20634
# Velocity P-wave (km/s) = 6.88702 7.66775 7.28785
#
# Compressibility (1/GPa) = 0.01413158
#
# Stress axis : x y z
#
# Youngs Moduli (GPa) = 113.20211 179.74281 87.27185
#
# Poissons Ratio (x) = 0.43136 0.18894
# Poissons Ratio (y) = 0.27167 0.11321
# Poissons Ratio (z) = 0.24507 0.23317
#
# Static dielectric constant tensor:
#      x y z
#    x 0.886460 0.000000 -2.464710 
#    y 0.000000 2.232010 0.000000 
#    z -2.464710 0.000000 -2.147210 
# 
# From -- ./inp_files/30681.got.cif
#   From: 2010.05.17/outbox.cif.g08.bks.cpg/sg14_16_cif.got.tgz:30681.got - 2010.06.03 17:49:19.
