data_PCOD9246033
_publ_section_title
;
Structure prediction by ZEFSAII (Michael W. Deem and Ramdas Pophale) SiO2 
 PCOD9246033
Probable space group: P 21/C
;
_chemical_formula_sum "Si O2"
_cell_formula_units_Z 24
_cell_length_a 12.184106
_cell_length_b 18.177974
_cell_length_c 5.041456
_cell_angle_alpha 90.000000
_cell_angle_beta 70.047860
_cell_angle_gamma 90.000000
_cell_volume 1049.573389
_symmetry_space_group_name_H-M "P 21/C"
_symmetry_group_IT_number 14
_symmetry_cell_setting 'monoclinic'
loop_
_space_group_symop_operation_xyz
x,y,z
-x,1/2+y,1/2-z
-x,-y,-z
x,1/2-y,1/2+z
loop_
_atom_site_type_symbol
_atom_site_label
_atom_site_fract_x
_atom_site_fract_y
_atom_site_fract_z
Si Si1 0.700581 0.087735 0.769682
Si Si2 0.153194 0.082971 0.900639
Si Si3 0.944553 0.057932 0.751136
Si Si4 0.240727 0.199113 0.206650
Si Si5 0.495457 0.704423 0.594404
Si Si6 0.363261 0.500759 0.175661
O O1 0.836347 0.102008 0.717905
O O2 0.611276 0.153114 0.893553
O O3 0.686586 0.062517 0.480045
O O4 0.657177 0.022446 0.001311
O O5 0.162788 0.133749 0.151317
O O6 0.047048 0.105333 0.798216
O O7 0.284379 0.071661 0.680666
O O8 0.116126 0.998786 0.993785
O O9 0.000000 0.000000 0.500000
O O10 0.224272 0.266713 0.010534
O O11 0.375645 0.173589 0.069832
O O12 0.489109 0.775197 0.408432
O O13 0.500000 0.500000 0.000000
#
# Coordination Sequence:
#
# PCOD9246033 Si02
#       6
#     4   4   4   4   4   4
#     4  11  22  38  60  88 119 157 204 242 302 368
#     4  10  22  39  61  88 124 159 202 252 305 362
#     4  10  21  40  62  88 120 165 199 252 312 350
#     4  10  23  39  61  88 119 160 199 244 301 362
#     4  10  21  40  60  85 122 162 199 246 304 359
#     4  11  22  35  59  93 120 149 195 256 313 358
#
# _framework density 22.866433000000001
#
# number of rings (size 3 to 8) (size 9 to 14) (size 15 to 20)
#    0.000    1.667    1.667    2.500    2.333    4.000 
#    0.000    1.667    0.000    0.000    0.000    0.000 
#    0.000    0.000    0.000    0.000    0.000    0.000 
#
# Total GULP energy -134039.992752 kJ/mol
# GULP energy per Si atom -5584.999698 kJ/mol
# Density = 2.281439 g / cm^3
# Si number density = 22.866433 Si / 1000 Ang^3
#
#
#
# Elastic Constant Matrix: (Units=GPa)
#
#
# Indices 1 2 3 4 5 6 
#
# 1 187.7338 35.0871 11.8399 0.0000 -1.8702 0.0000
# 2 35.0871 36.6547 -0.0324 0.0000 -7.3878 0.0000
# 3 11.8399 -0.0324 65.4848 0.0000 -4.2192 0.0000
# 4 0.0000 0.0000 0.0000 28.7975 0.0000 6.4659
# 5 -1.8702 -7.3878 -4.2192 0.0000 24.7497 0.0000
# 6 0.0000 0.0000 0.0000 6.4659 0.0000 47.3789
#
#
#
# Elastic Compliance Matrix: (Units=1/GPa)
#
#
# Indices 1 2 3 4 5 6 
#
# 1 0.006647 -0.006712 -0.001316 0.000000 -0.001726 0.000000
# 2 -0.006712 0.035827 0.001909 0.000000 0.010513 0.000000
# 3 -0.001316 0.001909 0.015713 0.000000 0.003149 0.000000
# 4 0.000000 0.000000 0.000000 0.035823 0.000000 -0.004889
# 5 -0.001726 0.010513 0.003149 0.000000 0.043949 0.000000
# 6 0.000000 0.000000 0.000000 -0.004889 0.000000 0.021774
#
#
# Mechanical properties :
#
#
# Convention : Reuss Voigt Hill
#
# Bulk Modulus (GPa) = 21.76397 42.62916 32.19657
# Shear Modulus (GPa) = 26.69711 36.38381 31.54046
#
# Velocity S-wave (km/s) = 3.42061 3.99324 3.71797
# Velocity P-wave (km/s) = 5.01391 6.32016 5.70455
#
# Compressibility (1/GPa) = 0.04594749
#
# Stress axis : x y z
#
# Youngs Moduli (GPa) = 150.44607 27.91211 63.64350
#
# Poissons Ratio (x) = 0.18733 0.08377
# Poissons Ratio (y) = 1.00973 -0.12147
# Poissons Ratio (z) = 0.19803 -0.05327
#
# Static dielectric constant tensor:
#      x y z
#    x 1.966570 0.000000 -0.025690 
#    y 0.000000 1.878080 0.000000 
#    z -0.025690 0.000000 1.906380 
# 
# From -- ./inp_files/2658.got.cif
#   From: 2010.05.17/outbox.cif.g08.bks.cpg/sg14_2_cif.got.tgz:2658.got - 2010.06.03 17:49:19.
