data_PCOD9246022
_publ_section_title
;
Structure prediction by ZEFSAII (Michael W. Deem and Ramdas Pophale) SiO2 
 PCOD9246022
Probable space group: P 21/C
;
_chemical_formula_sum "Si O2"
_cell_formula_units_Z 32
_cell_length_a 14.568816
_cell_length_b 16.310185
_cell_length_c 15.466095
_cell_angle_alpha 90.000000
_cell_angle_beta 160.704365
_cell_angle_gamma 90.000000
_cell_volume 1214.394256
_symmetry_space_group_name_H-M "P 21/C"
_symmetry_group_IT_number 14
_symmetry_cell_setting 'monoclinic'
loop_
_space_group_symop_operation_xyz
x,y,z
-x,1/2+y,1/2-z
-x,-y,-z
x,1/2-y,1/2+z
loop_
_atom_site_type_symbol
_atom_site_label
_atom_site_fract_x
_atom_site_fract_y
_atom_site_fract_z
Si Si1 0.451582 0.980978 0.261693
Si Si2 0.045576 0.892429 0.973911
Si Si3 0.936152 0.511484 0.074237
Si Si4 0.237287 0.935367 0.328600
Si Si5 0.189268 0.244577 0.149388
Si Si6 0.688337 0.147827 0.283163
Si Si7 0.219804 0.350570 0.495449
Si Si8 0.515180 0.905680 0.071227
O O1 0.296207 0.894289 0.128786
O O2 0.484051 0.027101 0.383688
O O3 0.333753 0.055530 0.100764
O O4 0.755202 0.964787 0.496113
O O5 0.195163 0.889227 0.200841
O O6 0.809278 0.825485 0.775007
O O7 0.929805 0.981036 0.842937
O O8 0.221687 0.446168 0.147529
O O9 0.231922 0.553101 0.350359
O O10 0.889727 0.414343 0.016015
O O11 0.109048 0.876218 0.289665
O O12 0.228860 0.202441 0.091274
O O13 0.435164 0.309769 0.370413
O O14 0.902030 0.292048 0.922138
O O15 0.436051 0.185101 0.116940
O O16 0.524581 0.092916 0.067166
#
# Coordination Sequence:
#
# PCOD9246022 Si02
#       8
#     4   4   4   4   4   4   4   4
#     4  10  21  39  72 103 137 191 241 307 359 426
#     4   9  20  38  63 103 139 185 240 289 358 437
#     4  11  27  45  78 106 141 184 259 307 356 437
#     4   9  18  38  67  96 137 188 237 302 348 425
#     4  11  25  44  67 103 150 189 231 297 371 439
#     4  11  25  46  75 102 139 198 243 307 370 436
#     4   9  23  44  66 103 142 183 249 292 366 439
#     4  12  26  49  74 104 141 191 240 308 364 428
#
# _framework density 26.350587000000001
#
# number of rings (size 3 to 8) (size 9 to 14) (size 15 to 20)
#    0.000    1.750    1.250    1.875    7.000    5.000 
#    0.000    1.250    0.000    0.000    0.000    0.000 
#    0.000    0.000    0.000    0.000    0.000    0.000 
#
# Total GULP energy -178279.834367 kJ/mol
# GULP energy per Si atom -5571.244824 kJ/mol
# Density = 2.629061 g / cm^3
# Si number density = 26.350587 Si / 1000 Ang^3
#
#
#
# Elastic Constant Matrix: (Units=GPa)
#
#
# Indices 1 2 3 4 5 6 
#
# 1 121.3822 38.6109 32.1198 0.0000 31.9816 0.0000
# 2 38.6109 106.3892 38.2881 0.0000 17.5138 0.0000
# 3 32.1198 38.2881 94.2719 0.0000 17.9147 0.0000
# 4 0.0000 0.0000 0.0000 32.2481 0.0000 -4.5174
# 5 31.9816 17.5138 17.9147 0.0000 53.1320 0.0000
# 6 0.0000 0.0000 0.0000 -4.5174 0.0000 35.3304
#
#
#
# Elastic Compliance Matrix: (Units=1/GPa)
#
#
# Indices 1 2 3 4 5 6 
#
# 1 0.010828 -0.002470 -0.001712 0.000000 -0.005126 0.000000
# 2 -0.002470 0.011833 -0.003746 0.000000 -0.001151 0.000000
# 3 -0.001712 -0.003746 0.013123 0.000000 -0.002159 0.000000
# 4 0.000000 0.000000 0.000000 0.031575 0.000000 0.004037
# 5 -0.005126 -0.001151 -0.002159 0.000000 0.023014 0.000000
# 6 0.000000 0.000000 0.000000 0.004037 0.000000 0.028820
#
#
# Mechanical properties :
#
#
# Convention : Reuss Voigt Hill
#
# Bulk Modulus (GPa) = 50.17892 60.00899 55.09395
# Shear Modulus (GPa) = 35.28802 38.34373 36.81587
#
# Velocity S-wave (km/s) = 3.66344 3.81877 3.74191
# Velocity P-wave (km/s) = 6.08100 6.50128 6.29465
#
# Compressibility (1/GPa) = 0.01992869
#
# Stress axis : x y z
#
# Youngs Moduli (GPa) = 92.35601 84.50728 76.20420
#
# Poissons Ratio (x) = 0.20870 0.13046
# Poissons Ratio (y) = 0.22808 0.28545
# Poissons Ratio (z) = 0.15811 0.31655
#
# Static dielectric constant tensor:
#      x y z
#    x 2.201220 0.000000 0.082680 
#    y 0.000000 2.156090 0.000000 
#    z 0.082680 0.000000 2.240800 
# 
# From -- ./inp_files/59727.got.cif
#   From: 2010.05.17/outbox.cif.g08.bks.cpg/sg14_30_cif.got.tgz:59727.got - 2010.06.03 17:49:19.
