data_PCOD9246910
_publ_section_title
;
Structure prediction by ZEFSAII (Michael W. Deem and Ramdas Pophale) SiO2 
 PCOD9246910
Probable space group: P 21/C
;
_chemical_formula_sum "Si O2"
_cell_formula_units_Z 30
_cell_length_a 5.070174
_cell_length_b 10.703780
_cell_length_c 20.412491
_cell_angle_alpha 90.000000
_cell_angle_beta 95.929788
_cell_angle_gamma 90.000000
_cell_volume 1101.858941
_symmetry_space_group_name_H-M "P 21/C"
_symmetry_group_IT_number 14
_symmetry_cell_setting 'monoclinic'
loop_
_space_group_symop_operation_xyz
x,y,z
-x,1/2+y,1/2-z
-x,-y,-z
x,1/2-y,1/2+z
loop_
_atom_site_type_symbol
_atom_site_label
_atom_site_fract_x
_atom_site_fract_y
_atom_site_fract_z
Si Si1 0.000000 0.000000 0.500000
Si Si2 0.926400 0.010945 0.619249
Si Si3 0.495787 0.817319 0.457521
Si Si4 0.514723 0.207966 0.274071
Si Si5 0.428141 0.658521 0.585842
Si Si6 0.043071 0.003202 0.881123
Si Si7 0.679307 0.475098 0.244313
Si Si8 0.193452 0.257462 0.652480
O O1 0.252703 0.093073 0.526894
O O2 0.050098 0.916068 0.572587
O O3 0.760372 0.088911 0.557573
O O4 0.752596 0.970853 0.674644
O O5 0.108195 0.115353 0.653565
O O6 0.468275 0.730561 0.519293
O O7 0.559584 0.743852 0.391893
O O8 0.551114 0.251985 0.349160
O O9 0.628942 0.327352 0.237528
O O10 0.229782 0.207128 0.229567
O O11 0.580698 0.066065 0.252132
O O12 0.154738 0.581158 0.577214
O O13 0.666645 0.559181 0.604432
O O14 0.894899 0.024495 0.807434
O O15 0.008012 0.854144 0.886890
#
# Coordination Sequence:
#
# PCOD9246910 Si02
#       8
#     2   4   4   4   4   4   4   4
#     4  10  24  40  60  94 130 174 232 286 356 426
#     4  11  22  41  67  96 137 182 237 297 364 430
#     4  11  24  42  66  95 138 180 236 291 366 428
#     4  10  21  43  68 102 136 183 238 293 359 426
#     4  11  25  44  67 101 140 185 230 295 358 426
#     4  10  25  44  69 101 142 184 241 290 359 426
#     4  10  21  42  70 103 137 187 236 304 357 433
#     4  10  23  41  68  98 131 182 236 290 349 438
#
# _framework density 27.226717000000001
#
# number of rings (size 3 to 8) (size 9 to 14) (size 15 to 20)
#    0.000    1.600    1.333    2.000    5.600    2.133 
#    2.400    4.000    0.000    0.000    0.000    0.000 
#    0.000    0.000    0.000    0.000    0.000    0.000 
#
# Total GULP energy -167135.128192 kJ/mol
# GULP energy per Si atom -5571.170940 kJ/mol
# Density = 2.716475 g / cm^3
# Si number density = 27.226717 Si / 1000 Ang^3
#
#
#
# Elastic Constant Matrix: (Units=GPa)
#
#
# Indices 1 2 3 4 5 6 
#
# 1 96.5434 33.3009 5.8288 0.0000 -0.1068 0.0000
# 2 33.3009 81.2147 34.2567 0.0000 9.2632 0.0000
# 3 5.8288 34.2567 110.1716 0.0000 0.8296 0.0000
# 4 0.0000 0.0000 0.0000 30.3967 0.0000 2.3081
# 5 -0.1068 9.2632 0.8296 0.0000 26.0549 0.0000
# 6 0.0000 0.0000 0.0000 2.3081 0.0000 38.9026
#
#
#
# Elastic Compliance Matrix: (Units=1/GPa)
#
#
# Indices 1 2 3 4 5 6 
#
# 1 0.012272 -0.005739 0.001120 0.000000 0.002055 0.000000
# 2 -0.005739 0.017509 -0.005095 0.000000 -0.006086 0.000000
# 3 0.001120 -0.005095 0.010591 0.000000 0.001479 0.000000
# 4 0.000000 0.000000 0.000000 0.033047 0.000000 -0.001961
# 5 0.002055 -0.006086 0.001479 0.000000 0.040506 0.000000
# 6 0.000000 0.000000 0.000000 -0.001961 0.000000 0.025822
#
#
# Mechanical properties :
#
#
# Convention : Reuss Voigt Hill
#
# Bulk Modulus (GPa) = 47.74588 48.30026 48.02307
# Shear Modulus (GPa) = 30.09222 33.37371 31.73297
#
# Velocity S-wave (km/s) = 3.32813 3.50490 3.41766
# Velocity P-wave (km/s) = 5.68710 5.84445 5.76631
#
# Compressibility (1/GPa) = 0.02094422
#
# Stress axis : x y z
#
# Youngs Moduli (GPa) = 81.48521 57.11230 94.42340
#
# Poissons Ratio (x) = 0.32775 -0.10572
# Poissons Ratio (y) = 0.46762 0.48108
# Poissons Ratio (z) = -0.09123 0.29098
#
# Static dielectric constant tensor:
#      x y z
#    x 2.998890 0.000000 -1.087280 
#    y 0.000000 2.630430 0.000000 
#    z -1.087280 0.000000 3.600590 
# 
# From -- ./inp_files/63337.got.cif
#   From: 2010.05.17/outbox.cif.g08.bks.cpg/sg14_32_cif.got.tgz:63337.got - 2010.06.03 17:49:19.
