data_PCOD9246712
_publ_section_title
;
Structure prediction by ZEFSAII (Michael W. Deem and Ramdas Pophale) SiO2 
 PCOD9246712
Probable space group: P 21/C
;
_chemical_formula_sum "Si O2"
_cell_formula_units_Z 24
_cell_length_a 14.706338
_cell_length_b 7.230975
_cell_length_c 13.103768
_cell_angle_alpha 90.000000
_cell_angle_beta 49.867443
_cell_angle_gamma 90.000000
_cell_volume 1065.384771
_symmetry_space_group_name_H-M "P 21/C"
_symmetry_group_IT_number 14
_symmetry_cell_setting 'monoclinic'
loop_
_space_group_symop_operation_xyz
x,y,z
-x,1/2+y,1/2-z
-x,-y,-z
x,1/2-y,1/2+z
loop_
_atom_site_type_symbol
_atom_site_label
_atom_site_fract_x
_atom_site_fract_y
_atom_site_fract_z
Si Si1 0.549826 0.645656 0.091265
Si Si2 0.905378 0.813016 0.804813
Si Si3 0.825508 0.227117 0.877052
Si Si4 0.738580 0.540040 0.800778
Si Si5 0.352133 0.629749 0.826691
Si Si6 0.250977 0.253303 0.406036
O O1 0.555211 0.462176 0.158164
O O2 0.426548 0.751767 0.192314
O O3 0.650103 0.770083 0.076552
O O4 0.610731 0.600370 0.939641
O O5 0.838866 0.672039 0.778631
O O6 0.045854 0.811851 0.688676
O O7 0.850652 0.015844 0.833534
O O8 0.872615 0.750365 0.944060
O O9 0.770816 0.340386 0.821993
O O10 0.738303 0.258586 0.036038
O O11 0.743286 0.585965 0.679460
O O12 0.283818 0.447480 0.834453
#
# Coordination Sequence:
#
# PCOD9246712 Si02
#       6
#     4   4   4   4   4   4
#     4   8  19  36  58  82 121 159 194 244 299 345
#     4  11  21  41  64  84 124 165 193 253 307 354
#     4  11  21  40  64  86 121 163 200 245 308 353
#     4  10  21  42  59  94 122 154 208 252 289 368
#     4   9  19  36  60  84 122 159 199 243 301 354
#     4   9  21  39  63  89 124 156 203 250 300 355
#
# _framework density 22.527072
#
# number of rings (size 3 to 8) (size 9 to 14) (size 15 to 20)
#    1.000    1.333    3.333    0.000    4.667    1.333 
#    3.000    5.000    0.000    0.000    0.000    0.000 
#    0.000    0.000    0.000    0.000    0.000    0.000 
#
# Total GULP energy -133992.905749 kJ/mol
# GULP energy per Si atom -5583.037740 kJ/mol
# Density = 2.247580 g / cm^3
# Si number density = 22.527072 Si / 1000 Ang^3
#
#
#
# Elastic Constant Matrix: (Units=GPa)
#
#
# Indices 1 2 3 4 5 6 
#
# 1 58.9817 21.2926 26.2468 0.0000 -10.6019 0.0000
# 2 21.2926 113.1910 28.9313 0.0000 -14.3199 0.0000
# 3 26.2468 28.9313 96.0578 0.0000 -22.2844 0.0000
# 4 0.0000 0.0000 0.0000 38.0417 0.0000 -7.5002
# 5 -10.6019 -14.3199 -22.2844 0.0000 20.8157 0.0000
# 6 0.0000 0.0000 0.0000 -7.5002 0.0000 13.1138
#
#
#
# Elastic Compliance Matrix: (Units=1/GPa)
#
#
# Indices 1 2 3 4 5 6 
#
# 1 0.020298 -0.002254 -0.003763 0.000000 0.004759 0.000000
# 2 -0.002254 0.010173 -0.001451 0.000000 0.004297 0.000000
# 3 -0.003763 -0.001451 0.014900 0.000000 0.013036 0.000000
# 4 0.000000 0.000000 0.000000 0.029628 0.000000 0.016945
# 5 0.004759 0.004297 0.013036 0.000000 0.067376 0.000000
# 6 0.000000 0.000000 0.000000 0.016945 0.000000 0.085947
#
#
# Mechanical properties :
#
#
# Convention : Reuss Voigt Hill
#
# Bulk Modulus (GPa) = 32.85857 46.79686 39.82771
# Shear Modulus (GPa) = 19.73124 27.17822 23.45473
#
# Velocity S-wave (km/s) = 2.96275 3.47719 3.23023
# Velocity P-wave (km/s) = 5.13048 6.07782 5.62413
#
# Compressibility (1/GPa) = 0.03043346
#
# Stress axis : x y z
#
# Youngs Moduli (GPa) = 49.26522 98.29730 67.11384
#
# Poissons Ratio (x) = 0.22161 0.25257
# Poissons Ratio (y) = 0.11107 0.09740
# Poissons Ratio (z) = 0.18540 0.14265
#
# Static dielectric constant tensor:
#      x y z
#    x 1.835260 0.000000 -0.017070 
#    y 0.000000 1.872800 0.000000 
#    z -0.017070 0.000000 1.817420 
# 
# From -- ./inp_files/46369.got.cif
#   From: 2010.05.17/outbox.cif.g08.bks.cpg/sg14_24_cif.got.tgz:46369.got - 2010.06.03 17:49:19.
