data_PCOD9246235
_publ_section_title
;
Structure prediction by ZEFSAII (Michael W. Deem and Ramdas Pophale) SiO2 
 PCOD9246235
Probable space group: P 21/C
;
_chemical_formula_sum "Si O2"
_cell_formula_units_Z 32
_cell_length_a 10.535518
_cell_length_b 9.143029
_cell_length_c 14.224849
_cell_angle_alpha 90.000000
_cell_angle_beta 92.192426
_cell_angle_gamma 90.000000
_cell_volume 1369.227547
_symmetry_space_group_name_H-M "P 21/C"
_symmetry_group_IT_number 14
_symmetry_cell_setting 'monoclinic'
loop_
_space_group_symop_operation_xyz
x,y,z
-x,1/2+y,1/2-z
-x,-y,-z
x,1/2-y,1/2+z
loop_
_atom_site_type_symbol
_atom_site_label
_atom_site_fract_x
_atom_site_fract_y
_atom_site_fract_z
Si Si1 0.207525 0.759345 0.010309
Si Si2 0.224018 0.962774 0.184170
Si Si3 0.813072 0.609960 0.723704
Si Si4 0.701926 0.941584 0.474020
Si Si5 0.689763 0.193378 0.184974
Si Si6 0.402279 0.227887 0.166217
Si Si7 0.852997 0.622401 0.139827
Si Si8 0.970103 0.878888 0.402848
O O1 0.299502 0.806810 0.928115
O O2 0.079593 0.719777 0.948808
O O3 0.178392 0.873844 0.091535
O O4 0.274442 0.610632 0.052910
O O5 0.264885 0.837384 0.259198
O O6 0.330413 0.074671 0.147771
O O7 0.143771 0.067896 0.251805
O O8 0.778052 0.441938 0.716903
O O9 0.684674 0.685564 0.760782
O O10 0.847922 0.703464 0.633499
O O11 0.933559 0.639192 0.793386
O O12 0.595167 0.844199 0.421410
O O13 0.722475 0.933761 0.586515
O O14 0.831882 0.863164 0.443369
O O15 0.541285 0.185452 0.204314
O O16 0.970746 0.542518 0.093807
#
# Coordination Sequence:
#
# PCOD9246235 Si02
#       8
#     4   4   4   4   4   4   4   4
#     4  11  24  40  68 103 131 182 228 284 348 414
#     4  11  23  43  65 100 136 173 241 279 343 416
#     4  10  24  41  68 100 135 182 225 278 352 405
#     4  10  21  44  65  95 134 176 223 277 350 406
#     4  12  24  45  67  99 138 182 234 285 347 407
#     4  10  24  44  67  97 135 183 230 288 340 406
#     4  10  21  40  65  95 136 177 221 281 345 417
#     4  10  21  41  70  96 133 176 220 279 350 409
#
# _framework density 23.370843000000001
#
# number of rings (size 3 to 8) (size 9 to 14) (size 15 to 20)
#    0.000    1.500    2.500    3.750    3.500    3.000 
#    4.500    5.625    0.000    0.000    0.000    0.000 
#    0.000    0.000    0.000    0.000    0.000    0.000 
#
# Total GULP energy -178372.714816 kJ/mol
# GULP energy per Si atom -5574.147338 kJ/mol
# Density = 2.331765 g / cm^3
# Si number density = 23.370843 Si / 1000 Ang^3
#
#
#
# Elastic Constant Matrix: (Units=GPa)
#
#
# Indices 1 2 3 4 5 6 
#
# 1 55.4531 16.3031 -1.4093 0.0000 4.4552 0.0000
# 2 16.3031 133.0851 23.0322 0.0000 15.8685 0.0000
# 3 -1.4093 23.0322 69.8066 0.0000 0.0288 0.0000
# 4 0.0000 0.0000 0.0000 44.7005 0.0000 -1.7873
# 5 4.4552 15.8685 0.0288 0.0000 21.5795 0.0000
# 6 0.0000 0.0000 0.0000 -1.7873 0.0000 19.7348
#
#
#
# Elastic Compliance Matrix: (Units=1/GPa)
#
#
# Indices 1 2 3 4 5 6 
#
# 1 0.018902 -0.002241 0.001122 0.000000 -0.002256 0.000000
# 2 -0.002241 0.009051 -0.003029 0.000000 -0.006189 0.000000
# 3 0.001122 -0.003029 0.015346 0.000000 0.001975 0.000000
# 4 0.000000 0.000000 0.000000 0.022452 0.000000 0.002033
# 5 -0.002256 -0.006189 0.001975 0.000000 0.051354 0.000000
# 6 0.000000 0.000000 0.000000 0.002033 0.000000 0.050856
#
#
# Mechanical properties :
#
#
# Convention : Reuss Voigt Hill
#
# Bulk Modulus (GPa) = 28.56859 37.13299 32.85079
# Shear Modulus (GPa) = 26.60642 31.89756 29.25199
#
# Velocity S-wave (km/s) = 3.37775 3.69839 3.54170
# Velocity P-wave (km/s) = 5.24050 5.84470 5.55082
#
# Compressibility (1/GPa) = 0.03500347
#
# Stress axis : x y z
#
# Youngs Moduli (GPa) = 52.90512 110.49032 65.16161
#
# Poissons Ratio (x) = 0.24757 -0.07310
# Poissons Ratio (y) = 0.11854 0.19736
# Poissons Ratio (z) = -0.05935 0.33466
#
# Static dielectric constant tensor:
#      x y z
#    x 1.877940 0.000000 0.011070 
#    y 0.000000 1.934930 0.000000 
#    z 0.011070 0.000000 2.076740 
# 
# From -- ./inp_files/43747.got.cif
#   From: 2010.05.17/outbox.cif.g08.bks.cpg/sg14_22_cif.got.tgz:43747.got - 2010.06.03 17:49:19.
