data_PCOD9246192
_publ_section_title
;
Structure prediction by ZEFSAII (Michael W. Deem and Ramdas Pophale) SiO2 
 PCOD9246192
Probable space group: P 21/C
;
_chemical_formula_sum "Si O2"
_cell_formula_units_Z 28
_cell_length_a 12.638823
_cell_length_b 18.331528
_cell_length_c 5.222356
_cell_angle_alpha 90.000000
_cell_angle_beta 62.059825
_cell_angle_gamma 90.000000
_cell_volume 1068.925672
_symmetry_space_group_name_H-M "P 21/C"
_symmetry_group_IT_number 14
_symmetry_cell_setting 'monoclinic'
loop_
_space_group_symop_operation_xyz
x,y,z
-x,1/2+y,1/2-z
-x,-y,-z
x,1/2-y,1/2+z
loop_
_atom_site_type_symbol
_atom_site_label
_atom_site_fract_x
_atom_site_fract_y
_atom_site_fract_z
Si Si1 0.181255 0.701732 0.514785
Si Si2 0.567803 0.200646 0.415944
Si Si3 0.163971 0.068267 0.889341
Si Si4 0.909074 0.701060 0.786281
Si Si5 0.931901 0.051931 0.381146
Si Si6 0.305465 0.982188 0.152823
Si Si7 0.538438 0.563256 0.148037
O O1 0.186713 0.732711 0.796123
O O2 0.301975 0.661713 0.281873
O O3 0.047548 0.671698 0.636681
O O4 0.561230 0.238535 0.699160
O O5 0.466158 0.140625 0.485308
O O6 0.116166 0.996101 0.800354
O O7 0.178691 0.134307 0.674517
O O8 0.261058 0.037473 0.979246
O O9 0.045160 0.100033 0.175281
O O10 0.892174 0.741541 0.074656
O O11 0.806413 0.070919 0.658869
O O12 0.000000 0.000000 0.500000
O O13 0.345092 0.034416 0.340860
O O14 0.426563 0.936885 0.972084
O O15 0.500000 0.500000 0.000000
#
# Coordination Sequence:
#
# PCOD9246192 Si02
#       7
#     4   4   4   4   4   4   4
#     4   8  16  34  53  84 122 165 211 269 330 393
#     4  10  23  43  69 100 135 175 231 288 347 410
#     4  10  21  40  64  95 131 170 222 275 333 402
#     4  10  22  37  59  92 134 178 217 263 330 409
#     4   9  20  38  64  93 123 164 212 278 324 390
#     4  10  23  42  66  98 129 175 227 283 339 404
#     4  11  25  44  71  97 136 180 232 288 347 410
#
# _framework density 26.194524999999999
#
# number of rings (size 3 to 8) (size 9 to 14) (size 15 to 20)
#    0.000    2.286    0.000    0.857    8.000    4.571 
#   10.286    1.429    0.000    0.000    0.000    0.000 
#    0.000    0.000    0.000    0.000    0.000    0.000 
#
# Total GULP energy -156428.051130 kJ/mol
# GULP energy per Si atom -5586.716112 kJ/mol
# Density = 2.613490 g / cm^3
# Si number density = 26.194525 Si / 1000 Ang^3
#
#
#
# Elastic Constant Matrix: (Units=GPa)
#
#
# Indices 1 2 3 4 5 6 
#
# 1 145.7328 32.1561 27.0789 0.0000 24.7689 0.0000
# 2 32.1561 76.1188 11.2825 0.0000 17.8505 0.0000
# 3 27.0789 11.2825 65.6630 0.0000 16.6752 0.0000
# 4 0.0000 0.0000 0.0000 32.5034 0.0000 10.1881
# 5 24.7689 17.8505 16.6752 0.0000 68.7043 0.0000
# 6 0.0000 0.0000 0.0000 10.1881 0.0000 47.5534
#
#
#
# Elastic Compliance Matrix: (Units=1/GPa)
#
#
# Indices 1 2 3 4 5 6 
#
# 1 0.008204 -0.002709 -0.002499 0.000000 -0.001647 0.000000
# 2 -0.002709 0.015039 -0.000770 0.000000 -0.002744 0.000000
# 3 -0.002499 -0.000770 0.017171 0.000000 -0.003066 0.000000
# 4 0.000000 0.000000 0.000000 0.032981 0.000000 -0.007066
# 5 -0.001647 -0.002744 -0.003066 0.000000 0.016606 0.000000
# 6 0.000000 0.000000 0.000000 -0.007066 0.000000 0.022543
#
#
# Mechanical properties :
#
#
# Convention : Reuss Voigt Hill
#
# Bulk Modulus (GPa) = 35.14045 47.61664 41.37855
# Shear Modulus (GPa) = 37.31697 44.21868 40.76783
#
# Velocity S-wave (km/s) = 3.77849 4.11309 3.94934
# Velocity P-wave (km/s) = 5.69915 6.38547 6.05205
#
# Compressibility (1/GPa) = 0.02845723
#
# Stress axis : x y z
#
# Youngs Moduli (GPa) = 121.89164 66.49201 58.23745
#
# Poissons Ratio (x) = 0.18013 0.14556
# Poissons Ratio (y) = 0.33020 0.04485
# Poissons Ratio (z) = 0.30467 0.05121
#
# Static dielectric constant tensor:
#      x y z
#    x 2.082740 0.000000 -0.111050 
#    y 0.000000 1.983410 0.000000 
#    z -0.111050 0.000000 2.301680 
# 
# From -- ./inp_files/2936.got.cif
#   From: 2010.05.17/outbox.cif.g08.bks.cpg/sg14_2_cif.got.tgz:2936.got - 2010.06.03 17:49:19.
