data_PCOD9246616
_publ_section_title
;
Structure prediction by ZEFSAII (Michael W. Deem and Ramdas Pophale) SiO2 
 PCOD9246616
Probable space group: P 21/C
;
_chemical_formula_sum "Si O2"
_cell_formula_units_Z 24
_cell_length_a 13.717328
_cell_length_b 7.657825
_cell_length_c 14.394145
_cell_angle_alpha 90.000000
_cell_angle_beta 137.428177
_cell_angle_gamma 90.000000
_cell_volume 1022.910299
_symmetry_space_group_name_H-M "P 21/C"
_symmetry_group_IT_number 14
_symmetry_cell_setting 'monoclinic'
loop_
_space_group_symop_operation_xyz
x,y,z
-x,1/2+y,1/2-z
-x,-y,-z
x,1/2-y,1/2+z
loop_
_atom_site_type_symbol
_atom_site_label
_atom_site_fract_x
_atom_site_fract_y
_atom_site_fract_z
Si Si1 0.925996 0.151024 0.328385
Si Si2 0.611582 0.345517 0.567894
Si Si3 0.635210 0.061870 0.885804
Si Si4 0.876776 0.975214 0.690547
Si Si5 0.577180 0.672761 0.919122
Si Si6 0.947684 0.338934 0.525465
O O1 0.764804 0.080290 0.207648
O O2 0.904844 0.338204 0.258949
O O3 0.958931 0.184827 0.459001
O O4 0.041748 0.045833 0.350287
O O5 0.500000 0.500000 0.500000
O O6 0.617995 0.312280 0.462828
O O7 0.548066 0.200544 0.591754
O O8 0.501487 0.082756 0.722833
O O9 0.784937 0.118561 0.943302
O O10 0.636052 0.862249 0.924025
O O11 0.711648 0.928089 0.557027
O O12 0.949928 0.838777 0.813399
O O13 0.000000 0.500000 0.500000
#
# Coordination Sequence:
#
# PCOD9246616 Si02
#       6
#     4   4   4   4   4   4
#     4  11  23  44  71 102 134 181 225 280 341 408
#     4  10  23  42  69  96 139 175 223 282 342 394
#     4  11  23  43  67  94 141 172 228 280 344 399
#     4  11  25  42  71  99 138 176 227 281 344 402
#     4  11  25  42  67 102 131 182 226 283 340 411
#     4  10  21  41  67  95 131 177 221 278 327 410
#
# _framework density 23.462468999999999
#
# number of rings (size 3 to 8) (size 9 to 14) (size 15 to 20)
#    0.000    1.333    3.333    2.000    4.667    4.667 
#    0.000    0.833    0.000    0.000    0.000    0.000 
#    0.000    0.000    0.000    0.000    0.000    0.000 
#
# Total GULP energy -134283.737842 kJ/mol
# GULP energy per Si atom -5595.155743 kJ/mol
# Density = 2.340907 g / cm^3
# Si number density = 23.462469 Si / 1000 Ang^3
#
#
#
# Elastic Constant Matrix: (Units=GPa)
#
#
# Indices 1 2 3 4 5 6 
#
# 1 135.1752 11.4329 11.6250 0.0000 -7.4467 0.0000
# 2 11.4329 82.2832 8.2293 0.0000 -9.4224 0.0000
# 3 11.6250 8.2293 106.0932 0.0000 -5.7166 0.0000
# 4 0.0000 0.0000 0.0000 27.0927 0.0000 4.9099
# 5 -7.4467 -9.4224 -5.7166 0.0000 42.8061 0.0000
# 6 0.0000 0.0000 0.0000 4.9099 0.0000 19.5282
#
#
#
# Elastic Compliance Matrix: (Units=1/GPa)
#
#
# Indices 1 2 3 4 5 6 
#
# 1 0.007589 -0.000865 -0.000709 0.000000 0.001035 0.000000
# 2 -0.000865 0.012638 -0.000749 0.000000 0.002531 0.000000
# 3 -0.000709 -0.000749 0.009615 0.000000 0.000996 0.000000
# 4 0.000000 0.000000 0.000000 0.038672 0.000000 -0.009723
# 5 0.001035 0.002531 0.000996 0.000000 0.024231 0.000000
# 6 0.000000 0.000000 0.000000 -0.009723 0.000000 0.053653
#
#
# Mechanical properties :
#
#
# Convention : Reuss Voigt Hill
#
# Bulk Modulus (GPa) = 39.68804 42.90288 41.29546
# Shear Modulus (GPa) = 31.35913 37.36970 34.36442
#
# Velocity S-wave (km/s) = 3.65987 3.99525 3.83123
# Velocity P-wave (km/s) = 5.90015 6.29350 6.10000
#
# Compressibility (1/GPa) = 0.02519651
#
# Stress axis : x y z
#
# Youngs Moduli (GPa) = 131.77068 79.12562 104.00318
#
# Poissons Ratio (x) = 0.06845 0.07370
# Poissons Ratio (y) = 0.11399 0.07791
# Poissons Ratio (z) = 0.09338 0.05927
#
# Static dielectric constant tensor:
#      x y z
#    x 1.879750 0.000000 -0.028280 
#    y 0.000000 1.945380 0.000000 
#    z -0.028280 0.000000 1.848550 
# 
# From -- ./inp_files/46610.got.cif
#   From: 2010.05.17/outbox.cif.g08.bks.cpg/sg14_24_cif.got.tgz:46610.got - 2010.06.03 17:49:19.
