data_PCOD9246865
_publ_section_title
;
Structure prediction by ZEFSAII (Michael W. Deem and Ramdas Pophale) SiO2 
 PCOD9246865
Probable space group: P 21/C
;
_chemical_formula_sum "Si O2"
_cell_formula_units_Z 28
_cell_length_a 7.593875
_cell_length_b 8.863909
_cell_length_c 28.261390
_cell_angle_alpha 90.000000
_cell_angle_beta 40.762115
_cell_angle_gamma 90.000000
_cell_volume 1242.058844
_symmetry_space_group_name_H-M "P 21/C"
_symmetry_group_IT_number 14
_symmetry_cell_setting 'monoclinic'
loop_
_space_group_symop_operation_xyz
x,y,z
-x,1/2+y,1/2-z
-x,-y,-z
x,1/2-y,1/2+z
loop_
_atom_site_type_symbol
_atom_site_label
_atom_site_fract_x
_atom_site_fract_y
_atom_site_fract_z
Si Si1 0.891845 0.665496 0.569231
Si Si2 0.873879 0.339988 0.334088
Si Si3 0.019770 0.354518 0.725834
Si Si4 0.126266 0.399371 0.853441
Si Si5 0.958364 0.723472 0.881917
Si Si6 0.310936 0.421459 0.488684
Si Si7 0.529713 0.091910 0.190432
O O1 0.845069 0.828305 0.600919
O O2 0.851032 0.656707 0.521560
O O3 0.682579 0.550748 0.637073
O O4 0.180513 0.586488 0.520500
O O5 0.047799 0.475525 0.276358
O O6 0.614763 0.418366 0.409204
O O7 0.812297 0.226730 0.303365
O O8 0.010743 0.240450 0.346408
O O9 0.295394 0.362663 0.700957
O O10 0.048710 0.260501 0.672134
O O11 0.938475 0.545236 0.892631
O O12 0.388126 0.444936 0.769390
O O13 0.245107 0.782422 0.844639
O O14 0.741191 0.820984 0.954783
#
# Coordination Sequence:
#
# PCOD9246865 Si02
#       7
#     4   4   4   4   4   4   4
#     4  10  21  43  67  94 133 177 223 270 333 397
#     4  11  23  43  67 101 129 174 222 278 337 396
#     4  11  23  42  69  99 133 170 223 278 330 394
#     4  11  24  40  66 100 134 173 220 277 336 390
#     4  11  25  43  66 100 137 173 224 273 331 400
#     4  10  23  43  67  95 129 182 222 266 336 401
#     4  10  21  42  67  99 126 178 225 272 331 394
#
# _framework density 22.543213999999999
#
# number of rings (size 3 to 8) (size 9 to 14) (size 15 to 20)
#    0.000    1.429    1.429    4.286    2.000    4.571 
#    2.571    1.429    0.000    0.000    0.000    0.000 
#    0.000    0.000    0.000    0.000    0.000    0.000 
#
# Total GULP energy -156609.036994 kJ/mol
# GULP energy per Si atom -5593.179893 kJ/mol
# Density = 2.249190 g / cm^3
# Si number density = 22.543214 Si / 1000 Ang^3
#
#
#
# Elastic Constant Matrix: (Units=GPa)
#
#
# Indices 1 2 3 4 5 6 
#
# 1 83.0444 25.2398 13.8699 0.0000 15.9112 0.0000
# 2 25.2398 76.9193 -1.5881 0.0000 6.1085 0.0000
# 3 13.8699 -1.5881 82.3732 0.0000 9.9230 0.0000
# 4 0.0000 0.0000 0.0000 17.4260 0.0000 18.5491
# 5 15.9112 6.1085 9.9230 0.0000 35.5632 0.0000
# 6 0.0000 0.0000 0.0000 18.5491 0.0000 30.8979
#
#
#
# Elastic Compliance Matrix: (Units=1/GPa)
#
#
# Indices 1 2 3 4 5 6 
#
# 1 0.014731 -0.004454 -0.001929 0.000000 -0.005287 0.000000
# 2 -0.004454 0.014551 0.001129 0.000000 -0.000822 0.000000
# 3 -0.001929 0.001129 0.012837 0.000000 -0.002913 0.000000
# 4 0.000000 0.000000 0.000000 0.158974 0.000000 -0.095437
# 5 -0.005287 -0.000822 -0.002913 0.000000 0.031438 0.000000
# 6 0.000000 0.000000 0.000000 -0.095437 0.000000 0.089659
#
#
# Mechanical properties :
#
#
# Convention : Reuss Voigt Hill
#
# Bulk Modulus (GPa) = 31.63378 35.26445 33.44911
# Shear Modulus (GPa) = 14.56734 30.43179 22.49956
#
# Velocity S-wave (km/s) = 2.54480 3.67813 3.16264
# Velocity P-wave (km/s) = 4.76420 5.80648 5.31097
#
# Compressibility (1/GPa) = 0.03161178
#
# Stress axis : x y z
#
# Youngs Moduli (GPa) = 67.88600 68.72579 77.89759
#
# Poissons Ratio (x) = 0.30607 0.15028
# Poissons Ratio (y) = 0.30233 -0.08798
# Poissons Ratio (z) = 0.13097 -0.07762
#
# Static dielectric constant tensor:
#      x y z
#    x 1.896040 0.000000 -0.024730 
#    y 0.000000 1.814040 0.000000 
#    z -0.024730 0.000000 1.837250 
# 
# From -- ./inp_files/79460.got.cif
#   From: 2010.05.17/outbox.cif.g08.bks.cpg/sg14_40_cif.got.tgz:79460.got - 2010.06.03 17:49:19.
