data_PCOD9246557
_publ_section_title
;
Structure prediction by ZEFSAII (Michael W. Deem and Ramdas Pophale) SiO2 
 PCOD9246557
Probable space group: P 21/C
;
_chemical_formula_sum "Si O2"
_cell_formula_units_Z 28
_cell_length_a 6.597597
_cell_length_b 15.778953
_cell_length_c 13.998321
_cell_angle_alpha 90.000000
_cell_angle_beta 119.129506
_cell_angle_gamma 90.000000
_cell_volume 1272.956582
_symmetry_space_group_name_H-M "P 21/C"
_symmetry_group_IT_number 14
_symmetry_cell_setting 'monoclinic'
loop_
_space_group_symop_operation_xyz
x,y,z
-x,1/2+y,1/2-z
-x,-y,-z
x,1/2-y,1/2+z
loop_
_atom_site_type_symbol
_atom_site_label
_atom_site_fract_x
_atom_site_fract_y
_atom_site_fract_z
Si Si1 0.423242 0.135627 0.483206
Si Si2 0.481556 0.692422 0.596255
Si Si3 0.883534 0.025751 0.614893
Si Si4 0.264073 0.146106 0.656188
Si Si5 0.850862 0.029292 0.154234
Si Si6 0.646097 0.579463 0.454345
Si Si7 0.984782 0.815461 0.905444
O O1 0.434077 0.212242 0.410176
O O2 0.666674 0.084948 0.538792
O O3 0.385877 0.166170 0.583690
O O4 0.214505 0.069096 0.419039
O O5 0.565475 0.653579 0.714984
O O6 0.575553 0.636369 0.529590
O O7 0.204154 0.690486 0.525947
O O8 0.114574 0.059459 0.614484
O O9 0.974446 0.027581 0.745289
O O10 0.082306 0.220955 0.636261
O O11 0.941697 0.124647 0.164647
O O12 0.809876 0.991484 0.039326
O O13 0.591553 0.037581 0.137631
O O14 0.773281 0.636475 0.407116
#
# Coordination Sequence:
#
# PCOD9246557 Si02
#       7
#     4   4   4   4   4   4   4
#     4  11  25  45  67  97 135 174 224 274 324 400
#     4  11  23  42  67  98 131 173 222 274 328 391
#     4  11  24  45  67  95 137 176 219 273 330 398
#     4  12  24  42  68  97 132 181 217 269 340 390
#     4  10  22  40  67  96 131 174 214 275 326 395
#     4  10  21  41  65  96 134 164 221 274 322 386
#     4  11  23  41  65  99 133 170 224 274 324 397
#
# _framework density 21.996036
#
# number of rings (size 3 to 8) (size 9 to 14) (size 15 to 20)
#    0.000    1.143    4.286    1.714    2.000    1.143 
#    2.571    0.000    0.000    0.000    0.000    0.000 
#    0.000    0.000    0.000    0.000    0.000    0.000 
#
# Total GULP energy -156362.705938 kJ/mol
# GULP energy per Si atom -5584.382355 kJ/mol
# Density = 2.194597 g / cm^3
# Si number density = 21.996036 Si / 1000 Ang^3
#
#
#
# Elastic Constant Matrix: (Units=GPa)
#
#
# Indices 1 2 3 4 5 6 
#
# 1 41.5539 -4.8115 10.4262 0.0000 1.0769 0.0000
# 2 -4.8115 80.6282 -1.5496 0.0000 5.4528 0.0000
# 3 10.4262 -1.5496 78.2182 0.0000 15.5812 0.0000
# 4 0.0000 0.0000 0.0000 28.7202 0.0000 5.2529
# 5 1.0769 5.4528 15.5812 0.0000 21.2476 0.0000
# 6 0.0000 0.0000 0.0000 5.2529 0.0000 34.4056
#
#
#
# Elastic Compliance Matrix: (Units=1/GPa)
#
#
# Indices 1 2 3 4 5 6 
#
# 1 0.025078 0.001365 -0.003505 0.000000 0.000949 0.000000
# 2 0.001365 0.012770 0.000864 0.000000 -0.003980 0.000000
# 3 -0.003505 0.000864 0.015549 0.000000 -0.011447 0.000000
# 4 0.000000 0.000000 0.000000 0.035819 0.000000 -0.005469
# 5 0.000949 -0.003980 -0.011447 0.000000 0.056431 0.000000
# 6 0.000000 0.000000 0.000000 -0.005469 0.000000 0.029900
#
#
# Mechanical properties :
#
#
# Convention : Reuss Voigt Hill
#
# Bulk Modulus (GPa) = 19.66756 23.17004 21.41880
# Shear Modulus (GPa) = 25.63480 29.96370 27.79925
#
# Velocity S-wave (km/s) = 3.41754 3.69485 3.55890
# Velocity P-wave (km/s) = 4.95314 5.36275 5.16201
#
# Compressibility (1/GPa) = 0.05084515
#
# Stress axis : x y z
#
# Youngs Moduli (GPa) = 39.87563 78.30965 64.31197
#
# Poissons Ratio (x) = -0.10689 0.22540
# Poissons Ratio (y) = -0.05443 -0.05555
# Poissons Ratio (z) = 0.13975 -0.06764
#
# Static dielectric constant tensor:
#      x y z
#    x 1.797700 0.000000 0.015530 
#    y 0.000000 1.850240 0.000000 
#    z 0.015530 0.000000 1.801910 
# 
# From -- ./inp_files/37769.got.cif
#   From: 2010.05.17/outbox.cif.g08.bks.cpg/sg14_19_cif.got.tgz:37769.got - 2010.06.03 17:49:19.
