data_PCOD9246223
_publ_section_title
;
Structure prediction by ZEFSAII (Michael W. Deem and Ramdas Pophale) SiO2 
 PCOD9246223
Probable space group: P 21/C
;
_chemical_formula_sum "Si O2"
_cell_formula_units_Z 16
_cell_length_a 7.903151
_cell_length_b 4.776607
_cell_length_c 18.501479
_cell_angle_alpha 90.000000
_cell_angle_beta 58.685360
_cell_angle_gamma 90.000000
_cell_volume 596.691553
_symmetry_space_group_name_H-M "P 21/C"
_symmetry_group_IT_number 14
_symmetry_cell_setting 'monoclinic'
loop_
_space_group_symop_operation_xyz
x,y,z
-x,1/2+y,1/2-z
-x,-y,-z
x,1/2-y,1/2+z
loop_
_atom_site_type_symbol
_atom_site_label
_atom_site_fract_x
_atom_site_fract_y
_atom_site_fract_z
Si Si1 0.208968 0.417135 0.861450
Si Si2 0.797181 0.140125 0.476751
Si Si3 0.355403 0.720548 0.201606
Si Si4 0.357215 0.294565 0.599093
O O1 0.414561 0.248290 0.824423
O O2 0.230585 0.644387 0.793383
O O3 0.005943 0.241832 0.902192
O O4 0.186630 0.576723 0.942043
O O5 0.586754 0.294705 0.523633
O O6 0.761328 0.856369 0.438440
O O7 0.334656 0.407632 0.175496
O O8 0.306357 0.906122 0.142310
#
# Coordination Sequence:
#
# PCOD9246223 Si02
#       4
#     4   4   4   4
#     4  10  21  40  65  93 125 166 212 261 315 378
#     4   9  21  40  64  92 125 165 211 260 317 378
#     4  11  23  41  64  90 127 166 209 261 316 375
#     4  10  23  43  63  90 127 166 208 261 318 378
#
# _framework density 26.814522
#
# number of rings (size 3 to 8) (size 9 to 14) (size 15 to 20)
#    0.000    2.000    0.000    3.000    0.000   12.000 
#    0.000   15.000    0.000    0.000    0.000    0.000 
#    0.000    0.000    0.000    0.000    0.000    0.000 
#
# Total GULP energy -89570.849721 kJ/mol
# GULP energy per Si atom -5598.178108 kJ/mol
# Density = 2.675349 g / cm^3
# Si number density = 26.814522 Si / 1000 Ang^3
#
#
#
# Elastic Constant Matrix: (Units=GPa)
#
#
# Indices 1 2 3 4 5 6 
#
# 1 56.0039 19.6699 64.0340 0.0000 5.1789 0.0000
# 2 19.6699 82.8718 8.5073 0.0000 -0.6169 0.0000
# 3 64.0340 8.5073 165.4350 0.0000 7.5313 0.0000
# 4 0.0000 0.0000 0.0000 22.8789 0.0000 0.3364
# 5 5.1789 -0.6169 7.5313 0.0000 51.0807 0.0000
# 6 0.0000 0.0000 0.0000 0.3364 0.0000 32.7417
#
#
#
# Elastic Compliance Matrix: (Units=1/GPa)
#
#
# Indices 1 2 3 4 5 6 
#
# 1 0.035913 -0.007156 -0.013453 0.000000 -0.001744 0.000000
# 2 -0.007156 0.013560 0.002046 0.000000 0.000588 0.000000
# 3 -0.013453 0.002046 0.011158 0.000000 -0.000256 0.000000
# 4 0.000000 0.000000 0.000000 0.043715 0.000000 -0.000449
# 5 -0.001744 0.000588 -0.000256 0.000000 0.019799 0.000000
# 6 0.000000 0.000000 0.000000 -0.000449 0.000000 0.030547
#
#
# Mechanical properties :
#
#
# Convention : Reuss Voigt Hill
#
# Bulk Modulus (GPa) = 42.54579 54.30369 48.42474
# Shear Modulus (GPa) = 25.04356 35.48023 30.26189
#
# Velocity S-wave (km/s) = 3.05938 3.64149 3.36305
# Velocity P-wave (km/s) = 5.32737 6.16248 5.76008
#
# Compressibility (1/GPa) = 0.02350409
#
# Stress axis : x y z
#
# Youngs Moduli (GPa) = 27.84540 73.74803 89.61882
#
# Poissons Ratio (x) = 0.52773 1.20565
# Poissons Ratio (y) = 0.19926 -0.18334
# Poissons Ratio (z) = 0.37461 -0.15087
#
# Static dielectric constant tensor:
#      x y z
#    x 2.114510 0.000000 0.007950 
#    y 0.000000 2.098840 0.000000 
#    z 0.007950 0.000000 2.055090 
# 
# From -- ./inp_files/54048.got.cif
#   From: 2010.05.17/outbox.cif.g08.bks.cpg/sg14_28_cif.got.tgz:54048.got - 2010.06.03 17:49:19.
