data_PCOD9246410
_publ_section_title
;
Structure prediction by ZEFSAII (Michael W. Deem and Ramdas Pophale) SiO2 
 PCOD9246410
Probable space group: P 21/C
;
_chemical_formula_sum "Si O2"
_cell_formula_units_Z 32
_cell_length_a 15.580058
_cell_length_b 11.487617
_cell_length_c 19.143660
_cell_angle_alpha 90.000000
_cell_angle_beta 153.137126
_cell_angle_gamma 90.000000
_cell_volume 1548.191824
_symmetry_space_group_name_H-M "P 21/C"
_symmetry_group_IT_number 14
_symmetry_cell_setting 'monoclinic'
loop_
_space_group_symop_operation_xyz
x,y,z
-x,1/2+y,1/2-z
-x,-y,-z
x,1/2-y,1/2+z
loop_
_atom_site_type_symbol
_atom_site_label
_atom_site_fract_x
_atom_site_fract_y
_atom_site_fract_z
Si Si1 0.945032 0.677764 0.259918
Si Si2 0.404520 0.631035 0.211888
Si Si3 0.666620 0.593875 0.778238
Si Si4 0.233627 0.261260 0.018733
Si Si5 0.649105 0.224697 0.471947
Si Si6 0.711439 0.048887 0.641224
Si Si7 0.998950 0.381250 0.455335
Si Si8 0.961926 0.823194 0.404600
O O1 0.853462 0.556742 0.220953
O O2 0.893963 0.776180 0.280379
O O3 0.174347 0.693263 0.423157
O O4 0.870020 0.705354 0.127790
O O5 0.459268 0.515161 0.291875
O O6 0.547253 0.731732 0.338371
O O7 0.411126 0.635214 0.133003
O O8 0.181959 0.644770 0.064003
O O9 0.761022 0.636724 0.919614
O O10 0.532498 0.694250 0.650413
O O11 0.828590 0.576501 0.838365
O O12 0.139630 0.151368 0.992351
O O13 0.705803 0.146978 0.578002
O O14 0.500000 0.000000 0.500000
O O15 0.794446 0.111942 0.769955
O O16 0.000000 0.500000 0.500000
O O17 0.044556 0.282847 0.545069
#
# Coordination Sequence:
#
# PCOD9246410 Si02
#       8
#     4   4   4   4   4   4   4   4
#     4  11  22  41  61  91 128 163 206 267 323 373
#     4  10  22  38  65  85 121 165 207 249 320 378
#     4  10  21  41  61  86 122 164 204 255 313 380
#     4  10  23  39  63  91 125 156 211 259 309 384
#     4  10  23  40  61  95 124 163 212 265 319 387
#     4  12  25  39  66  94 130 168 214 269 325 384
#     4  11  23  41  64  92 124 167 210 259 324 378
#     4  10  22  40  61  89 123 161 209 259 310 392
#
# _framework density 20.669273
#
# number of rings (size 3 to 8) (size 9 to 14) (size 15 to 20)
#    0.000    1.500    2.500    1.875    7.000    1.000 
#    0.000    0.625    0.000    0.000    0.000    0.000 
#    0.000    0.000    0.000    0.000    0.000    0.000 
#
# Total GULP energy -178411.290083 kJ/mol
# GULP energy per Si atom -5575.352815 kJ/mol
# Density = 2.062223 g / cm^3
# Si number density = 20.669273 Si / 1000 Ang^3
#
#
#
# Elastic Constant Matrix: (Units=GPa)
#
#
# Indices 1 2 3 4 5 6 
#
# 1 46.5511 3.3111 7.1402 0.0000 7.8967 0.0000
# 2 3.3111 30.3404 -14.5480 0.0000 0.3774 0.0000
# 3 7.1402 -14.5480 64.1637 0.0000 -5.6138 0.0000
# 4 0.0000 0.0000 0.0000 28.2715 0.0000 3.7837
# 5 7.8967 0.3774 -5.6138 0.0000 33.8212 0.0000
# 6 0.0000 0.0000 0.0000 3.7837 0.0000 24.0233
#
#
#
# Elastic Compliance Matrix: (Units=1/GPa)
#
#
# Indices 1 2 3 4 5 6 
#
# 1 0.023478 -0.004483 -0.004165 0.000000 -0.006123 0.000000
# 2 -0.004483 0.037869 0.009274 0.000000 0.002164 0.000000
# 3 -0.004165 0.009274 0.018496 0.000000 0.003939 0.000000
# 4 0.000000 0.000000 0.000000 0.036133 0.000000 -0.005691
# 5 -0.006123 0.002164 0.003939 0.000000 0.031627 0.000000
# 6 0.000000 0.000000 0.000000 -0.005691 0.000000 0.042523
#
#
# Mechanical properties :
#
#
# Convention : Reuss Voigt Hill
#
# Bulk Modulus (GPa) = 12.33115 14.76242 13.54679
# Shear Modulus (GPa) = 23.15842 26.89999 25.02920
#
# Velocity S-wave (km/s) = 3.35091 3.61147 3.48363
# Velocity P-wave (km/s) = 4.57716 4.95460 4.76961
#
# Compressibility (1/GPa) = 0.08109542
#
# Stress axis : x y z
#
# Youngs Moduli (GPa) = 42.59276 26.40707 54.06579
#
# Poissons Ratio (x) = 0.11838 0.22518
# Poissons Ratio (y) = 0.19095 -0.50142
# Poissons Ratio (z) = 0.17739 -0.24490
#
# Static dielectric constant tensor:
#      x y z
#    x 1.771220 0.000000 0.033540 
#    y 0.000000 1.775410 0.000000 
#    z 0.033540 0.000000 1.758530 
# 
# From -- ./inp_files/59478.got.cif
#   From: 2010.05.17/outbox.cif.g08.bks.cpg/sg14_30_cif.got.tgz:59478.got - 2010.06.03 17:49:19.
