data_PCOD9246539
_publ_section_title
;
Structure prediction by ZEFSAII (Michael W. Deem and Ramdas Pophale) SiO2 
 PCOD9246539
Probable space group: P 21/C
;
_chemical_formula_sum "Si O2"
_cell_formula_units_Z 32
_cell_length_a 12.823577
_cell_length_b 5.436220
_cell_length_c 19.355926
_cell_angle_alpha 90.000000
_cell_angle_beta 108.611126
_cell_angle_gamma 90.000000
_cell_volume 1278.774595
_symmetry_space_group_name_H-M "P 21/C"
_symmetry_group_IT_number 14
_symmetry_cell_setting 'monoclinic'
loop_
_space_group_symop_operation_xyz
x,y,z
-x,1/2+y,1/2-z
-x,-y,-z
x,1/2-y,1/2+z
loop_
_atom_site_type_symbol
_atom_site_label
_atom_site_fract_x
_atom_site_fract_y
_atom_site_fract_z
Si Si1 0.376059 0.219796 0.207043
Si Si2 0.884833 0.455594 0.633752
Si Si3 0.445568 0.246023 0.081128
Si Si4 0.893055 0.107341 0.748107
Si Si5 0.782331 0.063799 0.983395
Si Si6 0.707075 0.752562 0.670198
Si Si7 0.752873 0.286375 0.835535
Si Si8 0.631085 0.134311 0.538890
O O1 0.468433 0.248398 0.167618
O O2 0.383806 0.285881 0.289514
O O3 0.294977 0.441276 0.163509
O O4 0.336267 0.934910 0.194721
O O5 0.901856 0.184798 0.670184
O O6 0.879841 0.534408 0.552322
O O7 0.768346 0.540356 0.641698
O O8 0.988552 0.581352 0.693085
O O9 0.552495 0.166223 0.060029
O O10 0.426861 0.508205 0.039820
O O11 0.329581 0.100518 0.047360
O O12 0.828742 0.296360 0.784341
O O13 0.810177 0.877938 0.732383
O O14 0.741693 0.274230 0.027084
O O15 0.811797 0.180537 0.916511
O O16 0.660549 0.939369 0.603908
#
# Coordination Sequence:
#
# PCOD9246539 Si02
#       8
#     4   4   4   4   4   4   4   4
#     4  10  21  41  65  92 130 178 212 268 333 391
#     4  12  22  37  64  92 126 165 224 270 327 393
#     4  10  22  39  63  94 128 171 215 268 330 389
#     4  11  23  39  62  91 125 171 216 271 330 391
#     4  11  22  39  65  94 131 170 219 273 331 394
#     4  11  22  39  62  90 128 170 216 270 327 391
#     4  10  22  40  66  91 132 172 215 265 336 389
#     4  11  21  38  65  95 124 168 221 272 321 395
#
# _framework density 25.023954
#
# number of rings (size 3 to 8) (size 9 to 14) (size 15 to 20)
#    0.000    1.250    6.250    0.375    0.000    0.500 
#    0.000    3.750    0.000    4.500    0.000    0.000 
#    0.000    0.000    0.000    0.000    0.000    0.000 
#
# Total GULP energy -178388.619447 kJ/mol
# GULP energy per Si atom -5574.644358 kJ/mol
# Density = 2.496700 g / cm^3
# Si number density = 25.023954 Si / 1000 Ang^3
#
#
#
# Elastic Constant Matrix: (Units=GPa)
#
#
# Indices 1 2 3 4 5 6 
#
# 1 52.1566 14.7732 14.1476 0.0000 4.2703 0.0000
# 2 14.7732 56.4969 23.9025 0.0000 8.0279 0.0000
# 3 14.1476 23.9025 126.3391 0.0000 -6.6739 0.0000
# 4 0.0000 0.0000 0.0000 44.2808 0.0000 -1.7691
# 5 4.2703 8.0279 -6.6739 0.0000 48.0195 0.0000
# 6 0.0000 0.0000 0.0000 -1.7691 0.0000 28.6296
#
#
#
# Elastic Compliance Matrix: (Units=1/GPa)
#
#
# Indices 1 2 3 4 5 6 
#
# 1 0.021017 -0.004658 -0.001541 0.000000 -0.001304 0.000000
# 2 -0.004658 0.020967 -0.003635 0.000000 -0.003596 0.000000
# 3 -0.001541 -0.003635 0.008880 0.000000 0.001979 0.000000
# 4 0.000000 0.000000 0.000000 0.022639 0.000000 0.001399
# 5 -0.001304 -0.003596 0.001979 0.000000 0.021817 0.000000
# 6 0.000000 0.000000 0.000000 0.001399 0.000000 0.035015
#
#
# Mechanical properties :
#
#
# Convention : Reuss Voigt Hill
#
# Bulk Modulus (GPa) = 32.05620 37.84881 34.95251
# Shear Modulus (GPa) = 31.17133 36.33060 33.75097
#
# Velocity S-wave (km/s) = 3.53322 3.81443 3.67651
# Velocity P-wave (km/s) = 5.42981 5.87858 5.65865
#
# Compressibility (1/GPa) = 0.03119521
#
# Stress axis : x y z
#
# Youngs Moduli (GPa) = 47.57973 47.69366 112.61168
#
# Poissons Ratio (x) = 0.22218 0.17355
# Poissons Ratio (y) = 0.22164 0.40936
# Poissons Ratio (z) = 0.07333 0.17337
#
# Static dielectric constant tensor:
#      x y z
#    x 2.063120 0.000000 0.101450 
#    y 0.000000 2.115520 0.000000 
#    z 0.101450 0.000000 2.158600 
# 
# From -- ./inp_files/67855.got.cif
#   From: 2010.05.17/outbox.cif.g08.bks.cpg/sg14_34_cif.got.tgz:67855.got - 2010.06.03 17:49:19.
