data_PCOD9246449
_publ_section_title
;
Structure prediction by ZEFSAII (Michael W. Deem and Ramdas Pophale) SiO2 
 PCOD9246449
Probable space group: P 21/C
;
_chemical_formula_sum "Si O2"
_cell_formula_units_Z 24
_cell_length_a 12.676329
_cell_length_b 13.916030
_cell_length_c 14.251834
_cell_angle_alpha 90.000000
_cell_angle_beta 21.076123
_cell_angle_gamma 90.000000
_cell_volume 904.084327
_symmetry_space_group_name_H-M "P 21/C"
_symmetry_group_IT_number 14
_symmetry_cell_setting 'monoclinic'
loop_
_space_group_symop_operation_xyz
x,y,z
-x,1/2+y,1/2-z
-x,-y,-z
x,1/2-y,1/2+z
loop_
_atom_site_type_symbol
_atom_site_label
_atom_site_fract_x
_atom_site_fract_y
_atom_site_fract_z
Si Si1 0.374695 0.153691 0.540033
Si Si2 0.329251 0.960323 0.050985
Si Si3 0.125301 0.153690 0.459971
Si Si4 0.039806 0.153709 0.312586
Si Si5 0.460191 0.153710 0.687416
Si Si6 0.829249 0.039676 0.050987
O O1 0.282985 0.263583 0.603329
O O2 0.500051 0.139870 0.541931
O O3 0.888595 0.121096 0.730976
O O4 0.080463 0.087976 0.779410
O O5 0.141113 0.053961 0.182610
O O6 0.500000 0.000000 0.000000
O O7 0.580468 0.912025 0.779405
O O8 0.999945 0.139869 0.458072
O O9 0.217014 0.263582 0.396673
O O10 0.611401 0.121096 0.269028
O O11 0.749999 0.185817 0.500001
O O12 0.358883 0.053962 0.817394
O O13 0.000000 0.000000 0.000000
#
# Coordination Sequence:
#
# PCOD9246449 Si02
#       6
#     4   4   4   4   4   4
#     4  10  23  42  61  88 125 157 196 251 299 348
#     4  10  21  41  63  85 118 159 199 246 301 351
#     4  10  23  42  61  88 125 157 196 251 299 348
#     4  10  22  39  63  91 120 160 203 243 297 359
#     4  10  22  39  63  91 120 160 203 243 297 359
#     4  10  21  41  63  85 118 159 199 246 301 351
#
# _framework density 26.546195999999998
#
# number of rings (size 3 to 8) (size 9 to 14) (size 15 to 20)
#    0.000    2.000    0.000    4.000    0.000   17.333 
#    0.000   23.333    0.000    0.000    0.000    0.000 
#    0.000    0.000    0.000    0.000    0.000    0.000 
#
# Total GULP energy -134743.949247 kJ/mol
# GULP energy per Si atom -5614.331219 kJ/mol
# Density = 2.648578 g / cm^3
# Si number density = 26.546196 Si / 1000 Ang^3
#
#
#
# Elastic Constant Matrix: (Units=GPa)
#
#
# Indices 1 2 3 4 5 6 
#
# 1 149.0392 31.1427 50.1476 0.0000 -6.4756 0.0000
# 2 31.1427 97.2031 8.9851 0.0000 -11.2226 0.0000
# 3 50.1476 8.9851 116.9931 0.0000 -3.3827 0.0000
# 4 0.0000 0.0000 0.0000 28.8400 0.0000 -8.8048
# 5 -6.4756 -11.2226 -3.3827 0.0000 5.4186 0.0000
# 6 0.0000 0.0000 0.0000 -8.8048 0.0000 23.1853
#
#
#
# Elastic Compliance Matrix: (Units=1/GPa)
#
#
# Indices 1 2 3 4 5 6 
#
# 1 0.008409 -0.001927 -0.003342 0.000000 0.003973 0.000000
# 2 -0.001927 0.013968 0.000533 0.000000 0.026960 0.000000
# 3 -0.003342 0.000533 0.010037 0.000000 0.003375 0.000000
# 4 0.000000 0.000000 0.000000 0.039221 0.000000 0.014895
# 5 0.003973 0.026960 0.003375 0.000000 0.247243 0.000000
# 6 0.000000 0.000000 0.000000 0.014895 0.000000 0.048787
#
#
# Mechanical properties :
#
#
# Convention : Reuss Voigt Hill
#
# Bulk Modulus (GPa) = 43.58651 60.42069 52.00360
# Shear Modulus (GPa) = 12.99430 29.68613 21.34021
#
# Velocity S-wave (km/s) = 2.21486 3.34770 2.83837
# Velocity P-wave (km/s) = 4.79537 6.14433 5.51128
#
# Compressibility (1/GPa) = 0.02294288
#
# Stress axis : x y z
#
# Youngs Moduli (GPa) = 118.91694 71.58977 99.63578
#
# Poissons Ratio (x) = 0.13792 0.33295
# Poissons Ratio (y) = 0.22910 -0.05306
# Poissons Ratio (z) = 0.39738 -0.03813
#
# Static dielectric constant tensor:
#      x y z
#    x 2.152520 0.000000 -0.025960 
#    y 0.000000 2.081950 0.000000 
#    z -0.025960 0.000000 2.054180 
# 
# From -- ./inp_files/29181.got.cif
#   From: 2010.05.17/outbox.cif.g08.bks.cpg/sg14_15_cif.got.tgz:29181.got - 2010.06.03 17:49:19.
