data_PCOD9246588
_publ_section_title
;
Structure prediction by ZEFSAII (Michael W. Deem and Ramdas Pophale) SiO2 
 PCOD9246588
Probable space group: P 21/C
;
_chemical_formula_sum "Si O2"
_cell_formula_units_Z 28
_cell_length_a 13.683624
_cell_length_b 7.294703
_cell_length_c 17.499784
_cell_angle_alpha 90.000000
_cell_angle_beta 42.064490
_cell_angle_gamma 90.000000
_cell_volume 1170.293013
_symmetry_space_group_name_H-M "P 21/C"
_symmetry_group_IT_number 14
_symmetry_cell_setting 'monoclinic'
loop_
_space_group_symop_operation_xyz
x,y,z
-x,1/2+y,1/2-z
-x,-y,-z
x,1/2-y,1/2+z
loop_
_atom_site_type_symbol
_atom_site_label
_atom_site_fract_x
_atom_site_fract_y
_atom_site_fract_z
Si Si1 0.715155 0.799415 0.262612
Si Si2 0.719738 0.577405 0.015083
Si Si3 0.562683 0.027894 0.764108
Si Si4 0.984618 0.909099 0.170621
Si Si5 0.782275 0.931875 0.059713
Si Si6 0.568133 0.325745 0.880019
Si Si7 0.185310 0.780209 0.658933
O O1 0.622593 0.630657 0.284832
O O2 0.854074 0.763111 0.235811
O O3 0.789345 0.886653 0.144134
O O4 0.612473 0.960967 0.353148
O O5 0.631035 0.499310 0.140352
O O6 0.812729 0.743090 0.995596
O O7 0.605949 0.671812 0.022093
O O8 0.793570 0.415599 0.925718
O O9 0.387288 0.021368 0.859582
O O10 0.607113 0.217496 0.779257
O O11 0.081397 0.877601 0.189432
O O12 0.896589 0.098461 0.230286
O O13 0.102216 0.920739 0.035093
O O14 0.657407 0.233135 0.896838
#
# Coordination Sequence:
#
# PCOD9246588 Si02
#       7
#     4   4   4   4   4   4   4
#     4  10  22  40  66  96 129 162 217 265 322 378
#     4  10  21  41  66  97 126 162 216 269 324 377
#     4  10  22  40  72 100 122 162 218 278 316 372
#     4  11  25  41  62  88 133 177 209 259 323 392
#     4  10  21  41  66  97 126 162 216 269 324 377
#     4  10  22  40  66  96 129 162 217 265 322 378
#     4  11  25  41  62  88 133 177 209 259 323 392
#
# _framework density 23.925630999999999
#
# number of rings (size 3 to 8) (size 9 to 14) (size 15 to 20)
#    0.000    1.714    1.429    1.714    6.000    0.000 
#    0.000    2.857    0.000    0.000    0.000    0.000 
#    0.000    0.000    0.000    0.000    0.000    0.000 
#
# Total GULP energy -156504.140422 kJ/mol
# GULP energy per Si atom -5589.433586 kJ/mol
# Density = 2.387118 g / cm^3
# Si number density = 23.925631 Si / 1000 Ang^3
#
#
#
# Elastic Constant Matrix: (Units=GPa)
#
#
# Indices 1 2 3 4 5 6 
#
# 1 75.4975 18.6736 1.5551 0.0000 -0.7957 0.0000
# 2 18.6736 44.0219 7.1325 0.0000 -1.9893 0.0000
# 3 1.5551 7.1325 64.4480 0.0000 -7.3693 0.0000
# 4 0.0000 0.0000 0.0000 27.1875 0.0000 6.2726
# 5 -0.7957 -1.9893 -7.3693 0.0000 21.7357 0.0000
# 6 0.0000 0.0000 0.0000 6.2726 0.0000 33.4467
#
#
#
# Elastic Compliance Matrix: (Units=1/GPa)
#
#
# Indices 1 2 3 4 5 6 
#
# 1 0.014806 -0.006334 0.000353 0.000000 0.000082 0.000000
# 2 -0.006334 0.025876 -0.002566 0.000000 0.001266 0.000000
# 3 0.000353 -0.002566 0.016402 0.000000 0.005339 0.000000
# 4 0.000000 0.000000 0.000000 0.038445 0.000000 -0.007210
# 5 0.000082 0.001266 0.005339 0.000000 0.047936 0.000000
# 6 0.000000 0.000000 0.000000 -0.007210 0.000000 0.031250
#
#
# Mechanical properties :
#
#
# Convention : Reuss Voigt Hill
#
# Bulk Modulus (GPa) = 25.00622 26.52109 25.76366
# Shear Modulus (GPa) = 24.37369 26.91441 25.64405
#
# Velocity S-wave (km/s) = 3.19521 3.35762 3.27742
# Velocity P-wave (km/s) = 4.90784 5.11276 5.01135
#
# Compressibility (1/GPa) = 0.03999005
#
# Stress axis : x y z
#
# Youngs Moduli (GPa) = 67.54157 38.64628 60.96690
#
# Poissons Ratio (x) = 0.24478 -0.02153
# Poissons Ratio (y) = 0.42780 0.15644
# Poissons Ratio (z) = -0.02385 0.09917
#
# Static dielectric constant tensor:
#      x y z
#    x 1.927420 0.000000 0.022390 
#    y 0.000000 1.927530 0.000000 
#    z 0.022390 0.000000 1.928520 
# 
# From -- ./inp_files/59033.got.cif
#   From: 2010.05.17/outbox.cif.g08.bks.cpg/sg14_30_cif.got.tgz:59033.got - 2010.06.03 17:49:19.
