data_PCOD9246501
_publ_section_title
;
Structure prediction by ZEFSAII (Michael W. Deem and Ramdas Pophale) SiO2 
 PCOD9246501
Probable space group: P 21/C
;
_chemical_formula_sum "Si O2"
_cell_formula_units_Z 24
_cell_length_a 7.580367
_cell_length_b 10.468784
_cell_length_c 19.670993
_cell_angle_alpha 90.000000
_cell_angle_beta 38.247232
_cell_angle_gamma 90.000000
_cell_volume 966.368353
_symmetry_space_group_name_H-M "P 21/C"
_symmetry_group_IT_number 14
_symmetry_cell_setting 'monoclinic'
loop_
_space_group_symop_operation_xyz
x,y,z
-x,1/2+y,1/2-z
-x,-y,-z
x,1/2-y,1/2+z
loop_
_atom_site_type_symbol
_atom_site_label
_atom_site_fract_x
_atom_site_fract_y
_atom_site_fract_z
Si Si1 0.040317 0.346504 0.079177
Si Si2 0.432227 0.365518 0.647852
Si Si3 0.089123 0.901587 0.617711
Si Si4 0.950890 0.809862 0.050600
Si Si5 0.559957 0.906397 0.285529
Si Si6 0.906731 0.145948 0.232841
O O1 0.218313 0.463560 0.055716
O O2 0.777755 0.411500 0.118641
O O3 0.912855 0.263108 0.179476
O O4 0.161783 0.250833 0.985377
O O5 0.243142 0.433085 0.762625
O O6 0.765170 0.394094 0.548404
O O7 0.389389 0.215106 0.679885
O O8 0.244014 0.392304 0.638070
O O9 0.080622 0.799898 0.560879
O O10 0.184063 0.838654 0.660464
O O11 0.708634 0.870892 0.169484
O O12 0.711711 0.033056 0.264736
#
# Coordination Sequence:
#
# PCOD9246501 Si02
#       6
#     4   4   4   4   4   4
#     4  11  23  41  63  93 125 163 211 255 307 372
#     4   8  20  40  62  89 124 157 209 255 302 368
#     4   9  21  41  65  85 127 165 203 256 305 365
#     4  10  21  41  64  92 127 160 208 258 306 368
#     4  10  22  39  64  89 129 163 202 258 315 362
#     4  10  22  40  64  87 126 167 202 252 316 360
#
# _framework density 24.835249000000001
#
# number of rings (size 3 to 8) (size 9 to 14) (size 15 to 20)
#    1.000    1.333    0.000    1.500    7.000    1.333 
#    3.000    4.167    0.000    0.000    0.000    0.000 
#    0.000    0.000    0.000    0.000    0.000    0.000 
#
# Total GULP energy -133992.569225 kJ/mol
# GULP energy per Si atom -5583.023718 kJ/mol
# Density = 2.477872 g / cm^3
# Si number density = 24.835249 Si / 1000 Ang^3
#
#
#
# Elastic Constant Matrix: (Units=GPa)
#
#
# Indices 1 2 3 4 5 6 
#
# 1 119.4489 37.4259 28.6599 0.0000 18.9971 0.0000
# 2 37.4259 53.5058 -4.7580 0.0000 3.5999 0.0000
# 3 28.6599 -4.7580 107.2181 0.0000 -0.3347 0.0000
# 4 0.0000 0.0000 0.0000 25.6160 0.0000 -8.3782
# 5 18.9971 3.5999 -0.3347 0.0000 47.1405 0.0000
# 6 0.0000 0.0000 0.0000 -8.3782 0.0000 12.9778
#
#
#
# Elastic Compliance Matrix: (Units=1/GPa)
#
#
# Indices 1 2 3 4 5 6 
#
# 1 0.012838 -0.009018 -0.003846 0.000000 -0.004512 0.000000
# 2 -0.009018 0.025195 0.003534 0.000000 0.001735 0.000000
# 3 -0.003846 0.003534 0.010516 0.000000 0.001355 0.000000
# 4 0.000000 0.000000 0.000000 0.049487 0.000000 0.031948
# 5 -0.004512 0.001735 0.001355 0.000000 0.022909 0.000000
# 6 0.000000 0.000000 0.000000 0.031948 0.000000 0.097679
#
#
# Mechanical properties :
#
#
# Convention : Reuss Voigt Hill
#
# Bulk Modulus (GPa) = 33.45729 44.75870 39.10800
# Shear Modulus (GPa) = 20.22274 31.73652 25.97963
#
# Velocity S-wave (km/s) = 2.85665 3.57863 3.23782
# Velocity P-wave (km/s) = 4.93777 5.92763 5.45520
#
# Compressibility (1/GPa) = 0.02988885
#
# Stress axis : x y z
#
# Youngs Moduli (GPa) = 77.89559 39.69042 95.09441
#
# Poissons Ratio (x) = 0.35793 0.36572
# Poissons Ratio (y) = 0.70247 -0.33607
# Poissons Ratio (z) = 0.29958 -0.14027
#
# Static dielectric constant tensor:
#      x y z
#    x 2.013000 0.000000 -0.012120 
#    y 0.000000 1.985760 0.000000 
#    z -0.012120 0.000000 1.984380 
# 
# From -- ./inp_files/76600.got.cif
#   From: 2010.05.17/outbox.cif.g08.bks.cpg/sg14_39_cif.got.tgz:76600.got - 2010.06.03 17:49:19.
