data_PCOD9246495
_publ_section_title
;
Structure prediction by ZEFSAII (Michael W. Deem and Ramdas Pophale) SiO2 
 PCOD9246495
Probable space group: P 21/C
;
_chemical_formula_sum "Si O2"
_cell_formula_units_Z 32
_cell_length_a 20.846478
_cell_length_b 11.465114
_cell_length_c 15.763667
_cell_angle_alpha 90.000000
_cell_angle_beta 159.804790
_cell_angle_gamma 90.000000
_cell_volume 1300.660468
_symmetry_space_group_name_H-M "P 21/C"
_symmetry_group_IT_number 14
_symmetry_cell_setting 'monoclinic'
loop_
_space_group_symop_operation_xyz
x,y,z
-x,1/2+y,1/2-z
-x,-y,-z
x,1/2-y,1/2+z
loop_
_atom_site_type_symbol
_atom_site_label
_atom_site_fract_x
_atom_site_fract_y
_atom_site_fract_z
Si Si1 0.158390 0.422033 0.450928
Si Si2 0.345899 0.079811 0.916321
Si Si3 0.760770 0.404833 0.588112
Si Si4 0.444708 0.188817 0.594872
Si Si5 0.198682 0.543069 0.778914
Si Si6 0.164167 0.328910 0.023745
Si Si7 0.342135 0.901535 0.292752
Si Si8 0.769928 0.457877 0.990668
O O1 0.266896 0.481356 0.508384
O O2 0.218375 0.303000 0.569668
O O3 0.176981 0.525055 0.543622
O O4 0.944796 0.403673 0.157727
O O5 0.289478 0.111401 0.751351
O O6 0.244215 0.965282 0.826521
O O7 0.312232 0.199890 0.926760
O O8 0.564693 0.062688 0.203395
O O9 0.584756 0.324470 0.347445
O O10 0.953740 0.346245 0.798257
O O11 0.326165 0.071992 0.440193
O O12 0.577439 0.188890 0.675174
O O13 0.278940 0.632322 0.808300
O O14 0.000000 0.500000 0.500000
O O15 0.202891 0.585828 0.880076
O O16 0.193707 0.404244 0.975798
O O17 0.500000 0.000000 0.500000
#
# Coordination Sequence:
#
# PCOD9246495 Si02
#       8
#     4   4   4   4   4   4   4   4
#     4  10  21  41  64  91 126 169 207 267 327 378
#     4  12  24  43  66  92 130 176 219 260 325 388
#     4  10  23  42  67  94 130 170 217 274 323 380
#     4  10  22  41  64  95 126 167 210 267 326 389
#     4  11  20  37  64  93 128 157 206 269 323 370
#     4  11  24  43  66  88 131 176 219 260 323 390
#     4   9  18  35  61  92 126 154 196 259 326 367
#     4  11  24  41  62  95 130 165 213 270 314 379
#
# _framework density 24.602885000000001
#
# number of rings (size 3 to 8) (size 9 to 14) (size 15 to 20)
#    0.000    1.500    2.500    3.000    1.750    0.000 
#    0.000    0.000    2.750    0.000    0.000    0.000 
#    0.000    0.000    0.000    0.000    0.000    0.000 
#
# Total GULP energy -178796.004524 kJ/mol
# GULP energy per Si atom -5587.375141 kJ/mol
# Density = 2.454689 g / cm^3
# Si number density = 24.602885 Si / 1000 Ang^3
#
#
#
# Elastic Constant Matrix: (Units=GPa)
#
#
# Indices 1 2 3 4 5 6 
#
# 1 54.5863 19.0789 3.1182 0.0000 -12.2167 0.0000
# 2 19.0789 73.3771 -9.2092 0.0000 -6.3974 0.0000
# 3 3.1182 -9.2092 116.8303 0.0000 -5.5878 0.0000
# 4 0.0000 0.0000 0.0000 24.6115 0.0000 -1.9040
# 5 -12.2167 -6.3974 -5.5878 0.0000 28.3609 0.0000
# 6 0.0000 0.0000 0.0000 -1.9040 0.0000 22.8630
#
#
#
# Elastic Compliance Matrix: (Units=1/GPa)
#
#
# Indices 1 2 3 4 5 6 
#
# 1 0.021960 -0.005070 -0.000594 0.000000 0.008199 0.000000
# 2 -0.005070 0.015257 0.001411 0.000000 0.001536 0.000000
# 3 -0.000594 0.001411 0.008772 0.000000 0.001791 0.000000
# 4 0.000000 0.000000 0.000000 0.040895 0.000000 0.003406
# 5 0.008199 0.001536 0.001791 0.000000 0.039491 0.000000
# 6 0.000000 0.000000 0.000000 0.003406 0.000000 0.044022
#
#
# Mechanical properties :
#
#
# Convention : Reuss Voigt Hill
#
# Bulk Modulus (GPa) = 26.67624 30.08551 28.38088
# Shear Modulus (GPa) = 26.12367 30.62081 28.37224
#
# Velocity S-wave (km/s) = 3.26208 3.53172 3.39958
# Velocity P-wave (km/s) = 5.00545 5.37454 5.19328
#
# Compressibility (1/GPa) = 0.03748654
#
# Stress axis : x y z
#
# Youngs Moduli (GPa) = 45.53639 65.54179 113.99663
#
# Poissons Ratio (x) = 0.33227 0.06767
# Poissons Ratio (y) = 0.23085 -0.16090
# Poissons Ratio (z) = 0.02703 -0.09251
#
# Static dielectric constant tensor:
#      x y z
#    x 2.030890 0.000000 -0.009220 
#    y 0.000000 1.985700 0.000000 
#    z -0.009220 0.000000 1.976410 
# 
# From -- ./inp_files/62012.got.cif
#   From: 2010.05.17/outbox.cif.g08.bks.cpg/sg14_32_cif.got.tgz:62012.got - 2010.06.03 17:49:19.
