data_PCOD9246207
_publ_section_title
;
Structure prediction by ZEFSAII (Michael W. Deem and Ramdas Pophale) SiO2 
 PCOD9246207
Probable space group: P 21/C
;
_chemical_formula_sum "Si O2"
_cell_formula_units_Z 24
_cell_length_a 6.592687
_cell_length_b 14.581972
_cell_length_c 10.615356
_cell_angle_alpha 90.000000
_cell_angle_beta 100.455419
_cell_angle_gamma 90.000000
_cell_volume 1003.556659
_symmetry_space_group_name_H-M "P 21/C"
_symmetry_group_IT_number 14
_symmetry_cell_setting 'monoclinic'
loop_
_space_group_symop_operation_xyz
x,y,z
-x,1/2+y,1/2-z
-x,-y,-z
x,1/2-y,1/2+z
loop_
_atom_site_type_symbol
_atom_site_label
_atom_site_fract_x
_atom_site_fract_y
_atom_site_fract_z
Si Si1 0.397979 0.746823 0.667977
Si Si2 0.021313 0.509567 0.700800
Si Si3 0.163961 0.585875 0.119735
Si Si4 0.255722 0.185225 0.469308
Si Si5 0.986807 0.341313 0.510216
Si Si6 0.628997 0.406972 0.126401
O O1 0.332304 0.848662 0.700662
O O2 0.611352 0.759667 0.619077
O O3 0.373938 0.682842 0.785725
O O4 0.229724 0.708694 0.547021
O O5 0.871668 0.505283 0.804838
O O6 0.969066 0.597272 0.609446
O O7 0.981878 0.417207 0.617939
O O8 0.261682 0.519385 0.769882
O O9 0.227807 0.586288 0.981278
O O10 0.945206 0.636502 0.107213
O O11 0.159133 0.263109 0.549754
O O12 0.402324 0.105099 0.541349
#
# Coordination Sequence:
#
# PCOD9246207 Si02
#       6
#     4   4   4   4   4   4
#     4   9  21  39  61  90 123 163 211 250 294 376
#     4  10  21  40  65  90 128 164 201 257 314 362
#     4  10  22  37  63  89 124 168 201 252 311 362
#     4  10  22  38  63  93 119 163 208 250 306 371
#     4   9  21  42  63  89 123 167 207 249 309 363
#     4  10  22  40  60  94 126 156 209 257 305 368
#
# _framework density 23.914942
#
# number of rings (size 3 to 8) (size 9 to 14) (size 15 to 20)
#    0.000    2.333    0.000    0.500    9.333    3.333 
#    0.000   15.833    0.000    0.000    0.000    0.000 
#    0.000    0.000    0.000    0.000    0.000    0.000 
#
# Total GULP energy -133908.144060 kJ/mol
# GULP energy per Si atom -5579.506002 kJ/mol
# Density = 2.386051 g / cm^3
# Si number density = 23.914942 Si / 1000 Ang^3
#
#
#
# Elastic Constant Matrix: (Units=GPa)
#
#
# Indices 1 2 3 4 5 6 
#
# 1 115.6698 29.4895 46.4455 0.0000 -14.8576 0.0000
# 2 29.4895 64.4501 21.6905 0.0000 -9.4868 0.0000
# 3 46.4455 21.6905 80.8049 0.0000 -11.9838 0.0000
# 4 0.0000 0.0000 0.0000 41.1433 0.0000 -8.3410
# 5 -14.8576 -9.4868 -11.9838 0.0000 22.2316 0.0000
# 6 0.0000 0.0000 0.0000 -8.3410 0.0000 39.6922
#
#
#
# Elastic Compliance Matrix: (Units=1/GPa)
#
#
# Indices 1 2 3 4 5 6 
#
# 1 0.012177 -0.003131 -0.005598 0.000000 0.003785 0.000000
# 2 -0.003131 0.018440 -0.002493 0.000000 0.004433 0.000000
# 3 -0.005598 -0.002493 0.016901 0.000000 0.004305 0.000000
# 4 0.000000 0.000000 0.000000 0.025387 0.000000 0.005335
# 5 0.003785 0.004433 0.004305 0.000000 0.051723 0.000000
# 6 0.000000 0.000000 0.000000 0.005335 0.000000 0.026315
#
#
# Mechanical properties :
#
#
# Convention : Reuss Voigt Hill
#
# Bulk Modulus (GPa) = 39.88017 50.68618 45.28318
# Shear Modulus (GPa) = 27.51132 31.50004 29.50568
#
# Velocity S-wave (km/s) = 3.39541 3.63322 3.51633
# Velocity P-wave (km/s) = 5.66425 6.23224 5.95502
#
# Compressibility (1/GPa) = 0.02507512
#
# Stress axis : x y z
#
# Youngs Moduli (GPa) = 82.12017 54.23042 59.16954
#
# Poissons Ratio (x) = 0.16978 0.33121
# Poissons Ratio (y) = 0.25710 0.14750
# Poissons Ratio (z) = 0.45968 0.13519
#
# Static dielectric constant tensor:
#      x y z
#    x 1.897400 0.000000 0.001190 
#    y 0.000000 1.943820 0.000000 
#    z 0.001190 0.000000 1.991510 
# 
# From -- ./inp_files/21308.got.cif
#   From: 2010.05.17/outbox.cif.g08.bks.cpg/sg14_11_cif.got.tgz:21308.got - 2010.06.03 17:49:19.
