data_PCOD9246171
_publ_section_title
;
Structure prediction by ZEFSAII (Michael W. Deem and Ramdas Pophale) SiO2 
 PCOD9246171
Probable space group: P 21/C
;
_chemical_formula_sum "Si O2"
_cell_formula_units_Z 28
_cell_length_a 30.894070
_cell_length_b 7.965335
_cell_length_c 29.748966
_cell_angle_alpha 90.000000
_cell_angle_beta 10.057855
_cell_angle_gamma 90.000000
_cell_volume 1278.500813
_symmetry_space_group_name_H-M "P 21/C"
_symmetry_group_IT_number 14
_symmetry_cell_setting 'monoclinic'
loop_
_space_group_symop_operation_xyz
x,y,z
-x,1/2+y,1/2-z
-x,-y,-z
x,1/2-y,1/2+z
loop_
_atom_site_type_symbol
_atom_site_label
_atom_site_fract_x
_atom_site_fract_y
_atom_site_fract_z
Si Si1 0.236043 0.282225 0.538224
Si Si2 0.227543 0.877413 0.552682
Si Si3 0.834106 0.861749 0.647726
Si Si4 0.203073 0.613322 0.267986
Si Si5 0.502987 0.179471 0.442637
Si Si6 0.626096 0.497219 0.274095
Si Si7 0.836260 0.423508 0.314596
O O1 0.504234 0.322955 0.241740
O O2 0.212324 0.416881 0.602705
O O3 0.225868 0.081518 0.560400
O O4 0.002504 0.325956 0.744601
O O5 0.191388 0.756392 0.632685
O O6 0.731934 0.775123 0.797008
O O7 0.026922 0.743457 0.423652
O O8 0.637684 0.930601 0.813131
O O9 0.000000 0.000000 0.500000
O O10 0.404489 0.507820 0.034089
O O11 0.000000 0.500000 0.500000
O O12 0.337847 0.679514 0.174643
O O13 0.619413 0.294012 0.285649
O O14 0.381571 0.558380 0.499306
O O15 0.881490 0.552117 0.990222
#
# Coordination Sequence:
#
# PCOD9246171 Si02
#       7
#     4   4   4   4   4   4   4
#     4  12  23  46  80 105 137 180 231 285 334 426
#     4  12  23  46  80 107 134 181 234 279 334 437
#     4  11  21  39  68  90 122 186 242 275 337 411
#     4   9  20  37  62  92 118 161 263 283 320 399
#     4  10  21  40  64  91 125 185 238 283 340 405
#     4  12  26  42  67  95 151 177 222 302 355 407
#     4  12  27  45  68 111 145 180 228 286 368 408
#
# _framework density 21.900649999999999
#
# number of rings (size 3 to 8) (size 9 to 14) (size 15 to 20)
#    0.000    0.857    4.286    3.000    4.000    0.000 
#    2.571    0.000    0.000    0.000    0.000    0.000 
#    0.000    0.000    0.000    0.000    0.000    0.000 
#
# Total GULP energy -156160.599228 kJ/mol
# GULP energy per Si atom -5577.164258 kJ/mol
# Density = 2.185080 g / cm^3
# Si number density = 21.900650 Si / 1000 Ang^3
#
#
#
# Elastic Constant Matrix: (Units=GPa)
#
#
# Indices 1 2 3 4 5 6 
#
# 1 55.4037 17.5418 18.5512 0.0000 -17.2434 0.0000
# 2 17.5418 116.2762 22.5724 0.0000 -10.0841 0.0000
# 3 18.5512 22.5724 119.7067 0.0000 -6.1095 0.0000
# 4 0.0000 0.0000 0.0000 52.9420 0.0000 5.2798
# 5 -17.2434 -10.0841 -6.1095 0.0000 48.4671 0.0000
# 6 0.0000 0.0000 0.0000 5.2798 0.0000 45.3558
#
#
#
# Elastic Compliance Matrix: (Units=1/GPa)
#
#
# Indices 1 2 3 4 5 6 
#
# 1 0.021780 -0.002175 -0.002610 0.000000 0.006967 0.000000
# 2 -0.002175 0.009278 -0.001362 0.000000 0.000985 0.000000
# 3 -0.002610 -0.001362 0.009011 0.000000 -0.000076 0.000000
# 4 0.000000 0.000000 0.000000 0.019110 0.000000 -0.002225
# 5 0.006967 0.000985 -0.000076 0.000000 0.023307 0.000000
# 6 0.000000 0.000000 0.000000 -0.002225 0.000000 0.022307
#
#
# Mechanical properties :
#
#
# Convention : Reuss Voigt Hill
#
# Bulk Modulus (GPa) = 36.00231 45.41305 40.70768
# Shear Modulus (GPa) = 39.57390 44.86773 42.22082
#
# Velocity S-wave (km/s) = 4.25546 4.53116 4.39547
# Velocity P-wave (km/s) = 6.37337 6.93946 6.66243
#
# Compressibility (1/GPa) = 0.02777599
#
# Stress axis : x y z
#
# Youngs Moduli (GPa) = 45.91315 107.77955 110.97361
#
# Poissons Ratio (x) = 0.23442 0.28960
# Poissons Ratio (y) = 0.09986 0.15117
# Poissons Ratio (z) = 0.11982 0.14682
#
# Static dielectric constant tensor:
#      x y z
#    x 1.783150 0.000000 0.021610 
#    y 0.000000 1.965900 0.000000 
#    z 0.021610 0.000000 1.786790 
# 
# From -- ./inp_files/80956.got.cif
#   From: 2010.05.17/outbox.cif.g08.bks.cpg/sg14_41_cif.got.tgz:80956.got - 2010.06.03 17:49:19.
