data_PCOD9246161
_publ_section_title
;
Structure prediction by ZEFSAII (Michael W. Deem and Ramdas Pophale) SiO2 
 PCOD9246161
Probable space group: P 21/C
;
_chemical_formula_sum "Si O2"
_cell_formula_units_Z 20
_cell_length_a 5.414973
_cell_length_b 15.091152
_cell_length_c 9.536400
_cell_angle_alpha 90.000000
_cell_angle_beta 89.908942
_cell_angle_gamma 90.000000
_cell_volume 779.296273
_symmetry_space_group_name_H-M "P 21/C"
_symmetry_group_IT_number 14
_symmetry_cell_setting 'monoclinic'
loop_
_space_group_symop_operation_xyz
x,y,z
-x,1/2+y,1/2-z
-x,-y,-z
x,1/2-y,1/2+z
loop_
_atom_site_type_symbol
_atom_site_label
_atom_site_fract_x
_atom_site_fract_y
_atom_site_fract_z
Si Si1 0.855416 0.738477 0.274574
Si Si2 0.036015 0.854473 0.498476
Si Si3 0.976762 0.893926 0.003608
Si Si4 0.477423 0.580319 0.609969
Si Si5 0.463714 0.385757 0.094314
O O1 0.055659 0.801261 0.350935
O O2 0.890570 0.645714 0.357775
O O3 0.610433 0.788171 0.338270
O O4 0.925427 0.709074 0.118398
O O5 0.800774 0.917622 0.466792
O O6 0.318099 0.882245 0.519466
O O7 0.747800 0.875243 0.106469
O O8 0.246041 0.863894 0.054645
O O9 0.000000 0.000000 0.000000
O O10 0.500000 0.500000 0.500000
O O11 0.444948 0.557112 0.772637
#
# Coordination Sequence:
#
# PCOD9246161 Si02
#       5
#     4   4   4   4   4
#     4  10  24  38  63  92 132 166 209 273 321 376
#     4  10  24  35  61  93 130 159 209 270 329 369
#     4  10  22  37  64  90 123 169 223 249 314 389
#     4  10  21  40  64  90 121 170 216 258 308 396
#     4  10  23  36  61  95 125 162 216 261 324 375
#
# _framework density 25.664182
#
# number of rings (size 3 to 8) (size 9 to 14) (size 15 to 20)
#    1.200    0.800    0.000    2.400    8.400    0.000 
#    0.000    0.000    0.000   28.800    0.000    0.000 
#    0.000    0.000    0.000    0.000    0.000    0.000 
#
# Total GULP energy -111340.865151 kJ/mol
# GULP energy per Si atom -5567.043258 kJ/mol
# Density = 2.560577 g / cm^3
# Si number density = 25.664182 Si / 1000 Ang^3
#
#
#
# Elastic Constant Matrix: (Units=GPa)
#
#
# Indices 1 2 3 4 5 6 
#
# 1 202.9536 21.4008 18.5972 0.0000 -21.6005 0.0000
# 2 21.4008 74.4258 19.0371 0.0000 -9.4944 0.0000
# 3 18.5972 19.0371 78.6180 0.0000 -4.7237 0.0000
# 4 0.0000 0.0000 0.0000 37.1151 0.0000 4.6902
# 5 -21.6005 -9.4944 -4.7237 0.0000 29.2117 0.0000
# 6 0.0000 0.0000 0.0000 4.6902 0.0000 10.2360
#
#
#
# Elastic Compliance Matrix: (Units=1/GPa)
#
#
# Indices 1 2 3 4 5 6 
#
# 1 0.005487 -0.000894 -0.000863 0.000000 0.003627 0.000000
# 2 -0.000894 0.014981 -0.003194 0.000000 0.003692 0.000000
# 3 -0.000863 -0.003194 0.013730 0.000000 0.000544 0.000000
# 4 0.000000 0.000000 0.000000 0.028599 0.000000 -0.013104
# 5 0.003627 0.003692 0.000544 0.000000 0.038202 0.000000
# 6 0.000000 0.000000 0.000000 -0.013104 0.000000 0.103699
#
#
# Mechanical properties :
#
#
# Convention : Reuss Voigt Hill
#
# Bulk Modulus (GPa) = 41.16206 52.67416 46.91811
# Shear Modulus (GPa) = 22.45164 35.11003 28.78083
#
# Velocity S-wave (km/s) = 2.96095 3.70274 3.35242
# Velocity P-wave (km/s) = 5.26908 6.23292 5.77116
#
# Compressibility (1/GPa) = 0.02429422
#
# Stress axis : x y z
#
# Youngs Moduli (GPa) = 182.26077 66.74990 72.83246
#
# Poissons Ratio (x) = 0.05968 0.06289
# Poissons Ratio (y) = 0.16296 0.23265
# Poissons Ratio (z) = 0.15737 0.21322
#
# Static dielectric constant tensor:
#      x y z
#    x 2.127600 0.000000 -0.071470 
#    y 0.000000 2.869200 0.000000 
#    z -0.071470 0.000000 1.698110 
# 
# From -- ./inp_files/5750.got.cif
#   From: 2010.05.17/outbox.cif.g08.bks.cpg/sg14_3_cif.got.tgz:5750.got - 2010.06.03 17:49:19.
