data_PCOD9246075
_publ_section_title
;
Structure prediction by ZEFSAII (Michael W. Deem and Ramdas Pophale) SiO2 
 PCOD9246075
Probable space group: P 21/C
;
_chemical_formula_sum "Si O2"
_cell_formula_units_Z 32
_cell_length_a 14.782626
_cell_length_b 16.700227
_cell_length_c 17.661064
_cell_angle_alpha 90.000000
_cell_angle_beta 22.012958
_cell_angle_gamma 90.000000
_cell_volume 1634.215288
_symmetry_space_group_name_H-M "P 21/C"
_symmetry_group_IT_number 14
_symmetry_cell_setting 'monoclinic'
loop_
_space_group_symop_operation_xyz
x,y,z
-x,1/2+y,1/2-z
-x,-y,-z
x,1/2-y,1/2+z
loop_
_atom_site_type_symbol
_atom_site_label
_atom_site_fract_x
_atom_site_fract_y
_atom_site_fract_z
Si Si1 0.444744 0.906198 0.871189
Si Si2 0.054873 0.464796 0.717248
Si Si3 0.890203 0.720733 0.345102
Si Si4 0.277945 0.816832 0.142457
Si Si5 0.406183 0.788102 0.681930
Si Si6 0.952519 0.318279 0.420766
Si Si7 0.975304 0.537144 0.936444
Si Si8 0.660456 0.940905 0.425054
O O1 0.448110 0.851672 0.944302
O O2 0.277692 0.860892 0.940226
O O3 0.707791 0.926374 0.637637
O O4 0.296931 0.986438 0.007979
O O5 0.835673 0.510500 0.845381
O O6 0.069412 0.373396 0.680851
O O7 0.016466 0.474056 0.836910
O O8 0.611700 0.744705 0.571987
O O9 0.060702 0.770526 0.268831
O O10 0.958464 0.752010 0.207894
O O11 0.397290 0.757318 0.108993
O O12 0.166740 0.892314 0.273044
O O13 0.492390 0.878798 0.600853
O O14 0.147849 0.785562 0.922840
O O15 0.162496 0.384543 0.262326
O O16 0.000000 0.500000 0.000000
O O17 0.500000 0.000000 0.500000
#
# Coordination Sequence:
#
# PCOD9246075 Si02
#       8
#     4   4   4   4   4   4   4   4
#     4   9  20  40  58  81 120 158 191 247 300 351
#     4  10  22  38  61  88 118 157 205 245 305 365
#     4  10  22  39  59  84 120 156 197 249 300 362
#     4  10  23  39  58  87 120 158 201 245 308 362
#     4  11  22  37  63  84 119 155 199 249 303 358
#     4   9  20  38  60  84 114 156 197 241 300 355
#     4  11  24  36  60  86 122 153 203 249 297 362
#     4  10  21  40  62  87 120 156 201 254 303 361
#
# _framework density 19.581263
#
# number of rings (size 3 to 8) (size 9 to 14) (size 15 to 20)
#    0.000    2.000    0.000    4.500    5.250    2.500 
#    0.000    2.500    0.000    0.000    0.000    0.000 
#    0.000    0.000    0.000    0.000    0.000    0.000 
#
# Total GULP energy -178780.506991 kJ/mol
# GULP energy per Si atom -5586.890843 kJ/mol
# Density = 1.953669 g / cm^3
# Si number density = 19.581263 Si / 1000 Ang^3
#
#
#
# Elastic Constant Matrix: (Units=GPa)
#
#
# Indices 1 2 3 4 5 6 
#
# 1 31.0956 12.6356 -7.5229 0.0000 -1.5907 0.0000
# 2 12.6356 89.7421 -7.4340 0.0000 5.1027 0.0000
# 3 -7.5229 -7.4340 46.0673 0.0000 3.2742 0.0000
# 4 0.0000 0.0000 0.0000 16.3135 0.0000 -6.7521
# 5 -1.5907 5.1027 3.2742 0.0000 23.7085 0.0000
# 6 0.0000 0.0000 0.0000 -6.7521 0.0000 30.4028
#
#
#
# Elastic Compliance Matrix: (Units=1/GPa)
#
#
# Indices 1 2 3 4 5 6 
#
# 1 0.035390 -0.004739 0.004821 0.000000 0.002729 0.000000
# 2 -0.004739 0.012103 0.001401 0.000000 -0.003116 0.000000
# 3 0.004821 0.001401 0.022944 0.000000 -0.003147 0.000000
# 4 0.000000 0.000000 0.000000 0.067504 0.000000 0.014992
# 5 0.002729 -0.003116 -0.003147 0.000000 0.043467 0.000000
# 6 0.000000 0.000000 0.000000 0.014992 0.000000 0.036221
#
#
# Mechanical properties :
#
#
# Convention : Reuss Voigt Hill
#
# Bulk Modulus (GPa) = 13.62329 18.02915 15.82622
# Shear Modulus (GPa) = 20.90887 25.36671 23.13779
#
# Velocity S-wave (km/s) = 3.27127 3.60315 3.44121
# Velocity P-wave (km/s) = 4.60876 5.15147 4.88765
#
# Compressibility (1/GPa) = 0.07340369
#
# Stress axis : x y z
#
# Youngs Moduli (GPa) = 28.25634 82.62083 43.58380
#
# Poissons Ratio (x) = 0.39152 -0.21010
# Poissons Ratio (y) = 0.13390 -0.06105
# Poissons Ratio (z) = -0.13622 -0.11574
#
# Static dielectric constant tensor:
#      x y z
#    x 1.685050 0.000000 0.001760 
#    y 0.000000 1.665300 0.000000 
#    z 0.001760 0.000000 1.673650 
# 
# From -- ./inp_files/59708.got.cif
#   From: 2010.05.17/outbox.cif.g08.bks.cpg/sg14_30_cif.got.tgz:59708.got - 2010.06.03 17:49:19.
