data_PCOD9246718
_publ_section_title
;
Structure prediction by ZEFSAII (Michael W. Deem and Ramdas Pophale) SiO2 
 PCOD9246718
Probable space group: P 21/C
;
_chemical_formula_sum "Si O2"
_cell_formula_units_Z 24
_cell_length_a 16.940303
_cell_length_b 9.549452
_cell_length_c 22.407081
_cell_angle_alpha 90.000000
_cell_angle_beta 161.808310
_cell_angle_gamma 90.000000
_cell_volume 1131.654411
_symmetry_space_group_name_H-M "P 21/C"
_symmetry_group_IT_number 14
_symmetry_cell_setting 'monoclinic'
loop_
_space_group_symop_operation_xyz
x,y,z
-x,1/2+y,1/2-z
-x,-y,-z
x,1/2-y,1/2+z
loop_
_atom_site_type_symbol
_atom_site_label
_atom_site_fract_x
_atom_site_fract_y
_atom_site_fract_z
Si Si1 0.548059 0.672909 0.698449
Si Si2 0.192742 0.568708 0.910375
Si Si3 0.554097 0.813823 0.339425
Si Si4 0.678606 0.034667 0.073834
Si Si5 0.930832 0.161042 0.935103
Si Si6 0.071163 0.824815 0.203804
O O1 0.348642 0.797906 0.544083
O O2 0.527298 0.630083 0.752544
O O3 0.478712 0.557338 0.599675
O O4 0.823578 0.739844 0.885076
O O5 0.168828 0.562410 0.821437
O O6 0.905160 0.574146 0.727059
O O7 0.329913 0.434598 0.035761
O O8 0.285363 0.782058 0.176071
O O9 0.766455 0.692790 0.487456
O O10 0.814874 0.180079 0.189321
O O11 0.500000 0.000000 0.000000
O O12 0.848274 0.158154 0.806487
O O13 0.000000 0.000000 0.000000
#
# Coordination Sequence:
#
# PCOD9246718 Si02
#       6
#     4   4   4   4   4   4
#     4  10  23  42  61  93 126 157 209 252 302 368
#     4  10  21  42  61  86 125 162 197 255 303 357
#     4  10  22  40  63  90 122 162 198 256 308 349
#     4  10  23  41  62  91 121 163 207 249 307 359
#     4  11  22  40  65  91 121 161 205 248 305 369
#     4   9  23  42  59  92 125 154 209 249 299 368
#
# _framework density 21.207889000000002
#
# number of rings (size 3 to 8) (size 9 to 14) (size 15 to 20)
#    0.000    2.000    1.667    0.000    7.000    0.667 
#    0.000    2.500    0.000    0.000    0.000    0.000 
#    0.000    0.000    0.000    0.000    0.000    0.000 
#
# Total GULP energy -134102.143605 kJ/mol
# GULP energy per Si atom -5587.589317 kJ/mol
# Density = 2.115962 g / cm^3
# Si number density = 21.207889 Si / 1000 Ang^3
#
#
#
# Elastic Constant Matrix: (Units=GPa)
#
#
# Indices 1 2 3 4 5 6 
#
# 1 168.6083 16.8041 87.6119 0.0000 -0.7300 0.0000
# 2 16.8041 16.1233 15.8470 0.0000 -2.1743 0.0000
# 3 87.6119 15.8470 122.3732 0.0000 8.8524 0.0000
# 4 0.0000 0.0000 0.0000 17.3208 0.0000 -5.8738
# 5 -0.7300 -2.1743 8.8524 0.0000 50.1643 0.0000
# 6 0.0000 0.0000 0.0000 -5.8738 0.0000 31.1404
#
#
#
# Elastic Compliance Matrix: (Units=1/GPa)
#
#
# Indices 1 2 3 4 5 6 
#
# 1 0.009701 -0.003492 -0.006576 0.000000 0.001150 0.000000
# 2 -0.003492 0.073467 -0.007334 0.000000 0.004428 0.000000
# 3 -0.006576 -0.007334 0.014039 0.000000 -0.002891 0.000000
# 4 0.000000 0.000000 0.000000 0.061679 0.000000 0.011634
# 5 0.001150 0.004428 -0.002891 0.000000 0.020653 0.000000
# 6 0.000000 0.000000 0.000000 0.011634 0.000000 0.034307
#
#
# Mechanical properties :
#
#
# Convention : Reuss Voigt Hill
#
# Bulk Modulus (GPa) = 16.02511 60.84787 38.43649
# Shear Modulus (GPa) = 18.55618 32.18124 25.36871
#
# Velocity S-wave (km/s) = 2.96119 3.89963 3.46235
# Velocity P-wave (km/s) = 4.38909 7.00211 5.84353
#
# Compressibility (1/GPa) = 0.06240205
#
# Stress axis : x y z
#
# Youngs Moduli (GPa) = 103.08058 13.61160 71.23047
#
# Poissons Ratio (x) = 0.04753 0.46844
# Poissons Ratio (y) = 0.35995 0.52241
# Poissons Ratio (z) = 0.67791 0.09983
#
# Static dielectric constant tensor:
#      x y z
#    x 1.750660 0.000000 -0.000310 
#    y 0.000000 1.777980 0.000000 
#    z -0.000310 0.000000 1.781360 
# 
# From -- ./inp_files/68534.got.cif
#   From: 2010.05.17/outbox.cif.g08.bks.cpg/sg14_35_cif.got.tgz:68534.got - 2010.06.03 17:49:19.
