data_PCOD9246891
_publ_section_title
;
Structure prediction by ZEFSAII (Michael W. Deem and Ramdas Pophale) SiO2 
 PCOD9246891
Probable space group: P 21/C
;
_chemical_formula_sum "Si O2"
_cell_formula_units_Z 24
_cell_length_a 8.915205
_cell_length_b 5.126020
_cell_length_c 22.618103
_cell_angle_alpha 90.000000
_cell_angle_beta 110.237274
_cell_angle_gamma 90.000000
_cell_volume 969.828182
_symmetry_space_group_name_H-M "P 21/C"
_symmetry_group_IT_number 14
_symmetry_cell_setting 'monoclinic'
loop_
_space_group_symop_operation_xyz
x,y,z
-x,1/2+y,1/2-z
-x,-y,-z
x,1/2-y,1/2+z
loop_
_atom_site_type_symbol
_atom_site_label
_atom_site_fract_x
_atom_site_fract_y
_atom_site_fract_z
Si Si1 0.429337 0.253016 0.599560
Si Si2 0.532390 0.765019 0.551874
Si Si3 0.040095 0.599365 0.687443
Si Si4 0.853430 0.975524 0.599132
Si Si5 0.055070 0.179376 0.061645
Si Si6 0.256673 0.802454 0.809337
O O1 0.460096 0.476233 0.551922
O O2 0.240306 0.254566 0.581458
O O3 0.554933 0.359297 0.666426
O O4 0.470438 0.943710 0.598307
O O5 0.500000 0.000000 0.500000
O O6 0.725050 0.745741 0.574725
O O7 0.046872 0.444970 0.626715
O O8 0.194752 0.610410 0.749707
O O9 0.884465 0.516864 0.704838
O O10 0.002854 0.886350 0.658011
O O11 0.758865 0.174660 0.627554
O O12 0.922788 0.091371 0.548999
O O13 0.000000 0.000000 0.000000
#
# Coordination Sequence:
#
# PCOD9246891 Si02
#       6
#     4   4   4   4   4   4
#     4  11  25  44  65 103 140 182 229 297 353 422
#     4  11  23  41  70  98 134 182 238 287 342 415
#     4  11  21  41  69  94 131 178 228 291 348 414
#     4  10  22  40  68  95 127 179 224 287 342 410
#     4  11  27  44  64 101 145 186 231 287 368 439
#     4  10  21  42  68  98 129 169 245 286 343 414
#
# _framework density 24.746652999999998
#
# number of rings (size 3 to 8) (size 9 to 14) (size 15 to 20)
#    0.000    1.333    3.333    1.500    4.667    0.667 
#    3.000    0.000    0.000    0.000    0.000    0.000 
#    0.000    0.000    0.000    0.000    0.000    0.000 
#
# Total GULP energy -133670.138651 kJ/mol
# GULP energy per Si atom -5569.589110 kJ/mol
# Density = 2.469033 g / cm^3
# Si number density = 24.746653 Si / 1000 Ang^3
#
#
#
# Elastic Constant Matrix: (Units=GPa)
#
#
# Indices 1 2 3 4 5 6 
#
# 1 110.1141 5.4529 20.5841 0.0000 20.6243 0.0000
# 2 5.4529 92.5630 3.3153 0.0000 -4.8287 0.0000
# 3 20.5841 3.3153 100.7170 0.0000 21.8685 0.0000
# 4 0.0000 0.0000 0.0000 30.5010 0.0000 8.9311
# 5 20.6243 -4.8287 21.8685 0.0000 38.9536 0.0000
# 6 0.0000 0.0000 0.0000 8.9311 0.0000 21.7253
#
#
#
# Elastic Compliance Matrix: (Units=1/GPa)
#
#
# Indices 1 2 3 4 5 6 
#
# 1 0.010238 -0.000827 -0.000986 0.000000 -0.004969 0.000000
# 2 -0.000827 0.010989 -0.000665 0.000000 0.002173 0.000000
# 3 -0.000986 -0.000665 0.011453 0.000000 -0.005990 0.000000
# 4 0.000000 0.000000 0.000000 0.037272 0.000000 -0.015322
# 5 -0.004969 0.002173 -0.005990 0.000000 0.031935 0.000000
# 6 0.000000 0.000000 0.000000 -0.015322 0.000000 0.052328
#
#
# Mechanical properties :
#
#
# Convention : Reuss Voigt Hill
#
# Bulk Modulus (GPa) = 36.06950 40.23320 38.15135
# Shear Modulus (GPa) = 29.68915 36.50544 33.09729
#
# Velocity S-wave (km/s) = 3.46746 3.84496 3.66108
# Velocity P-wave (km/s) = 5.53518 6.00041 5.77248
#
# Compressibility (1/GPa) = 0.02772426
#
# Stress axis : x y z
#
# Youngs Moduli (GPa) = 97.67996 90.99722 87.31497
#
# Poissons Ratio (x) = 0.07526 0.08610
# Poissons Ratio (y) = 0.08078 0.05803
# Poissons Ratio (z) = 0.09632 0.06048
#
# Static dielectric constant tensor:
#      x y z
#    x 2.059700 0.000000 -0.035970 
#    y 0.000000 2.477000 0.000000 
#    z -0.035970 0.000000 2.118070 
# 
# From -- ./inp_files/71666.got.cif
#   From: 2010.05.17/outbox.cif.g08.bks.cpg/sg14_36_cif.got.tgz:71666.got - 2010.06.03 17:49:19.
