data_PCOD9246401
_publ_section_title
;
Structure prediction by ZEFSAII (Michael W. Deem and Ramdas Pophale) SiO2 
 PCOD9246401
Probable space group: P 21/C
;
_chemical_formula_sum "Si O2"
_cell_formula_units_Z 28
_cell_length_a 26.817296
_cell_length_b 9.196662
_cell_length_c 12.010833
_cell_angle_alpha 90.000000
_cell_angle_beta 28.742240
_cell_angle_gamma 90.000000
_cell_volume 1424.446176
_symmetry_space_group_name_H-M "P 21/C"
_symmetry_group_IT_number 14
_symmetry_cell_setting 'monoclinic'
loop_
_space_group_symop_operation_xyz
x,y,z
-x,1/2+y,1/2-z
-x,-y,-z
x,1/2-y,1/2+z
loop_
_atom_site_type_symbol
_atom_site_label
_atom_site_fract_x
_atom_site_fract_y
_atom_site_fract_z
Si Si1 0.863514 0.475494 0.378692
Si Si2 0.449042 0.614271 0.848403
Si Si3 0.215813 0.247714 0.843590
Si Si4 0.746244 0.292071 0.212347
Si Si5 0.592447 0.675459 0.162041
Si Si6 0.109420 0.010182 0.429742
Si Si7 0.635881 0.564916 0.315057
O O1 0.810809 0.588378 0.565459
O O2 0.814851 0.318342 0.503566
O O3 0.846516 0.512962 0.282260
O O4 0.985862 0.501269 0.159680
O O5 0.432522 0.441245 0.886966
O O6 0.506466 0.699277 0.836009
O O7 0.537457 0.620348 0.579593
O O8 0.339252 0.696792 0.051870
O O9 0.300085 0.247425 0.580677
O O10 0.124949 0.344423 0.971932
O O11 0.269161 0.328858 0.842349
O O12 0.825840 0.384649 0.132721
O O13 0.677847 0.408814 0.275202
O O14 0.605628 0.581322 0.246717
#
# Coordination Sequence:
#
# PCOD9246401 Si02
#       7
#     4   4   4   4   4   4   4
#     4  11  22  40  65  89 116 161 202 248 306 354
#     4  11  22  37  58  87 118 156 194 243 287 356
#     4  10  21  41  60  87 120 158 198 248 299 352
#     4  11  23  39  63  90 121 160 201 246 298 357
#     4  11  22  40  59  84 121 158 196 241 294 356
#     4  10  24  41  60  90 124 151 202 258 298 354
#     4  10  23  40  59  86 126 160 193 244 298 351
#
# _framework density 19.656763999999999
#
# number of rings (size 3 to 8) (size 9 to 14) (size 15 to 20)
#    0.000    1.429    2.857    2.143    2.000    0.000 
#    0.000    1.429    0.000    9.429    0.000    0.000 
#    0.000    0.000    0.000    0.000    0.000    0.000 
#
# Total GULP energy -155991.570726 kJ/mol
# GULP energy per Si atom -5571.127526 kJ/mol
# Density = 1.961202 g / cm^3
# Si number density = 19.656764 Si / 1000 Ang^3
#
#
#
# Elastic Constant Matrix: (Units=GPa)
#
#
# Indices 1 2 3 4 5 6 
#
# 1 95.2075 35.9195 22.8207 0.0000 -1.2453 0.0000
# 2 35.9195 85.9882 8.9675 0.0000 -0.6630 0.0000
# 3 22.8207 8.9675 62.6653 0.0000 -6.8154 0.0000
# 4 0.0000 0.0000 0.0000 27.9123 0.0000 3.0632
# 5 -1.2453 -0.6630 -6.8154 0.0000 14.5484 0.0000
# 6 0.0000 0.0000 0.0000 3.0632 0.0000 11.5641
#
#
#
# Elastic Compliance Matrix: (Units=1/GPa)
#
#
# Indices 1 2 3 4 5 6 
#
# 1 0.013474 -0.005190 -0.004282 0.000000 -0.001089 0.000000
# 2 -0.005190 0.013806 -0.000069 0.000000 0.000153 0.000000
# 3 -0.004282 -0.000069 0.018426 0.000000 0.008262 0.000000
# 4 0.000000 0.000000 0.000000 0.036899 0.000000 -0.009774
# 5 -0.001089 0.000153 0.008262 0.000000 0.072521 0.000000
# 6 0.000000 0.000000 0.000000 -0.009774 0.000000 0.089063
#
#
# Mechanical properties :
#
#
# Convention : Reuss Voigt Hill
#
# Bulk Modulus (GPa) = 37.56250 42.14182 39.85216
# Shear Modulus (GPa) = 18.37253 22.54852 20.46052
#
# Velocity S-wave (km/s) = 3.06055 3.39058 3.22978
# Velocity P-wave (km/s) = 5.62494 6.06741 5.85036
#
# Compressibility (1/GPa) = 0.02662230
#
# Stress axis : x y z
#
# Youngs Moduli (GPa) = 74.21864 72.43273 54.27182
#
# Poissons Ratio (x) = 0.37593 0.23242
# Poissons Ratio (y) = 0.38520 0.00374
# Poissons Ratio (z) = 0.31784 0.00500
#
# Static dielectric constant tensor:
#      x y z
#    x 1.695780 0.000000 -0.011400 
#    y 0.000000 1.703310 0.000000 
#    z -0.011400 0.000000 1.691890 
# 
# From -- ./inp_files/36138.got.cif
#   From: 2010.05.17/outbox.cif.g08.bks.cpg/sg14_19_cif.got.tgz:36138.got - 2010.06.03 17:49:19.
