data_PCOD9246980
_publ_section_title
;
Structure prediction by ZEFSAII (Michael W. Deem and Ramdas Pophale) SiO2 
 PCOD9246980
Probable space group: P 21/C
;
_chemical_formula_sum "Si O2"
_cell_formula_units_Z 30
_cell_length_a 15.843137
_cell_length_b 7.787567
_cell_length_c 12.009621
_cell_angle_alpha 90.000000
_cell_angle_beta 60.472708
_cell_angle_gamma 90.000000
_cell_volume 1289.293952
_symmetry_space_group_name_H-M "P 21/C"
_symmetry_group_IT_number 14
_symmetry_cell_setting 'monoclinic'
loop_
_space_group_symop_operation_xyz
x,y,z
-x,1/2+y,1/2-z
-x,-y,-z
x,1/2-y,1/2+z
loop_
_atom_site_type_symbol
_atom_site_label
_atom_site_fract_x
_atom_site_fract_y
_atom_site_fract_z
Si Si1 0.861091 0.774257 0.851255
Si Si2 0.337497 0.626228 0.880740
Si Si3 0.301604 0.046030 0.642773
Si Si4 0.983870 0.046363 0.637480
Si Si5 0.502216 0.866419 0.100107
Si Si6 0.500000 0.500000 0.000000
Si Si7 0.216408 0.688549 0.763668
Si Si8 0.701613 0.000989 0.004771
O O1 0.778455 0.690256 0.826563
O O2 0.919813 0.624090 0.872447
O O3 0.938993 0.886196 0.733223
O O4 0.800380 0.901341 0.972283
O O5 0.430384 0.582048 0.746467
O O6 0.242981 0.603667 0.864648
O O7 0.333242 0.828169 0.911038
O O8 0.338931 0.525893 0.996414
O O9 0.404967 0.098720 0.624323
O O10 0.252543 0.883370 0.732965
O O11 0.895983 0.183098 0.694049
O O12 0.000000 0.000000 0.500000
O O13 0.470442 0.680718 0.078413
O O14 0.613406 0.869476 0.066238
O O15 0.500000 0.000000 0.000000
O O16 0.272510 0.575957 0.634724
#
# Coordination Sequence:
#
# PCOD9246980 Si02
#       8
#     4   4   4   4   4   2   4   4
#     4  11  24  46  69  95 141 174 232 304 351 432
#     4  11  23  40  65 100 135 186 229 279 346 430
#     4  11  23  42  66  97 133 183 224 279 344 414
#     4  11  25  45  71 103 129 180 231 294 372 428
#     4  12  23  44  67  98 147 185 231 294 338 418
#     4  12  24  44  66 100 138 186 238 270 350 410
#     4  10  21  43  65  92 133 169 226 287 342 415
#     4  10  23  41  64  98 134 184 230 283 356 402
#
# _framework density 23.268549
#
# number of rings (size 3 to 8) (size 9 to 14) (size 15 to 20)
#    0.000    1.067    4.000    2.400    1.867    3.200 
#    2.400    2.000    0.000    0.000    0.000    0.000 
#    0.000    0.000    0.000    0.000    0.000    0.000 
#
# Total GULP energy -167320.954188 kJ/mol
# GULP energy per Si atom -5577.365140 kJ/mol
# Density = 2.321559 g / cm^3
# Si number density = 23.268549 Si / 1000 Ang^3
#
#
#
# Elastic Constant Matrix: (Units=GPa)
#
#
# Indices 1 2 3 4 5 6 
#
# 1 55.0692 8.8924 22.0053 0.0000 -25.7921 0.0000
# 2 8.8924 86.0604 30.9186 0.0000 -10.2619 0.0000
# 3 22.0053 30.9186 94.7618 0.0000 -1.3408 0.0000
# 4 0.0000 0.0000 0.0000 26.2770 0.0000 -14.7483
# 5 -25.7921 -10.2619 -1.3408 0.0000 31.0647 0.0000
# 6 0.0000 0.0000 0.0000 -14.7483 0.0000 41.4233
#
#
#
# Elastic Compliance Matrix: (Units=1/GPa)
#
#
# Indices 1 2 3 4 5 6 
#
# 1 0.035097 0.003059 -0.008727 0.000000 0.029774 0.000000
# 2 0.003059 0.013991 -0.005177 0.000000 0.006938 0.000000
# 3 -0.008727 -0.005177 0.014150 0.000000 -0.008345 0.000000
# 4 0.000000 0.000000 0.000000 0.047560 0.000000 0.016933
# 5 0.029774 0.006938 -0.008345 0.000000 0.058843 0.000000
# 6 0.000000 0.000000 0.000000 0.016933 0.000000 0.030170
#
#
# Mechanical properties :
#
#
# Convention : Reuss Voigt Hill
#
# Bulk Modulus (GPa) = 24.06834 39.94713 32.00773
# Shear Modulus (GPa) = 21.24486 31.35799 26.30143
#
# Velocity S-wave (km/s) = 3.02492 3.67503 3.36570
# Velocity P-wave (km/s) = 4.75040 5.93404 5.37490
#
# Compressibility (1/GPa) = 0.04154836
#
# Stress axis : x y z
#
# Youngs Moduli (GPa) = 28.49241 71.47486 70.66930
#
# Poissons Ratio (x) = -0.21865 0.61673
# Poissons Ratio (y) = -0.08716 0.36586
# Poissons Ratio (z) = 0.24865 0.37003
#
# Static dielectric constant tensor:
#      x y z
#    x 19.500880 0.000000 1.028400 
#    y 0.000000 1.849720 0.000000 
#    z 1.028400 0.000000 1.944860 
# 
# From -- ./inp_files/31746.got.cif
#   From: 2010.05.17/outbox.cif.g08.bks.cpg/sg14_16_cif.got.tgz:31746.got - 2010.06.03 17:49:19.
