data_PCOD9246831
_publ_section_title
;
Structure prediction by ZEFSAII (Michael W. Deem and Ramdas Pophale) SiO2 
 PCOD9246831
Probable space group: P 21/C
;
_chemical_formula_sum "Si O2"
_cell_formula_units_Z 20
_cell_length_a 5.353053
_cell_length_b 5.507503
_cell_length_c 24.684566
_cell_angle_alpha 90.000000
_cell_angle_beta 106.302130
_cell_angle_gamma 90.000000
_cell_volume 698.490012
_symmetry_space_group_name_H-M "P 21/C"
_symmetry_group_IT_number 14
_symmetry_cell_setting 'monoclinic'
loop_
_space_group_symop_operation_xyz
x,y,z
-x,1/2+y,1/2-z
-x,-y,-z
x,1/2-y,1/2+z
loop_
_atom_site_type_symbol
_atom_site_label
_atom_site_fract_x
_atom_site_fract_y
_atom_site_fract_z
Si Si1 0.107998 0.913479 0.119941
Si Si2 0.168156 0.198141 0.219808
Si Si3 0.720069 0.130757 0.978439
Si Si4 0.389694 0.938133 0.322321
Si Si5 0.201720 0.582071 0.921983
O O1 0.189405 0.947729 0.186754
O O2 0.946732 0.669121 0.098579
O O3 0.334001 0.892175 0.088618
O O4 0.954465 0.167108 0.099697
O O5 0.286127 0.180000 0.286774
O O6 0.353128 0.367361 0.194468
O O7 0.867091 0.272250 0.203752
O O8 0.743695 0.387260 0.010821
O O9 0.500000 0.000000 0.000000
O O10 0.000000 0.000000 0.000000
O O11 0.422991 0.923707 0.389002
#
# Coordination Sequence:
#
# PCOD9246831 Si02
#       5
#     4   4   4   4   4
#     4  10  22  42  67  97 133 174 221 273 331 394
#     4  11  23  41  64  96 131 174 220 274 332 397
#     4  10  21  42  66  98 134 176 222 274 330 394
#     4  11  23  41  64  96 131 174 220 274 332 397
#     4  10  22  42  67  97 133 174 221 273 331 394
#
# _framework density 28.633189000000002
#
# number of rings (size 3 to 8) (size 9 to 14) (size 15 to 20)
#    0.000    1.600    0.000    4.200    0.000    3.200 
#    0.000   32.000    0.000    0.000    0.000    0.000 
#    0.000    0.000    0.000    0.000    0.000    0.000 
#
# Total GULP energy -111896.802636 kJ/mol
# GULP energy per Si atom -5594.840132 kJ/mol
# Density = 2.856802 g / cm^3
# Si number density = 28.633189 Si / 1000 Ang^3
#
#
#
# Elastic Constant Matrix: (Units=GPa)
#
#
# Indices 1 2 3 4 5 6 
#
# 1 124.6837 66.8024 35.6560 0.0000 -11.3312 0.0000
# 2 66.8024 153.3242 7.4437 0.0000 4.0466 0.0000
# 3 35.6560 7.4437 136.9610 0.0000 -39.3109 0.0000
# 4 0.0000 0.0000 0.0000 47.0628 0.0000 17.4745
# 5 -11.3312 4.0466 -39.3109 0.0000 53.9895 0.0000
# 6 0.0000 0.0000 0.0000 17.4745 0.0000 73.0262
#
#
#
# Elastic Compliance Matrix: (Units=1/GPa)
#
#
# Indices 1 2 3 4 5 6 
#
# 1 0.011421 -0.004885 -0.002421 0.000000 0.001001 0.000000
# 2 -0.004885 0.008667 0.000404 0.000000 -0.001380 0.000000
# 3 -0.002421 0.000404 0.009804 0.000000 0.006600 0.000000
# 4 0.000000 0.000000 0.000000 0.023320 0.000000 -0.005580
# 5 0.001001 -0.001380 0.006600 0.000000 0.023641 0.000000
# 6 0.000000 0.000000 0.000000 -0.005580 0.000000 0.015029
#
#
# Mechanical properties :
#
#
# Convention : Reuss Voigt Hill
#
# Bulk Modulus (GPa) = 62.15048 70.53033 66.34040
# Shear Modulus (GPa) = 45.02595 55.15351 50.08973
#
# Velocity S-wave (km/s) = 3.96979 4.39362 4.18707
# Velocity P-wave (km/s) = 6.53951 7.10101 6.82604
#
# Compressibility (1/GPa) = 0.01608998
#
# Stress axis : x y z
#
# Youngs Moduli (GPa) = 87.56137 115.37779 102.00023
#
# Poissons Ratio (x) = 0.56359 0.24689
# Poissons Ratio (y) = 0.42772 -0.04125
# Poissons Ratio (z) = 0.21194 -0.04666
#
# Static dielectric constant tensor:
#      x y z
#    x 2.227290 0.000000 0.108340 
#    y 0.000000 2.265870 0.000000 
#    z 0.108340 0.000000 2.556310 
# 
# From -- ./inp_files/75479.got.cif
#   From: 2010.05.17/outbox.cif.g08.bks.cpg/sg14_38_cif.got.tgz:75479.got - 2010.06.03 17:49:19.
