data_PCOD9246178
_publ_section_title
;
Structure prediction by ZEFSAII (Michael W. Deem and Ramdas Pophale) SiO2 
 PCOD9246178
Probable space group: P 21/C
;
_chemical_formula_sum "Si O2"
_cell_formula_units_Z 20
_cell_length_a 5.098494
_cell_length_b 13.365339
_cell_length_c 18.329554
_cell_angle_alpha 90.000000
_cell_angle_beta 39.029868
_cell_angle_gamma 90.000000
_cell_volume 786.547616
_symmetry_space_group_name_H-M "P 21/C"
_symmetry_group_IT_number 14
_symmetry_cell_setting 'monoclinic'
loop_
_space_group_symop_operation_xyz
x,y,z
-x,1/2+y,1/2-z
-x,-y,-z
x,1/2-y,1/2+z
loop_
_atom_site_type_symbol
_atom_site_label
_atom_site_fract_x
_atom_site_fract_y
_atom_site_fract_z
Si Si1 0.682668 0.930779 0.024140
Si Si2 0.516288 0.613181 0.111175
Si Si3 0.486939 0.752322 0.484954
Si Si4 0.554201 0.690026 0.681347
Si Si5 0.493648 0.610274 0.857569
O O1 0.792083 0.827027 0.958113
O O2 0.397720 0.883011 0.150166
O O3 0.500000 0.000000 0.000000
O O4 0.000000 0.000000 0.000000
O O5 0.353154 0.662008 0.071655
O O6 0.435101 0.695482 0.190435
O O7 0.357015 0.503522 0.164157
O O8 0.009751 0.607551 0.988486
O O9 0.674177 0.808148 0.374926
O O10 0.060579 0.694380 0.559747
O O11 0.496141 0.646671 0.774059
#
# Coordination Sequence:
#
# PCOD9246178 Si02
#       5
#     4   4   4   4   4
#     4  11  22  42  65  94 139 180 218 279 346 408
#     4   9  21  41  63  91 138 177 227 287 345 406
#     4  10  21  40  64  92 137 176 228 284 343 409
#     4  10  22  40  64 102 131 177 230 284 340 421
#     4  10  21  41  66  96 134 182 232 282 348 410
#
# _framework density 25.427578
#
# number of rings (size 3 to 8) (size 9 to 14) (size 15 to 20)
#    0.000    2.000    2.000    0.600    0.000    4.800 
#    3.600    0.000    0.000    0.000    0.000    0.000 
#    0.000    0.000    0.000    0.000    0.000    0.000 
#
# Total GULP energy -111841.376893 kJ/mol
# GULP energy per Si atom -5592.068845 kJ/mol
# Density = 2.536970 g / cm^3
# Si number density = 25.427578 Si / 1000 Ang^3
#
#
#
# Elastic Constant Matrix: (Units=GPa)
#
#
# Indices 1 2 3 4 5 6 
#
# 1 121.9667 83.5543 44.7644 0.0000 51.4971 0.0000
# 2 83.5543 251.7469 117.8157 0.0000 46.7047 0.0000
# 3 44.7644 117.8157 148.0299 0.0000 52.2215 0.0000
# 4 0.0000 0.0000 0.0000 42.3902 0.0000 4.0950
# 5 51.4971 46.7047 52.2215 0.0000 59.7334 0.0000
# 6 0.0000 0.0000 0.0000 4.0950 0.0000 45.6799
#
#
#
# Elastic Compliance Matrix: (Units=1/GPa)
#
#
# Indices 1 2 3 4 5 6 
#
# 1 0.015255 -0.004216 0.003208 0.000000 -0.012660 0.000000
# 2 -0.004216 0.007521 -0.005666 0.000000 0.002708 0.000000
# 3 0.003208 -0.005666 0.014037 0.000000 -0.010607 0.000000
# 4 0.000000 0.000000 0.000000 0.023796 0.000000 -0.002133
# 5 -0.012660 0.002708 -0.010607 0.000000 0.034812 0.000000
# 6 0.000000 0.000000 0.000000 -0.002133 0.000000 0.022083
#
#
# Mechanical properties :
#
#
# Convention : Reuss Voigt Hill
#
# Bulk Modulus (GPa) = 42.61566 112.66803 77.64184
# Shear Modulus (GPa) = 36.05622 47.93464 41.99543
#
# Velocity S-wave (km/s) = 3.76971 4.34653 4.06836
# Velocity P-wave (km/s) = 5.97860 8.34239 7.25738
#
# Compressibility (1/GPa) = 0.02346555
#
# Stress axis : x y z
#
# Youngs Moduli (GPa) = 65.55270 132.96404 71.24151
#
# Poissons Ratio (x) = 0.56056 -0.22858
# Poissons Ratio (y) = 0.27636 0.40366
# Poissons Ratio (z) = -0.21032 0.75338
#
# Static dielectric constant tensor:
#      x y z
#    x 2.208140 0.000000 -0.125610 
#    y 0.000000 1.973710 0.000000 
#    z -0.125610 0.000000 2.030390 
# 
# From -- ./inp_files/36905.got.cif
#   From: 2010.05.17/outbox.cif.g08.bks.cpg/sg14_19_cif.got.tgz:36905.got - 2010.06.03 17:49:19.
