data_PCOD9246754
_publ_section_title
;
Structure prediction by ZEFSAII (Michael W. Deem and Ramdas Pophale) SiO2 
 PCOD9246754
Probable space group: P 21/C
;
_chemical_formula_sum "Si O2"
_cell_formula_units_Z 28
_cell_length_a 6.761721
_cell_length_b 19.320415
_cell_length_c 13.404520
_cell_angle_alpha 90.000000
_cell_angle_beta 128.605815
_cell_angle_gamma 90.000000
_cell_volume 1368.453782
_symmetry_space_group_name_H-M "P 21/C"
_symmetry_group_IT_number 14
_symmetry_cell_setting 'monoclinic'
loop_
_space_group_symop_operation_xyz
x,y,z
-x,1/2+y,1/2-z
-x,-y,-z
x,1/2-y,1/2+z
loop_
_atom_site_type_symbol
_atom_site_label
_atom_site_fract_x
_atom_site_fract_y
_atom_site_fract_z
Si Si1 0.984893 0.333280 0.911856
Si Si2 0.220530 0.929573 0.171281
Si Si3 0.770113 0.470127 0.554686
Si Si4 0.142554 0.814071 0.396676
Si Si5 0.550050 0.928939 0.457570
Si Si6 0.871707 0.685673 0.615660
Si Si7 0.674496 0.165582 0.127726
O O1 0.127056 0.265927 0.912756
O O2 0.734916 0.335792 0.764248
O O3 0.166752 0.398873 0.951332
O O4 0.931463 0.321091 0.011434
O O5 0.465728 0.937863 0.316081
O O6 0.115730 0.851377 0.143966
O O7 0.249057 0.953993 0.068276
O O8 0.994386 0.976069 0.145786
O O9 0.500000 0.500000 0.500000
O O10 0.823710 0.398212 0.626852
O O11 0.357655 0.870705 0.439842
O O12 0.242906 0.737975 0.396608
O O13 0.909308 0.825230 0.245891
O O14 0.500000 0.000000 0.500000
O O15 0.617852 0.654544 0.490725
#
# Coordination Sequence:
#
# PCOD9246754 Si02
#       7
#     4   4   4   4   4   4   4
#     4  11  24  41  64  93 122 165 206 253 320 367
#     4  10  23  40  62  92 127 167 208 254 315 367
#     4  11  22  38  63  94 124 164 209 256 308 369
#     4  10  24  42  64  90 123 165 207 252 314 373
#     4  11  24  43  62  90 128 161 208 260 313 376
#     4  10  21  42  63  92 126 162 207 259 306 370
#     4  11  22  41  63  93 125 157 211 261 300 371
#
# _framework density 20.461051000000001
#
# number of rings (size 3 to 8) (size 9 to 14) (size 15 to 20)
#    0.000    1.429    2.857    1.714    2.000    2.857 
#    2.571    0.000    0.000    0.000    0.000    0.000 
#    0.000    0.000    0.000    0.000    0.000    0.000 
#
# Total GULP energy -156409.604283 kJ/mol
# GULP energy per Si atom -5586.057296 kJ/mol
# Density = 2.041448 g / cm^3
# Si number density = 20.461051 Si / 1000 Ang^3
#
#
#
# Elastic Constant Matrix: (Units=GPa)
#
#
# Indices 1 2 3 4 5 6 
#
# 1 46.1006 6.6984 49.6010 0.0000 -14.0503 0.0000
# 2 6.6984 100.2096 19.9320 0.0000 -6.0405 0.0000
# 3 49.6010 19.9320 152.2781 0.0000 -7.0228 0.0000
# 4 0.0000 0.0000 0.0000 23.7717 0.0000 -2.7516
# 5 -14.0503 -6.0405 -7.0228 0.0000 31.1095 0.0000
# 6 0.0000 0.0000 0.0000 -2.7516 0.0000 14.1882
#
#
#
# Elastic Compliance Matrix: (Units=1/GPa)
#
#
# Indices 1 2 3 4 5 6 
#
# 1 0.039342 0.000712 -0.012209 0.000000 0.015151 0.000000
# 2 0.000712 0.010349 -0.001495 0.000000 0.001994 0.000000
# 3 -0.012209 -0.001495 0.010582 0.000000 -0.003416 0.000000
# 4 0.000000 0.000000 0.000000 0.043033 0.000000 0.008346
# 5 0.015151 0.001994 -0.003416 0.000000 0.038603 0.000000
# 6 0.000000 0.000000 0.000000 0.008346 0.000000 0.072100
#
#
# Mechanical properties :
#
#
# Convention : Reuss Voigt Hill
#
# Bulk Modulus (GPa) = 29.16369 50.11677 39.64023
# Shear Modulus (GPa) = 19.88692 28.63770 24.26231
#
# Velocity S-wave (km/s) = 3.12098 3.74521 3.44725
# Velocity P-wave (km/s) = 5.22222 6.57640 5.93804
#
# Compressibility (1/GPa) = 0.03428922
#
# Stress axis : x y z
#
# Youngs Moduli (GPa) = 25.41816 96.62825 94.50110
#
# Poissons Ratio (x) = -0.06879 1.15378
# Poissons Ratio (y) = -0.01810 0.14124
# Poissons Ratio (z) = 0.31033 0.14442
#
# Static dielectric constant tensor:
#      x y z
#    x 1.702790 0.000000 0.013200 
#    y 0.000000 1.750280 0.000000 
#    z 0.013200 0.000000 1.728690 
# 
# From -- ./inp_files/21868.got.cif
#   From: 2010.05.17/outbox.cif.g08.bks.cpg/sg14_11_cif.got.tgz:21868.got - 2010.06.03 17:49:19.
