data_PCOD9246759
_publ_section_title
;
Structure prediction by ZEFSAII (Michael W. Deem and Ramdas Pophale) SiO2 
 PCOD9246759
Probable space group: P 21/C
;
_chemical_formula_sum "Si O2"
_cell_formula_units_Z 20
_cell_length_a 6.623823
_cell_length_b 8.283318
_cell_length_c 19.934969
_cell_angle_alpha 90.000000
_cell_angle_beta 49.498863
_cell_angle_gamma 90.000000
_cell_volume 831.700136
_symmetry_space_group_name_H-M "P 21/C"
_symmetry_group_IT_number 14
_symmetry_cell_setting 'monoclinic'
loop_
_space_group_symop_operation_xyz
x,y,z
-x,1/2+y,1/2-z
-x,-y,-z
x,1/2-y,1/2+z
loop_
_atom_site_type_symbol
_atom_site_label
_atom_site_fract_x
_atom_site_fract_y
_atom_site_fract_z
Si Si1 0.953218 0.370298 0.569391
Si Si2 0.032349 0.423135 0.827488
Si Si3 0.991946 0.072564 0.812176
Si Si4 0.734239 0.449312 0.096761
Si Si5 0.486367 0.789970 0.562172
O O1 0.910708 0.458094 0.649322
O O2 0.728974 0.244511 0.592511
O O3 0.227093 0.268780 0.523157
O O4 0.000000 0.500000 0.500000
O O5 0.137304 0.243826 0.790102
O O6 0.221378 0.520139 0.834488
O O7 0.745349 0.390189 0.926819
O O8 0.987872 0.507366 0.766617
O O9 0.682487 0.127863 0.886638
O O10 0.536908 0.586312 0.112487
O O11 0.000000 0.500000 0.000000
#
# Coordination Sequence:
#
# PCOD9246759 Si02
#       5
#     4   4   4   4   4
#     4  11  22  42  66  97 132 172 221 275 325 404
#     4  10  22  42  65  92 133 167 222 271 328 395
#     4  10  21  42  63  94 133 169 223 274 332 391
#     4  10  21  42  65  93 127 165 221 272 319 394
#     4   9  23  42  65  91 127 171 219 261 340 379
#
# _framework density 24.047129999999999
#
# number of rings (size 3 to 8) (size 9 to 14) (size 15 to 20)
#    1.200    0.800    0.000    4.200    0.000    3.200 
#   14.400    0.000    0.000    0.000    0.000    0.000 
#    0.000    0.000    0.000    0.000    0.000    0.000 
#
# Total GULP energy -111421.268812 kJ/mol
# GULP energy per Si atom -5571.063441 kJ/mol
# Density = 2.399240 g / cm^3
# Si number density = 24.047130 Si / 1000 Ang^3
#
#
#
# Elastic Constant Matrix: (Units=GPa)
#
#
# Indices 1 2 3 4 5 6 
#
# 1 40.8351 -0.2564 15.6233 0.0000 9.3120 0.0000
# 2 -0.2564 117.1218 14.2912 0.0000 26.9131 0.0000
# 3 15.6233 14.2912 50.7823 0.0000 19.5881 0.0000
# 4 0.0000 0.0000 0.0000 16.1654 0.0000 36.0754
# 5 9.3120 26.9131 19.5881 0.0000 51.2083 0.0000
# 6 0.0000 0.0000 0.0000 36.0754 0.0000 20.2688
#
#
#
# Elastic Compliance Matrix: (Units=1/GPa)
#
#
# Indices 1 2 3 4 5 6 
#
# 1 0.028250 0.001725 -0.008030 0.000000 -0.002972 0.000000
# 2 0.001725 0.009851 -0.001390 0.000000 -0.004959 0.000000
# 3 -0.008030 -0.001390 0.025466 0.000000 -0.007550 0.000000
# 4 0.000000 0.000000 0.000000 -0.020815 0.000000 0.037047
# 5 -0.002972 -0.004959 -0.007550 0.000000 0.025563 0.000000
# 6 0.000000 0.000000 0.000000 0.037047 0.000000 -0.016601
#
#
# Mechanical properties :
#
#
# Convention : Reuss Voigt Hill
#
# Bulk Modulus (GPa) = 20.75741 29.78395 25.27068
# Shear Modulus (GPa) = 60.12225 29.46723 44.79474
#
# Velocity S-wave (km/s) = 5.00561 3.50436 4.32069
# Velocity P-wave (km/s) = 6.48528 5.36532 5.95170
#
# Compressibility (1/GPa) = 0.04817558
#
# Stress axis : x y z
#
# Youngs Moduli (GPa) = 35.39882 101.51175 39.26817
#
# Poissons Ratio (x) = -0.17506 0.31533
# Poissons Ratio (y) = -0.06105 0.05458
# Poissons Ratio (z) = 0.28426 0.14110
#
# Static dielectric constant tensor:
#      x y z
#    x 2.010780 0.000000 -0.112260 
#    y 0.000000 1.962370 0.000000 
#    z -0.112260 0.000000 1.987890 
# 
# From -- ./inp_files/63014.got.cif
#   From: 2010.05.17/outbox.cif.g08.bks.cpg/sg14_32_cif.got.tgz:63014.got - 2010.06.03 17:49:19.
