data_PCOD9246639
_publ_section_title
;
Structure prediction by ZEFSAII (Michael W. Deem and Ramdas Pophale) SiO2 
 PCOD9246639
Probable space group: P 21/C
;
_chemical_formula_sum "Si O2"
_cell_formula_units_Z 28
_cell_length_a 18.520525
_cell_length_b 6.614388
_cell_length_c 13.797523
_cell_angle_alpha 90.000000
_cell_angle_beta 124.638072
_cell_angle_gamma 90.000000
_cell_volume 1390.646213
_symmetry_space_group_name_H-M "P 21/C"
_symmetry_group_IT_number 14
_symmetry_cell_setting 'monoclinic'
loop_
_space_group_symop_operation_xyz
x,y,z
-x,1/2+y,1/2-z
-x,-y,-z
x,1/2-y,1/2+z
loop_
_atom_site_type_symbol
_atom_site_label
_atom_site_fract_x
_atom_site_fract_y
_atom_site_fract_z
Si Si1 0.451131 0.805354 0.004301
Si Si2 0.794984 0.756645 0.790256
Si Si3 0.919444 0.038765 0.008892
Si Si4 0.851550 0.807723 0.124426
Si Si5 0.311816 0.915591 0.060503
Si Si6 0.382129 0.038798 0.320233
Si Si7 0.816271 0.428089 0.966146
O O1 0.384127 0.869486 0.036037
O O2 0.527779 0.660874 0.102861
O O3 0.398473 0.676080 0.883930
O O4 0.500000 0.000000 0.000000
O O5 0.855091 0.719409 0.742142
O O6 0.698351 0.839945 0.691046
O O7 0.789823 0.555062 0.850984
O O8 0.839246 0.925759 0.892685
O O9 0.923925 0.933794 0.118442
O O10 0.894265 0.271994 0.001720
O O11 0.000000 0.000000 0.000000
O O12 0.843689 0.590629 0.067556
O O13 0.762142 0.934133 0.037388
O O14 0.262240 0.710756 0.054542
O O15 0.355258 0.010864 0.188667
#
# Coordination Sequence:
#
# PCOD9246639 Si02
#       7
#     4   4   4   4   4   4   4
#     4  11  27  40  61  90 127 169 216 280 321 390
#     4  11  22  42  68  94 126 171 221 261 321 395
#     4  10  23  44  62 100 135 164 216 258 321 394
#     4  10  22  40  65  96 121 167 214 257 320 390
#     4  11  23  40  64  91 123 166 216 263 330 383
#     4  11  24  42  59  93 124 164 225 265 322 392
#     4  10  21  41  68  88 127 173 199 270 315 380
#
# _framework density 20.134523000000002
#
# number of rings (size 3 to 8) (size 9 to 14) (size 15 to 20)
#    0.000    1.429    4.286    1.714    6.000    5.714 
#    5.143    0.000    0.000    0.000    0.000    0.000 
#    0.000    0.000    0.000    0.000    0.000    0.000 
#
# Total GULP energy -156482.610479 kJ/mol
# GULP energy per Si atom -5588.664660 kJ/mol
# Density = 2.008870 g / cm^3
# Si number density = 20.134523 Si / 1000 Ang^3
#
#
#
# Elastic Constant Matrix: (Units=GPa)
#
#
# Indices 1 2 3 4 5 6 
#
# 1 150.4198 46.3362 0.9954 0.0000 -19.4467 0.0000
# 2 46.3362 130.7850 13.5104 0.0000 -13.7877 0.0000
# 3 0.9954 13.5104 24.0476 0.0000 -20.4097 0.0000
# 4 0.0000 0.0000 0.0000 18.6546 0.0000 -9.1578
# 5 -19.4467 -13.7877 -20.4097 0.0000 33.8858 0.0000
# 6 0.0000 0.0000 0.0000 -9.1578 0.0000 22.3407
#
#
#
# Elastic Compliance Matrix: (Units=1/GPa)
#
#
# Indices 1 2 3 4 5 6 
#
# 1 0.008747 -0.003073 0.009337 0.000000 0.009393 0.000000
# 2 -0.003073 0.009219 -0.006885 0.000000 -0.002160 0.000000
# 3 0.009337 -0.006885 0.096635 0.000000 0.060761 0.000000
# 4 0.000000 0.000000 0.000000 0.067111 0.000000 0.027510
# 5 0.009393 -0.002160 0.060761 0.000000 0.070620 0.000000
# 6 0.000000 0.000000 0.000000 0.027510 0.000000 0.056038
#
#
# Mechanical properties :
#
#
# Convention : Reuss Voigt Hill
#
# Bulk Modulus (GPa) = 8.82164 47.43736 28.12950
# Shear Modulus (GPa) = 14.39271 31.27026 22.83149
#
# Velocity S-wave (km/s) = 2.67653 3.94517 3.37107
# Velocity P-wave (km/s) = 3.73398 6.66062 5.39937
#
# Compressibility (1/GPa) = 0.11335763
#
# Stress axis : x y z
#
# Youngs Moduli (GPa) = 114.31979 108.47677 10.34823
#
# Poissons Ratio (x) = 0.33339 -0.09662
# Poissons Ratio (y) = 0.35135 0.07125
# Poissons Ratio (z) = -1.06738 0.74686
#
# Static dielectric constant tensor:
#      x y z
#    x 1.715180 0.000000 0.006160 
#    y 0.000000 1.700570 0.000000 
#    z 0.006160 0.000000 1.709070 
# 
# From -- ./inp_files/48208.got.cif
#   From: 2010.05.17/outbox.cif.g08.bks.cpg/sg14_25_cif.got.tgz:48208.got - 2010.06.03 17:49:19.
