data_PCOD9246231
_publ_section_title
;
Structure prediction by ZEFSAII (Michael W. Deem and Ramdas Pophale) SiO2 
 PCOD9246231
Probable space group: P 21/C
;
_chemical_formula_sum "Si O2"
_cell_formula_units_Z 16
_cell_length_a 9.374815
_cell_length_b 12.376277
_cell_length_c 5.323007
_cell_angle_alpha 90.000000
_cell_angle_beta 101.107454
_cell_angle_gamma 90.000000
_cell_volume 606.034332
_symmetry_space_group_name_H-M "P 21/C"
_symmetry_group_IT_number 14
_symmetry_cell_setting 'monoclinic'
loop_
_space_group_symop_operation_xyz
x,y,z
-x,1/2+y,1/2-z
-x,-y,-z
x,1/2-y,1/2+z
loop_
_atom_site_type_symbol
_atom_site_label
_atom_site_fract_x
_atom_site_fract_y
_atom_site_fract_z
Si Si1 0.182264 0.721883 0.798082
Si Si2 0.829550 0.991608 0.909579
Si Si3 0.385151 0.574033 0.308055
Si Si4 0.630142 0.818078 0.609456
O O1 0.098004 0.738591 0.025639
O O2 0.216337 0.597355 0.767997
O O3 0.318502 0.806195 0.859909
O O4 0.757601 0.004842 0.162692
O O5 0.766725 0.890747 0.738503
O O6 0.000000 0.000000 0.000000
O O7 0.500000 0.500000 0.500000
O O8 0.487283 0.608788 0.111323
O O9 0.628179 0.773859 0.326534
#
# Coordination Sequence:
#
# PCOD9246231 Si02
#       4
#     4   4   4   4
#     4  10  21  40  65  94 131 176 222 277 343 408
#     4  10  23  42  67 100 138 182 230 285 353 422
#     4   9  20  41  67  96 130 173 224 279 340 409
#     4  11  24  43  67  98 133 177 232 287 341 411
#
# _framework density 26.401143999999999
#
# number of rings (size 3 to 8) (size 9 to 14) (size 15 to 20)
#    0.000    2.000    0.000    3.000    0.000   10.000 
#    0.000   20.000    0.000    0.000    0.000    0.000 
#    0.000    0.000    0.000    0.000    0.000    0.000 
#
# Total GULP energy -89209.561339 kJ/mol
# GULP energy per Si atom -5575.597584 kJ/mol
# Density = 2.634105 g / cm^3
# Si number density = 26.401144 Si / 1000 Ang^3
#
#
#
# Elastic Constant Matrix: (Units=GPa)
#
#
# Indices 1 2 3 4 5 6 
#
# 1 175.0058 29.4930 12.7733 0.0000 26.8072 0.0000
# 2 29.4930 137.9093 49.5065 0.0000 3.9908 0.0000
# 3 12.7733 49.5065 131.5493 0.0000 -8.2952 0.0000
# 4 0.0000 0.0000 0.0000 73.5436 0.0000 -1.0869
# 5 26.8072 3.9908 -8.2952 0.0000 25.5824 0.0000
# 6 0.0000 0.0000 0.0000 -1.0869 0.0000 20.7989
#
#
#
# Elastic Compliance Matrix: (Units=1/GPa)
#
#
# Indices 1 2 3 4 5 6 
#
# 1 0.007096 -0.001020 -0.000780 0.000000 -0.007530 0.000000
# 2 -0.001020 0.008675 -0.003250 0.000000 -0.001339 0.000000
# 3 -0.000780 -0.003250 0.009172 0.000000 0.004298 0.000000
# 4 0.000000 0.000000 0.000000 0.013608 0.000000 0.000711
# 5 -0.007530 -0.001339 0.004298 0.000000 0.048582 0.000000
# 6 0.000000 0.000000 0.000000 0.000711 0.000000 0.048117
#
#
# Mechanical properties :
#
#
# Convention : Reuss Voigt Hill
#
# Bulk Modulus (GPa) = 67.37178 69.77890 68.57534
# Shear Modulus (GPa) = 33.26758 47.49776 40.38267
#
# Velocity S-wave (km/s) = 3.55361 4.24616 3.91523
# Velocity P-wave (km/s) = 6.51241 7.10827 6.81685
#
# Compressibility (1/GPa) = 0.01484301
#
# Stress axis : x y z
#
# Youngs Moduli (GPa) = 140.91849 115.27906 109.03251
#
# Poissons Ratio (x) = 0.11754 0.08506
# Poissons Ratio (y) = 0.14369 0.35435
# Poissons Ratio (z) = 0.10994 0.37465
#
# Static dielectric constant tensor:
#      x y z
#    x 1.997850 0.000000 -0.031600 
#    y 0.000000 2.134980 0.000000 
#    z -0.031600 0.000000 2.403800 
# 
# From -- ./inp_files/2365.got.cif
#   From: 2010.05.17/outbox.cif.g08.bks.cpg/sg14_2_cif.got.tgz:2365.got - 2010.06.03 17:49:19.
