data_PCOD9246579
_publ_section_title
;
Structure prediction by ZEFSAII (Michael W. Deem and Ramdas Pophale) SiO2 
 PCOD9246579
Probable space group: P 21/C
;
_chemical_formula_sum "Si O2"
_cell_formula_units_Z 28
_cell_length_a 5.190435
_cell_length_b 11.671214
_cell_length_c 18.221809
_cell_angle_alpha 90.000000
_cell_angle_beta 103.655381
_cell_angle_gamma 90.000000
_cell_volume 1072.650768
_symmetry_space_group_name_H-M "P 21/C"
_symmetry_group_IT_number 14
_symmetry_cell_setting 'monoclinic'
loop_
_space_group_symop_operation_xyz
x,y,z
-x,1/2+y,1/2-z
-x,-y,-z
x,1/2-y,1/2+z
loop_
_atom_site_type_symbol
_atom_site_label
_atom_site_fract_x
_atom_site_fract_y
_atom_site_fract_z
Si Si1 0.555187 0.079055 0.211743
Si Si2 0.369935 0.738546 0.154662
Si Si3 0.894182 0.639482 0.711306
Si Si4 0.054326 0.311169 0.980623
Si Si5 0.817719 0.231830 0.643788
Si Si6 0.239716 0.520262 0.935535
Si Si7 0.882396 0.597808 0.438206
O O1 0.553571 0.119330 0.297274
O O2 0.624977 0.200020 0.182028
O O3 0.306492 0.049625 0.140084
O O4 0.802318 0.991917 0.216576
O O5 0.636671 0.806351 0.159043
O O6 0.232150 0.724059 0.067263
O O7 0.154902 0.818557 0.184970
O O8 0.922986 0.698489 0.792719
O O9 0.143832 0.391820 0.918866
O O10 0.993451 0.402371 0.041722
O O11 0.226347 0.202347 0.016899
O O12 0.686348 0.108786 0.621584
O O13 0.894646 0.324391 0.587243
O O14 0.500000 0.500000 0.000000
O O15 0.000000 0.500000 0.500000
#
# Coordination Sequence:
#
# PCOD9246579 Si02
#       7
#     4   4   4   4   4   4   4
#     4  11  24  43  69  98 137 185 230 293 351 418
#     4  11  25  45  67 101 134 178 235 280 343 416
#     4  11  25  43  71  96 138 181 230 284 343 415
#     4  10  23  40  65 101 131 182 232 290 343 420
#     4  10  23  44  64 103 132 183 234 291 350 418
#     4  10  21  41  66  94 134 176 232 286 351 408
#     4  11  23  42  68  97 144 179 232 291 358 418
#
# _framework density 26.103556999999999
#
# number of rings (size 3 to 8) (size 9 to 14) (size 15 to 20)
#    0.000    1.429    1.429    2.571    6.000    0.571 
#    5.143    0.000    0.000    0.000    0.000    0.000 
#    0.000    0.000    0.000    0.000    0.000    0.000 
#
# Total GULP energy -156053.249593 kJ/mol
# GULP energy per Si atom -5573.330343 kJ/mol
# Density = 2.604414 g / cm^3
# Si number density = 26.103557 Si / 1000 Ang^3
#
#
#
# Elastic Constant Matrix: (Units=GPa)
#
#
# Indices 1 2 3 4 5 6 
#
# 1 63.7031 33.7793 11.6151 0.0000 3.6790 0.0000
# 2 33.7793 147.1967 23.3180 0.0000 -2.9153 0.0000
# 3 11.6151 23.3180 99.1368 0.0000 17.3141 0.0000
# 4 0.0000 0.0000 0.0000 60.6436 0.0000 -2.7197
# 5 3.6790 -2.9153 17.3141 0.0000 36.0541 0.0000
# 6 0.0000 0.0000 0.0000 -2.7197 0.0000 32.8988
#
#
#
# Elastic Compliance Matrix: (Units=1/GPa)
#
#
# Indices 1 2 3 4 5 6 
#
# 1 0.018106 -0.004054 -0.000860 0.000000 -0.001762 0.000000
# 2 -0.004054 0.008039 -0.001748 0.000000 0.001903 0.000000
# 3 -0.000860 -0.001748 0.011580 0.000000 -0.005614 0.000000
# 4 0.000000 0.000000 0.000000 0.016551 0.000000 0.001368
# 5 -0.001762 0.001903 -0.005614 0.000000 0.030766 0.000000
# 6 0.000000 0.000000 0.000000 0.001368 0.000000 0.030509
#
#
# Mechanical properties :
#
#
# Convention : Reuss Voigt Hill
#
# Bulk Modulus (GPa) = 40.98340 49.71793 45.35067
# Shear Modulus (GPa) = 36.49428 42.00759 39.25093
#
# Velocity S-wave (km/s) = 3.74312 4.01592 3.88192
# Velocity P-wave (km/s) = 5.86648 6.37113 6.12400
#
# Compressibility (1/GPa) = 0.02440012
#
# Stress axis : x y z
#
# Youngs Moduli (GPa) = 55.23053 124.40110 86.35893
#
# Poissons Ratio (x) = 0.50428 0.07428
# Poissons Ratio (y) = 0.22389 0.15097
# Poissons Ratio (z) = 0.04750 0.21748
#
# Static dielectric constant tensor:
#      x y z
#    x 2.018410 0.000000 -0.194520 
#    y 0.000000 1.967930 0.000000 
#    z -0.194520 0.000000 2.242330 
# 
# From -- ./inp_files/63419.got.cif
#   From: 2010.05.17/outbox.cif.g08.bks.cpg/sg14_32_cif.got.tgz:63419.got - 2010.06.03 17:49:19.
