data_PCOD9246699
_publ_section_title
;
Structure prediction by ZEFSAII (Michael W. Deem and Ramdas Pophale) SiO2 
 PCOD9246699
Probable space group: P 21/C
;
_chemical_formula_sum "Si O2"
_cell_formula_units_Z 28
_cell_length_a 16.546586
_cell_length_b 10.703552
_cell_length_c 8.978030
_cell_angle_alpha 90.000000
_cell_angle_beta 137.695150
_cell_angle_gamma 90.000000
_cell_volume 1070.239347
_symmetry_space_group_name_H-M "P 21/C"
_symmetry_group_IT_number 14
_symmetry_cell_setting 'monoclinic'
loop_
_space_group_symop_operation_xyz
x,y,z
-x,1/2+y,1/2-z
-x,-y,-z
x,1/2-y,1/2+z
loop_
_atom_site_type_symbol
_atom_site_label
_atom_site_fract_x
_atom_site_fract_y
_atom_site_fract_z
Si Si1 0.293144 0.639032 0.522120
Si Si2 0.017003 0.148400 0.694140
Si Si3 0.343781 0.258639 0.264292
Si Si4 0.698824 0.000644 0.647937
Si Si5 0.910765 0.165577 0.839976
Si Si6 0.496086 0.655903 0.275164
Si Si7 0.183356 0.051591 0.671722
O O1 0.304581 0.576155 0.699234
O O2 0.173540 0.723968 0.342938
O O3 0.401561 0.731404 0.643830
O O4 0.284348 0.538999 0.377713
O O5 0.019700 0.146557 0.874622
O O6 0.962735 0.278256 0.561711
O O7 0.130724 0.119484 0.747331
O O8 0.921389 0.037930 0.529818
O O9 0.398137 0.193144 0.194187
O O10 0.448811 0.339314 0.485895
O O11 0.232558 0.353822 0.115476
O O12 0.308953 0.143808 0.324402
O O13 0.820240 0.051036 0.737092
O O14 0.582095 0.040241 0.391881
#
# Coordination Sequence:
#
# PCOD9246699 Si02
#       7
#     4   4   4   4   4   4   4
#     4  10  21  44  67  94 130 176 213 277 321 397
#     4  10  22  46  69  98 130 176 214 282 322 391
#     4  12  26  42  64  99 132 174 214 276 319 396
#     4  11  23  43  66  97 137 168 221 271 325 394
#     4  10  21  41  73  96 126 174 224 261 339 384
#     4  11  25  41  67  94 131 176 217 263 336 380
#     4  10  25  43  68  95 139 166 225 270 331 376
#
# _framework density 26.162372000000001
#
# number of rings (size 3 to 8) (size 9 to 14) (size 15 to 20)
#    0.000    1.429    2.857    1.286    4.000    2.857 
#    5.143    1.429    0.000    0.000    0.000    0.000 
#    0.000    0.000    0.000    0.000    0.000    0.000 
#
# Total GULP energy -156993.379669 kJ/mol
# GULP energy per Si atom -5606.906417 kJ/mol
# Density = 2.610283 g / cm^3
# Si number density = 26.162372 Si / 1000 Ang^3
#
#
#
# Elastic Constant Matrix: (Units=GPa)
#
#
# Indices 1 2 3 4 5 6 
#
# 1 86.1897 -0.4090 9.7832 0.0000 -3.7688 0.0000
# 2 -0.4090 67.8383 23.3482 0.0000 4.1543 0.0000
# 3 9.7832 23.3482 65.7213 0.0000 8.3711 0.0000
# 4 0.0000 0.0000 0.0000 35.6151 0.0000 4.3829
# 5 -3.7688 4.1543 8.3711 0.0000 34.7741 0.0000
# 6 0.0000 0.0000 0.0000 4.3829 0.0000 28.4114
#
#
#
# Elastic Compliance Matrix: (Units=1/GPa)
#
#
# Indices 1 2 3 4 5 6 
#
# 1 0.011939 0.000744 -0.002265 0.000000 0.001750 0.000000
# 2 0.000744 0.016852 -0.006037 0.000000 -0.000479 0.000000
# 3 -0.002265 -0.006037 0.018195 0.000000 -0.003904 0.000000
# 4 0.000000 0.000000 0.000000 0.028621 0.000000 -0.004415
# 5 0.001750 -0.000479 -0.003904 0.000000 0.029944 0.000000
# 6 0.000000 0.000000 0.000000 -0.004415 0.000000 0.035878
#
#
# Mechanical properties :
#
#
# Convention : Reuss Voigt Hill
#
# Bulk Modulus (GPa) = 31.37510 31.68825 31.53167
# Shear Modulus (GPa) = 29.90992 32.22856 31.06924
#
# Velocity S-wave (km/s) = 3.38485 3.51360 3.44983
# Velocity P-wave (km/s) = 5.22444 5.34780 5.28648
#
# Compressibility (1/GPa) = 0.03187241
#
# Stress axis : x y z
#
# Youngs Moduli (GPa) = 83.75611 59.33851 54.96082
#
# Poissons Ratio (x) = -0.04416 0.12447
# Poissons Ratio (y) = -0.06233 0.33178
# Poissons Ratio (z) = 0.18968 0.35821
#
# Static dielectric constant tensor:
#      x y z
#    x 2.014830 0.000000 0.018240 
#    y 0.000000 2.022360 0.000000 
#    z 0.018240 0.000000 2.083320 
# 
# From -- ./inp_files/15873.got.cif
#   From: 2010.05.17/outbox.cif.g08.bks.cpg/sg14_8_cif.got.tgz:15873.got - 2010.06.03 17:49:19.
