data_PCOD9246146
_publ_section_title
;
Structure prediction by ZEFSAII (Michael W. Deem and Ramdas Pophale) SiO2 
 PCOD9246146
Probable space group: P 21/C
;
_chemical_formula_sum "Si O2"
_cell_formula_units_Z 32
_cell_length_a 8.911590
_cell_length_b 5.548714
_cell_length_c 30.059331
_cell_angle_alpha 90.000000
_cell_angle_beta 113.056984
_cell_angle_gamma 90.000000
_cell_volume 1367.632251
_symmetry_space_group_name_H-M "P 21/C"
_symmetry_group_IT_number 14
_symmetry_cell_setting 'monoclinic'
loop_
_space_group_symop_operation_xyz
x,y,z
-x,1/2+y,1/2-z
-x,-y,-z
x,1/2-y,1/2+z
loop_
_atom_site_type_symbol
_atom_site_label
_atom_site_fract_x
_atom_site_fract_y
_atom_site_fract_z
Si Si1 0.405396 0.526144 0.125336
Si Si2 0.136385 0.755298 0.039352
Si Si3 0.422956 0.136846 0.065724
Si Si4 0.523036 0.735333 0.228783
Si Si5 0.989917 0.408987 0.305723
Si Si6 0.121021 0.404173 0.223875
Si Si7 0.199512 0.108034 0.474487
Si Si8 0.689116 0.785721 0.102644
O O1 0.227175 0.574502 0.084379
O O2 0.446558 0.251744 0.117450
O O3 0.423272 0.625218 0.176365
O O4 0.546897 0.661991 0.114363
O O5 0.952987 0.790512 0.034808
O O6 0.266164 0.967279 0.052739
O O7 0.134945 0.632952 0.990549
O O8 0.588859 0.009250 0.070146
O O9 0.360811 0.324034 0.021456
O O10 0.550510 0.487011 0.260602
O O11 0.702213 0.832862 0.237397
O O12 0.005545 0.426994 0.253711
O O13 0.162204 0.364539 0.349305
O O14 0.929530 0.675429 0.311960
O O15 0.886372 0.164219 0.300624
O O16 0.244220 0.115168 0.428423
#
# Coordination Sequence:
#
# PCOD9246146 Si02
#       8
#     4   4   4   4   4   4   4   4
#     4  10  24  43  64  95 130 177 225 285 344 411
#     4   9  21  41  65  91 139 175 224 278 342 417
#     4  10  22  39  66  94 134 180 225 280 344 410
#     4  12  27  44  72 100 137 181 228 284 346 423
#     4  10  22  40  68  94 130 177 213 290 331 405
#     4  10  22  43  65  95 132 170 228 268 351 394
#     4  10  21  40  63  98 132 180 223 281 343 408
#     4  11  23  38  67  96 134 172 235 283 339 408
#
# _framework density 23.398102000000002
#
# number of rings (size 3 to 8) (size 9 to 14) (size 15 to 20)
#    0.000    1.750    1.250    1.500    5.250    8.500 
#    0.000    0.000    0.000    0.000    0.000    0.000 
#    0.000    0.000    0.000    0.000    0.000    0.000 
#
# Total GULP energy -178521.575437 kJ/mol
# GULP energy per Si atom -5578.799232 kJ/mol
# Density = 2.334485 g / cm^3
# Si number density = 23.398102 Si / 1000 Ang^3
#
#
#
# Elastic Constant Matrix: (Units=GPa)
#
#
# Indices 1 2 3 4 5 6 
#
# 1 67.2227 6.3583 22.3960 0.0000 3.7469 0.0000
# 2 6.3583 73.0300 -9.6152 0.0000 -3.0357 0.0000
# 3 22.3960 -9.6152 51.5195 0.0000 5.2714 0.0000
# 4 0.0000 0.0000 0.0000 24.0576 0.0000 11.9172
# 5 3.7469 -3.0357 5.2714 0.0000 30.8246 0.0000
# 6 0.0000 0.0000 0.0000 11.9172 0.0000 24.7202
#
#
#
# Elastic Compliance Matrix: (Units=1/GPa)
#
#
# Indices 1 2 3 4 5 6 
#
# 1 0.017913 -0.002680 -0.008180 0.000000 -0.001042 0.000000
# 2 -0.002680 0.014466 0.003751 0.000000 0.001109 0.000000
# 3 -0.008180 0.003751 0.023946 0.000000 -0.002731 0.000000
# 4 0.000000 0.000000 0.000000 0.054608 0.000000 -0.026325
# 5 -0.001042 0.001109 -0.002731 0.000000 0.033145 0.000000
# 6 0.000000 0.000000 0.000000 -0.026325 0.000000 0.053144
#
#
# Mechanical properties :
#
#
# Convention : Reuss Voigt Hill
#
# Bulk Modulus (GPa) = 23.74894 25.56118 24.65506
# Shear Modulus (GPa) = 22.17545 27.42936 24.80240
#
# Velocity S-wave (km/s) = 3.08189 3.42759 3.25932
# Velocity P-wave (km/s) = 4.77870 5.15874 4.97236
#
# Compressibility (1/GPa) = 0.04210715
#
# Stress axis : x y z
#
# Youngs Moduli (GPa) = 55.82562 69.12599 41.76095
#
# Poissons Ratio (x) = 0.18525 0.34162
# Poissons Ratio (y) = 0.14961 -0.15666
# Poissons Ratio (z) = 0.45668 -0.25932
#
# Static dielectric constant tensor:
#      x y z
#    x 1.875630 0.000000 -0.012070 
#    y 0.000000 2.026090 0.000000 
#    z -0.012070 0.000000 1.877520 
# 
# From -- ./inp_files/79279.got.cif
#   From: 2010.05.17/outbox.cif.g08.bks.cpg/sg14_40_cif.got.tgz:79279.got - 2010.06.03 17:49:19.
