data_PCOD9246130
_publ_section_title
;
Structure prediction by ZEFSAII (Michael W. Deem and Ramdas Pophale) SiO2 
 PCOD9246130
Probable space group: P 21/C
;
_chemical_formula_sum "Si O2"
_cell_formula_units_Z 20
_cell_length_a 8.904521
_cell_length_b 7.652096
_cell_length_c 11.452626
_cell_angle_alpha 90.000000
_cell_angle_beta 69.950960
_cell_angle_gamma 90.000000
_cell_volume 733.071597
_symmetry_space_group_name_H-M "P 21/C"
_symmetry_group_IT_number 14
_symmetry_cell_setting 'monoclinic'
loop_
_space_group_symop_operation_xyz
x,y,z
-x,1/2+y,1/2-z
-x,-y,-z
x,1/2-y,1/2+z
loop_
_atom_site_type_symbol
_atom_site_label
_atom_site_fract_x
_atom_site_fract_y
_atom_site_fract_z
Si Si1 0.591663 0.106869 0.724030
Si Si2 0.192771 0.106059 0.512983
Si Si3 0.990570 0.716973 0.621372
Si Si4 0.265187 0.977158 0.744339
Si Si5 0.766228 0.563860 0.366211
O O1 0.414868 0.106822 0.720228
O O2 0.667375 0.292893 0.733503
O O3 0.699715 0.001418 0.603830
O O4 0.611560 0.994878 0.836324
O O5 0.030444 0.172229 0.491713
O O6 0.195089 0.993143 0.631362
O O7 0.272710 0.289985 0.528465
O O8 0.874920 0.548418 0.638268
O O9 0.896262 0.831972 0.746958
O O10 0.151059 0.616724 0.614166
#
# Coordination Sequence:
#
# PCOD9246130 Si02
#       5
#     4   4   4   4   4
#     4  11  23  41  63  91 126 164 206 255 305 363
#     4  10  22  40  65  92 123 162 208 252 306 366
#     4  10  21  40  63  92 126 162 203 252 305 366
#     4  11  23  41  63  91 126 164 206 255 305 363
#     4  10  21  40  63  92 126 162 203 252 305 366
#
# _framework density 27.282464999999998
#
# number of rings (size 3 to 8) (size 9 to 14) (size 15 to 20)
#    0.000    1.600    0.000    6.000    0.000    1.600 
#    0.000   38.000    0.000    0.000    0.000    0.000 
#    0.000    0.000    0.000    0.000    0.000    0.000 
#
# Total GULP energy -112025.144153 kJ/mol
# GULP energy per Si atom -5601.257208 kJ/mol
# Density = 2.722037 g / cm^3
# Si number density = 27.282465 Si / 1000 Ang^3
#
#
#
# Elastic Constant Matrix: (Units=GPa)
#
#
# Indices 1 2 3 4 5 6 
#
# 1 112.8607 23.1101 30.2751 0.0000 18.2266 0.0000
# 2 23.1101 195.3023 44.4014 0.0000 20.5755 0.0000
# 3 30.2751 44.4014 97.3762 0.0000 32.5986 0.0000
# 4 0.0000 0.0000 0.0000 37.2188 0.0000 -4.6603
# 5 18.2266 20.5755 32.5986 0.0000 36.4635 0.0000
# 6 0.0000 0.0000 0.0000 -4.6603 0.0000 44.4497
#
#
#
# Elastic Compliance Matrix: (Units=1/GPa)
#
#
# Indices 1 2 3 4 5 6 
#
# 1 0.009944 -0.000429 -0.001874 0.000000 -0.003053 0.000000
# 2 -0.000429 0.005773 -0.002112 0.000000 -0.001155 0.000000
# 3 -0.001874 -0.002112 0.015845 0.000000 -0.012037 0.000000
# 4 0.000000 0.000000 0.000000 0.027226 0.000000 0.002854
# 5 -0.003053 -0.001155 -0.012037 0.000000 0.040363 0.000000
# 6 0.000000 0.000000 0.000000 0.002854 0.000000 0.022797
#
#
# Mechanical properties :
#
#
# Convention : Reuss Voigt Hill
#
# Bulk Modulus (GPa) = 43.99268 66.79027 55.39147
# Shear Modulus (GPa) = 36.13893 44.14324 40.14108
#
# Velocity S-wave (km/s) = 3.64348 4.02681 3.83993
# Velocity P-wave (km/s) = 5.81892 6.79371 6.32512
#
# Compressibility (1/GPa) = 0.02273105
#
# Stress axis : x y z
#
# Youngs Moduli (GPa) = 100.56216 173.22256 63.11221
#
# Poissons Ratio (x) = 0.07431 0.11827
# Poissons Ratio (y) = 0.04314 0.13332
# Poissons Ratio (z) = 0.18845 0.36592
#
# Static dielectric constant tensor:
#      x y z
#    x 2.046710 0.000000 0.072360 
#    y 0.000000 2.197140 0.000000 
#    z 0.072360 0.000000 2.185050 
# 
# From -- ./inp_files/23019.got.cif
#   From: 2010.05.17/outbox.cif.g08.bks.cpg/sg14_12_cif.got.tgz:23019.got - 2010.06.03 17:49:19.
