data_PCOD9246756
_publ_section_title
;
Structure prediction by ZEFSAII (Michael W. Deem and Ramdas Pophale) SiO2 
 PCOD9246756
Probable space group: P 21/C
;
_chemical_formula_sum "Si O2"
_cell_formula_units_Z 24
_cell_length_a 9.100407
_cell_length_b 17.005166
_cell_length_c 16.726840
_cell_angle_alpha 90.000000
_cell_angle_beta 149.572358
_cell_angle_gamma 90.000000
_cell_volume 1310.967771
_symmetry_space_group_name_H-M "P 21/C"
_symmetry_group_IT_number 14
_symmetry_cell_setting 'monoclinic'
loop_
_space_group_symop_operation_xyz
x,y,z
-x,1/2+y,1/2-z
-x,-y,-z
x,1/2-y,1/2+z
loop_
_atom_site_type_symbol
_atom_site_label
_atom_site_fract_x
_atom_site_fract_y
_atom_site_fract_z
Si Si1 0.858997 0.987629 0.348519
Si Si2 0.751297 0.937363 0.902388
Si Si3 0.315929 0.336654 0.789230
Si Si4 0.101328 0.566609 0.292243
Si Si5 0.981651 0.178386 0.649871
Si Si6 0.756751 0.607331 0.576098
O O1 0.895107 0.898677 0.336783
O O2 0.526530 0.012673 0.200043
O O3 0.990492 0.043126 0.340750
O O4 0.000000 0.000000 0.500000
O O5 0.678863 0.886689 0.790125
O O6 0.819798 0.883606 0.011818
O O7 0.000000 0.000000 0.000000
O O8 0.136248 0.385868 0.770638
O O9 0.141473 0.256092 0.695049
O O10 0.639538 0.319811 0.972285
O O11 0.411237 0.611509 0.432651
O O12 0.157485 0.482671 0.361399
O O13 0.065569 0.164100 0.782090
#
# Coordination Sequence:
#
# PCOD9246756 Si02
#       6
#     4   4   4   4   4   4
#     4  10  21  42  63  93 124 166 210 256 304 374
#     4  11  22  38  68  95 123 161 213 257 308 371
#     4  12  24  41  62  94 125 166 208 261 317 365
#     4   9  19  36  66  84 122 161 201 244 308 372
#     4  11  25  40  63  88 131 164 207 260 317 367
#     4   9  19  40  61  89 119 160 200 250 302 372
#
# _framework density 18.307085000000001
#
# number of rings (size 3 to 8) (size 9 to 14) (size 15 to 20)
#    0.000    1.667    3.333    2.000    2.333    4.000 
#    3.000    1.667    0.000    0.000    0.000    0.000 
#    0.000    0.000    0.000    0.000    0.000    0.000 
#
# Total GULP energy -133998.438940 kJ/mol
# GULP energy per Si atom -5583.268289 kJ/mol
# Density = 1.826542 g / cm^3
# Si number density = 18.307085 Si / 1000 Ang^3
#
#
#
# Elastic Constant Matrix: (Units=GPa)
#
#
# Indices 1 2 3 4 5 6 
#
# 1 120.1086 33.8637 49.0179 0.0000 -5.1462 0.0000
# 2 33.8637 67.6836 31.4427 0.0000 17.1925 0.0000
# 3 49.0179 31.4427 99.8879 0.0000 -4.0372 0.0000
# 4 0.0000 0.0000 0.0000 24.2254 0.0000 9.7469
# 5 -5.1462 17.1925 -4.0372 0.0000 33.5648 0.0000
# 6 0.0000 0.0000 0.0000 9.7469 0.0000 21.1315
#
#
#
# Elastic Compliance Matrix: (Units=1/GPa)
#
#
# Indices 1 2 3 4 5 6 
#
# 1 0.011469 -0.004865 -0.003944 0.000000 0.003776 0.000000
# 2 -0.004865 0.023081 -0.005412 0.000000 -0.013219 0.000000
# 3 -0.003944 -0.005412 0.013805 0.000000 0.003828 0.000000
# 4 0.000000 0.000000 0.000000 0.050685 0.000000 -0.023379
# 5 0.003776 -0.013219 0.003828 0.000000 0.037604 0.000000
# 6 0.000000 0.000000 0.000000 -0.023379 0.000000 0.058106
#
#
# Mechanical properties :
#
#
# Convention : Reuss Voigt Hill
#
# Bulk Modulus (GPa) = 50.22080 57.36986 53.79533
# Shear Modulus (GPa) = 21.75518 27.34139 24.54828
#
# Velocity S-wave (km/s) = 3.45098 3.86876 3.66583
# Velocity P-wave (km/s) = 6.58567 7.16672 6.88233
#
# Compressibility (1/GPa) = 0.01991207
#
# Stress axis : x y z
#
# Youngs Moduli (GPa) = 87.19242 43.32578 72.43714
#
# Poissons Ratio (x) = 0.21078 0.28570
# Poissons Ratio (y) = 0.42420 0.39205
# Poissons Ratio (z) = 0.34389 0.23449
#
# Static dielectric constant tensor:
#      x y z
#    x 1.643480 0.000000 -0.027910 
#    y 0.000000 1.624840 0.000000 
#    z -0.027910 0.000000 1.653450 
# 
# From -- ./inp_files/16605.got.cif
#   From: 2010.05.17/outbox.cif.g08.bks.cpg/sg14_9_cif.got.tgz:16605.got - 2010.06.03 17:49:19.
