data_PCOD9246358
_publ_section_title
;
Structure prediction by ZEFSAII (Michael W. Deem and Ramdas Pophale) SiO2 
 PCOD9246358
Probable space group: P 21/C
;
_chemical_formula_sum "Si O2"
_cell_formula_units_Z 28
_cell_length_a 9.532703
_cell_length_b 13.660102
_cell_length_c 14.023777
_cell_angle_alpha 90.000000
_cell_angle_beta 133.896584
_cell_angle_gamma 90.000000
_cell_volume 1315.905524
_symmetry_space_group_name_H-M "P 21/C"
_symmetry_group_IT_number 14
_symmetry_cell_setting 'monoclinic'
loop_
_space_group_symop_operation_xyz
x,y,z
-x,1/2+y,1/2-z
-x,-y,-z
x,1/2-y,1/2+z
loop_
_atom_site_type_symbol
_atom_site_label
_atom_site_fract_x
_atom_site_fract_y
_atom_site_fract_z
Si Si1 0.154449 0.635184 0.397032
Si Si2 0.750573 0.796041 0.616789
Si Si3 0.416254 0.785753 0.591679
Si Si4 0.956448 0.408785 0.046778
Si Si5 0.296200 0.276124 0.121907
Si Si6 0.902839 0.583142 0.678933
Si Si7 0.006736 0.112434 0.977320
O O1 0.323422 0.714622 0.466648
O O2 0.194800 0.520435 0.397213
O O3 0.963818 0.663979 0.246543
O O4 0.110112 0.654235 0.488564
O O5 0.596519 0.835049 0.620718
O O6 0.694246 0.816813 0.480901
O O7 0.766690 0.677301 0.632269
O O8 0.256785 0.860538 0.557682
O O9 0.512987 0.725155 0.724039
O O10 0.123388 0.332395 0.094536
O O11 0.987080 0.435574 0.171285
O O12 0.000000 0.500000 0.000000
O O13 0.216865 0.164481 0.077807
O O14 0.044496 0.616805 0.658646
O O15 0.000000 0.000000 0.000000
#
# Coordination Sequence:
#
# PCOD9246358 Si02
#       7
#     4   4   4   4   4   4   4
#     4  11  21  42  71  94 139 186 227 286 355 407
#     4  11  23  43  68  99 138 179 234 282 343 421
#     4  12  23  43  69  97 138 180 229 290 344 409
#     4  12  25  47  67 100 147 187 223 289 360 411
#     4  11  23  44  65 100 141 180 231 289 342 414
#     4  10  21  40  69  98 131 177 236 278 339 413
#     4   9  18  37  67  93 127 177 227 276 335 406
#
# _framework density 21.278123999999998
#
# number of rings (size 3 to 8) (size 9 to 14) (size 15 to 20)
#    0.000    1.143    5.714    0.857    0.000    4.000 
#    7.714    2.857    0.000    0.000    0.000    0.000 
#    0.000    0.000    0.000    0.000    0.000    0.000 
#
# Total GULP energy -156033.534050 kJ/mol
# GULP energy per Si atom -5572.626216 kJ/mol
# Density = 2.122969 g / cm^3
# Si number density = 21.278124 Si / 1000 Ang^3
#
#
#
# Elastic Constant Matrix: (Units=GPa)
#
#
# Indices 1 2 3 4 5 6 
#
# 1 91.9520 14.2258 61.8193 0.0000 -24.1696 0.0000
# 2 14.2258 94.5378 20.2184 0.0000 12.3661 0.0000
# 3 61.8193 20.2184 123.3365 0.0000 -11.1291 0.0000
# 4 0.0000 0.0000 0.0000 22.6634 0.0000 -12.0873
# 5 -24.1696 12.3661 -11.1291 0.0000 42.4607 0.0000
# 6 0.0000 0.0000 0.0000 -12.0873 0.0000 27.4328
#
#
#
# Elastic Compliance Matrix: (Units=1/GPa)
#
#
# Indices 1 2 3 4 5 6 
#
# 1 0.019469 -0.002357 -0.008511 0.000000 0.009538 0.000000
# 2 -0.002357 0.011864 -0.001225 0.000000 -0.005118 0.000000
# 3 -0.008511 -0.001225 0.012465 0.000000 -0.001221 0.000000
# 4 0.000000 0.000000 0.000000 0.057678 0.000000 0.025414
# 5 0.009538 -0.005118 -0.001221 0.000000 0.030151 0.000000
# 6 0.000000 0.000000 0.000000 0.025414 0.000000 0.047651
#
#
# Mechanical properties :
#
#
# Convention : Reuss Voigt Hill
#
# Bulk Modulus (GPa) = 50.99314 55.81703 53.40509
# Shear Modulus (GPa) = 23.80933 32.74890 28.27911
#
# Velocity S-wave (km/s) = 3.34871 3.92738 3.64953
# Velocity P-wave (km/s) = 6.24251 6.84506 6.55071
#
# Compressibility (1/GPa) = 0.01961048
#
# Stress axis : x y z
#
# Youngs Moduli (GPa) = 51.36340 84.28881 80.22653
#
# Poissons Ratio (x) = 0.19867 0.68284
# Poissons Ratio (y) = 0.12106 0.09830
# Poissons Ratio (z) = 0.43717 0.10328
#
# Static dielectric constant tensor:
#      x y z
#    x 1.958420 0.000000 -0.023480 
#    y 0.000000 1.825980 0.000000 
#    z -0.023480 0.000000 1.785390 
# 
# From -- ./inp_files/41449.got.cif
#   From: 2010.05.17/outbox.cif.g08.bks.cpg/sg14_21_cif.got.tgz:41449.got - 2010.06.03 17:49:19.
