data_PCOD9246233
_publ_section_title
;
Structure prediction by ZEFSAII (Michael W. Deem and Ramdas Pophale) SiO2 
 PCOD9246233
Probable space group: P 21/C
;
_chemical_formula_sum "Si O2"
_cell_formula_units_Z 28
_cell_length_a 10.756344
_cell_length_b 12.337761
_cell_length_c 16.745738
_cell_angle_alpha 90.000000
_cell_angle_beta 141.384919
_cell_angle_gamma 90.000000
_cell_volume 1386.913158
_symmetry_space_group_name_H-M "P 21/C"
_symmetry_group_IT_number 14
_symmetry_cell_setting 'monoclinic'
loop_
_space_group_symop_operation_xyz
x,y,z
-x,1/2+y,1/2-z
-x,-y,-z
x,1/2-y,1/2+z
loop_
_atom_site_type_symbol
_atom_site_label
_atom_site_fract_x
_atom_site_fract_y
_atom_site_fract_z
Si Si1 0.792418 0.324069 0.519029
Si Si2 0.672053 0.663839 0.746714
Si Si3 0.046892 0.435226 0.375414
Si Si4 0.887392 0.747621 0.208905
Si Si5 0.035609 0.523155 0.111235
Si Si6 0.024801 0.256138 0.983238
Si Si7 0.731525 0.982523 0.596259
O O1 0.559149 0.324920 0.384890
O O2 0.853686 0.450667 0.554112
O O3 0.889508 0.258988 0.493675
O O4 0.884048 0.274698 0.647663
O O5 0.774892 0.742957 0.735793
O O6 0.765388 0.545834 0.772210
O O7 0.760356 0.700928 0.876881
O O8 0.145567 0.354479 0.359894
O O9 0.030325 0.359613 0.443978
O O10 0.843773 0.467306 0.228899
O O11 0.785779 0.644106 0.118899
O O12 0.854709 0.481068 0.077520
O O13 0.056472 0.653458 0.119504
O O14 0.000000 0.500000 0.000000
O O15 0.500000 0.000000 0.500000
#
# Coordination Sequence:
#
# PCOD9246233 Si02
#       7
#     4   4   4   4   4   4   4
#     4  10  24  41  63  95 129 173 215 280 330 401
#     4  10  22  41  65  93 129 170 219 264 336 390
#     4  11  22  42  65  91 138 164 221 278 334 388
#     4  10  22  41  62  92 132 169 212 276 330 389
#     4  10  21  40  65  94 134 170 216 275 320 395
#     4  10  22  42  67  91 132 171 216 271 337 390
#     4  11  24  41  65 100 132 176 226 269 332 401
#
# _framework density 20.188718000000001
#
# number of rings (size 3 to 8) (size 9 to 14) (size 15 to 20)
#    0.000    1.714    2.857    0.429    2.000    4.000 
#    2.571    0.000    0.000    0.000    0.000    0.000 
#    0.000    0.000    0.000    0.000    0.000    0.000 
#
# Total GULP energy -155872.391359 kJ/mol
# GULP energy per Si atom -5566.871120 kJ/mol
# Density = 2.014277 g / cm^3
# Si number density = 20.188718 Si / 1000 Ang^3
#
#
#
# Elastic Constant Matrix: (Units=GPa)
#
#
# Indices 1 2 3 4 5 6 
#
# 1 74.1243 11.5024 52.0155 0.0000 9.6766 0.0000
# 2 11.5024 93.9088 22.7964 0.0000 5.5591 0.0000
# 3 52.0155 22.7964 131.1021 0.0000 32.9906 0.0000
# 4 0.0000 0.0000 0.0000 20.3973 0.0000 -18.0868
# 5 9.6766 5.5591 32.9906 0.0000 24.2908 0.0000
# 6 0.0000 0.0000 0.0000 -18.0868 0.0000 31.8885
#
#
#
# Elastic Compliance Matrix: (Units=1/GPa)
#
#
# Indices 1 2 3 4 5 6 
#
# 1 0.018978 -0.000511 -0.008459 0.000000 0.004045 0.000000
# 2 -0.000511 0.011132 -0.001737 0.000000 0.000014 0.000000
# 3 -0.008459 -0.001737 0.015705 0.000000 -0.017563 0.000000
# 4 0.000000 0.000000 0.000000 0.098632 0.000000 0.055943
# 5 0.004045 0.000014 -0.017563 0.000000 0.063406 0.000000
# 6 0.000000 0.000000 0.000000 0.055943 0.000000 0.063089
#
#
# Mechanical properties :
#
#
# Convention : Reuss Voigt Hill
#
# Bulk Modulus (GPa) = 40.97859 52.41821 46.69840
# Shear Modulus (GPa) = 16.63956 29.50338 23.07147
#
# Velocity S-wave (km/s) = 2.87400 3.82695 3.38419
# Velocity P-wave (km/s) = 5.59956 6.74891 6.20092
#
# Compressibility (1/GPa) = 0.02440299
#
# Stress axis : x y z
#
# Youngs Moduli (GPa) = 52.69339 89.83198 63.67344
#
# Poissons Ratio (x) = 0.04587 0.53859
# Poissons Ratio (y) = 0.02691 0.11058
# Poissons Ratio (z) = 0.44571 0.15601
#
# Static dielectric constant tensor:
#      x y z
#    x 1.767370 0.000000 -0.034400 
#    y 0.000000 2.176280 0.000000 
#    z -0.034400 0.000000 1.744620 
# 
# From -- ./inp_files/35160.got.cif
#   From: 2010.05.17/outbox.cif.g08.bks.cpg/sg14_18_cif.got.tgz:35160.got - 2010.06.03 17:49:19.
