data_PCOD9246337
_publ_section_title
;
Structure prediction by ZEFSAII (Michael W. Deem and Ramdas Pophale) SiO2 
 PCOD9246337
Probable space group: P 21/C
;
_chemical_formula_sum "Si O2"
_cell_formula_units_Z 20
_cell_length_a 5.240233
_cell_length_b 7.883614
_cell_length_c 23.245380
_cell_angle_alpha 90.000000
_cell_angle_beta 126.277087
_cell_angle_gamma 90.000000
_cell_volume 774.170328
_symmetry_space_group_name_H-M "P 21/C"
_symmetry_group_IT_number 14
_symmetry_cell_setting 'monoclinic'
loop_
_space_group_symop_operation_xyz
x,y,z
-x,1/2+y,1/2-z
-x,-y,-z
x,1/2-y,1/2+z
loop_
_atom_site_type_symbol
_atom_site_label
_atom_site_fract_x
_atom_site_fract_y
_atom_site_fract_z
Si Si1 0.810244 0.462522 0.238020
Si Si2 0.792399 0.705934 0.799225
Si Si3 0.491573 0.202921 0.397327
Si Si4 0.101657 0.382589 0.438952
Si Si5 0.286072 0.770263 0.457365
O O1 0.561935 0.322961 0.226819
O O2 0.860048 0.598959 0.294394
O O3 0.628402 0.568284 0.163986
O O4 0.220180 0.314703 0.392299
O O5 0.881861 0.609008 0.752415
O O6 0.046862 0.648229 0.880859
O O7 0.751579 0.321568 0.403048
O O8 0.662670 0.126506 0.477107
O O9 0.144683 0.582758 0.453244
O O10 0.359636 0.286028 0.514423
#
# Coordination Sequence:
#
# PCOD9246337 Si02
#       5
#     4   4   4   4   4
#     4  12  29  48  70 102 138 190 226 296 343 416
#     4  12  29  47  72 100 142 184 237 280 353 407
#     4  10  21  40  68  96 137 168 231 269 351 387
#     4   9  20  37  68 105 131 183 208 288 330 431
#     4   9  23  38  71 100 139 175 230 272 352 407
#
# _framework density 25.834106999999999
#
# number of rings (size 3 to 8) (size 9 to 14) (size 15 to 20)
#    1.200    0.400    0.000    3.000    8.400    1.600 
#    0.000    0.000    0.000    0.000    0.000    0.000 
#    0.000    0.000    0.000    0.000    0.000    0.000 
#
# Total GULP energy -111954.999735 kJ/mol
# GULP energy per Si atom -5597.749987 kJ/mol
# Density = 2.577531 g / cm^3
# Si number density = 25.834107 Si / 1000 Ang^3
#
#
#
# Elastic Constant Matrix: (Units=GPa)
#
#
# Indices 1 2 3 4 5 6 
#
# 1 148.8186 18.3005 10.5956 0.0000 10.1079 0.0000
# 2 18.3005 61.3905 -13.5502 0.0000 4.4947 0.0000
# 3 10.5956 -13.5502 95.4826 0.0000 -4.9386 0.0000
# 4 0.0000 0.0000 0.0000 45.0767 0.0000 1.5327
# 5 10.1079 4.4947 -4.9386 0.0000 28.7119 0.0000
# 6 0.0000 0.0000 0.0000 1.5327 0.0000 39.7231
#
#
#
# Elastic Compliance Matrix: (Units=1/GPa)
#
#
# Indices 1 2 3 4 5 6 
#
# 1 0.007251 -0.002261 -0.001250 0.000000 -0.002414 0.000000
# 2 -0.002261 0.017665 0.002680 0.000000 -0.001509 0.000000
# 3 -0.001250 0.002680 0.011092 0.000000 0.001929 0.000000
# 4 0.000000 0.000000 0.000000 0.022214 0.000000 -0.000857
# 5 -0.002414 -0.001509 0.001929 0.000000 0.036246 0.000000
# 6 0.000000 0.000000 0.000000 -0.000857 0.000000 0.025207
#
#
# Mechanical properties :
#
#
# Convention : Reuss Voigt Hill
#
# Bulk Modulus (GPa) = 29.11618 37.37592 33.24605
# Shear Modulus (GPa) = 37.65477 42.05872 39.85675
#
# Velocity S-wave (km/s) = 3.82194 4.03926 3.93210
# Velocity P-wave (km/s) = 5.54718 6.02107 5.78898
#
# Compressibility (1/GPa) = 0.03434516
#
# Stress axis : x y z
#
# Youngs Moduli (GPa) = 137.92085 56.60914 90.15596
#
# Poissons Ratio (x) = 0.12797 0.11272
# Poissons Ratio (y) = 0.31179 -0.24159
# Poissons Ratio (z) = 0.17243 -0.15170
#
# Static dielectric constant tensor:
#      x y z
#    x 1.989480 0.000000 -0.054770 
#    y 0.000000 1.998280 0.000000 
#    z -0.054770 0.000000 2.145250 
# 
# From -- ./inp_files/39422.got.cif
#   From: 2010.05.17/outbox.cif.g08.bks.cpg/sg14_20_cif.got.tgz:39422.got - 2010.06.03 17:49:19.
