data_PCOD9246680
_publ_section_title
;
Structure prediction by ZEFSAII (Michael W. Deem and Ramdas Pophale) SiO2 
 PCOD9246680
Probable space group: P 21/C
;
_chemical_formula_sum "Si O2"
_cell_formula_units_Z 24
_cell_length_a 20.438947
_cell_length_b 12.148995
_cell_length_c 14.396641
_cell_angle_alpha 90.000000
_cell_angle_beta 20.237506
_cell_angle_gamma 90.000000
_cell_volume 1236.591505
_symmetry_space_group_name_H-M "P 21/C"
_symmetry_group_IT_number 14
_symmetry_cell_setting 'monoclinic'
loop_
_space_group_symop_operation_xyz
x,y,z
-x,1/2+y,1/2-z
-x,-y,-z
x,1/2-y,1/2+z
loop_
_atom_site_type_symbol
_atom_site_label
_atom_site_fract_x
_atom_site_fract_y
_atom_site_fract_z
Si Si1 0.421681 0.173122 0.110001
Si Si2 0.645784 0.726912 0.986217
Si Si3 0.808688 0.490959 0.811233
Si Si4 0.007411 0.383270 0.936579
Si Si5 0.656115 0.235659 0.468337
Si Si6 0.788234 0.460659 0.054367
O O1 0.356981 0.261996 0.121087
O O2 0.258587 0.085776 0.351893
O O3 0.509163 0.224526 0.085960
O O4 0.591808 0.104503 0.834317
O O5 0.713137 0.609262 0.931757
O O6 0.790619 0.822854 0.826304
O O7 0.439568 0.741750 0.305218
O O8 0.691206 0.393960 0.919561
O O9 0.000000 0.500000 0.500000
O O10 0.838104 0.459921 0.879862
O O11 0.849801 0.302248 0.191835
O O12 0.941675 0.407983 0.918854
O O13 0.000000 0.500000 0.000000
#
# Coordination Sequence:
#
# PCOD9246680 Si02
#       6
#     4   4   4   4   4   4
#     4  10  21  41  70  97 124 179 225 262 329 408
#     4  12  24  42  71  97 136 174 220 280 334 397
#     4  12  25  45  63  99 142 171 213 288 337 379
#     4  11  24  44  69  98 128 179 231 263 327 415
#     4  11  25  44  66  99 136 173 223 275 337 394
#     4  10  21  42  69  91 133 176 221 268 327 403
#
# _framework density 19.408187999999999
#
# number of rings (size 3 to 8) (size 9 to 14) (size 15 to 20)
#    0.000    1.000    6.667    0.000    2.333    2.000 
#    6.000    0.000    0.000    0.000    0.000    0.000 
#    0.000    0.000    0.000    0.000    0.000    0.000 
#
# Total GULP energy -134061.257868 kJ/mol
# GULP energy per Si atom -5585.885745 kJ/mol
# Density = 1.936401 g / cm^3
# Si number density = 19.408188 Si / 1000 Ang^3
#
#
#
# Elastic Constant Matrix: (Units=GPa)
#
#
# Indices 1 2 3 4 5 6 
#
# 1 76.1389 12.2961 3.9704 0.0000 19.7140 0.0000
# 2 12.2961 95.8941 1.6706 0.0000 11.7502 0.0000
# 3 3.9704 1.6706 40.9021 0.0000 21.0343 0.0000
# 4 0.0000 0.0000 0.0000 17.6139 0.0000 2.3431
# 5 19.7140 11.7502 21.0343 0.0000 23.6410 0.0000
# 6 0.0000 0.0000 0.0000 2.3431 0.0000 33.7280
#
#
#
# Elastic Compliance Matrix: (Units=1/GPa)
#
#
# Indices 1 2 3 4 5 6 
#
# 1 0.019491 0.000647 0.012177 0.000000 -0.027410 0.000000
# 2 0.000647 0.011572 0.004977 0.000000 -0.010720 0.000000
# 3 0.012177 0.004977 0.054490 0.000000 -0.061110 0.000000
# 4 0.000000 0.000000 0.000000 0.057303 0.000000 -0.003981
# 5 -0.027410 -0.010720 -0.061110 0.000000 0.124856 0.000000
# 6 0.000000 0.000000 0.000000 -0.003981 0.000000 0.029925
#
#
# Mechanical properties :
#
#
# Convention : Reuss Voigt Hill
#
# Bulk Modulus (GPa) = 8.25378 27.64549 17.94963
# Shear Modulus (GPa) = 16.53333 27.99646 22.26489
#
# Velocity S-wave (km/s) = 2.92185 3.80216 3.39069
# Velocity P-wave (km/s) = 3.95537 5.79227 4.95960
#
# Compressibility (1/GPa) = 0.12115663
#
# Stress axis : x y z
#
# Youngs Moduli (GPa) = 51.30456 86.41559 18.35215
#
# Poissons Ratio (x) = -0.05593 -0.22348
# Poissons Ratio (y) = -0.03320 -0.09134
# Poissons Ratio (z) = -0.62476 -0.43011
#
# Static dielectric constant tensor:
#      x y z
#    x 1.665680 0.000000 -0.009670 
#    y 0.000000 1.611880 0.000000 
#    z -0.009670 0.000000 1.704810 
# 
# From -- ./inp_files/44256.got.cif
#   From: 2010.05.17/outbox.cif.g08.bks.cpg/sg14_23_cif.got.tgz:44256.got - 2010.06.03 17:49:19.
