data_PCOD9246015
_publ_section_title
;
Structure prediction by ZEFSAII (Michael W. Deem and Ramdas Pophale) SiO2 
 PCOD9246015
Probable space group: P 21/C
;
_chemical_formula_sum "Si O2"
_cell_formula_units_Z 32
_cell_length_a 13.970125
_cell_length_b 9.601476
_cell_length_c 23.051426
_cell_angle_alpha 90.000000
_cell_angle_beta 151.914008
_cell_angle_gamma 90.000000
_cell_volume 1455.690467
_symmetry_space_group_name_H-M "P 21/C"
_symmetry_group_IT_number 14
_symmetry_cell_setting 'monoclinic'
loop_
_space_group_symop_operation_xyz
x,y,z
-x,1/2+y,1/2-z
-x,-y,-z
x,1/2-y,1/2+z
loop_
_atom_site_type_symbol
_atom_site_label
_atom_site_fract_x
_atom_site_fract_y
_atom_site_fract_z
Si Si1 0.178047 0.284663 0.188617
Si Si2 0.258675 0.438581 0.123863
Si Si3 0.650222 0.324644 0.462221
Si Si4 0.876648 0.889026 0.104816
Si Si5 0.921284 0.125082 0.663021
Si Si6 0.768879 0.044425 0.793176
Si Si7 0.670726 0.259716 0.342393
Si Si8 0.296246 0.104241 0.516379
O O1 0.119464 0.373801 0.099787
O O2 0.409477 0.329131 0.327375
O O3 0.057910 0.319898 0.182823
O O4 0.185097 0.120276 0.176729
O O5 0.447306 0.329696 0.222231
O O6 0.328882 0.596955 0.174887
O O7 0.190041 0.433344 0.020716
O O8 0.753821 0.469952 0.530376
O O9 0.722776 0.222520 0.551849
O O10 0.729047 0.271329 0.441200
O O11 0.957026 0.870912 0.212825
O O12 0.074888 0.894924 0.169924
O O13 0.727054 0.766236 0.006480
O O14 0.832180 0.973575 0.601424
O O15 0.790295 0.137864 0.862760
O O16 0.531711 0.057581 0.646793
#
# Coordination Sequence:
#
# PCOD9246015 Si02
#       8
#     4   4   4   4   4   4   4   4
#     4  11  25  43  74  97 137 174 220 277 336 398
#     4  10  21  40  67 103 133 172 216 272 338 401
#     4  11  23  46  67  99 135 175 217 279 334 383
#     4  12  29  42  70  98 133 179 234 269 320 411
#     4  12  25  48  65  97 133 179 231 273 323 392
#     4  11  25  46  68 102 134 177 218 274 343 394
#     4  10  21  39  69  99 138 168 219 272 334 405
#     4  11  25  44  70  98 138 172 218 282 334 386
#
# _framework density 21.982696000000001
#
# number of rings (size 3 to 8) (size 9 to 14) (size 15 to 20)
#    0.000    1.000    3.750    3.000   10.500    4.000 
#    0.000    0.000    0.000    0.000    0.000    0.000 
#    0.000    0.000    0.000    0.000    0.000    0.000 
#
# Total GULP energy -178941.303861 kJ/mol
# GULP energy per Si atom -5591.915746 kJ/mol
# Density = 2.193266 g / cm^3
# Si number density = 21.982696 Si / 1000 Ang^3
#
#
#
# Elastic Constant Matrix: (Units=GPa)
#
#
# Indices 1 2 3 4 5 6 
#
# 1 40.8615 0.2322 15.8245 0.0000 4.8726 0.0000
# 2 0.2322 109.0733 10.2605 0.0000 -15.7624 0.0000
# 3 15.8245 10.2605 70.0126 0.0000 -3.2392 0.0000
# 4 0.0000 0.0000 0.0000 28.1146 0.0000 -15.9937
# 5 4.8726 -15.7624 -3.2392 0.0000 21.6613 0.0000
# 6 0.0000 0.0000 0.0000 -15.9937 0.0000 -6.3166
#
#
#
# Elastic Compliance Matrix: (Units=1/GPa)
#
#
# Indices 1 2 3 4 5 6 
#
# 1 0.027943 -0.000548 -0.006590 0.000000 -0.007670 0.000000
# 2 -0.000548 0.010351 -0.001046 0.000000 0.007499 0.000000
# 3 -0.006590 -0.001046 0.016071 0.000000 0.003124 0.000000
# 4 0.000000 0.000000 0.000000 0.014575 0.000000 -0.036904
# 5 -0.007670 0.007499 0.003124 0.000000 0.053815 0.000000
# 6 0.000000 0.000000 0.000000 -0.036904 0.000000 -0.064872
#
#
# Mechanical properties :
#
#
# Convention : Reuss Voigt Hill
#
# Bulk Modulus (GPa) = 26.31852 30.28685 28.30268
# Shear Modulus (GPa) = 57.52606 21.60054 39.56330
#
# Velocity S-wave (km/s) = 5.12109 3.13807 4.24695
# Velocity P-wave (km/s) = 6.85316 5.19013 6.07879
#
# Compressibility (1/GPa) = 0.03799606
#
# Stress axis : x y z
#
# Youngs Moduli (GPa) = 35.78733 96.60464 62.22548
#
# Poissons Ratio (x) = 0.05293 0.41008
# Poissons Ratio (y) = 0.01961 0.06510
# Poissons Ratio (z) = 0.23585 0.10107
#
# Static dielectric constant tensor:
#      x y z
#    x 1.823830 0.000000 0.027730 
#    y 0.000000 1.798090 0.000000 
#    z 0.027730 0.000000 1.809690 
# 
# From -- ./inp_files/43787.got.cif
#   From: 2010.05.17/outbox.cif.g08.bks.cpg/sg14_22_cif.got.tgz:43787.got - 2010.06.03 17:49:19.
