data_PCOD9246443
_publ_section_title
;
Structure prediction by ZEFSAII (Michael W. Deem and Ramdas Pophale) SiO2 
 PCOD9246443
Probable space group: P 21/C
;
_chemical_formula_sum "Si O2"
_cell_formula_units_Z 24
_cell_length_a 14.704627
_cell_length_b 7.874918
_cell_length_c 20.805523
_cell_angle_alpha 90.000000
_cell_angle_beta 152.323719
_cell_angle_gamma 90.000000
_cell_volume 1119.029352
_symmetry_space_group_name_H-M "P 21/C"
_symmetry_group_IT_number 14
_symmetry_cell_setting 'monoclinic'
loop_
_space_group_symop_operation_xyz
x,y,z
-x,1/2+y,1/2-z
-x,-y,-z
x,1/2-y,1/2+z
loop_
_atom_site_type_symbol
_atom_site_label
_atom_site_fract_x
_atom_site_fract_y
_atom_site_fract_z
Si Si1 0.811770 0.114696 0.104175
Si Si2 0.832161 0.333190 0.363217
Si Si3 0.742279 0.700370 0.911746
Si Si4 0.027531 0.136000 0.114314
Si Si5 0.531740 0.047646 0.182070
Si Si6 0.052275 0.547903 0.865013
O O1 0.827977 0.316573 0.103448
O O2 0.952435 0.051722 0.133294
O O3 0.905274 0.056650 0.228897
O O4 0.603007 0.036202 0.956665
O O5 0.810153 0.516959 0.316424
O O6 0.681247 0.189415 0.249829
O O7 0.049584 0.273405 0.480215
O O8 0.850268 0.350732 0.451657
O O9 0.603056 0.844807 0.852832
O O10 0.643013 0.596189 0.792151
O O11 0.798158 0.569063 0.003169
O O12 0.066177 0.329615 0.159527
#
# Coordination Sequence:
#
# PCOD9246443 Si02
#       6
#     4   4   4   4   4   4
#     4  10  21  41  62  92 125 162 217 248 315 381
#     4  11  22  41  65  94 134 159 206 271 312 369
#     4  12  23  40  65  94 129 162 214 259 312 374
#     4   9  21  40  62  93 122 171 201 255 325 358
#     4  12  23  37  63  99 120 169 213 259 312 373
#     4  10  21  41  67  89 124 179 199 260 324 368
#
# _framework density 21.447158999999999
#
# number of rings (size 3 to 8) (size 9 to 14) (size 15 to 20)
#    1.000    0.333    3.333    3.500    2.333    0.000 
#    0.000    1.667    0.000    0.000    0.000    0.000 
#    0.000    0.000    0.000    0.000    0.000    0.000 
#
# Total GULP energy -133995.931600 kJ/mol
# GULP energy per Si atom -5583.163817 kJ/mol
# Density = 2.139834 g / cm^3
# Si number density = 21.447159 Si / 1000 Ang^3
#
#
#
# Elastic Constant Matrix: (Units=GPa)
#
#
# Indices 1 2 3 4 5 6 
#
# 1 37.6898 7.5687 2.1244 0.0000 2.8131 0.0000
# 2 7.5687 80.4358 11.3012 0.0000 2.4430 0.0000
# 3 2.1244 11.3012 62.0248 0.0000 -3.3911 0.0000
# 4 0.0000 0.0000 0.0000 19.8326 0.0000 -12.9428
# 5 2.8131 2.4430 -3.3911 0.0000 36.8735 0.0000
# 6 0.0000 0.0000 0.0000 -12.9428 0.0000 47.0464
#
#
#
# Elastic Compliance Matrix: (Units=1/GPa)
#
#
# Indices 1 2 3 4 5 6 
#
# 1 0.027198 -0.002415 -0.000599 0.000000 -0.001970 0.000000
# 2 -0.002415 0.013015 -0.002338 0.000000 -0.000893 0.000000
# 3 -0.000599 -0.002338 0.016664 0.000000 0.001733 0.000000
# 4 0.000000 0.000000 0.000000 0.061455 0.000000 0.016907
# 5 -0.001970 -0.000893 0.001733 0.000000 0.027489 0.000000
# 6 0.000000 0.000000 0.000000 0.016907 0.000000 0.025907
#
#
# Mechanical properties :
#
#
# Convention : Reuss Voigt Hill
#
# Bulk Modulus (GPa) = 21.65761 24.68213 23.16987
# Shear Modulus (GPa) = 25.27513 31.36091 28.31802
#
# Velocity S-wave (km/s) = 3.43663 3.82807 3.63762
# Velocity P-wave (km/s) = 5.08599 5.57424 5.33570
#
# Compressibility (1/GPa) = 0.04617314
#
# Stress axis : x y z
#
# Youngs Moduli (GPa) = 36.76716 76.83396 60.01043
#
# Poissons Ratio (x) = 0.18557 0.03596
# Poissons Ratio (y) = 0.08880 0.14028
# Poissons Ratio (z) = 0.02203 0.17960
#
# Static dielectric constant tensor:
#      x y z
#    x 1.850260 0.000000 0.019340 
#    y 0.000000 1.817920 0.000000 
#    z 0.019340 0.000000 1.730400 
# 
# From -- ./inp_files/74205.got.cif
#   From: 2010.05.17/outbox.cif.g08.bks.cpg/sg14_38_cif.got.tgz:74205.got - 2010.06.03 17:49:19.
