data_PCOD9246745
_publ_section_title
;
Structure prediction by ZEFSAII (Michael W. Deem and Ramdas Pophale) SiO2 
 PCOD9246745
Probable space group: P 21/C
;
_chemical_formula_sum "Si O2"
_cell_formula_units_Z 30
_cell_length_a 15.168645
_cell_length_b 7.761002
_cell_length_c 24.295824
_cell_angle_alpha 90.000000
_cell_angle_beta 154.083770
_cell_angle_gamma 90.000000
_cell_volume 1250.068709
_symmetry_space_group_name_H-M "P 21/C"
_symmetry_group_IT_number 14
_symmetry_cell_setting 'monoclinic'
loop_
_space_group_symop_operation_xyz
x,y,z
-x,1/2+y,1/2-z
-x,-y,-z
x,1/2-y,1/2+z
loop_
_atom_site_type_symbol
_atom_site_label
_atom_site_fract_x
_atom_site_fract_y
_atom_site_fract_z
Si Si1 0.081869 0.128602 0.402013
Si Si2 0.465283 0.572048 0.106108
Si Si3 0.500000 0.500000 0.000000
Si Si4 0.619665 0.605547 0.488169
Si Si5 0.312816 0.558639 0.669301
Si Si6 0.284868 0.800660 0.879709
Si Si7 0.390485 0.435240 0.266116
Si Si8 0.041295 0.286801 0.007885
O O1 0.209942 0.279344 0.443576
O O2 0.047467 0.173988 0.446384
O O3 0.875450 0.120353 0.251938
O O4 0.226930 0.962647 0.479047
O O5 0.545754 0.540468 0.090476
O O6 0.569821 0.441573 0.207428
O O7 0.538648 0.756159 0.167381
O O8 0.729405 0.402341 0.119424
O O9 0.697879 0.427125 0.558731
O O10 0.511996 0.705263 0.478994
O O11 0.452097 0.568318 0.347874
O O12 0.471503 0.543408 0.709758
O O13 0.174939 0.389193 0.588141
O O14 0.174280 0.727406 0.589781
O O15 0.163563 0.417008 0.116239
#
# Coordination Sequence:
#
# PCOD9246745 Si02
#       8
#     4   4   2   4   4   4   4   4
#     4  12  24  43  66  99 132 173 222 272 334 401
#     4  11  24  41  69  97 136 176 221 274 336 389
#     4  12  22  46  66  96 130 176 224 274 328 390
#     4  11  25  46  66  96 136 174 223 275 330 397
#     4  10  21  42  63 100 132 168 221 270 326 397
#     4  11  27  44  68  97 132 177 223 276 332 393
#     4  11  22  43  69  97 137 174 219 275 332 394
#     4  10  22  38  67  97 125 175 215 266 335 389
#
# _framework density 23.998678999999999
#
# number of rings (size 3 to 8) (size 9 to 14) (size 15 to 20)
#    0.000    1.067    5.333    0.800    1.867    1.067 
#    0.000    4.000    0.000    0.000    0.000    0.000 
#    0.000    0.000    0.000    0.000    0.000    0.000 
#
# Total GULP energy -167426.941174 kJ/mol
# GULP energy per Si atom -5580.898039 kJ/mol
# Density = 2.394406 g / cm^3
# Si number density = 23.998679 Si / 1000 Ang^3
#
#
#
# Elastic Constant Matrix: (Units=GPa)
#
#
# Indices 1 2 3 4 5 6 
#
# 1 137.5149 6.9508 55.5655 0.0000 -15.5532 0.0000
# 2 6.9508 38.0252 -0.2819 0.0000 -2.5110 0.0000
# 3 55.5655 -0.2819 122.6119 0.0000 -28.0107 0.0000
# 4 0.0000 0.0000 0.0000 34.7439 0.0000 0.1441
# 5 -15.5532 -2.5110 -28.0107 0.0000 45.9123 0.0000
# 6 0.0000 0.0000 0.0000 0.1441 0.0000 33.0189
#
#
#
# Elastic Compliance Matrix: (Units=1/GPa)
#
#
# Indices 1 2 3 4 5 6 
#
# 1 0.009019 -0.001642 -0.003967 0.000000 0.000546 0.000000
# 2 -0.001642 0.026714 0.001176 0.000000 0.001622 0.000000
# 3 -0.003967 0.001176 0.011229 0.000000 0.005571 0.000000
# 4 0.000000 0.000000 0.000000 0.028783 0.000000 -0.000126
# 5 0.000546 0.001622 0.005571 0.000000 0.025453 0.000000
# 6 0.000000 0.000000 0.000000 -0.000126 0.000000 0.030286
#
#
# Mechanical properties :
#
#
# Convention : Reuss Voigt Hill
#
# Bulk Modulus (GPa) = 26.24827 46.95790 36.60308
# Shear Modulus (GPa) = 32.66933 38.46286 35.56610
#
# Velocity S-wave (km/s) = 3.69358 4.00773 3.85385
# Velocity P-wave (km/s) = 5.39918 6.40509 5.92353
#
# Compressibility (1/GPa) = 0.03809776
#
# Stress axis : x y z
#
# Youngs Moduli (GPa) = 110.87189 37.43305 89.05628
#
# Poissons Ratio (x) = 0.06147 0.35325
# Poissons Ratio (y) = 0.18206 -0.10475
# Poissons Ratio (z) = 0.43978 -0.04403
#
# Static dielectric constant tensor:
#      x y z
#    x 1.877290 0.000000 0.018420 
#    y 0.000000 1.863660 0.000000 
#    z 0.018420 0.000000 1.928830 
# 
# From -- ./inp_files/46468.got.cif
#   From: 2010.05.17/outbox.cif.g08.bks.cpg/sg14_24_cif.got.tgz:46468.got - 2010.06.03 17:49:19.
