data_PCOD9246729
_publ_section_title
;
Structure prediction by ZEFSAII (Michael W. Deem and Ramdas Pophale) SiO2 
 PCOD9246729
Probable space group: P 21/C
;
_chemical_formula_sum "Si O2"
_cell_formula_units_Z 32
_cell_length_a 14.607285
_cell_length_b 10.293157
_cell_length_c 18.636144
_cell_angle_alpha 90.000000
_cell_angle_beta 148.733768
_cell_angle_gamma 90.000000
_cell_volume 1454.301430
_symmetry_space_group_name_H-M "P 21/C"
_symmetry_group_IT_number 14
_symmetry_cell_setting 'monoclinic'
loop_
_space_group_symop_operation_xyz
x,y,z
-x,1/2+y,1/2-z
-x,-y,-z
x,1/2-y,1/2+z
loop_
_atom_site_type_symbol
_atom_site_label
_atom_site_fract_x
_atom_site_fract_y
_atom_site_fract_z
Si Si1 0.085649 0.209690 0.764999
Si Si2 0.473975 0.030388 0.107833
Si Si3 0.555593 0.077923 0.322746
Si Si4 0.120614 0.462054 0.870208
Si Si5 0.197457 0.556810 0.636585
Si Si6 0.674323 0.089312 0.619222
Si Si7 0.573637 0.686364 0.565072
Si Si8 0.257641 0.823237 0.032681
O O1 0.108502 0.305553 0.850190
O O2 0.055910 0.051533 0.737383
O O3 0.898408 0.257416 0.612859
O O4 0.235486 0.252000 0.807983
O O5 0.303133 0.958355 0.025796
O O6 0.568489 0.068146 0.245001
O O7 0.428535 0.142116 0.020637
O O8 0.570361 0.928116 0.120238
O O9 0.718934 0.997447 0.467347
O O10 0.576061 0.227953 0.357814
O O11 0.366752 0.030994 0.226090
O O12 0.186901 0.524039 0.839924
O O13 0.244977 0.602259 0.748051
O O14 0.204601 0.664154 0.579631
O O15 0.000000 0.500000 0.500000
O O16 0.597562 0.225754 0.540068
O O17 0.500000 0.000000 0.500000
#
# Coordination Sequence:
#
# PCOD9246729 Si02
#       8
#     4   4   4   4   4   4   4   4
#     4  11  22  39  62  94 128 166 214 272 324 382
#     4  10  23  40  61  91 122 166 216 264 321 393
#     4  10  21  42  62  88 126 174 211 259 333 390
#     4  11  23  40  66  94 130 172 216 270 328 394
#     4  11  23  37  62  96 125 160 219 273 313 375
#     4  12  22  40  66  91 125 171 218 258 322 389
#     4  11  22  39  65  90 125 168 216 267 323 390
#     4  10  22  39  61  88 129 165 210 263 326 389
#
# _framework density 22.003692999999998
#
# number of rings (size 3 to 8) (size 9 to 14) (size 15 to 20)
#    0.000    1.250    2.500    3.750    0.000    3.000 
#    0.000    3.750    0.000    0.000    0.000    0.000 
#    0.000    0.000    0.000    0.000    0.000    0.000 
#
# Total GULP energy -178362.934220 kJ/mol
# GULP energy per Si atom -5573.841694 kJ/mol
# Density = 2.195361 g / cm^3
# Si number density = 22.003693 Si / 1000 Ang^3
#
#
#
# Elastic Constant Matrix: (Units=GPa)
#
#
# Indices 1 2 3 4 5 6 
#
# 1 84.6009 -0.5284 31.4993 0.0000 -18.2961 0.0000
# 2 -0.5284 52.9390 16.5165 0.0000 1.9351 0.0000
# 3 31.4993 16.5165 85.6424 0.0000 -1.7238 0.0000
# 4 0.0000 0.0000 0.0000 18.4451 0.0000 2.8592
# 5 -18.2961 1.9351 -1.7238 0.0000 38.7980 0.0000
# 6 0.0000 0.0000 0.0000 2.8592 0.0000 33.0451
#
#
#
# Elastic Compliance Matrix: (Units=1/GPa)
#
#
# Indices 1 2 3 4 5 6 
#
# 1 0.015542 0.001745 -0.005912 0.000000 0.006979 0.000000
# 2 0.001745 0.020349 -0.004574 0.000000 -0.000395 0.000000
# 3 -0.005912 -0.004574 0.014695 0.000000 -0.001907 0.000000
# 4 0.000000 0.000000 0.000000 0.054952 0.000000 -0.004755
# 5 0.006979 -0.000395 -0.001907 0.000000 0.029001 0.000000
# 6 0.000000 0.000000 0.000000 -0.004755 0.000000 0.030673
#
#
# Mechanical properties :
#
#
# Convention : Reuss Voigt Hill
#
# Bulk Modulus (GPa) = 30.20977 35.35080 32.78028
# Shear Modulus (GPa) = 25.80936 29.77063 27.79000
#
# Velocity S-wave (km/s) = 3.42856 3.68228 3.55768
# Velocity P-wave (km/s) = 5.42518 5.84634 5.63969
#
# Compressibility (1/GPa) = 0.03310188
#
# Stress axis : x y z
#
# Youngs Moduli (GPa) = 64.34262 49.14347 68.05170
#
# Poissons Ratio (x) = -0.08574 0.40234
# Poissons Ratio (y) = -0.11225 0.31126
# Poissons Ratio (z) = 0.38041 0.22478
#
# Static dielectric constant tensor:
#      x y z
#    x 1.855320 0.000000 0.055450 
#    y 0.000000 1.923220 0.000000 
#    z 0.055450 0.000000 1.880690 
# 
# From -- ./inp_files/59515.got.cif
#   From: 2010.05.17/outbox.cif.g08.bks.cpg/sg14_30_cif.got.tgz:59515.got - 2010.06.03 17:49:19.
