data_PCOD9246413
_publ_section_title
;
Structure prediction by ZEFSAII (Michael W. Deem and Ramdas Pophale) SiO2 
 PCOD9246413
Probable space group: P 21/C
;
_chemical_formula_sum "Si O2"
_cell_formula_units_Z 32
_cell_length_a 12.613376
_cell_length_b 9.729519
_cell_length_c 13.957344
_cell_angle_alpha 90.000000
_cell_angle_beta 105.930255
_cell_angle_gamma 90.000000
_cell_volume 1647.093958
_symmetry_space_group_name_H-M "P 21/C"
_symmetry_group_IT_number 14
_symmetry_cell_setting 'monoclinic'
loop_
_space_group_symop_operation_xyz
x,y,z
-x,1/2+y,1/2-z
-x,-y,-z
x,1/2-y,1/2+z
loop_
_atom_site_type_symbol
_atom_site_label
_atom_site_fract_x
_atom_site_fract_y
_atom_site_fract_z
Si Si1 0.405800 0.558549 0.114043
Si Si2 0.353589 0.444436 0.790649
Si Si3 0.297986 0.361816 0.235502
Si Si4 0.867782 0.779637 0.469845
Si Si5 0.323638 0.860544 0.103550
Si Si6 0.797955 0.485344 0.078807
Si Si7 0.106124 0.798465 0.959521
Si Si8 0.765479 0.960267 0.069766
O O1 0.532730 0.524949 0.125471
O O2 0.371843 0.476379 0.201579
O O3 0.393175 0.722355 0.121809
O O4 0.313380 0.517895 0.013645
O O5 0.355195 0.286286 0.758785
O O6 0.347825 0.542752 0.697988
O O7 0.246244 0.469789 0.829152
O O8 0.194170 0.335194 0.139699
O O9 0.264808 0.409788 0.333124
O O10 0.795177 0.664522 0.506090
O O11 0.984162 0.718278 0.467534
O O12 0.876931 0.904459 0.547461
O O13 0.194590 0.814475 0.068277
O O14 0.328868 0.948128 0.006029
O O15 0.854084 0.336501 0.087756
O O16 0.130323 0.935281 0.904242
#
# Coordination Sequence:
#
# PCOD9246413 Si02
#       8
#     4   4   4   4   4   4   4   4
#     4  10  23  40  62  86 122 165 204 258 310 361
#     4  12  21  40  62  91 119 165 203 255 313 364
#     4  11  23  40  61  94 122 156 211 257 302 375
#     4  11  20  42  63  89 124 163 201 254 310 364
#     4   9  22  40  62  88 124 159 205 258 303 368
#     4  10  22  39  60  89 123 156 210 256 299 368
#     4   9  21  41  63  85 124 162 197 250 312 358
#     4  10  21  41  61  88 128 159 202 257 308 361
#
# _framework density 19.428156999999999
#
# number of rings (size 3 to 8) (size 9 to 14) (size 15 to 20)
#    0.750    1.000    2.500    1.875    1.750    0.000 
#    4.500    3.750    0.000    0.000    0.000    0.000 
#    0.000    0.000    0.000    0.000    0.000    0.000 
#
# Total GULP energy -178424.444404 kJ/mol
# GULP energy per Si atom -5575.763888 kJ/mol
# Density = 1.938394 g / cm^3
# Si number density = 19.428157 Si / 1000 Ang^3
#
#
#
# Elastic Constant Matrix: (Units=GPa)
#
#
# Indices 1 2 3 4 5 6 
#
# 1 43.4314 -4.1115 11.3842 0.0000 -4.6204 0.0000
# 2 -4.1115 99.6882 26.2197 0.0000 -6.8872 0.0000
# 3 11.3842 26.2197 63.4932 0.0000 -12.3242 0.0000
# 4 0.0000 0.0000 0.0000 15.5177 0.0000 -0.7667
# 5 -4.6204 -6.8872 -12.3242 0.0000 14.5180 0.0000
# 6 0.0000 0.0000 0.0000 -0.7667 0.0000 7.1093
#
#
#
# Elastic Compliance Matrix: (Units=1/GPa)
#
#
# Indices 1 2 3 4 5 6 
#
# 1 0.025024 0.002590 -0.004516 0.000000 0.005359 0.000000
# 2 0.002590 0.011556 -0.004804 0.000000 0.002228 0.000000
# 3 -0.004516 -0.004804 0.021338 0.000000 0.014397 0.000000
# 4 0.000000 0.000000 0.000000 0.064788 0.000000 0.006987
# 5 0.005359 0.002228 0.014397 0.000000 0.083864 0.000000
# 6 0.000000 0.000000 0.000000 0.006987 0.000000 0.141415
#
#
# Mechanical properties :
#
#
# Convention : Reuss Voigt Hill
#
# Bulk Modulus (GPa) = 22.49334 30.39972 26.44653
# Shear Modulus (GPa) = 13.28859 18.97036 16.12947
#
# Velocity S-wave (km/s) = 2.61815 3.12819 2.88446
# Velocity P-wave (km/s) = 4.55439 5.35991 4.97348
#
# Compressibility (1/GPa) = 0.04445761
#
# Stress axis : x y z
#
# Youngs Moduli (GPa) = 39.96185 86.53864 46.86536
#
# Poissons Ratio (x) = -0.22415 0.21165
# Poissons Ratio (y) = -0.10351 0.22513
# Poissons Ratio (z) = 0.18047 0.41571
#
# Static dielectric constant tensor:
#      x y z
#    x 1.661810 0.000000 0.022200 
#    y 0.000000 1.688200 0.000000 
#    z 0.022200 0.000000 1.660630 
# 
# From -- ./inp_files/43760.got.cif
#   From: 2010.05.17/outbox.cif.g08.bks.cpg/sg14_22_cif.got.tgz:43760.got - 2010.06.03 17:49:19.
