data_PCOD9246375
_publ_section_title
;
Structure prediction by ZEFSAII (Michael W. Deem and Ramdas Pophale) SiO2 
 PCOD9246375
Probable space group: P 21/C
;
_chemical_formula_sum "Si O2"
_cell_formula_units_Z 26
_cell_length_a 9.341576
_cell_length_b 15.945090
_cell_length_c 9.416914
_cell_angle_alpha 90.000000
_cell_angle_beta 45.870536
_cell_angle_gamma 90.000000
_cell_volume 1006.792624
_symmetry_space_group_name_H-M "P 21/C"
_symmetry_group_IT_number 14
_symmetry_cell_setting 'monoclinic'
loop_
_space_group_symop_operation_xyz
x,y,z
-x,1/2+y,1/2-z
-x,-y,-z
x,1/2-y,1/2+z
loop_
_atom_site_type_symbol
_atom_site_label
_atom_site_fract_x
_atom_site_fract_y
_atom_site_fract_z
Si Si1 0.202702 0.692244 0.360886
Si Si2 0.183707 0.521654 0.212937
Si Si3 0.151463 0.318665 0.837730
Si Si4 0.600681 0.729895 0.601540
Si Si5 0.000000 0.000000 0.500000
Si Si6 0.778990 0.434277 0.412631
Si Si7 0.497800 0.045846 0.725387
O O1 0.152998 0.615049 0.291387
O O2 0.408118 0.729628 0.163543
O O3 0.034432 0.760809 0.492237
O O4 0.893168 0.916257 0.637675
O O5 0.238570 0.653715 0.493802
O O6 0.975646 0.475156 0.350998
O O7 0.343140 0.475851 0.203701
O O8 0.313160 0.295490 0.845467
O O9 0.234929 0.289818 0.628857
O O10 0.530378 0.642936 0.720878
O O11 0.845922 0.061853 0.705228
O O12 0.718479 0.022263 0.513094
O O13 0.586745 0.488052 0.590795
#
# Coordination Sequence:
#
# PCOD9246375 Si02
#       7
#     4   4   4   4   2   4   4
#     4  11  26  46  78 110 142 201 257 304 380 459
#     4  10  22  42  75 105 136 190 256 306 366 451
#     4  12  28  50  75 108 162 198 255 313 385 454
#     4  12  26  48  76 113 152 202 253 321 373 459
#     4  12  28  44  70 106 152 210 234 312 396 444
#     4  11  23  46  69 105 146 190 248 313 369 445
#     4  10  21  40  71 105 136 184 238 307 371 436
#
# _framework density 25.824584000000002
#
# number of rings (size 3 to 8) (size 9 to 14) (size 15 to 20)
#    0.000    0.923    1.538    5.538    2.154    9.846 
#    0.000    2.308    0.000    0.000    0.000    0.000 
#    0.000    0.000    0.000    0.000    0.000    0.000 
#
# Total GULP energy -145577.826101 kJ/mol
# GULP energy per Si atom -5599.147158 kJ/mol
# Density = 2.576581 g / cm^3
# Si number density = 25.824584 Si / 1000 Ang^3
#
#
#
# Elastic Constant Matrix: (Units=GPa)
#
#
# Indices 1 2 3 4 5 6 
#
# 1 60.3101 31.3809 14.8365 0.0000 -7.6507 0.0000
# 2 31.3809 115.7490 13.7529 0.0000 -23.2494 0.0000
# 3 14.8365 13.7529 126.2179 0.0000 2.7460 0.0000
# 4 0.0000 0.0000 0.0000 37.1686 0.0000 -6.4564
# 5 -7.6507 -23.2494 2.7460 0.0000 48.9857 0.0000
# 6 0.0000 0.0000 0.0000 -6.4564 0.0000 27.6825
#
#
#
# Elastic Compliance Matrix: (Units=1/GPa)
#
#
# Indices 1 2 3 4 5 6 
#
# 1 0.019710 -0.004965 -0.001794 0.000000 0.000822 0.000000
# 2 -0.004965 0.010968 -0.000709 0.000000 0.004470 0.000000
# 3 -0.001794 -0.000709 0.008234 0.000000 -0.001078 0.000000
# 4 0.000000 0.000000 0.000000 0.028040 0.000000 0.006540
# 5 0.000822 0.004470 -0.001078 0.000000 0.022724 0.000000
# 6 0.000000 0.000000 0.000000 0.006540 0.000000 0.037649
#
#
# Mechanical properties :
#
#
# Convention : Reuss Voigt Hill
#
# Bulk Modulus (GPa) = 41.70739 46.91308 44.31023
# Shear Modulus (GPa) = 33.27710 38.92115 36.09912
#
# Velocity S-wave (km/s) = 3.59358 3.88640 3.74285
# Velocity P-wave (km/s) = 5.77960 6.19227 5.98949
#
# Compressibility (1/GPa) = 0.02397657
#
# Stress axis : x y z
#
# Youngs Moduli (GPa) = 50.73529 91.17834 121.44300
#
# Poissons Ratio (x) = 0.45273 0.21783
# Poissons Ratio (y) = 0.25192 0.08606
# Poissons Ratio (z) = 0.09100 0.06461
#
# Static dielectric constant tensor:
#      x y z
#    x 4.422040 0.000000 0.807940 
#    y 0.000000 1.898430 0.000000 
#    z 0.807940 0.000000 2.223310 
# 
# From -- ./inp_files/10619.got.cif
#   From: 2010.05.17/outbox.cif.g08.bks.cpg/sg14_6_cif.got.tgz:10619.got - 2010.06.03 17:49:19.
