data_PCOD9246957
_publ_section_title
;
Structure prediction by ZEFSAII (Michael W. Deem and Ramdas Pophale) SiO2 
 PCOD9246957
Probable space group: P 21/C
;
_chemical_formula_sum "Si O2"
_cell_formula_units_Z 16
_cell_length_a 9.166140
_cell_length_b 7.455355
_cell_length_c 17.323785
_cell_angle_alpha 90.000000
_cell_angle_beta 42.333451
_cell_angle_gamma 90.000000
_cell_volume 797.258628
_symmetry_space_group_name_H-M "P 21/C"
_symmetry_group_IT_number 14
_symmetry_cell_setting 'monoclinic'
loop_
_space_group_symop_operation_xyz
x,y,z
-x,1/2+y,1/2-z
-x,-y,-z
x,1/2-y,1/2+z
loop_
_atom_site_type_symbol
_atom_site_label
_atom_site_fract_x
_atom_site_fract_y
_atom_site_fract_z
Si Si1 0.337871 0.269857 0.031621
Si Si2 0.831678 0.435962 0.002999
Si Si3 0.635490 0.976857 0.330437
Si Si4 0.061978 0.532435 0.565583
O O1 0.340764 0.306290 0.121420
O O2 0.256682 0.086345 0.025591
O O3 0.170195 0.418037 0.064068
O O4 0.564453 0.348982 0.909249
O O5 0.584632 0.441688 0.131583
O O6 0.881872 0.241004 0.952077
O O7 0.000000 0.500000 0.000000
O O8 0.847684 0.007295 0.198831
O O9 0.000000 0.500000 0.500000
#
# Coordination Sequence:
#
# PCOD9246957 Si02
#       4
#     4   4   4   4
#     4   9  22  45  59  91 132 159 220 266 308 392
#     4  10  21  43  61  92 129 162 215 266 312 389
#     4   9  23  43  62  95 130 164 218 271 313 384
#     4  12  23  39  68  95 127 176 212 260 342 379
#
# _framework density 20.068767000000001
#
# number of rings (size 3 to 8) (size 9 to 14) (size 15 to 20)
#    1.500    0.500    2.500    0.000    3.500    5.000 
#    4.500    0.000    0.000    0.000    0.000    0.000 
#    0.000    0.000    0.000    0.000    0.000    0.000 
#
# Total GULP energy -89082.811085 kJ/mol
# GULP energy per Si atom -5567.675693 kJ/mol
# Density = 2.002309 g / cm^3
# Si number density = 20.068767 Si / 1000 Ang^3
#
#
#
# Elastic Constant Matrix: (Units=GPa)
#
#
# Indices 1 2 3 4 5 6 
#
# 1 89.3205 25.1876 1.8516 0.0000 0.7586 0.0000
# 2 25.1876 117.5145 4.2789 0.0000 1.5241 0.0000
# 3 1.8516 4.2789 102.8405 0.0000 -1.6918 0.0000
# 4 0.0000 0.0000 0.0000 11.2777 0.0000 -3.3569
# 5 0.7586 1.5241 -1.6918 0.0000 21.9781 0.0000
# 6 0.0000 0.0000 0.0000 -3.3569 0.0000 41.5649
#
#
#
# Elastic Compliance Matrix: (Units=1/GPa)
#
#
# Indices 1 2 3 4 5 6 
#
# 1 0.011918 -0.002547 -0.000113 0.000000 -0.000243 0.000000
# 2 -0.002547 0.009075 -0.000341 0.000000 -0.000568 0.000000
# 3 -0.000113 -0.000341 0.009753 0.000000 0.000778 0.000000
# 4 0.000000 0.000000 0.000000 0.090855 0.000000 0.007338
# 5 -0.000243 -0.000568 0.000778 0.000000 0.045608 0.000000
# 6 0.000000 0.000000 0.000000 0.007338 0.000000 0.024651
#
#
# Mechanical properties :
#
#
# Convention : Reuss Voigt Hill
#
# Bulk Modulus (GPa) = 40.41285 41.36796 40.89041
# Shear Modulus (GPa) = 24.25883 33.52129 28.89006
#
# Velocity S-wave (km/s) = 3.48053 4.09139 3.79826
# Velocity P-wave (km/s) = 6.02769 6.55570 6.29723
#
# Compressibility (1/GPa) = 0.02474460
#
# Stress axis : x y z
#
# Youngs Moduli (GPa) = 83.90425 110.18865 102.53442
#
# Poissons Ratio (x) = 0.28068 0.01155
# Poissons Ratio (y) = 0.21373 0.03497
# Poissons Ratio (z) = 0.00945 0.03758
#
# Static dielectric constant tensor:
#      x y z
#    x 1.803650 0.000000 0.028330 
#    y 0.000000 1.740100 0.000000 
#    z 0.028330 0.000000 1.715620 
# 
# From -- ./inp_files/56918.got.cif
#   From: 2010.05.17/outbox.cif.g08.bks.cpg/sg14_29_cif.got.tgz:56918.got - 2010.06.03 17:49:19.
