data_PCOD9246051
_publ_section_title
;
Structure prediction by ZEFSAII (Michael W. Deem and Ramdas Pophale) SiO2 
 PCOD9246051
Probable space group: P 21/C
;
_chemical_formula_sum "Si O2"
_cell_formula_units_Z 24
_cell_length_a 13.990888
_cell_length_b 7.684530
_cell_length_c 9.787885
_cell_angle_alpha 90.000000
_cell_angle_beta 67.714066
_cell_angle_gamma 90.000000
_cell_volume 973.722816
_symmetry_space_group_name_H-M "P 21/C"
_symmetry_group_IT_number 14
_symmetry_cell_setting 'monoclinic'
loop_
_space_group_symop_operation_xyz
x,y,z
-x,1/2+y,1/2-z
-x,-y,-z
x,1/2-y,1/2+z
loop_
_atom_site_type_symbol
_atom_site_label
_atom_site_fract_x
_atom_site_fract_y
_atom_site_fract_z
Si Si1 0.656539 0.798538 0.027872
Si Si2 0.057128 0.167321 0.839090
Si Si3 0.125602 0.443543 0.594645
Si Si4 0.548653 0.893920 0.822536
Si Si5 0.235997 0.558246 0.129331
Si Si6 0.338513 0.751779 0.329576
O O1 0.751184 0.933894 0.979833
O O2 0.568750 0.851427 0.968932
O O3 0.704637 0.620863 0.939242
O O4 0.612766 0.747669 0.198238
O O5 0.093076 0.343245 0.749004
O O6 0.122861 0.010480 0.733017
O O7 0.085152 0.162606 0.983602
O O8 0.937854 0.121403 0.879840
O O9 0.430691 0.865733 0.841826
O O10 0.602425 0.074749 0.754568
O O11 0.284065 0.656046 0.233479
O O12 0.258522 0.678060 0.986136
#
# Coordination Sequence:
#
# PCOD9246051 Si02
#       6
#     4   4   4   4   4   4
#     4  10  21  40  61  86 122 161 200 246 302 359
#     4  10  23  42  65  93 125 160 201 250 301 360
#     4  10  22  41  65  93 125 161 201 249 303 358
#     4  11  23  38  61  88 120 161 204 251 301 358
#     4  10  23  41  60  87 123 159 201 251 302 360
#     4  11  24  40  60  89 121 159 205 252 303 359
#
# _framework density 24.647673999999999
#
# number of rings (size 3 to 8) (size 9 to 14) (size 15 to 20)
#    0.000    1.667    0.000    4.000    0.000   12.667 
#    0.000    0.000    0.000    0.000    0.000    0.000 
#    0.000    0.000    0.000    0.000    0.000    0.000 
#
# Total GULP energy -134545.994827 kJ/mol
# GULP energy per Si atom -5606.083118 kJ/mol
# Density = 2.459157 g / cm^3
# Si number density = 24.647674 Si / 1000 Ang^3
#
#
#
# Elastic Constant Matrix: (Units=GPa)
#
#
# Indices 1 2 3 4 5 6 
#
# 1 115.8665 16.0272 1.6292 0.0000 -28.5304 0.0000
# 2 16.0272 66.6314 -3.4967 0.0000 -1.6440 0.0000
# 3 1.6292 -3.4967 99.6400 0.0000 -1.7050 0.0000
# 4 0.0000 0.0000 0.0000 37.3488 0.0000 -1.6405
# 5 -28.5304 -1.6440 -1.7050 0.0000 21.7088 0.0000
# 6 0.0000 0.0000 0.0000 -1.6405 0.0000 38.2144
#
#
#
# Elastic Compliance Matrix: (Units=1/GPa)
#
#
# Indices 1 2 3 4 5 6 
#
# 1 0.013249 -0.002763 -0.000019 0.000000 0.017201 0.000000
# 2 -0.002763 0.015642 0.000553 0.000000 -0.002404 0.000000
# 3 -0.000019 0.000553 0.010070 0.000000 0.000807 0.000000
# 4 0.000000 0.000000 0.000000 0.026825 0.000000 0.001152
# 5 0.017201 -0.002404 0.000807 0.000000 0.068552 0.000000
# 6 0.000000 0.000000 0.000000 0.001152 0.000000 0.026218
#
#
# Mechanical properties :
#
#
# Convention : Reuss Voigt Hill
#
# Bulk Modulus (GPa) = 28.98436 34.49524 31.73980
# Shear Modulus (GPa) = 28.32621 37.31961 32.82291
#
# Velocity S-wave (km/s) = 3.39373 3.89539 3.65318
# Velocity P-wave (km/s) = 5.20975 5.85302 5.54073
#
# Compressibility (1/GPa) = 0.03450137
#
# Stress axis : x y z
#
# Youngs Moduli (GPa) = 75.47955 63.92899 99.30809
#
# Poissons Ratio (x) = 0.17666 0.00191
# Poissons Ratio (y) = 0.20858 -0.05492
# Poissons Ratio (z) = 0.00145 -0.03535
#
# Static dielectric constant tensor:
#      x y z
#    x 1.917690 0.000000 -0.044840 
#    y 0.000000 1.989090 0.000000 
#    z -0.044840 0.000000 1.891020 
# 
# From -- ./inp_files/15035.got.cif
#   From: 2010.05.17/outbox.cif.g08.bks.cpg/sg14_8_cif.got.tgz:15035.got - 2010.06.03 17:49:19.
