data_PCOD9246930
_publ_section_title
;
Structure prediction by ZEFSAII (Michael W. Deem and Ramdas Pophale) SiO2 
 PCOD9246930
Probable space group: P 21/C
;
_chemical_formula_sum "Si O2"
_cell_formula_units_Z 28
_cell_length_a 5.130669
_cell_length_b 12.162251
_cell_length_c 18.865597
_cell_angle_alpha 90.000000
_cell_angle_beta 68.113935
_cell_angle_gamma 90.000000
_cell_volume 1092.376369
_symmetry_space_group_name_H-M "P 21/C"
_symmetry_group_IT_number 14
_symmetry_cell_setting 'monoclinic'
loop_
_space_group_symop_operation_xyz
x,y,z
-x,1/2+y,1/2-z
-x,-y,-z
x,1/2-y,1/2+z
loop_
_atom_site_type_symbol
_atom_site_label
_atom_site_fract_x
_atom_site_fract_y
_atom_site_fract_z
Si Si1 0.827582 0.863731 0.079050
Si Si2 0.548136 0.176151 0.264434
Si Si3 0.328619 0.985729 0.193942
Si Si4 0.228881 0.437912 0.059993
Si Si5 0.233844 0.437146 0.558271
Si Si6 0.883675 0.813055 0.289238
Si Si7 0.884013 0.860427 0.582105
O O1 0.525964 0.889163 0.142760
O O2 0.003404 0.759892 0.088396
O O3 0.812017 0.845429 0.995758
O O4 0.982616 0.976994 0.077537
O O5 0.857919 0.226555 0.227645
O O6 0.430258 0.156295 0.355995
O O7 0.342911 0.259957 0.241228
O O8 0.493190 0.056180 0.235550
O O9 0.043961 0.922579 0.243528
O O10 0.287204 0.074779 0.135123
O O11 0.256143 0.353314 0.122252
O O12 0.026645 0.537124 0.104971
O O13 0.500000 0.500000 0.000000
O O14 0.096221 0.384128 0.003053
O O15 0.500000 0.500000 0.500000
#
# Coordination Sequence:
#
# PCOD9246930 Si02
#       7
#     4   4   4   4   4   4   4
#     4  10  21  42  71 101 148 186 252 303 400 453
#     4  12  29  47  80 112 156 202 262 329 396 454
#     4  11  24  44  71 106 154 190 257 320 393 455
#     4  11  29  50  78 109 160 212 269 326 390 499
#     4   9  21  38  63 103 140 191 227 310 377 468
#     4  12  29  51  78 118 150 210 263 327 390 474
#     4  11  25  48  74 106 147 213 254 324 396 466
#
# _framework density 25.632190000000001
#
# number of rings (size 3 to 8) (size 9 to 14) (size 15 to 20)
#    0.000    1.143    2.857    0.857   10.000    4.571 
#    0.000    0.000    0.000    0.000    0.000    0.000 
#    0.000    0.000    0.000    0.000    0.000    0.000 
#
# Total GULP energy -156460.306697 kJ/mol
# GULP energy per Si atom -5587.868096 kJ/mol
# Density = 2.557385 g / cm^3
# Si number density = 25.632190 Si / 1000 Ang^3
#
#
#
# Elastic Constant Matrix: (Units=GPa)
#
#
# Indices 1 2 3 4 5 6 
#
# 1 93.9690 16.3860 28.2915 0.0000 -13.4376 0.0000
# 2 16.3860 110.5960 31.2009 0.0000 -4.8465 0.0000
# 3 28.2915 31.2009 126.4216 0.0000 -8.7904 0.0000
# 4 0.0000 0.0000 0.0000 34.6981 0.0000 -3.9679
# 5 -13.4376 -4.8465 -8.7904 0.0000 36.9313 0.0000
# 6 0.0000 0.0000 0.0000 -3.9679 0.0000 36.8845
#
#
#
# Elastic Compliance Matrix: (Units=1/GPa)
#
#
# Indices 1 2 3 4 5 6 
#
# 1 0.012005 -0.001000 -0.002181 0.000000 0.003717 0.000000
# 2 -0.001000 0.009821 -0.002171 0.000000 0.000408 0.000000
# 3 -0.002181 -0.002171 0.009008 0.000000 0.001066 0.000000
# 4 0.000000 0.000000 0.000000 0.029179 0.000000 0.003139
# 5 0.003717 0.000408 0.001066 0.000000 0.028737 0.000000
# 6 0.000000 0.000000 0.000000 0.003139 0.000000 0.027449
#
#
# Mechanical properties :
#
#
# Convention : Reuss Voigt Hill
#
# Bulk Modulus (GPa) = 49.68356 53.63816 51.66086
# Shear Modulus (GPa) = 37.42131 38.71000 38.06566
#
# Velocity S-wave (km/s) = 3.82505 3.89036 3.85784
# Velocity P-wave (km/s) = 6.23966 6.41493 6.32791
#
# Compressibility (1/GPa) = 0.02012738
#
# Stress axis : x y z
#
# Youngs Moduli (GPa) = 83.30203 101.82656 111.01053
#
# Poissons Ratio (x) = 0.10187 0.24212
# Poissons Ratio (y) = 0.08333 0.24106
# Poissons Ratio (z) = 0.18169 0.22112
#
# Static dielectric constant tensor:
#      x y z
#    x 1.924370 0.000000 0.083120 
#    y 0.000000 3.357480 0.000000 
#    z 0.083120 0.000000 2.097550 
# 
# From -- ./inp_files/63416.got.cif
#   From: 2010.05.17/outbox.cif.g08.bks.cpg/sg14_32_cif.got.tgz:63416.got - 2010.06.03 17:49:19.
