data_PCOD9246308
_publ_section_title
;
Structure prediction by ZEFSAII (Michael W. Deem and Ramdas Pophale) SiO2 
 PCOD9246308
Probable space group: P 21/C
;
_chemical_formula_sum "Si O2"
_cell_formula_units_Z 24
_cell_length_a 8.998245
_cell_length_b 17.076112
_cell_length_c 9.087813
_cell_angle_alpha 90.000000
_cell_angle_beta 117.774263
_cell_angle_gamma 90.000000
_cell_volume 1235.510910
_symmetry_space_group_name_H-M "P 21/C"
_symmetry_group_IT_number 14
_symmetry_cell_setting 'monoclinic'
loop_
_space_group_symop_operation_xyz
x,y,z
-x,1/2+y,1/2-z
-x,-y,-z
x,1/2-y,1/2+z
loop_
_atom_site_type_symbol
_atom_site_label
_atom_site_fract_x
_atom_site_fract_y
_atom_site_fract_z
Si Si1 0.723884 0.805797 0.810166
Si Si2 0.591300 0.917307 0.524570
Si Si3 0.824860 0.207998 0.314782
Si Si4 0.906466 0.692822 0.692964
Si Si5 0.912349 0.583396 0.965715
Si Si6 0.599840 0.231600 0.487504
O O1 0.683330 0.889563 0.718735
O O2 0.873029 0.764532 0.789587
O O3 0.563902 0.752841 0.688849
O O4 0.766435 0.807365 0.000409
O O5 0.731960 0.918360 0.462715
O O6 0.459355 0.845247 0.447898
O O7 0.500000 0.000000 0.500000
O O8 0.743182 0.210714 0.436955
O O9 0.921545 0.287384 0.312314
O O10 0.964948 0.141098 0.386234
O O11 0.673395 0.202302 0.127760
O O12 0.901899 0.618313 0.796152
O O13 0.000000 0.500000 0.000000
#
# Coordination Sequence:
#
# PCOD9246308 Si02
#       6
#     4   4   4   4   4   4
#     4  10  21  40  67  96 127 178 227 273 338 399
#     4  10  23  44  64  94 141 184 220 281 351 394
#     4  12  20  40  66 101 126 170 225 273 334 403
#     4  12  21  42  69  99 129 178 230 279 333 407
#     4  12  26  44  68  98 144 182 223 291 346 397
#     4  10  23  36  66  98 128 166 225 273 327 402
#
# _framework density 19.425163000000001
#
# number of rings (size 3 to 8) (size 9 to 14) (size 15 to 20)
#    1.000    0.000    5.000    2.000    2.333    0.000 
#    0.000    3.333    0.000    0.000    0.000    0.000 
#    0.000    0.000    0.000    0.000    0.000    0.000 
#
# Total GULP energy -133756.209245 kJ/mol
# GULP energy per Si atom -5573.175385 kJ/mol
# Density = 1.938095 g / cm^3
# Si number density = 19.425163 Si / 1000 Ang^3
#
#
#
# Elastic Constant Matrix: (Units=GPa)
#
#
# Indices 1 2 3 4 5 6 
#
# 1 141.7374 41.6043 31.3033 0.0000 -17.5839 0.0000
# 2 41.6043 84.3605 52.4835 0.0000 -14.7069 0.0000
# 3 31.3033 52.4835 140.5363 0.0000 -0.7042 0.0000
# 4 0.0000 0.0000 0.0000 32.1083 0.0000 6.3802
# 5 -17.5839 -14.7069 -0.7042 0.0000 31.0528 0.0000
# 6 0.0000 0.0000 0.0000 6.3802 0.0000 37.5216
#
#
#
# Elastic Compliance Matrix: (Units=1/GPa)
#
#
# Indices 1 2 3 4 5 6 
#
# 1 0.008562 -0.003217 -0.000689 0.000000 0.003309 0.000000
# 2 -0.003217 0.018438 -0.006135 0.000000 0.006772 0.000000
# 3 -0.000689 -0.006135 0.009545 0.000000 -0.003079 0.000000
# 4 0.000000 0.000000 0.000000 0.032234 0.000000 -0.005481
# 5 0.003309 0.006772 -0.003079 0.000000 0.037214 0.000000
# 6 0.000000 0.000000 0.000000 -0.005481 0.000000 0.027583
#
#
# Mechanical properties :
#
#
# Convention : Reuss Voigt Hill
#
# Bulk Modulus (GPa) = 60.74483 68.60180 64.67332
# Shear Modulus (GPa) = 31.41755 36.21940 33.81847
#
# Velocity S-wave (km/s) = 4.02601 4.32274 4.17701
# Velocity P-wave (km/s) = 7.27673 7.76578 7.52523
#
# Compressibility (1/GPa) = 0.01646231
#
# Stress axis : x y z
#
# Youngs Moduli (GPa) = 116.79026 54.23628 104.76837
#
# Poissons Ratio (x) = 0.17448 0.07221
# Poissons Ratio (y) = 0.37572 0.64277
# Poissons Ratio (z) = 0.08049 0.33275
#
# Static dielectric constant tensor:
#      x y z
#    x 1.763770 0.000000 0.040880 
#    y 0.000000 1.665660 0.000000 
#    z 0.040880 0.000000 1.728290 
# 
# From -- ./inp_files/9210.got.cif
#   From: 2010.05.17/outbox.cif.g08.bks.cpg/sg14_5_cif.got.tgz:9210.got - 2010.06.03 17:49:19.
