data_PCOD9246040
_publ_section_title
;
Structure prediction by ZEFSAII (Michael W. Deem and Ramdas Pophale) SiO2 
 PCOD9246040
Probable space group: P 21/C
;
_chemical_formula_sum "Si O2"
_cell_formula_units_Z 32
_cell_length_a 25.209838
_cell_length_b 12.498986
_cell_length_c 8.457834
_cell_angle_alpha 90.000000
_cell_angle_beta 144.063430
_cell_angle_gamma 90.000000
_cell_volume 1564.084296
_symmetry_space_group_name_H-M "P 21/C"
_symmetry_group_IT_number 14
_symmetry_cell_setting 'monoclinic'
loop_
_space_group_symop_operation_xyz
x,y,z
-x,1/2+y,1/2-z
-x,-y,-z
x,1/2-y,1/2+z
loop_
_atom_site_type_symbol
_atom_site_label
_atom_site_fract_x
_atom_site_fract_y
_atom_site_fract_z
Si Si1 0.954405 0.116940 0.062325
Si Si2 0.583032 0.983886 0.320562
Si Si3 0.699158 0.644220 0.898785
Si Si4 0.856085 0.299547 0.624432
Si Si5 0.439662 0.598071 0.915888
Si Si6 0.755947 0.121950 0.184313
Si Si7 0.861209 0.559756 0.124812
Si Si8 0.408536 0.244298 0.126451
O O1 0.915834 0.134834 0.143958
O O2 0.061874 0.107479 0.302011
O O3 0.919470 0.216455 0.872694
O O4 0.911750 0.011278 0.879733
O O5 0.672859 0.963797 0.430899
O O6 0.572427 0.866602 0.377039
O O7 0.588004 0.070245 0.469743
O O8 0.500000 0.000000 0.000000
O O9 0.622223 0.663006 0.581527
O O10 0.677802 0.740565 0.967107
O O11 0.796458 0.642167 0.057804
O O12 0.785812 0.226519 0.355526
O O13 0.803828 0.367843 0.629162
O O14 0.350594 0.613162 0.597808
O O15 0.500000 0.500000 0.000000
O O16 0.503868 0.700809 0.074971
O O17 0.795936 0.020008 0.371581
#
# Coordination Sequence:
#
# PCOD9246040 Si02
#       8
#     4   4   4   4   4   4   4   4
#     4   9  20  39  65  87 119 154 199 254 319 370
#     4  10  23  40  62  85 121 170 207 263 309 354
#     4  10  22  40  58  86 124 159 206 255 304 365
#     4   9  20  41  60  91 118 154 203 258 312 374
#     4  12  23  39  62  90 123 169 215 252 310 364
#     4  10  23  37  61  88 123 158 206 254 307 373
#     4  10  21  40  60  90 123 159 197 256 311 382
#     4  10  22  39  56  87 122 164 212 256 303 362
#
# _framework density 20.459257000000001
#
# number of rings (size 3 to 8) (size 9 to 14) (size 15 to 20)
#    0.750    1.250    1.250    1.500    1.750    4.500 
#    2.250    0.000    0.000    0.000    0.000    0.000 
#    0.000    0.000    0.000    0.000    0.000    0.000 
#
# Total GULP energy -178542.199414 kJ/mol
# GULP energy per Si atom -5579.443732 kJ/mol
# Density = 2.041269 g / cm^3
# Si number density = 20.459257 Si / 1000 Ang^3
#
#
#
# Elastic Constant Matrix: (Units=GPa)
#
#
# Indices 1 2 3 4 5 6 
#
# 1 96.1324 23.7939 16.1051 0.0000 -0.1663 0.0000
# 2 23.7939 36.7087 7.6056 0.0000 12.4112 0.0000
# 3 16.1051 7.6056 46.1267 0.0000 8.7933 0.0000
# 4 0.0000 0.0000 0.0000 5.6673 0.0000 6.2493
# 5 -0.1663 12.4112 8.7933 0.0000 28.9242 0.0000
# 6 0.0000 0.0000 0.0000 6.2493 0.0000 37.0141
#
#
#
# Elastic Compliance Matrix: (Units=1/GPa)
#
#
# Indices 1 2 3 4 5 6 
#
# 1 0.013531 -0.009781 -0.004168 0.000000 0.005542 0.000000
# 2 -0.009781 0.039281 0.000172 0.000000 -0.016964 0.000000
# 3 -0.004168 0.000172 0.024548 0.000000 -0.007561 0.000000
# 4 0.000000 0.000000 0.000000 0.216815 0.000000 -0.036606
# 5 0.005542 -0.016964 -0.007561 0.000000 0.044183 0.000000
# 6 0.000000 0.000000 0.000000 -0.036606 0.000000 0.033197
#
#
# Mechanical properties :
#
#
# Convention : Reuss Voigt Hill
#
# Bulk Modulus (GPa) = 20.07793 30.44189 25.25991
# Shear Modulus (GPa) = 12.02763 23.08533 17.55648
#
# Velocity S-wave (km/s) = 2.42726 3.36275 2.93255
# Velocity P-wave (km/s) = 4.20599 5.47622 4.88259
#
# Compressibility (1/GPa) = 0.04980593
#
# Stress axis : x y z
#
# Youngs Moduli (GPa) = 73.90428 25.45768 40.73709
#
# Poissons Ratio (x) = 0.24899 0.16980
# Poissons Ratio (y) = 0.72283 -0.00700
# Poissons Ratio (z) = 0.30804 -0.00438
#
# Static dielectric constant tensor:
#      x y z
#    x 1.771130 0.000000 -0.020680 
#    y 0.000000 1.733010 0.000000 
#    z -0.020680 0.000000 1.718150 
# 
# From -- ./inp_files/19836.got.cif
#   From: 2010.05.17/outbox.cif.g08.bks.cpg/sg14_10_cif.got.tgz:19836.got - 2010.06.03 17:49:19.
