data_PCOD9246867
_publ_section_title
;
Structure prediction by ZEFSAII (Michael W. Deem and Ramdas Pophale) SiO2 
 PCOD9246867
Probable space group: P 21/C
;
_chemical_formula_sum "Si O2"
_cell_formula_units_Z 28
_cell_length_a 9.218249
_cell_length_b 18.468922
_cell_length_c 10.305239
_cell_angle_alpha 90.000000
_cell_angle_beta 136.185458
_cell_angle_gamma 90.000000
_cell_volume 1214.671676
_symmetry_space_group_name_H-M "P 21/C"
_symmetry_group_IT_number 14
_symmetry_cell_setting 'monoclinic'
loop_
_space_group_symop_operation_xyz
x,y,z
-x,1/2+y,1/2-z
-x,-y,-z
x,1/2-y,1/2+z
loop_
_atom_site_type_symbol
_atom_site_label
_atom_site_fract_x
_atom_site_fract_y
_atom_site_fract_z
Si Si1 0.409437 0.100001 0.837054
Si Si2 0.281605 0.034040 0.005683
Si Si3 0.622877 0.849040 0.720565
Si Si4 0.635104 0.937344 0.466964
Si Si5 0.959295 0.290106 0.416408
Si Si6 0.165625 0.949666 0.251158
Si Si7 0.280637 0.768247 0.968096
O O1 0.257590 0.079694 0.856553
O O2 0.307182 0.101347 0.628935
O O3 0.546271 0.170884 0.950145
O O4 0.572702 0.033487 0.931267
O O5 0.054626 0.008190 0.908056
O O6 0.382372 0.089698 0.172625
O O7 0.683131 0.888150 0.624125
O O8 0.408365 0.806822 0.560371
O O9 0.800413 0.792852 0.883185
O O10 0.383610 0.951640 0.311490
O O11 0.750605 0.013812 0.561972
O O12 0.912317 0.368606 0.323245
O O13 0.823791 0.282230 0.459857
O O14 0.885685 0.235646 0.256637
#
# Coordination Sequence:
#
# PCOD9246867 Si02
#       7
#     4   4   4   4   4   4   4
#     4  11  24  42  66 104 138 185 222 288 341 400
#     4  10  24  42  67 100 145 176 228 282 349 395
#     4  11  25  45  71  98 134 183 228 288 333 409
#     4  11  22  40  73  98 131 174 236 284 333 393
#     4  11  26  43  71  98 133 184 226 275 352 400
#     4  10  21  42  68 102 129 176 228 284 331 402
#     4  12  24  46  65 100 140 178 229 279 339 415
#
# _framework density 23.051497000000001
#
# number of rings (size 3 to 8) (size 9 to 14) (size 15 to 20)
#    0.000    1.143    2.857    2.571    2.000    6.857 
#    0.000    0.000    0.000    0.000    0.000    0.000 
#    0.000    0.000    0.000    0.000    0.000    0.000 
#
# Total GULP energy -156405.142460 kJ/mol
# GULP energy per Si atom -5585.897945 kJ/mol
# Density = 2.299903 g / cm^3
# Si number density = 23.051497 Si / 1000 Ang^3
#
#
#
# Elastic Constant Matrix: (Units=GPa)
#
#
# Indices 1 2 3 4 5 6 
#
# 1 84.1414 13.9387 51.9596 0.0000 -6.6689 0.0000
# 2 13.9387 51.4254 24.3580 0.0000 -9.8119 0.0000
# 3 51.9596 24.3580 134.2964 0.0000 -8.7386 0.0000
# 4 0.0000 0.0000 0.0000 39.0400 0.0000 7.8542
# 5 -6.6689 -9.8119 -8.7386 0.0000 37.0911 0.0000
# 6 0.0000 0.0000 0.0000 7.8542 0.0000 19.1898
#
#
#
# Elastic Compliance Matrix: (Units=1/GPa)
#
#
# Indices 1 2 3 4 5 6 
#
# 1 0.015766 -0.001318 -0.005788 0.000000 0.001123 0.000000
# 2 -0.001318 0.022256 -0.003208 0.000000 0.004895 0.000000
# 3 -0.005788 -0.003208 0.010303 0.000000 0.000538 0.000000
# 4 0.000000 0.000000 0.000000 0.027913 0.000000 -0.011425
# 5 0.001123 0.004895 0.000538 0.000000 0.028584 0.000000
# 6 0.000000 0.000000 0.000000 -0.011425 0.000000 0.056787
#
#
# Mechanical properties :
#
#
# Convention : Reuss Voigt Hill
#
# Bulk Modulus (GPa) = 36.10500 50.04175 43.07337
# Shear Modulus (GPa) = 26.11379 31.03799 28.57589
#
# Velocity S-wave (km/s) = 3.36943 3.67340 3.52469
# Velocity P-wave (km/s) = 5.55285 6.30457 5.94061
#
# Compressibility (1/GPa) = 0.02769699
#
# Stress axis : x y z
#
# Youngs Moduli (GPa) = 63.42671 44.93085 97.06364
#
# Poissons Ratio (x) = 0.05921 0.56180
# Poissons Ratio (y) = 0.08358 0.31142
# Poissons Ratio (z) = 0.36711 0.14416
#
# Static dielectric constant tensor:
#      x y z
#    x 1.834920 0.000000 -0.012220 
#    y 0.000000 1.884980 0.000000 
#    z -0.012220 0.000000 1.910720 
# 
# From -- ./inp_files/10417.got.cif
#   From: 2010.05.17/outbox.cif.g08.bks.cpg/sg14_6_cif.got.tgz:10417.got - 2010.06.03 17:49:19.
