data_PCOD9246020
_publ_section_title
;
Structure prediction by ZEFSAII (Michael W. Deem and Ramdas Pophale) SiO2 
 PCOD9246020
Probable space group: P 21/C
;
_chemical_formula_sum "Si O2"
_cell_formula_units_Z 20
_cell_length_a 9.517068
_cell_length_b 5.164354
_cell_length_c 19.923386
_cell_angle_alpha 90.000000
_cell_angle_beta 118.431404
_cell_angle_gamma 90.000000
_cell_volume 861.118138
_symmetry_space_group_name_H-M "P 21/C"
_symmetry_group_IT_number 14
_symmetry_cell_setting 'monoclinic'
loop_
_space_group_symop_operation_xyz
x,y,z
-x,1/2+y,1/2-z
-x,-y,-z
x,1/2-y,1/2+z
loop_
_atom_site_type_symbol
_atom_site_label
_atom_site_fract_x
_atom_site_fract_y
_atom_site_fract_z
Si Si1 0.473695 0.185612 0.556973
Si Si2 0.167967 0.902410 0.565470
Si Si3 0.873952 0.609050 0.356535
Si Si4 0.750958 0.107587 0.043178
Si Si5 0.561925 0.490868 0.224860
O O1 0.312790 0.352994 0.510162
O O2 0.628326 0.372479 0.577231
O O3 0.500000 0.000000 0.500000
O O4 0.502039 0.072871 0.636973
O O5 0.260515 0.826757 0.518001
O O6 0.196173 0.127089 0.626819
O O7 0.000000 0.000000 0.500000
O O8 0.752824 0.542835 0.268868
O O9 0.851697 0.371688 0.402645
O O10 0.065415 0.618183 0.390243
O O11 0.522075 0.247531 0.264173
#
# Coordination Sequence:
#
# PCOD9246020 Si02
#       5
#     4   4   4   4   4
#     4  11  28  47  73 105 148 199 238 304 373 439
#     4  10  21  39  71 109 139 182 239 297 354 427
#     4  11  24  43  74 108 141 192 240 303 359 430
#     4  10  24  45  73 108 147 189 253 297 365 445
#     4  12  29  50  73 107 151 190 244 305 373 436
#
# _framework density 23.225617
#
# number of rings (size 3 to 8) (size 9 to 14) (size 15 to 20)
#    0.000    1.200    0.000    4.800   19.600    0.000 
#    3.600    0.000    0.000    0.000    0.000    0.000 
#    0.000    0.000    0.000    0.000    0.000    0.000 
#
# Total GULP energy -111666.042263 kJ/mol
# GULP energy per Si atom -5583.302113 kJ/mol
# Density = 2.317275 g / cm^3
# Si number density = 23.225617 Si / 1000 Ang^3
#
#
#
# Elastic Constant Matrix: (Units=GPa)
#
#
# Indices 1 2 3 4 5 6 
#
# 1 81.2105 13.8372 28.2086 0.0000 16.4895 0.0000
# 2 13.8372 133.2652 10.8156 0.0000 -0.7253 0.0000
# 3 28.2086 10.8156 149.0421 0.0000 20.0148 0.0000
# 4 0.0000 0.0000 0.0000 39.8170 0.0000 3.3212
# 5 16.4895 -0.7253 20.0148 0.0000 37.2172 0.0000
# 6 0.0000 0.0000 0.0000 3.3212 0.0000 37.3808
#
#
#
# Elastic Compliance Matrix: (Units=1/GPa)
#
#
# Indices 1 2 3 4 5 6 
#
# 1 0.014285 -0.001359 -0.001888 0.000000 -0.005340 0.000000
# 2 -0.001359 0.007685 -0.000433 0.000000 0.000985 0.000000
# 3 -0.001888 -0.000433 0.007531 0.000000 -0.003222 0.000000
# 4 0.000000 0.000000 0.000000 0.025302 0.000000 -0.002248
# 5 -0.005340 0.000985 -0.003222 0.000000 0.030987 0.000000
# 6 0.000000 0.000000 0.000000 -0.002248 0.000000 0.026951
#
#
# Mechanical properties :
#
#
# Convention : Reuss Voigt Hill
#
# Bulk Modulus (GPa) = 45.16262 52.13784 48.65023
# Shear Modulus (GPa) = 39.22083 43.59342 41.40712
#
# Velocity S-wave (km/s) = 4.11382 4.33708 4.22693
# Velocity P-wave (km/s) = 6.48476 6.89765 6.69439
#
# Compressibility (1/GPa) = 0.02214221
#
# Stress axis : x y z
#
# Youngs Moduli (GPa) = 70.00152 130.11625 132.78601
#
# Poissons Ratio (x) = 0.17684 0.25069
# Poissons Ratio (y) = 0.09514 0.05746
# Poissons Ratio (z) = 0.13216 0.05630
#
# Static dielectric constant tensor:
#      x y z
#    x 1.947580 0.000000 0.073520 
#    y 0.000000 2.001250 0.000000 
#    z 0.073520 0.000000 1.929260 
# 
# From -- ./inp_files/71530.got.cif
#   From: 2010.05.17/outbox.cif.g08.bks.cpg/sg14_36_cif.got.tgz:71530.got - 2010.06.03 17:49:19.
