data_PCOD9246884
_publ_section_title
;
Structure prediction by ZEFSAII (Michael W. Deem and Ramdas Pophale) SiO2 
 PCOD9246884
Probable space group: P 21/C
;
_chemical_formula_sum "Si O2"
_cell_formula_units_Z 32
_cell_length_a 23.517786
_cell_length_b 8.660898
_cell_length_c 14.690899
_cell_angle_alpha 90.000000
_cell_angle_beta 152.899671
_cell_angle_gamma 90.000000
_cell_volume 1363.150478
_symmetry_space_group_name_H-M "P 21/C"
_symmetry_group_IT_number 14
_symmetry_cell_setting 'monoclinic'
loop_
_space_group_symop_operation_xyz
x,y,z
-x,1/2+y,1/2-z
-x,-y,-z
x,1/2-y,1/2+z
loop_
_atom_site_type_symbol
_atom_site_label
_atom_site_fract_x
_atom_site_fract_y
_atom_site_fract_z
Si Si1 0.440006 0.201244 0.364433
Si Si2 0.930940 0.473226 0.173261
Si Si3 0.417955 0.856301 0.261372
Si Si4 0.845792 0.831878 0.275456
Si Si5 0.231592 0.651775 0.897375
Si Si6 0.613490 0.850772 0.385115
Si Si7 0.120211 0.843179 0.586396
Si Si8 0.840059 0.796183 0.963812
O O1 0.548154 0.215626 0.592762
O O2 0.449586 0.331859 0.302398
O O3 0.306155 0.203250 0.223880
O O4 0.438065 0.037491 0.309405
O O5 0.872494 0.425851 0.186408
O O6 0.078720 0.440853 0.387230
O O7 0.870679 0.366092 0.008173
O O8 0.898219 0.645933 0.096445
O O9 0.521324 0.810042 0.334659
O O10 0.289253 0.796085 0.035581
O O11 0.859514 0.724197 0.383785
O O12 0.973148 0.836354 0.400717
O O13 0.826756 0.001647 0.290281
O O14 0.731216 0.765283 0.055640
O O15 0.182878 0.704136 0.729790
O O16 0.336083 0.522691 0.032957
#
# Coordination Sequence:
#
# PCOD9246884 Si02
#       8
#     4   4   4   4   4   4   4   4
#     4  11  24  46  70  98 134 179 226 274 332 392
#     4  11  25  41  68 104 135 175 214 272 342 394
#     4  11  27  45  69  95 132 185 226 272 333 394
#     4  10  21  42  68  95 134 174 221 265 335 402
#     4  12  26  43  64 102 134 169 229 276 324 398
#     4  12  24  44  69  97 133 174 227 282 329 384
#     4  10  23  41  66  98 134 178 212 269 339 399
#     4  11  22  44  70 100 138 172 215 277 332 400
#
# _framework density 23.475031000000001
#
# number of rings (size 3 to 8) (size 9 to 14) (size 15 to 20)
#    0.000    1.000    3.750    2.250    1.750    5.000 
#    0.000    0.000    0.000    0.000    0.000    0.000 
#    0.000    0.000    0.000    0.000    0.000    0.000 
#
# Total GULP energy -179208.380182 kJ/mol
# GULP energy per Si atom -5600.261881 kJ/mol
# Density = 2.342160 g / cm^3
# Si number density = 23.475031 Si / 1000 Ang^3
#
#
#
# Elastic Constant Matrix: (Units=GPa)
#
#
# Indices 1 2 3 4 5 6 
#
# 1 42.1669 9.0941 0.1150 0.0000 -5.8936 0.0000
# 2 9.0941 22.6685 4.5762 0.0000 2.2231 0.0000
# 3 0.1150 4.5762 43.2825 0.0000 -15.8966 0.0000
# 4 0.0000 0.0000 0.0000 35.6090 0.0000 1.4272
# 5 -5.8936 2.2231 -15.8966 0.0000 15.7690 0.0000
# 6 0.0000 0.0000 0.0000 1.4272 0.0000 25.7934
#
#
#
# Elastic Compliance Matrix: (Units=1/GPa)
#
#
# Indices 1 2 3 4 5 6 
#
# 1 0.030821 -0.016988 0.010837 0.000000 0.024839 0.000000
# 2 -0.016988 0.057790 -0.018085 0.000000 -0.032728 0.000000
# 3 0.010837 -0.018085 0.043527 0.000000 0.050479 0.000000
# 4 0.000000 0.000000 0.000000 0.028145 0.000000 -0.001557
# 5 0.024839 -0.032728 0.050479 0.000000 0.128201 0.000000
# 6 0.000000 0.000000 0.000000 -0.001557 0.000000 0.038856
#
#
# Mechanical properties :
#
#
# Convention : Reuss Voigt Hill
#
# Bulk Modulus (GPa) = 11.95234 15.07648 13.51441
# Shear Modulus (GPa) = 12.38540 21.72312 17.05426
#
# Velocity S-wave (km/s) = 2.29944 3.04529 2.69826
# Velocity P-wave (km/s) = 3.48604 4.33605 3.93407
#
# Compressibility (1/GPa) = 0.08366560
#
# Stress axis : x y z
#
# Youngs Moduli (GPa) = 32.44508 17.30405 22.97418
#
# Poissons Ratio (x) = 0.29397 -0.24897
# Poissons Ratio (y) = 0.55119 0.41549
# Poissons Ratio (z) = -0.35161 0.31294
#
# Static dielectric constant tensor:
#      x y z
#    x 1.844710 0.000000 -0.014400 
#    y 0.000000 1.893130 0.000000 
#    z -0.014400 0.000000 1.882640 
# 
# From -- ./inp_files/51404.got.cif
#   From: 2010.05.17/outbox.cif.g08.bks.cpg/sg14_26_cif.got.tgz:51404.got - 2010.06.03 17:49:19.
