data_PCOD9246888
_publ_section_title
;
Structure prediction by ZEFSAII (Michael W. Deem and Ramdas Pophale) SiO2 
 PCOD9246888
Probable space group: P 21/C
;
_chemical_formula_sum "Si O2"
_cell_formula_units_Z 32
_cell_length_a 27.284859
_cell_length_b 8.715777
_cell_length_c 10.757132
_cell_angle_alpha 90.000000
_cell_angle_beta 151.267033
_cell_angle_gamma 90.000000
_cell_volume 1229.769851
_symmetry_space_group_name_H-M "P 21/C"
_symmetry_group_IT_number 14
_symmetry_cell_setting 'monoclinic'
loop_
_space_group_symop_operation_xyz
x,y,z
-x,1/2+y,1/2-z
-x,-y,-z
x,1/2-y,1/2+z
loop_
_atom_site_type_symbol
_atom_site_label
_atom_site_fract_x
_atom_site_fract_y
_atom_site_fract_z
Si Si1 0.766479 0.181216 0.940936
Si Si2 0.514603 0.714778 0.412135
Si Si3 0.913509 0.665498 0.188001
Si Si4 0.346420 0.178692 0.091439
Si Si5 0.305354 0.998914 0.785891
Si Si6 0.153767 0.175517 0.204066
Si Si7 0.616880 0.539492 0.992249
Si Si8 0.140042 0.655439 0.624495
O O1 0.695240 0.329970 0.767149
O O2 0.691006 0.037089 0.757918
O O3 0.832986 0.183088 0.959909
O O4 0.827971 0.210777 0.206297
O O5 0.543035 0.785448 0.607889
O O6 0.614621 0.607089 0.608361
O O7 0.422737 0.599716 0.182013
O O8 0.524566 0.863796 0.347218
O O9 0.925762 0.704120 0.360871
O O10 0.022445 0.607861 0.383785
O O11 0.812634 0.558502 0.968125
O O12 0.889123 0.790361 0.028216
O O13 0.329748 0.320525 0.958694
O O14 0.339869 0.020142 0.005667
O O15 0.243961 0.206859 0.940172
O O16 0.193663 0.000903 0.289471
#
# Coordination Sequence:
#
# PCOD9246888 Si02
#       8
#     4   4   4   4   4   4   4   4
#     4  12  26  47  68 104 145 185 235 292 351 416
#     4  11  22  45  70 100 136 177 228 285 352 415
#     4  11  23  42  72  98 141 189 237 286 354 412
#     4  10  21  42  68  96 135 179 227 286 348 410
#     4  10  23  41  67  99 134 182 228 282 349 411
#     4  11  22  44  68 100 142 185 235 294 350 414
#     4  11  25  43  70 103 135 178 231 285 349 422
#     4  12  26  44  69 101 145 188 236 293 352 412
#
# _framework density 26.021128999999998
#
# number of rings (size 3 to 8) (size 9 to 14) (size 15 to 20)
#    0.000    1.000    3.750    2.250    3.500    0.000 
#    6.750    4.375    0.000    0.000    0.000    0.000 
#    0.000    0.000    0.000    0.000    0.000    0.000 
#
# Total GULP energy -178642.041386 kJ/mol
# GULP energy per Si atom -5582.563793 kJ/mol
# Density = 2.596190 g / cm^3
# Si number density = 26.021129 Si / 1000 Ang^3
#
#
#
# Elastic Constant Matrix: (Units=GPa)
#
#
# Indices 1 2 3 4 5 6 
#
# 1 74.2716 0.0926 9.4302 0.0000 -0.0513 0.0000
# 2 0.0926 54.5696 14.2748 0.0000 -8.7222 0.0000
# 3 9.4302 14.2748 75.4938 0.0000 5.0820 0.0000
# 4 0.0000 0.0000 0.0000 33.0772 0.0000 -1.2099
# 5 -0.0513 -8.7222 5.0820 0.0000 49.2370 0.0000
# 6 0.0000 0.0000 0.0000 -1.2099 0.0000 30.2113
#
#
#
# Elastic Compliance Matrix: (Units=1/GPa)
#
#
# Indices 1 2 3 4 5 6 
#
# 1 0.013695 0.000501 -0.001825 0.000000 0.000291 0.000000
# 2 0.000501 0.020037 -0.004119 0.000000 0.003975 0.000000
# 3 -0.001825 -0.004119 0.014402 0.000000 -0.002218 0.000000
# 4 0.000000 0.000000 0.000000 0.030277 0.000000 0.001213
# 5 0.000291 0.003975 -0.002218 0.000000 0.021243 0.000000
# 6 0.000000 0.000000 0.000000 0.001213 0.000000 0.033149
#
#
# Mechanical properties :
#
#
# Convention : Reuss Voigt Hill
#
# Bulk Modulus (GPa) = 26.84675 27.99224 27.41950
# Shear Modulus (GPa) = 32.02949 34.54092 33.28520
#
# Velocity S-wave (km/s) = 3.51223 3.64733 3.58042
# Velocity P-wave (km/s) = 5.17565 5.34024 5.25859
#
# Compressibility (1/GPa) = 0.03724845
#
# Stress axis : x y z
#
# Youngs Moduli (GPa) = 73.01721 49.90717 69.43371
#
# Poissons Ratio (x) = -0.02499 0.12672
# Poissons Ratio (y) = -0.03656 0.28599
# Poissons Ratio (z) = 0.13326 0.20556
#
# Static dielectric constant tensor:
#      x y z
#    x 2.173840 0.000000 -0.072410 
#    y 0.000000 2.034970 0.000000 
#    z -0.072410 0.000000 2.145930 
# 
# From -- ./inp_files/36450.got.cif
#   From: 2010.05.17/outbox.cif.g08.bks.cpg/sg14_19_cif.got.tgz:36450.got - 2010.06.03 17:49:19.
