data_PCOD9246626
_publ_section_title
;
Structure prediction by ZEFSAII (Michael W. Deem and Ramdas Pophale) SiO2 
 PCOD9246626
Probable space group: P 21/C
;
_chemical_formula_sum "Si O2"
_cell_formula_units_Z 28
_cell_length_a 7.823548
_cell_length_b 6.760545
_cell_length_c 26.440217
_cell_angle_alpha 90.000000
_cell_angle_beta 60.698212
_cell_angle_gamma 90.000000
_cell_volume 1219.533832
_symmetry_space_group_name_H-M "P 21/C"
_symmetry_group_IT_number 14
_symmetry_cell_setting 'monoclinic'
loop_
_space_group_symop_operation_xyz
x,y,z
-x,1/2+y,1/2-z
-x,-y,-z
x,1/2-y,1/2+z
loop_
_atom_site_type_symbol
_atom_site_label
_atom_site_fract_x
_atom_site_fract_y
_atom_site_fract_z
Si Si1 0.566371 0.642636 0.429014
Si Si2 0.825221 0.979177 0.407033
Si Si3 0.184562 0.629488 0.535447
Si Si4 0.112994 0.884260 0.872224
Si Si5 0.846961 0.839062 0.227927
Si Si6 0.256325 0.818675 0.688820
Si Si7 0.435809 0.423513 0.682798
O O1 0.333672 0.623821 0.467068
O O2 0.674276 0.460190 0.440365
O O3 0.636193 0.657294 0.361217
O O4 0.641029 0.838480 0.446607
O O5 0.868377 0.146754 0.442109
O O6 0.770542 0.091624 0.363094
O O7 0.000384 0.819148 0.375505
O O8 0.000420 0.482625 0.563802
O O9 0.343464 0.853021 0.842668
O O10 0.094259 0.058606 0.832863
O O11 0.707254 0.648492 0.251871
O O12 0.047660 0.790181 0.227936
O O13 0.725504 0.004384 0.274981
O O14 0.422576 0.658294 0.675416
#
# Coordination Sequence:
#
# PCOD9246626 Si02
#       7
#     4   4   4   4   4   4   4
#     4  10  21  41  67  98 121 166 223 264 312 384
#     4  11  20  42  66  94 122 163 218 264 319 380
#     4  10  21  42  69  91 129 168 212 269 321 378
#     4  11  27  40  60  96 134 167 206 263 337 385
#     4  12  24  40  62  89 123 166 210 263 318 386
#     4  12  22  40  68  88 119 168 219 264 308 385
#     4  12  26  41  62  97 130 166 213 265 322 393
#
# _framework density 22.959593999999999
#
# number of rings (size 3 to 8) (size 9 to 14) (size 15 to 20)
#    0.000    0.857    5.714    2.143    2.000    1.714 
#    0.000    0.714    0.000    0.000    0.000    0.000 
#    0.000    0.000    0.000    0.000    0.000    0.000 
#
# Total GULP energy -156392.307744 kJ/mol
# GULP energy per Si atom -5585.439562 kJ/mol
# Density = 2.290734 g / cm^3
# Si number density = 22.959594 Si / 1000 Ang^3
#
#
#
# Elastic Constant Matrix: (Units=GPa)
#
#
# Indices 1 2 3 4 5 6 
#
# 1 69.7921 17.5065 5.6745 0.0000 -22.9492 0.0000
# 2 17.5065 113.8847 17.9602 0.0000 -6.3583 0.0000
# 3 5.6745 17.9602 60.5637 0.0000 -16.4117 0.0000
# 4 0.0000 0.0000 0.0000 31.3066 0.0000 -10.4470
# 5 -22.9492 -6.3583 -16.4117 0.0000 25.9245 0.0000
# 6 0.0000 0.0000 0.0000 -10.4470 0.0000 18.0982
#
#
#
# Elastic Compliance Matrix: (Units=1/GPa)
#
#
# Indices 1 2 3 4 5 6 
#
# 1 0.021730 -0.002873 0.004632 0.000000 0.021464 0.000000
# 2 -0.002873 0.009600 -0.003173 0.000000 -0.002197 0.000000
# 3 0.004632 -0.003173 0.021629 0.000000 0.017015 0.000000
# 4 0.000000 0.000000 0.000000 0.039563 0.000000 0.022837
# 5 0.021464 -0.002197 0.017015 0.000000 0.067807 0.000000
# 6 0.000000 0.000000 0.000000 0.022837 0.000000 0.068437
#
#
# Mechanical properties :
#
#
# Convention : Reuss Voigt Hill
#
# Bulk Modulus (GPa) = 19.94715 36.28032 28.11374
# Shear Modulus (GPa) = 20.13667 28.60582 24.37125
#
# Velocity S-wave (km/s) = 2.96471 3.53359 3.26158
# Velocity P-wave (km/s) = 4.51953 5.69951 5.14347
#
# Compressibility (1/GPa) = 0.05013247
#
# Stress axis : x y z
#
# Youngs Moduli (GPa) = 46.01928 104.16518 46.23371
#
# Poissons Ratio (x) = 0.29922 -0.21416
# Poissons Ratio (y) = 0.13219 0.14671
# Poissons Ratio (z) = -0.21317 0.33053
#
# Static dielectric constant tensor:
#      x y z
#    x 1.835710 0.000000 -0.013330 
#    y 0.000000 1.925190 0.000000 
#    z -0.013330 0.000000 1.910510 
# 
# From -- ./inp_files/79190.got.cif
#   From: 2010.05.17/outbox.cif.g08.bks.cpg/sg14_40_cif.got.tgz:79190.got - 2010.06.03 17:49:19.
