data_PCOD9246968
_publ_section_title
;
Structure prediction by ZEFSAII (Michael W. Deem and Ramdas Pophale) SiO2 
 PCOD9246968
Probable space group: P 21/C
;
_chemical_formula_sum "Si O2"
_cell_formula_units_Z 32
_cell_length_a 10.721001
_cell_length_b 12.488116
_cell_length_c 17.149102
_cell_angle_alpha 90.000000
_cell_angle_beta 32.481226
_cell_angle_gamma 90.000000
_cell_volume 1233.010327
_symmetry_space_group_name_H-M "P 21/C"
_symmetry_group_IT_number 14
_symmetry_cell_setting 'monoclinic'
loop_
_space_group_symop_operation_xyz
x,y,z
-x,1/2+y,1/2-z
-x,-y,-z
x,1/2-y,1/2+z
loop_
_atom_site_type_symbol
_atom_site_label
_atom_site_fract_x
_atom_site_fract_y
_atom_site_fract_z
Si Si1 0.740925 0.907027 0.563462
Si Si2 0.223559 0.644412 0.626890
Si Si3 0.058169 0.584523 0.320967
Si Si4 0.425948 0.301272 0.422912
Si Si5 0.395379 0.349971 0.699234
Si Si6 0.827594 0.230685 0.616061
Si Si7 0.045037 0.554938 0.157317
Si Si8 0.097212 0.333731 0.332239
O O1 0.670335 0.817948 0.537450
O O2 0.589198 0.895693 0.721539
O O3 0.991383 0.863724 0.460286
O O4 0.765440 0.017748 0.505710
O O5 0.401234 0.690628 0.595913
O O6 0.392758 0.615724 0.465995
O O7 0.096225 0.548245 0.736957
O O8 0.008214 0.700473 0.696375
O O9 0.785551 0.616581 0.458802
O O10 0.150055 0.596477 0.183608
O O11 0.101942 0.463326 0.327413
O O12 0.151305 0.673033 0.331698
O O13 0.576032 0.318448 0.265038
O O14 0.157813 0.388352 0.783842
O O15 0.342467 0.222209 0.723089
O O16 0.914644 0.286479 0.491605
#
# Coordination Sequence:
#
# PCOD9246968 Si02
#       8
#     4   4   4   4   4   4   4   4
#     4  10  23  40  62  91 130 161 208 259 324 368
#     4  11  23  37  65  92 123 158 216 253 309 373
#     4  10  23  38  67  93 126 165 216 257 317 380
#     4  11  22  39  65  93 122 168 205 262 314 378
#     4  11  23  41  64  91 127 168 209 263 314 376
#     4  10  21  43  63  91 128 168 205 262 321 372
#     4  11  22  39  63  97 121 166 211 263 315 376
#     4  10  24  40  64  95 127 167 213 259 314 378
#
# _framework density 25.952742000000001
#
# number of rings (size 3 to 8) (size 9 to 14) (size 15 to 20)
#    0.000    1.500    2.500    1.875    7.000    0.000 
#    0.000    1.875    0.000    0.000    0.000    0.000 
#    0.000    0.000    0.000    0.000    0.000    0.000 
#
# Total GULP energy -179000.864690 kJ/mol
# GULP energy per Si atom -5593.777022 kJ/mol
# Density = 2.589367 g / cm^3
# Si number density = 25.952742 Si / 1000 Ang^3
#
#
#
# Elastic Constant Matrix: (Units=GPa)
#
#
# Indices 1 2 3 4 5 6 
#
# 1 119.9565 32.9964 11.2293 0.0000 30.1116 0.0000
# 2 32.9964 51.4323 37.9092 0.0000 18.3946 0.0000
# 3 11.2293 37.9092 90.6747 0.0000 27.0527 0.0000
# 4 0.0000 0.0000 0.0000 29.4902 0.0000 12.0873
# 5 30.1116 18.3946 27.0527 0.0000 44.7124 0.0000
# 6 0.0000 0.0000 0.0000 12.0873 0.0000 30.9621
#
#
#
# Elastic Compliance Matrix: (Units=1/GPa)
#
#
# Indices 1 2 3 4 5 6 
#
# 1 0.011992 -0.008106 0.004050 0.000000 -0.007191 0.000000
# 2 -0.008106 0.034708 -0.013271 0.000000 -0.000790 0.000000
# 3 0.004050 -0.013271 0.018621 0.000000 -0.008534 0.000000
# 4 0.000000 0.000000 0.000000 0.040369 0.000000 -0.015760
# 5 -0.007191 -0.000790 -0.008534 0.000000 0.032697 0.000000
# 6 0.000000 0.000000 0.000000 -0.015760 0.000000 0.038450
#
#
# Mechanical properties :
#
#
# Convention : Reuss Voigt Hill
#
# Bulk Modulus (GPa) = 32.60972 47.37037 39.99004
# Shear Modulus (GPa) = 22.55144 33.02817 27.78980
#
# Velocity S-wave (km/s) = 2.95098 3.57126 3.27583
# Velocity P-wave (km/s) = 4.91969 5.94116 5.45439
#
# Compressibility (1/GPa) = 0.03066570
#
# Stress axis : x y z
#
# Youngs Moduli (GPa) = 83.38685 28.81183 53.70157
#
# Poissons Ratio (x) = 0.23356 -0.21747
# Poissons Ratio (y) = 0.67597 0.71268
# Poissons Ratio (z) = -0.33768 0.38236
#
# Static dielectric constant tensor:
#      x y z
#    x 2.065250 0.000000 0.019560 
#    y 0.000000 2.159140 0.000000 
#    z 0.019560 0.000000 2.028190 
# 
# From -- ./inp_files/57980.got.cif
#   From: 2010.05.17/outbox.cif.g08.bks.cpg/sg14_29_cif.got.tgz:57980.got - 2010.06.03 17:49:19.
