data_PCOD9246046
_publ_section_title
;
Structure prediction by ZEFSAII (Michael W. Deem and Ramdas Pophale) SiO2 
 PCOD9246046
Probable space group: P 21/C
;
_chemical_formula_sum "Si O2"
_cell_formula_units_Z 28
_cell_length_a 15.892445
_cell_length_b 11.514000
_cell_length_c 17.791826
_cell_angle_alpha 90.000000
_cell_angle_beta 25.293104
_cell_angle_gamma 90.000000
_cell_volume 1390.972575
_symmetry_space_group_name_H-M "P 21/C"
_symmetry_group_IT_number 14
_symmetry_cell_setting 'monoclinic'
loop_
_space_group_symop_operation_xyz
x,y,z
-x,1/2+y,1/2-z
-x,-y,-z
x,1/2-y,1/2+z
loop_
_atom_site_type_symbol
_atom_site_label
_atom_site_fract_x
_atom_site_fract_y
_atom_site_fract_z
Si Si1 0.120776 0.091526 0.558215
Si Si2 0.093664 0.766546 0.871849
Si Si3 0.777779 0.548380 0.589276
Si Si4 0.526966 0.118857 0.397381
Si Si5 0.101289 0.114894 0.751719
Si Si6 0.884314 0.174633 0.477680
Si Si7 0.547109 0.759943 0.188479
O O1 0.333098 0.152758 0.371545
O O2 0.964463 0.175885 0.645107
O O3 0.093724 0.088688 0.669440
O O4 0.105752 0.962022 0.540828
O O5 0.299994 0.830879 0.691108
O O6 0.112013 0.704604 0.937199
O O7 0.918451 0.860839 0.018803
O O8 0.624875 0.480364 0.765804
O O9 0.928965 0.456064 0.431746
O O10 0.665254 0.624640 0.617001
O O11 0.463408 0.222162 0.390364
O O12 0.678202 0.916651 0.399431
O O13 0.056380 0.250189 0.801716
O O14 0.679251 0.220349 0.607488
#
# Coordination Sequence:
#
# PCOD9246046 Si02
#       7
#     4   4   4   4   4   4   4
#     4  10  23  39  63  95 126 164 212 264 308 373
#     4  10  22  42  64  89 131 168 207 253 324 373
#     4  11  21  41  65  92 124 166 210 265 307 374
#     4  10  21  40  60  93 129 164 203 263 310 371
#     4  11  24  38  66  95 122 165 217 258 309 366
#     4  11  22  41  65  91 130 166 209 256 321 371
#     4   9  19  37  63  89 121 164 205 251 316 363
#
# _framework density 20.129798999999998
#
# number of rings (size 3 to 8) (size 9 to 14) (size 15 to 20)
#    0.000    1.714    2.857    2.571    6.000    0.571 
#    0.000    2.143    0.000    0.000    0.000    0.000 
#    0.000    0.000    0.000    0.000    0.000    0.000 
#
# Total GULP energy -156327.783447 kJ/mol
# GULP energy per Si atom -5583.135123 kJ/mol
# Density = 2.008398 g / cm^3
# Si number density = 20.129799 Si / 1000 Ang^3
#
#
#
# Elastic Constant Matrix: (Units=GPa)
#
#
# Indices 1 2 3 4 5 6 
#
# 1 60.8124 22.6542 15.2921 0.0000 -18.5826 0.0000
# 2 22.6542 123.3387 46.0724 0.0000 -9.9156 0.0000
# 3 15.2921 46.0724 110.1512 0.0000 -21.4793 0.0000
# 4 0.0000 0.0000 0.0000 16.7621 0.0000 0.1132
# 5 -18.5826 -9.9156 -21.4793 0.0000 24.8964 0.0000
# 6 0.0000 0.0000 0.0000 0.1132 0.0000 12.1938
#
#
#
# Elastic Compliance Matrix: (Units=1/GPa)
#
#
# Indices 1 2 3 4 5 6 
#
# 1 0.022416 -0.003352 0.001554 0.000000 0.016737 0.000000
# 2 -0.003352 0.010114 -0.004169 0.000000 -0.002070 0.000000
# 3 0.001554 -0.004169 0.012634 0.000000 0.010400 0.000000
# 4 0.000000 0.000000 0.000000 0.059662 0.000000 -0.000554
# 5 0.016737 -0.002070 0.010400 0.000000 0.060806 0.000000
# 6 0.000000 0.000000 0.000000 -0.000554 0.000000 0.082014
#
#
# Mechanical properties :
#
#
# Convention : Reuss Voigt Hill
#
# Bulk Modulus (GPa) = 30.09284 51.37106 40.73195
# Shear Modulus (GPa) = 18.47343 24.78937 21.63140
#
# Velocity S-wave (km/s) = 3.03267 3.51305 3.28166
# Velocity P-wave (km/s) = 5.21964 6.48310 5.88537
#
# Compressibility (1/GPa) = 0.03323050
#
# Stress axis : x y z
#
# Youngs Moduli (GPa) = 44.61014 98.87047 79.14976
#
# Poissons Ratio (x) = 0.33143 -0.12298
# Poissons Ratio (y) = 0.14954 0.32996
# Poissons Ratio (z) = -0.06931 0.41217
#
# Static dielectric constant tensor:
#      x y z
#    x 1.729310 0.000000 -0.020450 
#    y 0.000000 1.719100 0.000000 
#    z -0.020450 0.000000 1.738460 
# 
# From -- ./inp_files/59264.got.cif
#   From: 2010.05.17/outbox.cif.g08.bks.cpg/sg14_30_cif.got.tgz:59264.got - 2010.06.03 17:49:19.
