data_PCOD9246845
_publ_section_title
;
Structure prediction by ZEFSAII (Michael W. Deem and Ramdas Pophale) SiO2 
 PCOD9246845
Probable space group: P 21/C
;
_chemical_formula_sum "Si O2"
_cell_formula_units_Z 24
_cell_length_a 19.396141
_cell_length_b 5.279965
_cell_length_c 14.109927
_cell_angle_alpha 90.000000
_cell_angle_beta 46.802197
_cell_angle_gamma 90.000000
_cell_volume 1053.405590
_symmetry_space_group_name_H-M "P 21/C"
_symmetry_group_IT_number 14
_symmetry_cell_setting 'monoclinic'
loop_
_space_group_symop_operation_xyz
x,y,z
-x,1/2+y,1/2-z
-x,-y,-z
x,1/2-y,1/2+z
loop_
_atom_site_type_symbol
_atom_site_label
_atom_site_fract_x
_atom_site_fract_y
_atom_site_fract_z
Si Si1 0.537212 0.833168 0.076085
Si Si2 0.061952 0.756670 0.920107
Si Si3 0.057700 0.585944 0.213095
Si Si4 0.633808 0.699383 0.309588
Si Si5 0.386911 0.900475 0.835288
Si Si6 0.786453 0.405994 0.084872
O O1 0.608506 0.028160 0.059080
O O2 0.492635 0.681835 0.205303
O O3 0.442251 0.969877 0.127044
O O4 0.594702 0.678234 0.943190
O O5 0.088395 0.793286 0.784708
O O6 0.151767 0.769106 0.904910
O O7 0.000000 0.500000 0.000000
O O8 0.000000 0.000000 0.000000
O O9 0.997327 0.326965 0.281959
O O10 0.141684 0.503008 0.063401
O O11 0.628444 0.871094 0.223007
O O12 0.739554 0.598523 0.204153
O O13 0.302089 0.712841 0.888355
#
# Coordination Sequence:
#
# PCOD9246845 Si02
#       6
#     4   4   4   4   4   4
#     4  10  21  42  67  92 129 185 210 284 351 411
#     4  12  25  48  74 100 143 191 235 293 363 425
#     4  12  25  48  76 102 143 192 236 296 366 430
#     4  10  23  42  65  94 135 167 233 279 342 421
#     4  11  22  42  66  97 135 175 233 283 345 429
#     4  11  27  42  67 105 133 176 243 287 348 423
#
# _framework density 22.783245999999998
#
# number of rings (size 3 to 8) (size 9 to 14) (size 15 to 20)
#    0.000    1.000    5.000    0.500    7.000    0.000 
#    3.000    0.000    0.000    0.000    0.000    0.000 
#    0.000    0.000    0.000    0.000    0.000    0.000 
#
# Total GULP energy -133791.462091 kJ/mol
# GULP energy per Si atom -5574.644254 kJ/mol
# Density = 2.273139 g / cm^3
# Si number density = 22.783246 Si / 1000 Ang^3
#
#
#
# Elastic Constant Matrix: (Units=GPa)
#
#
# Indices 1 2 3 4 5 6 
#
# 1 64.9123 -10.9387 9.8412 0.0000 -3.4070 0.0000
# 2 -10.9387 67.1267 13.3871 0.0000 -16.2039 0.0000
# 3 9.8412 13.3871 111.4876 0.0000 0.7695 0.0000
# 4 0.0000 0.0000 0.0000 22.2138 0.0000 -3.5027
# 5 -3.4070 -16.2039 0.7695 0.0000 24.6746 0.0000
# 6 0.0000 0.0000 0.0000 -3.5027 0.0000 34.2253
#
#
#
# Elastic Compliance Matrix: (Units=1/GPa)
#
#
# Indices 1 2 3 4 5 6 
#
# 1 0.016734 0.004406 -0.002043 0.000000 0.005268 0.000000
# 2 0.004406 0.019423 -0.002814 0.000000 0.013452 0.000000
# 3 -0.002043 -0.002814 0.009505 0.000000 -0.002426 0.000000
# 4 0.000000 0.000000 0.000000 0.045755 0.000000 0.004683
# 5 0.005268 0.013452 -0.002426 0.000000 0.050164 0.000000
# 6 0.000000 0.000000 0.000000 0.004683 0.000000 0.029697
#
#
# Mechanical properties :
#
#
# Convention : Reuss Voigt Hill
#
# Bulk Modulus (GPa) = 22.34118 29.78955 26.06536
# Shear Modulus (GPa) = 26.72356 31.63853 29.18105
#
# Velocity S-wave (km/s) = 3.42855 3.73054 3.58273
# Velocity P-wave (km/s) = 5.04980 5.62667 5.34602
#
# Compressibility (1/GPa) = 0.04476039
#
# Stress axis : x y z
#
# Youngs Moduli (GPa) = 59.75863 51.48412 105.21267
#
# Poissons Ratio (x) = -0.22683 0.21490
# Poissons Ratio (y) = -0.26328 0.29608
# Poissons Ratio (z) = 0.12206 0.14488
#
# Static dielectric constant tensor:
#      x y z
#    x 1.968140 0.000000 0.028310 
#    y 0.000000 1.920430 0.000000 
#    z 0.028310 0.000000 1.926330 
# 
# From -- ./inp_files/45840.got.cif
#   From: 2010.05.17/outbox.cif.g08.bks.cpg/sg14_23_cif.got.tgz:45840.got - 2010.06.03 17:49:19.
