data_PCOD9246434
_publ_section_title
;
Structure prediction by ZEFSAII (Michael W. Deem and Ramdas Pophale) SiO2 
 PCOD9246434
Probable space group: P 21/C
;
_chemical_formula_sum "Si O2"
_cell_formula_units_Z 32
_cell_length_a 9.261117
_cell_length_b 23.725289
_cell_length_c 7.992147
_cell_angle_alpha 90.000000
_cell_angle_beta 55.121467
_cell_angle_gamma 90.000000
_cell_volume 1440.608907
_symmetry_space_group_name_H-M "P 21/C"
_symmetry_group_IT_number 14
_symmetry_cell_setting 'monoclinic'
loop_
_space_group_symop_operation_xyz
x,y,z
-x,1/2+y,1/2-z
-x,-y,-z
x,1/2-y,1/2+z
loop_
_atom_site_type_symbol
_atom_site_label
_atom_site_fract_x
_atom_site_fract_y
_atom_site_fract_z
Si Si1 0.124053 0.825525 0.340796
Si Si2 0.624037 0.325520 0.840830
Si Si3 0.037373 0.424987 0.864124
Si Si4 0.249981 0.341703 0.500016
Si Si5 0.014938 0.786889 0.058853
Si Si6 0.749991 0.515382 0.000017
Si Si7 0.537382 0.575015 0.864109
Si Si8 0.514916 0.286898 0.558882
O O1 0.065901 0.778872 0.515288
O O2 0.085845 0.887231 0.433571
O O3 0.014799 0.810133 0.246290
O O4 0.323645 0.815749 0.149860
O O5 0.823622 0.315739 0.649890
O O6 0.514775 0.310138 0.746325
O O7 0.585853 0.387226 0.933603
O O8 0.565879 0.278863 0.015314
O O9 0.110339 0.383318 0.676999
O O10 0.197571 0.447952 0.872768
O O11 0.921045 0.475500 0.866906
O O12 0.389617 0.383319 0.323029
O O13 0.339171 0.302788 0.579905
O O14 0.160803 0.302782 0.420129
O O15 0.578942 0.475498 0.133124
O O16 0.697552 0.552048 0.872800
#
# Coordination Sequence:
#
# PCOD9246434 Si02
#       8
#     4   4   4   4   4   4   4   4
#     4  10  21  41  62  86 125 161 192 236 293 357
#     4  10  21  41  62  86 125 161 192 236 293 357
#     4  11  23  41  62  86 119 156 199 249 294 343
#     4  12  24  37  62  94 120 151 194 246 298 352
#     4  10  22  37  62  95 122 156 193 232 296 366
#     4  10  24  43  62  82 112 159 206 248 296 342
#     4  11  23  41  62  86 119 156 199 249 294 343
#     4  10  22  37  62  95 122 156 193 232 296 366
#
# _framework density 22.212827000000001
#
# number of rings (size 3 to 8) (size 9 to 14) (size 15 to 20)
#    0.000    1.500    0.000    4.500    0.000   10.000 
#    0.000   10.000    0.000    0.000    0.000    0.000 
#    0.000    0.000    0.000    0.000    0.000    0.000 
#
# Total GULP energy -179152.041864 kJ/mol
# GULP energy per Si atom -5598.501308 kJ/mol
# Density = 2.216227 g / cm^3
# Si number density = 22.212827 Si / 1000 Ang^3
#
#
#
# Elastic Constant Matrix: (Units=GPa)
#
#
# Indices 1 2 3 4 5 6 
#
# 1 106.6688 12.0773 -9.3037 0.0000 12.8363 0.0000
# 2 12.0773 85.0636 12.8863 0.0000 5.6534 0.0000
# 3 -9.3037 12.8863 46.7842 0.0000 4.6436 0.0000
# 4 0.0000 0.0000 0.0000 20.4204 0.0000 4.3490
# 5 12.8363 5.6534 4.6436 0.0000 20.2066 0.0000
# 6 0.0000 0.0000 0.0000 4.3490 0.0000 35.8832
#
#
#
# Elastic Compliance Matrix: (Units=1/GPa)
#
#
# Indices 1 2 3 4 5 6 
#
# 1 0.010688 -0.001538 0.003255 0.000000 -0.007107 0.000000
# 2 -0.001538 0.012637 -0.003615 0.000000 -0.001728 0.000000
# 3 0.003255 -0.003615 0.023662 0.000000 -0.006494 0.000000
# 4 0.000000 0.000000 0.000000 0.050268 0.000000 -0.006092
# 5 -0.007107 -0.001728 -0.006494 0.000000 0.055979 0.000000
# 6 0.000000 0.000000 0.000000 -0.006092 0.000000 0.028607
#
#
# Mechanical properties :
#
#
# Convention : Reuss Voigt Hill
#
# Bulk Modulus (GPa) = 23.15362 29.98182 26.56772
# Shear Modulus (GPa) = 24.99561 30.15916 27.57739
#
# Velocity S-wave (km/s) = 3.35816 3.68874 3.52733
# Velocity P-wave (km/s) = 5.04801 5.62755 5.34564
#
# Compressibility (1/GPa) = 0.04318979
#
# Stress axis : x y z
#
# Youngs Moduli (GPa) = 93.56197 79.13414 42.26137
#
# Poissons Ratio (x) = 0.12172 -0.13754
# Poissons Ratio (y) = 0.14391 0.15278
# Poissons Ratio (z) = -0.30451 0.28608
#
# Static dielectric constant tensor:
#      x y z
#    x 1.835730 0.000000 -0.014370 
#    y 0.000000 1.784050 0.000000 
#    z -0.014370 0.000000 1.796490 
# 
# From -- ./inp_files/10806.got.cif
#   From: 2010.05.17/outbox.cif.g08.bks.cpg/sg14_6_cif.got.tgz:10806.got - 2010.06.03 17:49:19.
