data_PCOD9246829
_publ_section_title
;
Structure prediction by ZEFSAII (Michael W. Deem and Ramdas Pophale) SiO2 
 PCOD9246829
Probable space group: P 21/C
;
_chemical_formula_sum "Si O2"
_cell_formula_units_Z 22
_cell_length_a 9.689634
_cell_length_b 20.938268
_cell_length_c 4.990664
_cell_angle_alpha 90.000000
_cell_angle_beta 50.325170
_cell_angle_gamma 90.000000
_cell_volume 779.321597
_symmetry_space_group_name_H-M "P 21/C"
_symmetry_group_IT_number 14
_symmetry_cell_setting 'monoclinic'
loop_
_space_group_symop_operation_xyz
x,y,z
-x,1/2+y,1/2-z
-x,-y,-z
x,1/2-y,1/2+z
loop_
_atom_site_type_symbol
_atom_site_label
_atom_site_fract_x
_atom_site_fract_y
_atom_site_fract_z
Si Si1 0.510447 0.596284 0.513374
Si Si2 0.024772 0.790980 0.663853
Si Si3 0.163915 0.460981 0.129898
Si Si4 0.593761 0.786346 0.234481
Si Si5 0.500000 0.500000 0.000000
Si Si6 0.163781 0.920546 0.224400
O O1 0.712429 0.591976 0.166572
O O2 0.485969 0.658397 0.721622
O O3 0.471435 0.538828 0.760713
O O4 0.381097 0.583617 0.414152
O O5 0.074876 0.733771 0.396168
O O6 0.807443 0.797797 0.940301
O O7 0.109131 0.855471 0.443474
O O8 0.282654 0.472858 0.244592
O O9 0.141835 0.522254 0.964481
O O10 0.965502 0.430452 0.369011
O O11 0.554335 0.725100 0.093910
#
# Coordination Sequence:
#
# PCOD9246829 Si02
#       6
#     4   4   4   4   2   4
#     4  11  23  43  67  96 139 177 238 283 357 418
#     4  10  22  43  67  99 137 181 234 292 353 419
#     4  10  22  44  63  97 137 178 229 286 356 408
#     4  10  23  42  71  98 137 188 230 290 356 421
#     4  10  22  38  68  94 130 184 220 288 334 420
#     4  10  21  42  66  97 133 179 229 289 349 418
#
# _framework density 28.229683000000001
#
# number of rings (size 3 to 8) (size 9 to 14) (size 15 to 20)
#    0.000    1.818    1.818    2.182    2.545    2.909 
#   13.091    7.273    0.000    0.000    0.000    0.000 
#    0.000    0.000    0.000    0.000    0.000    0.000 
#
# Total GULP energy -122935.883315 kJ/mol
# GULP energy per Si atom -5587.994696 kJ/mol
# Density = 2.816543 g / cm^3
# Si number density = 28.229683 Si / 1000 Ang^3
#
#
#
# Elastic Constant Matrix: (Units=GPa)
#
#
# Indices 1 2 3 4 5 6 
#
# 1 200.2946 22.4067 41.6614 0.0000 -6.5987 0.0000
# 2 22.4067 86.8493 -4.7948 0.0000 -1.7688 0.0000
# 3 41.6614 -4.7948 83.6139 0.0000 14.6078 0.0000
# 4 0.0000 0.0000 0.0000 19.4675 0.0000 -3.3468
# 5 -6.5987 -1.7688 14.6078 0.0000 44.5925 0.0000
# 6 0.0000 0.0000 0.0000 -3.3468 0.0000 37.3633
#
#
#
# Elastic Compliance Matrix: (Units=1/GPa)
#
#
# Indices 1 2 3 4 5 6 
#
# 1 0.005951 -0.001684 -0.003399 0.000000 0.001927 0.000000
# 2 -0.001684 0.012030 0.001579 0.000000 -0.000289 0.000000
# 3 -0.003399 0.001579 0.014660 0.000000 -0.005243 0.000000
# 4 0.000000 0.000000 0.000000 0.052171 0.000000 0.004673
# 5 0.001927 -0.000289 -0.005243 0.000000 0.024416 0.000000
# 6 0.000000 0.000000 0.000000 0.004673 0.000000 0.027183
#
#
# Mechanical properties :
#
#
# Convention : Reuss Voigt Hill
#
# Bulk Modulus (GPa) = 39.00941 54.36716 46.68829
# Shear Modulus (GPa) = 32.90290 41.05028 36.97659
#
# Velocity S-wave (km/s) = 3.41771 3.81747 3.62311
# Velocity P-wave (km/s) = 5.42429 6.22346 5.83757
#
# Compressibility (1/GPa) = 0.02563484
#
# Stress axis : x y z
#
# Youngs Moduli (GPa) = 168.02728 83.12613 68.21476
#
# Poissons Ratio (x) = 0.13997 0.23183
# Poissons Ratio (y) = 0.28293 -0.10774
# Poissons Ratio (z) = 0.57106 -0.13129
#
# Static dielectric constant tensor:
#      x y z
#    x 2.145960 0.000000 -0.128090 
#    y 0.000000 2.148060 0.000000 
#    z -0.128090 0.000000 2.149270 
# 
# From -- ./inp_files/1549.got.cif
#   From: 2010.05.17/outbox.cif.g08.bks.cpg/sg14_1_cif.got.tgz:1549.got - 2010.06.03 17:49:19.
