data_PCOD9246409
_publ_section_title
;
Structure prediction by ZEFSAII (Michael W. Deem and Ramdas Pophale) SiO2 
 PCOD9246409
Probable space group: P 21/C
;
_chemical_formula_sum "Si O2"
_cell_formula_units_Z 32
_cell_length_a 25.732164
_cell_length_b 8.918695
_cell_length_c 15.949814
_cell_angle_alpha 90.000000
_cell_angle_beta 155.101914
_cell_angle_gamma 90.000000
_cell_volume 1541.065253
_symmetry_space_group_name_H-M "P 21/C"
_symmetry_group_IT_number 14
_symmetry_cell_setting 'monoclinic'
loop_
_space_group_symop_operation_xyz
x,y,z
-x,1/2+y,1/2-z
-x,-y,-z
x,1/2-y,1/2+z
loop_
_atom_site_type_symbol
_atom_site_label
_atom_site_fract_x
_atom_site_fract_y
_atom_site_fract_z
Si Si1 0.938127 0.880195 0.345435
Si Si2 0.139240 0.649013 0.680621
Si Si3 0.604454 0.374945 0.167743
Si Si4 0.986019 0.329676 0.322839
Si Si5 0.411577 0.730864 0.031299
Si Si6 0.513514 0.613014 0.837392
Si Si7 0.209923 0.303662 0.748385
Si Si8 0.119917 0.553408 0.410556
O O1 0.821250 0.803902 0.219744
O O2 0.036790 0.744949 0.480832
O O3 0.898709 0.962587 0.203245
O O4 0.000000 0.000000 0.500000
O O5 0.092888 0.657464 0.708351
O O6 0.159814 0.473016 0.692312
O O7 0.269969 0.725028 0.854036
O O8 0.584645 0.331742 0.236139
O O9 0.738733 0.449714 0.352678
O O10 0.500000 0.500000 0.000000
O O11 0.587216 0.253768 0.068118
O O12 0.911800 0.224661 0.152438
O O13 0.117733 0.252241 0.539591
O O14 0.024595 0.481957 0.335479
O O15 0.469116 0.565851 0.132030
O O16 0.479806 0.843502 0.193308
O O17 0.645647 0.684757 0.055106
#
# Coordination Sequence:
#
# PCOD9246409 Si02
#       8
#     4   4   4   4   4   4   4   4
#     4  11  22  38  62  93 121 161 208 265 315 386
#     4  10  21  41  61  85 131 168 201 264 331 385
#     4  10  23  43  64  90 128 173 217 263 323 394
#     4  11  23  39  56  93 125 161 206 264 323 393
#     4  10  22  41  67  90 125 172 219 267 329 385
#     4  10  22  41  66  94 121 175 219 267 318 389
#     4  10  22  40  63  88 130 163 212 260 334 384
#     4  12  25  38  64  93 128 168 215 265 331 388
#
# _framework density 20.764856999999999
#
# number of rings (size 3 to 8) (size 9 to 14) (size 15 to 20)
#    0.000    1.500    2.500    4.500    8.750    0.000 
#    0.000    0.625    0.000    0.000    0.000    0.000 
#    0.000    0.000    0.000    0.000    0.000    0.000 
#
# Total GULP energy -178667.638408 kJ/mol
# GULP energy per Si atom -5583.363700 kJ/mol
# Density = 2.071759 g / cm^3
# Si number density = 20.764857 Si / 1000 Ang^3
#
#
#
# Elastic Constant Matrix: (Units=GPa)
#
#
# Indices 1 2 3 4 5 6 
#
# 1 88.3325 23.5655 20.1687 0.0000 -7.4832 0.0000
# 2 23.5655 46.1449 17.1705 0.0000 4.2587 0.0000
# 3 20.1687 17.1705 56.1522 0.0000 -1.2227 0.0000
# 4 0.0000 0.0000 0.0000 28.1851 0.0000 -7.7742
# 5 -7.4832 4.2587 -1.2227 0.0000 37.4838 0.0000
# 6 0.0000 0.0000 0.0000 -7.7742 0.0000 26.7228
#
#
#
# Elastic Compliance Matrix: (Units=1/GPa)
#
#
# Indices 1 2 3 4 5 6 
#
# 1 0.013989 -0.006338 -0.003012 0.000000 0.003415 0.000000
# 2 -0.006338 0.027672 -0.006286 0.000000 -0.004614 0.000000
# 3 -0.003012 -0.006286 0.020830 0.000000 0.000792 0.000000
# 4 0.000000 0.000000 0.000000 0.038575 0.000000 0.011222
# 5 0.003415 -0.004614 0.000792 0.000000 0.027910 0.000000
# 6 0.000000 0.000000 0.000000 0.011222 0.000000 0.040686
#
#
# Mechanical properties :
#
#
# Convention : Reuss Voigt Hill
#
# Bulk Modulus (GPa) = 32.03152 34.71547 33.37350
# Shear Modulus (GPa) = 23.65848 27.12666 25.39257
#
# Velocity S-wave (km/s) = 3.37909 3.61830 3.50074
# Velocity P-wave (km/s) = 5.53928 5.84900 5.69625
#
# Compressibility (1/GPa) = 0.03121925
#
# Stress axis : x y z
#
# Youngs Moduli (GPa) = 71.48588 36.13696 48.00785
#
# Poissons Ratio (x) = 0.22904 0.14460
# Poissons Ratio (y) = 0.45309 0.30177
# Poissons Ratio (z) = 0.21532 0.22715
#
# Static dielectric constant tensor:
#      x y z
#    x 1.787000 0.000000 -0.043180 
#    y 0.000000 1.746460 0.000000 
#    z -0.043180 0.000000 1.766010 
# 
# From -- ./inp_files/51391.got.cif
#   From: 2010.05.17/outbox.cif.g08.bks.cpg/sg14_26_cif.got.tgz:51391.got - 2010.06.03 17:49:19.
