data_PCOD9246048
_publ_section_title
;
Structure prediction by ZEFSAII (Michael W. Deem and Ramdas Pophale) SiO2 
 PCOD9246048
Probable space group: P 21/C
;
_chemical_formula_sum "Si O2"
_cell_formula_units_Z 32
_cell_length_a 14.164192
_cell_length_b 15.758726
_cell_length_c 19.181752
_cell_angle_alpha 90.000000
_cell_angle_beta 158.695679
_cell_angle_gamma 90.000000
_cell_volume 1555.579718
_symmetry_space_group_name_H-M "P 21/C"
_symmetry_group_IT_number 14
_symmetry_cell_setting 'monoclinic'
loop_
_space_group_symop_operation_xyz
x,y,z
-x,1/2+y,1/2-z
-x,-y,-z
x,1/2-y,1/2+z
loop_
_atom_site_type_symbol
_atom_site_label
_atom_site_fract_x
_atom_site_fract_y
_atom_site_fract_z
Si Si1 0.944160 0.771920 0.542096
Si Si2 0.752202 0.884501 0.833939
Si Si3 0.991951 0.983969 0.887054
Si Si4 0.584057 0.101685 0.139925
Si Si5 0.682093 0.906837 0.195137
Si Si6 0.190076 0.664220 0.982844
Si Si7 0.425192 0.845790 0.156949
Si Si8 0.037125 0.133253 0.825719
O O1 0.862116 0.709998 0.421806
O O2 0.689890 0.829729 0.382333
O O3 0.003364 0.708154 0.646566
O O4 0.188262 0.830754 0.695181
O O5 0.776704 0.922568 0.773312
O O6 0.463696 0.884491 0.666496
O O7 0.931455 0.943881 0.004803
O O8 0.928489 0.041562 0.776326
O O9 0.244400 0.925039 0.050647
O O10 0.682941 0.005797 0.215918
O O11 0.466192 0.105327 0.980379
O O12 0.346128 0.119896 0.028078
O O13 0.525964 0.858607 0.147551
O O14 0.974746 0.875028 0.385011
O O15 0.077928 0.659398 0.827431
O O16 0.256910 0.760680 0.047467
#
# Coordination Sequence:
#
# PCOD9246048 Si02
#       8
#     4   4   4   4   4   4   4   4
#     4  10  23  36  61  88 120 157 196 245 298 359
#     4   9  22  41  59  87 121 158 200 247 295 359
#     4  10  21  40  61  84 120 157 197 245 297 354
#     4  10  21  40  62  88 122 155 202 250 302 360
#     4  10  22  40  62  90 121 156 201 254 300 361
#     4  10  23  39  63  87 122 155 202 248 299 357
#     4  11  23  37  61  90 119 160 196 247 301 358
#     4  10  21  43  60  88 120 158 197 252 299 357
#
# _framework density 20.571109
#
# number of rings (size 3 to 8) (size 9 to 14) (size 15 to 20)
#    0.000    2.000    1.250    0.750    7.000    3.000 
#    0.000    0.000    0.000    0.000    0.000    0.000 
#    0.000    0.000    0.000    0.000    0.000    0.000 
#
# Total GULP energy -178697.800866 kJ/mol
# GULP energy per Si atom -5584.306277 kJ/mol
# Density = 2.052429 g / cm^3
# Si number density = 20.571109 Si / 1000 Ang^3
#
#
#
# Elastic Constant Matrix: (Units=GPa)
#
#
# Indices 1 2 3 4 5 6 
#
# 1 39.3615 -0.2073 -1.1500 0.0000 10.2106 0.0000
# 2 -0.2073 60.2774 19.8363 0.0000 9.8135 0.0000
# 3 -1.1500 19.8363 52.2392 0.0000 16.8023 0.0000
# 4 0.0000 0.0000 0.0000 22.5045 0.0000 15.7935
# 5 10.2106 9.8135 16.8023 0.0000 24.4474 0.0000
# 6 0.0000 0.0000 0.0000 15.7935 0.0000 18.2601
#
#
#
# Elastic Compliance Matrix: (Units=1/GPa)
#
#
# Indices 1 2 3 4 5 6 
#
# 1 0.029937 0.000964 0.005699 0.000000 -0.016807 0.000000
# 2 0.000964 0.019215 -0.005989 0.000000 -0.004000 0.000000
# 3 0.005699 -0.005989 0.027646 0.000000 -0.018977 0.000000
# 4 0.000000 0.000000 0.000000 0.113065 0.000000 -0.097792
# 5 -0.016807 -0.004000 -0.018977 0.000000 0.062572 0.000000
# 6 0.000000 0.000000 0.000000 -0.097792 0.000000 0.139346
#
#
# Mechanical properties :
#
#
# Convention : Reuss Voigt Hill
#
# Bulk Modulus (GPa) = 12.79655 20.98178 16.88917
# Shear Modulus (GPa) = 12.00534 21.93568 16.97051
#
# Velocity S-wave (km/s) = 2.41841 3.26902 2.87534
# Velocity P-wave (km/s) = 3.74598 4.94676 4.38764
#
# Compressibility (1/GPa) = 0.07814608
#
# Stress axis : x y z
#
# Youngs Moduli (GPa) = 33.40360 52.04198 36.17159
#
# Poissons Ratio (x) = -0.05016 -0.20614
# Poissons Ratio (y) = -0.03219 0.21662
# Poissons Ratio (z) = -0.19036 0.31167
#
# Static dielectric constant tensor:
#      x y z
#    x 1.767230 0.000000 -0.011040 
#    y 0.000000 1.721290 0.000000 
#    z -0.011040 0.000000 1.722840 
# 
# From -- ./inp_files/25243.got.cif
#   From: 2010.05.17/outbox.cif.g08.bks.cpg/sg14_13_cif.got.tgz:25243.got - 2010.06.03 17:49:19.
