data_PCOD9246336
_publ_section_title
;
Structure prediction by ZEFSAII (Michael W. Deem and Ramdas Pophale) SiO2 
 PCOD9246336
Probable space group: P 21/C
;
_chemical_formula_sum "Si O2"
_cell_formula_units_Z 28
_cell_length_a 10.943336
_cell_length_b 5.177810
_cell_length_c 19.576761
_cell_angle_alpha 90.000000
_cell_angle_beta 108.889950
_cell_angle_gamma 90.000000
_cell_volume 1049.525701
_symmetry_space_group_name_H-M "P 21/C"
_symmetry_group_IT_number 14
_symmetry_cell_setting 'monoclinic'
loop_
_space_group_symop_operation_xyz
x,y,z
-x,1/2+y,1/2-z
-x,-y,-z
x,1/2-y,1/2+z
loop_
_atom_site_type_symbol
_atom_site_label
_atom_site_fract_x
_atom_site_fract_y
_atom_site_fract_z
Si Si1 0.290540 0.654254 0.965295
Si Si2 0.466929 0.920943 0.701789
Si Si3 0.184425 0.064726 0.662940
Si Si4 0.225825 0.463498 0.563787
Si Si5 0.079055 0.991289 0.782053
Si Si6 0.084567 0.288558 0.913375
Si Si7 0.513970 0.778815 0.423359
O O1 0.184128 0.502378 0.904079
O O2 0.388569 0.830764 0.939065
O O3 0.389894 0.438591 0.010567
O O4 0.219931 0.779577 0.017198
O O5 0.488795 0.151009 0.760192
O O6 0.313054 0.922189 0.660921
O O7 0.531389 0.024708 0.644042
O O8 0.185235 0.352587 0.630466
O O9 0.187533 0.056494 0.745656
O O10 0.057721 0.908420 0.616193
O O11 0.134587 0.286120 0.497472
O O12 0.381623 0.416272 0.589397
O O13 0.101769 0.048279 0.865356
O O14 0.971958 0.207183 0.742793
#
# Coordination Sequence:
#
# PCOD9246336 Si02
#       7
#     4   4   4   4   4   4   4
#     4  10  21  40  68  96 133 175 232 279 346 411
#     4  11  27  46  70 101 132 185 232 280 347 416
#     4  10  24  46  67 100 144 175 226 297 346 412
#     4  10  21  40  69 101 132 177 230 283 349 409
#     4  10  24  45  66  96 139 186 225 271 345 414
#     4  10  23  41  64 102 132 179 225 283 349 415
#     4   9  22  42  63  96 138 174 227 290 338 403
#
# _framework density 26.678716999999999
#
# number of rings (size 3 to 8) (size 9 to 14) (size 15 to 20)
#    0.000    2.000    0.000    0.857   10.000    4.000 
#   12.857    0.000    0.000    0.000    0.000    0.000 
#    0.000    0.000    0.000    0.000    0.000    0.000 
#
# Total GULP energy -156588.332272 kJ/mol
# GULP energy per Si atom -5592.440438 kJ/mol
# Density = 2.661800 g / cm^3
# Si number density = 26.678717 Si / 1000 Ang^3
#
#
#
# Elastic Constant Matrix: (Units=GPa)
#
#
# Indices 1 2 3 4 5 6 
#
# 1 113.6566 17.2703 29.9787 0.0000 -2.1576 0.0000
# 2 17.2703 76.1285 16.8136 0.0000 17.1607 0.0000
# 3 29.9787 16.8136 87.9296 0.0000 5.8951 0.0000
# 4 0.0000 0.0000 0.0000 39.3791 0.0000 1.5065
# 5 -2.1576 17.1607 5.8951 0.0000 41.1666 0.0000
# 6 0.0000 0.0000 0.0000 1.5065 0.0000 32.1394
#
#
#
# Elastic Compliance Matrix: (Units=1/GPa)
#
#
# Indices 1 2 3 4 5 6 
#
# 1 0.009960 -0.001970 -0.003139 0.000000 0.001793 0.000000
# 2 -0.001970 0.015403 -0.001854 0.000000 -0.006259 0.000000
# 3 -0.003139 -0.001854 0.012880 0.000000 -0.001236 0.000000
# 4 0.000000 0.000000 0.000000 0.025440 0.000000 -0.001192
# 5 0.001793 -0.006259 -0.001236 0.000000 0.027172 0.000000
# 6 0.000000 0.000000 0.000000 -0.001192 0.000000 0.031170
#
#
# Mechanical properties :
#
#
# Convention : Reuss Voigt Hill
#
# Bulk Modulus (GPa) = 41.12456 45.09332 43.10894
# Shear Modulus (GPa) = 34.70846 36.78050 35.74448
#
# Velocity S-wave (km/s) = 3.61082 3.71704 3.66432
# Velocity P-wave (km/s) = 5.72994 5.94650 5.83923
#
# Compressibility (1/GPa) = 0.02431637
#
# Stress axis : x y z
#
# Youngs Moduli (GPa) = 100.40298 64.92266 77.63742
#
# Poissons Ratio (x) = 0.12792 0.24372
# Poissons Ratio (y) = 0.19782 0.14394
# Poissons Ratio (z) = 0.31518 0.12036
#
# Static dielectric constant tensor:
#      x y z
#    x 2.107730 0.000000 -0.064960 
#    y 0.000000 2.203420 0.000000 
#    z -0.064960 0.000000 2.143730 
# 
# From -- ./inp_files/66468.got.cif
#   From: 2010.05.17/outbox.cif.g08.bks.cpg/sg14_34_cif.got.tgz:66468.got - 2010.06.03 17:49:19.
