data_PCOD9246936
_publ_section_title
;
Structure prediction by ZEFSAII (Michael W. Deem and Ramdas Pophale) SiO2 
 PCOD9246936
Probable space group: P 21/C
;
_chemical_formula_sum "Si O2"
_cell_formula_units_Z 28
_cell_length_a 21.486337
_cell_length_b 8.304067
_cell_length_c 14.845548
_cell_angle_alpha 90.000000
_cell_angle_beta 154.359451
_cell_angle_gamma 90.000000
_cell_volume 1146.199787
_symmetry_space_group_name_H-M "P 21/C"
_symmetry_group_IT_number 14
_symmetry_cell_setting 'monoclinic'
loop_
_space_group_symop_operation_xyz
x,y,z
-x,1/2+y,1/2-z
-x,-y,-z
x,1/2-y,1/2+z
loop_
_atom_site_type_symbol
_atom_site_label
_atom_site_fract_x
_atom_site_fract_y
_atom_site_fract_z
Si Si1 0.129146 0.622353 0.693467
Si Si2 0.149000 0.490090 0.901335
Si Si3 0.519833 0.588114 0.620671
Si Si4 0.387185 0.066433 0.257312
Si Si5 0.990219 0.166712 0.612126
Si Si6 0.661434 0.609210 0.116256
Si Si7 0.275180 0.428138 0.410681
O O1 0.123864 0.631946 0.794310
O O2 0.274059 0.526067 0.863288
O O3 0.000000 0.500000 0.500000
O O4 0.113143 0.763497 0.600605
O O5 0.069112 0.324816 0.762135
O O6 0.087560 0.558299 0.914776
O O7 0.319767 0.455582 0.134385
O O8 0.500000 0.500000 0.500000
O O9 0.517738 0.776814 0.600757
O O10 0.390490 0.549212 0.519374
O O11 0.285278 0.071747 0.212229
O O12 0.325825 0.093101 0.079548
O O13 0.489747 0.912161 0.390984
O O14 0.107067 0.059923 0.711444
O O15 0.709312 0.776119 0.136336
#
# Coordination Sequence:
#
# PCOD9246936 Si02
#       7
#     4   4   4   4   4   4   4
#     4  10  21  42  71  93 135 183 230 285 336 424
#     4  11  25  49  70 104 140 189 234 290 352 421
#     4  12  26  46  70 102 148 177 228 296 354 401
#     4  11  24  41  71  97 139 178 230 285 338 424
#     4  11  26  44  72 103 141 186 239 286 356 418
#     4  11  23  43  70 102 129 187 239 274 350 416
#     4  12  23  45  69 105 137 182 225 295 347 407
#
# _framework density 24.428552
#
# number of rings (size 3 to 8) (size 9 to 14) (size 15 to 20)
#    0.000    0.857    5.714    1.714    6.000    1.143 
#    5.143    1.429    0.000    0.000    0.000    0.000 
#    0.000    0.000    0.000    0.000    0.000    0.000 
#
# Total GULP energy -156492.823716 kJ/mol
# GULP energy per Si atom -5589.029418 kJ/mol
# Density = 2.437295 g / cm^3
# Si number density = 24.428552 Si / 1000 Ang^3
#
#
#
# Elastic Constant Matrix: (Units=GPa)
#
#
# Indices 1 2 3 4 5 6 
#
# 1 179.7403 39.0138 45.4555 0.0000 -2.0435 0.0000
# 2 39.0138 48.2637 22.1905 0.0000 7.2008 0.0000
# 3 45.4555 22.1905 96.2651 0.0000 1.4299 0.0000
# 4 0.0000 0.0000 0.0000 18.5815 0.0000 -0.4435
# 5 -2.0435 7.2008 1.4299 0.0000 31.6912 0.0000
# 6 0.0000 0.0000 0.0000 -0.4435 0.0000 51.6145
#
#
#
# Elastic Compliance Matrix: (Units=1/GPa)
#
#
# Indices 1 2 3 4 5 6 
#
# 1 0.007263 -0.005078 -0.002285 0.000000 0.001725 0.000000
# 2 -0.005078 0.027556 -0.003859 0.000000 -0.006415 0.000000
# 3 -0.002285 -0.003859 0.012354 0.000000 0.000172 0.000000
# 4 0.000000 0.000000 0.000000 0.053828 0.000000 0.000463
# 5 0.001725 -0.006415 0.000172 0.000000 0.033115 0.000000
# 6 0.000000 0.000000 0.000000 0.000463 0.000000 0.019378
#
#
# Mechanical properties :
#
#
# Convention : Reuss Voigt Hill
#
# Bulk Modulus (GPa) = 40.43788 59.73206 50.08497
# Shear Modulus (GPa) = 27.14722 34.88473 31.01597
#
# Velocity S-wave (km/s) = 3.33722 3.78303 3.56710
# Velocity P-wave (km/s) = 5.60703 6.60201 6.12476
#
# Compressibility (1/GPa) = 0.02472929
#
# Stress axis : x y z
#
# Youngs Moduli (GPa) = 137.67976 36.29019 80.94722
#
# Poissons Ratio (x) = 0.18429 0.18494
# Poissons Ratio (y) = 0.69916 0.31236
# Poissons Ratio (z) = 0.31455 0.14004
#
# Static dielectric constant tensor:
#      x y z
#    x 1.826470 0.000000 -0.011050 
#    y 0.000000 1.378200 0.000000 
#    z -0.011050 0.000000 1.996020 
# 
# From -- ./inp_files/50281.got.cif
#   From: 2010.05.17/outbox.cif.g08.bks.cpg/sg14_26_cif.got.tgz:50281.got - 2010.06.03 17:49:19.
