data_PCOD9246628
_publ_section_title
;
Structure prediction by ZEFSAII (Michael W. Deem and Ramdas Pophale) SiO2 
 PCOD9246628
Probable space group: P 21/C
;
_chemical_formula_sum "Si O2"
_cell_formula_units_Z 24
_cell_length_a 20.098598
_cell_length_b 7.714839
_cell_length_c 14.414282
_cell_angle_alpha 90.000000
_cell_angle_beta 155.516232
_cell_angle_gamma 90.000000
_cell_volume 926.280505
_symmetry_space_group_name_H-M "P 21/C"
_symmetry_group_IT_number 14
_symmetry_cell_setting 'monoclinic'
loop_
_space_group_symop_operation_xyz
x,y,z
-x,1/2+y,1/2-z
-x,-y,-z
x,1/2-y,1/2+z
loop_
_atom_site_type_symbol
_atom_site_label
_atom_site_fract_x
_atom_site_fract_y
_atom_site_fract_z
Si Si1 0.491455 0.185185 0.088755
Si Si2 0.490072 0.315138 0.288291
Si Si3 0.183791 0.692611 0.549279
Si Si4 0.830905 0.649956 0.346673
Si Si5 0.841920 0.704862 0.675550
Si Si6 0.830242 0.172857 0.189005
O O1 0.491476 0.318258 0.176854
O O2 0.646420 0.211807 0.221401
O O3 0.510747 0.999288 0.162107
O O4 0.324451 0.230665 0.827571
O O5 0.670995 0.241786 0.531692
O O6 0.319544 0.221722 0.090888
O O7 0.180986 0.522540 0.608515
O O8 0.182086 0.656861 0.437625
O O9 0.017589 0.794296 0.354770
O O10 0.835100 0.636450 0.239641
O O11 0.002164 0.737800 0.581260
O O12 0.829203 0.527947 0.717763
#
# Coordination Sequence:
#
# PCOD9246628 Si02
#       6
#     4   4   4   4   4   4
#     4  10  23  44  69 100 139 179 236 280 350 406
#     4  10  21  41  67  98 136 183 226 283 339 414
#     4  11  25  42  67 101 140 181 225 290 346 407
#     4  11  23  45  69  98 141 180 231 289 337 416
#     4  11  24  41  67 104 133 181 233 276 351 405
#     4  11  23  43  70  98 137 182 236 277 342 414
#
# _framework density 25.910079
#
# number of rings (size 3 to 8) (size 9 to 14) (size 15 to 20)
#    0.000    1.333    3.333    2.500    7.000    0.000 
#    0.000    4.167    0.000    0.000    0.000    0.000 
#    0.000    0.000    0.000    0.000    0.000    0.000 
#
# Total GULP energy -134112.727200 kJ/mol
# GULP energy per Si atom -5588.030300 kJ/mol
# Density = 2.585111 g / cm^3
# Si number density = 25.910079 Si / 1000 Ang^3
#
#
#
# Elastic Constant Matrix: (Units=GPa)
#
#
# Indices 1 2 3 4 5 6 
#
# 1 83.8605 9.7219 47.7719 0.0000 19.3198 0.0000
# 2 9.7219 92.5285 74.9771 0.0000 18.4398 0.0000
# 3 47.7719 74.9771 249.4621 0.0000 73.1604 0.0000
# 4 0.0000 0.0000 0.0000 37.1545 0.0000 7.1781
# 5 19.3198 18.4398 73.1604 0.0000 62.5589 0.0000
# 6 0.0000 0.0000 0.0000 7.1781 0.0000 42.2635
#
#
#
# Elastic Compliance Matrix: (Units=1/GPa)
#
#
# Indices 1 2 3 4 5 6 
#
# 1 0.013555 0.000813 -0.002347 0.000000 -0.001681 0.000000
# 2 0.000813 0.014399 -0.004817 0.000000 0.001138 0.000000
# 3 -0.002347 -0.004817 0.008031 0.000000 -0.007248 0.000000
# 4 0.000000 0.000000 0.000000 0.027828 0.000000 -0.004726
# 5 -0.001681 0.001138 -0.007248 0.000000 0.024645 0.000000
# 6 0.000000 0.000000 0.000000 -0.004726 0.000000 0.024464
#
#
# Mechanical properties :
#
#
# Convention : Reuss Voigt Hill
#
# Bulk Modulus (GPa) = 42.95207 76.75479 59.85343
# Shear Modulus (GPa) = 37.48576 47.95406 42.71991
#
# Velocity S-wave (km/s) = 3.80776 4.30675 4.06492
# Velocity P-wave (km/s) = 5.99545 7.37689 6.72176
#
# Compressibility (1/GPa) = 0.02328177
#
# Stress axis : x y z
#
# Youngs Moduli (GPa) = 73.77589 69.45151 124.51092
#
# Poissons Ratio (x) = -0.05644 0.29223
# Poissons Ratio (y) = -0.05995 0.59977
# Poissons Ratio (z) = 0.17315 0.33455
#
# Static dielectric constant tensor:
#      x y z
#    x 2.072610 0.000000 -0.028320 
#    y 0.000000 2.066040 0.000000 
#    z -0.028320 0.000000 2.132950 
# 
# From -- ./inp_files/61736.got.cif
#   From: 2010.05.17/outbox.cif.g08.bks.cpg/sg14_31_cif.got.tgz:61736.got - 2010.06.03 17:49:19.
