data_PCOD9246806
_publ_section_title
;
Structure prediction by ZEFSAII (Michael W. Deem and Ramdas Pophale) SiO2 
 PCOD9246806
Probable space group: P 21/C
;
_chemical_formula_sum "Si O2"
_cell_formula_units_Z 26
_cell_length_a 23.198590
_cell_length_b 8.491879
_cell_length_c 16.584629
_cell_angle_alpha 90.000000
_cell_angle_beta 159.407821
_cell_angle_gamma 90.000000
_cell_volume 1149.107460
_symmetry_space_group_name_H-M "P 21/C"
_symmetry_group_IT_number 14
_symmetry_cell_setting 'monoclinic'
loop_
_space_group_symop_operation_xyz
x,y,z
-x,1/2+y,1/2-z
-x,-y,-z
x,1/2-y,1/2+z
loop_
_atom_site_type_symbol
_atom_site_label
_atom_site_fract_x
_atom_site_fract_y
_atom_site_fract_z
Si Si1 0.330271 0.205099 0.313699
Si Si2 0.042015 0.713860 0.908962
Si Si3 0.453107 0.900117 0.784038
Si Si4 0.640538 0.139349 0.610797
Si Si5 0.674255 0.147185 0.998550
Si Si6 0.000000 0.000000 0.500000
Si Si7 0.844046 0.583508 0.031605
O O1 0.406012 0.334099 0.472793
O O2 0.464177 0.158488 0.421432
O O3 0.181413 0.288844 0.072904
O O4 0.304451 0.041771 0.326214
O O5 0.922614 0.837696 0.712209
O O6 0.225737 0.782203 0.155111
O O7 0.999501 0.658844 0.942812
O O8 0.049570 0.559100 0.863318
O O9 0.354662 0.752251 0.618309
O O10 0.331276 0.010918 0.674392
O O11 0.542922 0.005444 0.834037
O O12 0.638868 0.235325 0.526496
O O13 0.851062 0.074799 0.248040
#
# Coordination Sequence:
#
# PCOD9246806 Si02
#       7
#     4   4   4   4   4   2   4
#     4  11  21  41  72  97 136 174 225 279 332 404
#     4  11  25  45  67 101 138 182 227 284 341 408
#     4  12  25  43  70 101 136 181 231 279 339 412
#     4  10  21  42  65  99 131 177 221 277 337 400
#     4  11  25  45  67 101 138 182 227 284 341 408
#     4  10  26  46  70  94 142 178 228 282 346 398
#     4  12  25  43  70 101 136 181 231 279 339 412
#
# _framework density 22.626256000000001
#
# number of rings (size 3 to 8) (size 9 to 14) (size 15 to 20)
#    0.000    0.923    3.077    4.154    4.308    2.462 
#    5.538    1.538    0.000    0.000    0.000    0.000 
#    0.000    0.000    0.000    0.000    0.000    0.000 
#
# Total GULP energy -144966.970825 kJ/mol
# GULP energy per Si atom -5575.652724 kJ/mol
# Density = 2.257476 g / cm^3
# Si number density = 22.626256 Si / 1000 Ang^3
#
#
#
# Elastic Constant Matrix: (Units=GPa)
#
#
# Indices 1 2 3 4 5 6 
#
# 1 19.6852 2.8489 2.7204 0.0000 -0.0021 0.0000
# 2 2.8489 63.1709 6.7424 0.0000 6.7858 0.0000
# 3 2.7204 6.7424 61.7710 0.0000 -21.1678 0.0000
# 4 0.0000 0.0000 0.0000 40.1973 0.0000 -14.9519
# 5 -0.0021 6.7858 -21.1678 0.0000 17.2940 0.0000
# 6 0.0000 0.0000 0.0000 -14.9519 0.0000 28.1626
#
#
#
# Elastic Compliance Matrix: (Units=1/GPa)
#
#
# Indices 1 2 3 4 5 6 
#
# 1 0.051479 -0.001624 -0.003220 0.000000 -0.003298 0.000000
# 2 -0.001624 0.018504 -0.007641 0.000000 -0.016614 0.000000
# 3 -0.003220 -0.007641 0.031335 0.000000 0.041352 0.000000
# 4 0.000000 0.000000 0.000000 0.030999 0.000000 0.016458
# 5 -0.003298 -0.016614 0.041352 0.000000 0.114957 0.000000
# 6 0.000000 0.000000 0.000000 0.016458 0.000000 0.044246
#
#
# Mechanical properties :
#
#
# Convention : Reuss Voigt Hill
#
# Bulk Modulus (GPa) = 13.09794 18.80561 15.95178
# Shear Modulus (GPa) = 14.62246 25.95180 20.28713
#
# Velocity S-wave (km/s) = 2.54492 3.39038 2.99761
# Velocity P-wave (km/s) = 3.79959 4.86371 4.36421
#
# Compressibility (1/GPa) = 0.07634786
#
# Stress axis : x y z
#
# Youngs Moduli (GPa) = 19.42529 54.04376 31.91282
#
# Poissons Ratio (x) = 0.08775 0.10276
# Poissons Ratio (y) = 0.03154 0.24386
# Poissons Ratio (z) = 0.06255 0.41297
#
# Static dielectric constant tensor:
#      x y z
#    x 1.878310 0.000000 0.040000 
#    y 0.000000 1.956150 0.000000 
#    z 0.040000 0.000000 1.798310 
# 
# From -- ./inp_files/62265.got.cif
#   From: 2010.05.17/outbox.cif.g08.bks.cpg/sg14_32_cif.got.tgz:62265.got - 2010.06.03 17:49:19.
