data_PCOD9246599
_publ_section_title
;
Structure prediction by ZEFSAII (Michael W. Deem and Ramdas Pophale) SiO2 
 PCOD9246599
Probable space group: P 21/C
;
_chemical_formula_sum "Si O2"
_cell_formula_units_Z 32
_cell_length_a 5.224836
_cell_length_b 13.730044
_cell_length_c 22.899628
_cell_angle_alpha 90.000000
_cell_angle_beta 54.806232
_cell_angle_gamma 90.000000
_cell_volume 1342.472542
_symmetry_space_group_name_H-M "P 21/C"
_symmetry_group_IT_number 14
_symmetry_cell_setting 'monoclinic'
loop_
_space_group_symop_operation_xyz
x,y,z
-x,1/2+y,1/2-z
-x,-y,-z
x,1/2-y,1/2+z
loop_
_atom_site_type_symbol
_atom_site_label
_atom_site_fract_x
_atom_site_fract_y
_atom_site_fract_z
Si Si1 0.881846 0.849860 0.872356
Si Si2 0.552086 0.667291 0.914231
Si Si3 0.771607 0.755607 0.774507
Si Si4 0.734297 0.465210 0.580919
Si Si5 0.670100 0.211745 0.446533
Si Si6 0.364145 0.657423 0.645895
Si Si7 0.658917 0.538035 0.064235
Si Si8 0.661837 0.660661 0.173518
O O1 0.829649 0.738267 0.900144
O O2 0.956392 0.830901 0.793334
O O3 0.536006 0.899578 0.913594
O O4 0.091783 0.910081 0.888935
O O5 0.272817 0.704256 0.992462
O O6 0.571836 0.552257 0.917524
O O7 0.542943 0.697893 0.848057
O O8 0.592567 0.633638 0.035106
O O9 0.011046 0.676464 0.715389
O O10 0.590155 0.818540 0.750429
O O11 0.536715 0.556549 0.632325
O O12 0.000000 0.500000 0.500000
O O13 0.620625 0.316735 0.425087
O O14 0.962850 0.167718 0.374078
O O15 0.550120 0.743942 0.653278
O O16 0.606473 0.569291 0.138736
O O17 0.000000 0.500000 0.000000
#
# Coordination Sequence:
#
# PCOD9246599 Si02
#       8
#     4   4   4   4   4   4   4   4
#     4  10  27  46  70 106 149 191 249 307 367 451
#     4  10  22  43  69  99 145 184 240 301 381 442
#     4   9  24  47  63  97 147 198 235 303 385 446
#     4  12  26  47  77 111 143 193 256 315 370 442
#     4  10  21  41  67 101 136 176 237 309 361 444
#     4  10  24  43  71  97 139 193 242 302 379 439
#     4  11  22  39  68 110 132 182 237 302 371 445
#     4  10  22  43  65  96 144 179 242 299 368 441
#
# _framework density 23.836614999999998
#
# number of rings (size 3 to 8) (size 9 to 14) (size 15 to 20)
#    0.750    1.000    1.250    1.500    7.000    1.000 
#   11.250    0.000    0.000    0.000    0.000    0.000 
#    0.000    0.000    0.000    0.000    0.000    0.000 
#
# Total GULP energy -178378.913556 kJ/mol
# GULP energy per Si atom -5574.341049 kJ/mol
# Density = 2.378236 g / cm^3
# Si number density = 23.836615 Si / 1000 Ang^3
#
#
#
# Elastic Constant Matrix: (Units=GPa)
#
#
# Indices 1 2 3 4 5 6 
#
# 1 103.2488 43.2479 20.9492 0.0000 10.8464 0.0000
# 2 43.2479 122.4656 41.9240 0.0000 8.9516 0.0000
# 3 20.9492 41.9240 128.7974 0.0000 24.7446 0.0000
# 4 0.0000 0.0000 0.0000 38.8579 0.0000 2.4078
# 5 10.8464 8.9516 24.7446 0.0000 29.6285 0.0000
# 6 0.0000 0.0000 0.0000 2.4078 0.0000 43.1532
#
#
#
# Elastic Compliance Matrix: (Units=1/GPa)
#
#
# Indices 1 2 3 4 5 6 
#
# 1 0.011637 -0.003870 -0.000047 0.000000 -0.003052 0.000000
# 2 -0.003870 0.010480 -0.002913 0.000000 0.000683 0.000000
# 3 -0.000047 -0.002913 0.010181 0.000000 -0.007606 0.000000
# 4 0.000000 0.000000 0.000000 0.025824 0.000000 -0.001441
# 5 -0.003052 0.000683 -0.007606 0.000000 0.041014 0.000000
# 6 0.000000 0.000000 0.000000 -0.001441 0.000000 0.023254
#
#
# Mechanical properties :
#
#
# Convention : Reuss Voigt Hill
#
# Bulk Modulus (GPa) = 53.65539 62.97265 58.31402
# Shear Modulus (GPa) = 35.14665 38.88733 37.01699
#
# Velocity S-wave (km/s) = 3.84406 4.04346 3.94502
# Velocity P-wave (km/s) = 6.50084 6.94803 6.72815
#
# Compressibility (1/GPa) = 0.01863746
#
# Stress axis : x y z
#
# Youngs Moduli (GPa) = 85.93609 95.42369 98.22127
#
# Poissons Ratio (x) = 0.36932 0.00458
# Poissons Ratio (y) = 0.33260 0.28611
# Poissons Ratio (z) = 0.00401 0.27796
#
# Static dielectric constant tensor:
#      x y z
#    x 1.951330 0.000000 -0.002440 
#    y 0.000000 1.889490 0.000000 
#    z -0.002440 0.000000 2.117850 
# 
# From -- ./inp_files/63759.got.cif
#   From: 2010.05.17/outbox.cif.g08.bks.cpg/sg14_32_cif.got.tgz:63759.got - 2010.06.03 17:49:19.
