data_PCOD9246365
_publ_section_title
;
Structure prediction by ZEFSAII (Michael W. Deem and Ramdas Pophale) SiO2 
 PCOD9246365
Probable space group: P 21/C
;
_chemical_formula_sum "Si O2"
_cell_formula_units_Z 24
_cell_length_a 13.671825
_cell_length_b 12.927428
_cell_length_c 12.119260
_cell_angle_alpha 90.000000
_cell_angle_beta 29.629195
_cell_angle_gamma 90.000000
_cell_volume 1058.960783
_symmetry_space_group_name_H-M "P 21/C"
_symmetry_group_IT_number 14
_symmetry_cell_setting 'monoclinic'
loop_
_space_group_symop_operation_xyz
x,y,z
-x,1/2+y,1/2-z
-x,-y,-z
x,1/2-y,1/2+z
loop_
_atom_site_type_symbol
_atom_site_label
_atom_site_fract_x
_atom_site_fract_y
_atom_site_fract_z
Si Si1 0.294478 0.449017 0.658584
Si Si2 0.878684 0.392616 0.601240
Si Si3 0.291599 0.135442 0.379620
Si Si4 0.483191 0.157667 0.599661
Si Si5 0.664099 0.024039 0.106364
Si Si6 0.221498 0.280711 0.173760
O O1 0.500000 0.500000 0.500000
O O2 0.188209 0.423704 0.879195
O O3 0.225727 0.512840 0.619322
O O4 0.308224 0.334207 0.592299
O O5 0.712531 0.370224 0.856164
O O6 0.773084 0.403567 0.586276
O O7 0.000000 0.500000 0.500000
O O8 0.031622 0.298407 0.437676
O O9 0.445937 0.059583 0.286377
O O10 0.173841 0.184709 0.596585
O O11 0.428837 0.227260 0.193645
O O12 0.383905 0.148357 0.575970
O O13 0.371196 0.081413 0.791736
#
# Coordination Sequence:
#
# PCOD9246365 Si02
#       6
#     4   4   4   4   4   4
#     4   9  21  40  70  94 128 182 226 269 340 405
#     4  12  24  38  66 102 132 171 224 282 343 405
#     4  10  21  40  70  91 127 181 219 276 338 400
#     4  11  22  42  68  92 132 176 227 274 335 408
#     4  11  20  42  65  96 133 171 228 276 337 409
#     4  11  21  42  66  98 129 175 224 278 338 401
#
# _framework density 22.663730000000001
#
# number of rings (size 3 to 8) (size 9 to 14) (size 15 to 20)
#    0.000    1.333    5.000    1.500    0.000    0.000 
#    9.000    0.833    7.333    0.000    0.000    0.000 
#    0.000    0.000    0.000    0.000    0.000    0.000 
#
# Total GULP energy -133715.961761 kJ/mol
# GULP energy per Si atom -5571.498407 kJ/mol
# Density = 2.261215 g / cm^3
# Si number density = 22.663730 Si / 1000 Ang^3
#
#
#
# Elastic Constant Matrix: (Units=GPa)
#
#
# Indices 1 2 3 4 5 6 
#
# 1 77.2769 -0.9286 15.8318 0.0000 30.7789 0.0000
# 2 -0.9286 42.2163 8.6547 0.0000 0.0994 0.0000
# 3 15.8318 8.6547 106.1574 0.0000 5.9548 0.0000
# 4 0.0000 0.0000 0.0000 23.8428 0.0000 15.0894
# 5 30.7789 0.0994 5.9548 0.0000 31.8891 0.0000
# 6 0.0000 0.0000 0.0000 15.0894 0.0000 29.4813
#
#
#
# Elastic Compliance Matrix: (Units=1/GPa)
#
#
# Indices 1 2 3 4 5 6 
#
# 1 0.021497 0.000960 -0.002143 0.000000 -0.020351 0.000000
# 2 0.000960 0.024136 -0.002076 0.000000 -0.000614 0.000000
# 3 -0.002143 -0.002076 0.009896 0.000000 0.000227 0.000000
# 4 0.000000 0.000000 0.000000 0.062036 0.000000 -0.031752
# 5 -0.020351 -0.000614 0.000227 0.000000 0.050961 0.000000
# 6 0.000000 0.000000 0.000000 -0.031752 0.000000 0.050172
#
#
# Mechanical properties :
#
#
# Convention : Reuss Voigt Hill
#
# Bulk Modulus (GPa) = 20.40380 30.30738 25.35559
# Shear Modulus (GPa) = 20.69943 30.51548 25.60745
#
# Velocity S-wave (km/s) = 3.02541 3.67338 3.36503
# Velocity P-wave (km/s) = 4.60723 5.60297 5.12932
#
# Compressibility (1/GPa) = 0.04901048
#
# Stress axis : x y z
#
# Youngs Moduli (GPa) = 46.51873 41.43224 101.04999
#
# Poissons Ratio (x) = -0.03977 0.21651
# Poissons Ratio (y) = -0.04466 0.20982
# Poissons Ratio (z) = 0.09967 0.08603
#
# Static dielectric constant tensor:
#      x y z
#    x 1.879510 0.000000 0.035050 
#    y 0.000000 1.854110 0.000000 
#    z 0.035050 0.000000 1.895830 
# 
# From -- ./inp_files/32659.got.cif
#   From: 2010.05.17/outbox.cif.g08.bks.cpg/sg14_17_cif.got.tgz:32659.got - 2010.06.03 17:49:19.
