data_PCOD9246913
_publ_section_title
;
Structure prediction by ZEFSAII (Michael W. Deem and Ramdas Pophale) SiO2 
 PCOD9246913
Probable space group: P 21/C
;
_chemical_formula_sum "Si O2"
_cell_formula_units_Z 28
_cell_length_a 14.168186
_cell_length_b 19.570788
_cell_length_c 9.668416
_cell_angle_alpha 90.000000
_cell_angle_beta 154.573125
_cell_angle_gamma 90.000000
_cell_volume 1151.060792
_symmetry_space_group_name_H-M "P 21/C"
_symmetry_group_IT_number 14
_symmetry_cell_setting 'monoclinic'
loop_
_space_group_symop_operation_xyz
x,y,z
-x,1/2+y,1/2-z
-x,-y,-z
x,1/2-y,1/2+z
loop_
_atom_site_type_symbol
_atom_site_label
_atom_site_fract_x
_atom_site_fract_y
_atom_site_fract_z
Si Si1 0.465082 0.076300 0.503390
Si Si2 0.369415 0.091060 0.684582
Si Si3 0.234714 0.690294 0.568752
Si Si4 0.542066 0.627733 0.301199
Si Si5 0.760685 0.503345 0.749750
Si Si6 0.326930 0.272060 0.302045
Si Si7 0.900972 0.290942 0.321415
O O1 0.698579 0.111953 0.846446
O O2 0.387798 0.113056 0.261714
O O3 0.500000 0.000000 0.500000
O O4 0.619775 0.066119 0.051578
O O5 0.225861 0.035624 0.579196
O O6 0.328034 0.166089 0.693148
O O7 0.930836 0.203445 0.024827
O O8 0.335238 0.085307 0.474794
O O9 0.194989 0.719237 0.364256
O O10 0.444030 0.733105 0.900095
O O11 0.606438 0.558869 0.466613
O O12 0.672960 0.687892 0.550750
O O13 0.284113 0.651860 0.962178
O O14 0.000000 0.500000 0.000000
O O15 0.132331 0.217121 0.050645
#
# Coordination Sequence:
#
# PCOD9246913 Si02
#       7
#     4   4   4   4   4   4   4
#     4  11  21  40  68  93 146 187 218 293 367 416
#     4  10  22  40  71 101 142 188 242 292 360 432
#     4  10  23  40  66  98 132 180 232 294 352 430
#     4   9  21  42  68 101 140 185 232 295 363 429
#     4  10  21  42  70 104 144 193 242 291 356 444
#     4  10  22  43  69  97 131 186 243 293 353 426
#     4  10  22  42  69  95 137 177 233 297 361 419
#
# _framework density 24.325388
#
# number of rings (size 3 to 8) (size 9 to 14) (size 15 to 20)
#    0.000    2.000    1.429    0.857    0.000    9.143 
#    0.000   10.714    0.000    0.000    0.000    0.000 
#    0.000    0.000    0.000    0.000    0.000    0.000 
#
# Total GULP energy -156279.000225 kJ/mol
# GULP energy per Si atom -5581.392865 kJ/mol
# Density = 2.427002 g / cm^3
# Si number density = 24.325388 Si / 1000 Ang^3
#
#
#
# Elastic Constant Matrix: (Units=GPa)
#
#
# Indices 1 2 3 4 5 6 
#
# 1 190.8535 72.8108 50.7813 0.0000 -3.3772 0.0000
# 2 72.8108 126.4436 50.6910 0.0000 7.9009 0.0000
# 3 50.7813 50.6910 93.7252 0.0000 15.2107 0.0000
# 4 0.0000 0.0000 0.0000 8.4614 0.0000 4.1821
# 5 -3.3772 7.9009 15.2107 0.0000 46.7437 0.0000
# 6 0.0000 0.0000 0.0000 4.1821 0.0000 36.9885
#
#
#
# Elastic Compliance Matrix: (Units=1/GPa)
#
#
# Indices 1 2 3 4 5 6 
#
# 1 0.007163 -0.003274 -0.002411 0.000000 0.001856 0.000000
# 2 -0.003274 0.011595 -0.004372 0.000000 -0.000774 0.000000
# 3 -0.002411 -0.004372 0.015043 0.000000 -0.004330 0.000000
# 4 0.000000 0.000000 0.000000 0.125180 0.000000 -0.014153
# 5 0.001856 -0.000774 -0.004330 0.000000 0.023067 0.000000
# 6 0.000000 0.000000 0.000000 -0.014153 0.000000 0.028636
#
#
# Mechanical properties :
#
#
# Convention : Reuss Voigt Hill
#
# Bulk Modulus (GPa) = 73.06152 84.39874 78.73013
# Shear Modulus (GPa) = 21.24404 34.22132 27.73268
#
# Velocity S-wave (km/s) = 2.95842 3.75482 3.38016
# Velocity P-wave (km/s) = 6.46297 7.31911 6.90432
#
# Compressibility (1/GPa) = 0.01368710
#
# Stress axis : x y z
#
# Youngs Moduli (GPa) = 139.60400 86.24520 66.47515
#
# Poissons Ratio (x) = 0.28236 0.16030
# Poissons Ratio (y) = 0.45706 0.29060
# Poissons Ratio (z) = 0.33665 0.37703
#
# Static dielectric constant tensor:
#      x y z
#    x 1.967660 0.000000 -0.010560 
#    y 0.000000 2.080700 0.000000 
#    z -0.010560 0.000000 2.038210 
# 
# From -- ./inp_files/26924.got.cif
#   From: 2010.05.17/outbox.cif.g08.bks.cpg/sg14_14_cif.got.tgz:26924.got - 2010.06.03 17:49:19.
