data_PCOD9246397
_publ_section_title
;
Structure prediction by ZEFSAII (Michael W. Deem and Ramdas Pophale) SiO2 
 PCOD9246397
Probable space group: P 21/C
;
_chemical_formula_sum "Si O2"
_cell_formula_units_Z 32
_cell_length_a 13.554591
_cell_length_b 14.132515
_cell_length_c 7.709147
_cell_angle_alpha 90.000000
_cell_angle_beta 74.510146
_cell_angle_gamma 90.000000
_cell_volume 1423.128239
_symmetry_space_group_name_H-M "P 21/C"
_symmetry_group_IT_number 14
_symmetry_cell_setting 'monoclinic'
loop_
_space_group_symop_operation_xyz
x,y,z
-x,1/2+y,1/2-z
-x,-y,-z
x,1/2-y,1/2+z
loop_
_atom_site_type_symbol
_atom_site_label
_atom_site_fract_x
_atom_site_fract_y
_atom_site_fract_z
Si Si1 0.434708 0.898592 0.024053
Si Si2 0.895881 0.027918 0.150531
Si Si3 0.004562 0.109607 0.651589
Si Si4 0.997589 0.686691 0.230737
Si Si5 0.779074 0.661300 0.448236
Si Si6 0.213729 0.530143 0.657608
Si Si7 0.490809 0.299242 0.830099
Si Si8 0.343134 0.186463 0.670969
O O1 0.435089 0.861515 0.823493
O O2 0.318302 0.915001 0.140353
O O3 0.473645 0.805314 0.116118
O O4 0.500000 0.000000 0.000000
O O5 0.908330 0.129995 0.232681
O O6 0.905777 0.953520 0.305157
O O7 0.813890 0.032991 0.035876
O O8 0.000000 0.000000 0.000000
O O9 0.025540 0.145313 0.447775
O O10 0.987629 0.202032 0.777495
O O11 0.893043 0.058924 0.703055
O O12 0.900604 0.666985 0.401035
O O13 0.760285 0.579260 0.318761
O O14 0.715721 0.634660 0.649091
O O15 0.741730 0.763352 0.406062
O O16 0.400904 0.272221 0.739677
O O17 0.434138 0.355488 0.012034
#
# Coordination Sequence:
#
# PCOD9246397 Si02
#       8
#     4   4   4   4   4   4   4   4
#     4  11  23  45  73  95 137 181 225 291 348 400
#     4  10  21  41  59  88 133 161 211 269 311 392
#     4  11  24  40  63  91 130 174 215 265 325 399
#     4  12  23  40  65  91 132 178 215 266 334 385
#     4  11  21  37  62  94 128 168 217 275 330 393
#     4  11  24  41  63  92 132 172 223 272 335 392
#     4   9  20  41  65  94 131 170 222 280 337 411
#     4   9  19  36  61  92 124 163 216 272 336 390
#
# _framework density 22.485676999999999
#
# number of rings (size 3 to 8) (size 9 to 14) (size 15 to 20)
#    0.000    1.500    2.500    4.875    1.750    2.000 
#    0.000    8.125    0.000    0.000    0.000    0.000 
#    0.000    0.000    0.000    0.000    0.000    0.000 
#
# Total GULP energy -178224.790185 kJ/mol
# GULP energy per Si atom -5569.524693 kJ/mol
# Density = 2.243450 g / cm^3
# Si number density = 22.485677 Si / 1000 Ang^3
#
#
#
# Elastic Constant Matrix: (Units=GPa)
#
#
# Indices 1 2 3 4 5 6 
#
# 1 67.4534 17.9188 -1.9083 0.0000 0.9662 0.0000
# 2 17.9188 99.1141 12.3482 0.0000 -5.7804 0.0000
# 3 -1.9083 12.3482 69.0196 0.0000 -9.4524 0.0000
# 4 0.0000 0.0000 0.0000 32.7371 0.0000 0.3938
# 5 0.9662 -5.7804 -9.4524 0.0000 25.4403 0.0000
# 6 0.0000 0.0000 0.0000 0.3938 0.0000 28.3250
#
#
#
# Elastic Compliance Matrix: (Units=1/GPa)
#
#
# Indices 1 2 3 4 5 6 
#
# 1 0.015657 -0.002991 0.000836 0.000000 -0.000964 0.000000
# 2 -0.002991 0.010965 -0.001778 0.000000 0.001944 0.000000
# 3 0.000836 -0.001778 0.015562 0.000000 0.005346 0.000000
# 4 0.000000 0.000000 0.000000 0.030552 0.000000 -0.000425
# 5 -0.000964 0.001944 0.005346 0.000000 0.041773 0.000000
# 6 0.000000 0.000000 0.000000 -0.000425 0.000000 0.035310
#
#
# Mechanical properties :
#
#
# Convention : Reuss Voigt Hill
#
# Bulk Modulus (GPa) = 29.13924 32.47826 30.80875
# Shear Modulus (GPa) = 29.56406 31.11569 30.33988
#
# Velocity S-wave (km/s) = 3.62994 3.72398 3.67726
# Velocity P-wave (km/s) = 5.52773 5.74161 5.63568
#
# Compressibility (1/GPa) = 0.03431798
#
# Stress axis : x y z
#
# Youngs Moduli (GPa) = 63.86897 91.19882 64.25879
#
# Poissons Ratio (x) = 0.27277 -0.05372
# Poissons Ratio (y) = 0.19103 0.11426
# Poissons Ratio (z) = -0.05340 0.16217
#
# Static dielectric constant tensor:
#      x y z
#    x 1.854460 0.000000 0.007050 
#    y 0.000000 1.936980 0.000000 
#    z 0.007050 0.000000 1.922540 
# 
# From -- ./inp_files/16245.got.cif
#   From: 2010.05.17/outbox.cif.g08.bks.cpg/sg14_9_cif.got.tgz:16245.got - 2010.06.03 17:49:19.
