data_PCOD9246771
_publ_section_title
;
Structure prediction by ZEFSAII (Michael W. Deem and Ramdas Pophale) SiO2 
 PCOD9246771
Probable space group: P 21/C
;
_chemical_formula_sum "Si O2"
_cell_formula_units_Z 32
_cell_length_a 21.875065
_cell_length_b 10.978562
_cell_length_c 22.715184
_cell_angle_alpha 90.000000
_cell_angle_beta 17.472135
_cell_angle_gamma 90.000000
_cell_volume 1637.881296
_symmetry_space_group_name_H-M "P 21/C"
_symmetry_group_IT_number 14
_symmetry_cell_setting 'monoclinic'
loop_
_space_group_symop_operation_xyz
x,y,z
-x,1/2+y,1/2-z
-x,-y,-z
x,1/2-y,1/2+z
loop_
_atom_site_type_symbol
_atom_site_label
_atom_site_fract_x
_atom_site_fract_y
_atom_site_fract_z
Si Si1 0.250247 0.275130 0.483082
Si Si2 0.347077 0.739590 0.572436
Si Si3 0.624652 0.298940 0.716379
Si Si4 0.119001 0.648333 0.100579
Si Si5 0.030740 0.080753 0.614356
Si Si6 0.232454 0.098594 0.300769
Si Si7 0.512832 0.076306 0.654915
Si Si8 0.811658 0.317439 0.161001
O O1 0.425442 0.262978 0.370837
O O2 0.176927 0.145800 0.526701
O O3 0.331138 0.347533 0.352169
O O4 0.055173 0.332990 0.692097
O O5 0.556361 0.668163 0.392204
O O6 0.404193 0.855104 0.479518
O O7 0.242854 0.762904 0.731595
O O8 0.184867 0.650921 0.688535
O O9 0.797717 0.270283 0.508016
O O10 0.566695 0.439293 0.780095
O O11 0.697656 0.234041 0.708949
O O12 0.027408 0.559155 0.135487
O O13 0.307799 0.588315 0.961666
O O14 0.136864 0.093849 0.453894
O O15 0.054765 0.167802 0.428036
O O16 0.254991 0.956923 0.262519
#
# Coordination Sequence:
#
# PCOD9246771 Si02
#       8
#     4   4   4   4   4   4   4   4
#     4  11  24  39  65  93 128 165 202 258 320 373
#     4  11  23  39  68  90 123 168 210 255 317 370
#     4  11  25  42  61  94 131 166 207 261 314 382
#     4  11  24  40  61  95 129 163 209 260 316 382
#     4  11  21  39  67  94 121 161 210 260 312 373
#     4  10  21  42  64  91 125 156 214 270 305 365
#     4  11  24  40  62  93 130 166 208 256 317 382
#     4  10  23  41  62  92 124 164 211 262 310 369
#
# _framework density 19.537436
#
# number of rings (size 3 to 8) (size 9 to 14) (size 15 to 20)
#    0.000    1.250    5.000    0.375    3.500    1.500 
#    0.000    0.625    0.000    0.000    0.000    0.000 
#    0.000    0.000    0.000    0.000    0.000    0.000 
#
# Total GULP energy -178581.982233 kJ/mol
# GULP energy per Si atom -5580.686945 kJ/mol
# Density = 1.949297 g / cm^3
# Si number density = 19.537436 Si / 1000 Ang^3
#
#
#
# Elastic Constant Matrix: (Units=GPa)
#
#
# Indices 1 2 3 4 5 6 
#
# 1 107.6092 36.6799 31.6548 0.0000 -5.8084 0.0000
# 2 36.6799 91.4987 42.3448 0.0000 -0.4486 0.0000
# 3 31.6548 42.3448 89.2638 0.0000 -0.0098 0.0000
# 4 0.0000 0.0000 0.0000 19.6649 0.0000 -2.3873
# 5 -5.8084 -0.4486 -0.0098 0.0000 21.1183 0.0000
# 6 0.0000 0.0000 0.0000 -2.3873 0.0000 26.9655
#
#
#
# Elastic Compliance Matrix: (Units=1/GPa)
#
#
# Indices 1 2 3 4 5 6 
#
# 1 0.011326 -0.003417 -0.002395 0.000000 0.003042 0.000000
# 2 -0.003417 0.015036 -0.005921 0.000000 -0.000623 0.000000
# 3 -0.002395 -0.005921 0.014861 0.000000 -0.000778 0.000000
# 4 0.000000 0.000000 0.000000 0.051405 0.000000 0.004551
# 5 0.003042 -0.000623 -0.000778 0.000000 0.048175 0.000000
# 6 0.000000 0.000000 0.000000 0.004551 0.000000 0.037487
#
#
# Mechanical properties :
#
#
# Convention : Reuss Voigt Hill
#
# Bulk Modulus (GPa) = 56.31728 56.63675 56.47701
# Shear Modulus (GPa) = 24.07591 25.39588 24.73589
#
# Velocity S-wave (km/s) = 3.51422 3.60926 3.56206
# Velocity P-wave (km/s) = 6.73455 6.81328 6.77403
#
# Compressibility (1/GPa) = 0.01775654
#
# Stress axis : x y z
#
# Youngs Moduli (GPa) = 88.28921 66.50644 67.29058
#
# Poissons Ratio (x) = 0.22726 0.16118
# Poissons Ratio (y) = 0.30169 0.39843
# Poissons Ratio (z) = 0.21147 0.39379
#
# Static dielectric constant tensor:
#      x y z
#    x 1.707240 0.000000 -0.004200 
#    y 0.000000 1.692870 0.000000 
#    z -0.004200 0.000000 1.680700 
# 
# From -- ./inp_files/69906.got.cif
#   From: 2010.05.17/outbox.cif.g08.bks.cpg/sg14_35_cif.got.tgz:69906.got - 2010.06.03 17:49:19.
