data_PCOD9246259
_publ_section_title
;
Structure prediction by ZEFSAII (Michael W. Deem and Ramdas Pophale) SiO2 
 PCOD9246259
Probable space group: P 21/C
;
_chemical_formula_sum "Si O2"
_cell_formula_units_Z 32
_cell_length_a 11.581253
_cell_length_b 26.279386
_cell_length_c 5.428117
_cell_angle_alpha 90.000000
_cell_angle_beta 83.690161
_cell_angle_gamma 90.000000
_cell_volume 1642.029851
_symmetry_space_group_name_H-M "P 21/C"
_symmetry_group_IT_number 14
_symmetry_cell_setting 'monoclinic'
loop_
_space_group_symop_operation_xyz
x,y,z
-x,1/2+y,1/2-z
-x,-y,-z
x,1/2-y,1/2+z
loop_
_atom_site_type_symbol
_atom_site_label
_atom_site_fract_x
_atom_site_fract_y
_atom_site_fract_z
Si Si1 0.283752 0.044248 0.868205
Si Si2 0.869920 0.719188 0.490965
Si Si3 0.590401 0.780045 0.058945
Si Si4 0.500528 0.391555 0.506856
Si Si5 0.955196 0.442614 0.049911
Si Si6 0.718437 0.454304 0.367565
Si Si7 0.940432 0.896865 0.966110
Si Si8 0.407898 0.038566 0.398755
O O1 0.291091 0.051167 0.571646
O O2 0.409583 0.073124 0.878044
O O3 0.186944 0.077390 0.025172
O O4 0.243712 0.984253 0.895456
O O5 0.899044 0.750402 0.732946
O O6 0.729848 0.711833 0.522790
O O7 0.927233 0.663773 0.480436
O O8 0.561814 0.755108 0.329449
O O9 0.528097 0.833783 0.036057
O O10 0.631402 0.408133 0.420688
O O11 0.472236 0.411440 0.788981
O O12 0.819744 0.443694 0.156121
O O13 0.011266 0.418221 0.285216
O O14 0.000000 0.500000 0.000000
O O15 0.986629 0.412915 0.791906
O O16 0.640586 0.503434 0.309973
O O17 0.500000 0.000000 0.500000
#
# Coordination Sequence:
#
# PCOD9246259 Si02
#       8
#     4   4   4   4   4   4   4   4
#     4  11  21  36  58  92 125 163 201 253 314 376
#     4  10  21  40  66  93 121 155 208 273 329 374
#     4  10  23  39  61  93 124 156 202 265 333 383
#     4  11  22  37  60  91 125 164 207 259 320 382
#     4  12  26  42  61  91 133 179 213 255 307 381
#     4  11  23  38  56  89 129 172 211 246 303 388
#     4  12  25  41  65  92 128 168 211 266 318 368
#     4  11  20  33  59  90 126 162 204 251 305 375
#
# _framework density 19.488074999999998
#
# number of rings (size 3 to 8) (size 9 to 14) (size 15 to 20)
#    0.000    1.000    5.000    2.625    5.250    1.000 
#    0.000    0.000    0.000    4.500    0.000    0.000 
#    0.000    0.000    0.000    0.000    0.000    0.000 
#
# Total GULP energy -178282.382285 kJ/mol
# GULP energy per Si atom -5571.324446 kJ/mol
# Density = 1.944372 g / cm^3
# Si number density = 19.488075 Si / 1000 Ang^3
#
#
#
# Elastic Constant Matrix: (Units=GPa)
#
#
# Indices 1 2 3 4 5 6 
#
# 1 45.7475 46.7676 38.3577 0.0000 -25.6541 0.0000
# 2 46.7676 153.0555 67.5074 0.0000 -3.3874 0.0000
# 3 38.3577 67.5074 131.5294 0.0000 -18.0781 0.0000
# 4 0.0000 0.0000 0.0000 27.9171 0.0000 2.3047
# 5 -25.6541 -3.3874 -18.0781 0.0000 25.4930 0.0000
# 6 0.0000 0.0000 0.0000 2.3047 0.0000 32.6065
#
#
#
# Elastic Compliance Matrix: (Units=1/GPa)
#
#
# Indices 1 2 3 4 5 6 
#
# 1 0.131901 -0.036444 -0.002419 0.000000 0.126177 0.000000
# 2 -0.036444 0.018624 -0.004023 0.000000 -0.037053 0.000000
# 3 -0.002419 -0.004023 0.011041 0.000000 0.004861 0.000000
# 4 0.000000 0.000000 0.000000 0.036031 0.000000 -0.002547
# 5 0.126177 -0.037053 0.004861 0.000000 0.164725 0.000000
# 6 0.000000 0.000000 0.000000 -0.002547 0.000000 0.030849
#
#
# Mechanical properties :
#
#
# Convention : Reuss Voigt Hill
#
# Bulk Modulus (GPa) = 13.19371 70.62198 41.90785
# Shear Modulus (GPa) = 9.91656 29.04998 19.48327
#
# Velocity S-wave (km/s) = 2.25822 3.86509 3.16532
# Velocity P-wave (km/s) = 3.68569 7.49905 5.90847
#
# Compressibility (1/GPa) = 0.07579368
#
# Stress axis : x y z
#
# Youngs Moduli (GPa) = 7.58146 53.69422 90.56873
#
# Poissons Ratio (x) = 1.95685 0.21905
# Poissons Ratio (y) = 0.27630 0.36439
# Poissons Ratio (z) = 0.01834 0.21603
#
# Static dielectric constant tensor:
#      x y z
#    x 1.572240 0.000000 -0.085820 
#    y 0.000000 1.595400 0.000000 
#    z -0.085820 0.000000 1.710030 
# 
# From -- ./inp_files/3202.got.cif
#   From: 2010.05.17/outbox.cif.g08.bks.cpg/sg14_2_cif.got.tgz:3202.got - 2010.06.03 17:49:19.
