data_PCOD9246702
_publ_section_title
;
Structure prediction by ZEFSAII (Michael W. Deem and Ramdas Pophale) SiO2 
 PCOD9246702
Probable space group: P 21/C
;
_chemical_formula_sum "Si O2"
_cell_formula_units_Z 32
_cell_length_a 17.102518
_cell_length_b 11.719428
_cell_length_c 14.533450
_cell_angle_alpha 90.000000
_cell_angle_beta 32.134534
_cell_angle_gamma 90.000000
_cell_volume 1549.432241
_symmetry_space_group_name_H-M "P 21/C"
_symmetry_group_IT_number 14
_symmetry_cell_setting 'monoclinic'
loop_
_space_group_symop_operation_xyz
x,y,z
-x,1/2+y,1/2-z
-x,-y,-z
x,1/2-y,1/2+z
loop_
_atom_site_type_symbol
_atom_site_label
_atom_site_fract_x
_atom_site_fract_y
_atom_site_fract_z
Si Si1 0.691232 0.769556 0.724674
Si Si2 0.832104 0.005775 0.633278
Si Si3 0.632873 0.359725 0.472864
Si Si4 0.917419 0.230547 0.460308
Si Si5 0.867197 0.338072 0.707591
Si Si6 0.878819 0.844619 0.890883
Si Si7 0.259262 0.572106 0.453643
Si Si8 0.671239 0.973051 0.315406
O O1 0.740693 0.717888 0.576375
O O2 0.704645 0.661477 0.779663
O O3 0.790770 0.879795 0.642558
O O4 0.525070 0.814109 0.898503
O O5 0.711862 0.048232 0.827924
O O6 0.838800 0.108155 0.552268
O O7 0.000000 0.000000 0.500000
O O8 0.745645 0.253729 0.359275
O O9 0.620732 0.407065 0.588328
O O10 0.928927 0.289616 0.548766
O O11 0.819818 0.311499 0.493789
O O12 0.067253 0.213910 0.255778
O O13 0.781838 0.455790 0.770108
O O14 0.993887 0.344974 0.657497
O O15 0.848107 0.976301 0.898474
O O16 0.304928 0.519530 0.311453
O O17 0.500000 0.000000 0.500000
#
# Coordination Sequence:
#
# PCOD9246702 Si02
#       8
#     4   4   4   4   4   4   4   4
#     4  11  24  41  67  98 132 171 223 276 337 409
#     4  11  24  42  69  95 130 176 224 275 339 398
#     4  11  21  44  66  93 136 173 217 278 342 401
#     4  10  22  39  66  94 127 170 219 267 334 392
#     4  10  21  41  74  93 127 180 213 279 342 394
#     4  11  23  41  66  97 133 166 226 281 325 403
#     4  10  23  40  62  93 131 170 217 271 329 397
#     4  10  21  43  67  96 134 169 222 269 335 414
#
# _framework density 20.652726999999999
#
# number of rings (size 3 to 8) (size 9 to 14) (size 15 to 20)
#    0.000    1.500    2.500    2.625    1.750    5.500 
#    6.750    3.750    0.000    0.000    0.000    0.000 
#    0.000    0.000    0.000    0.000    0.000    0.000 
#
# Total GULP energy -178670.259253 kJ/mol
# GULP energy per Si atom -5583.445602 kJ/mol
# Density = 2.060572 g / cm^3
# Si number density = 20.652727 Si / 1000 Ang^3
#
#
#
# Elastic Constant Matrix: (Units=GPa)
#
#
# Indices 1 2 3 4 5 6 
#
# 1 43.3799 22.4998 13.9726 0.0000 0.2873 0.0000
# 2 22.4998 145.3957 17.5523 0.0000 -4.7005 0.0000
# 3 13.9726 17.5523 77.2087 0.0000 -8.6208 0.0000
# 4 0.0000 0.0000 0.0000 27.5245 0.0000 -14.1312
# 5 0.2873 -4.7005 -8.6208 0.0000 16.8624 0.0000
# 6 0.0000 0.0000 0.0000 -14.1312 0.0000 7.2933
#
#
#
# Elastic Compliance Matrix: (Units=1/GPa)
#
#
# Indices 1 2 3 4 5 6 
#
# 1 0.026386 -0.003677 -0.004352 0.000000 -0.003700 0.000000
# 2 -0.003677 0.007608 -0.000870 0.000000 0.001739 0.000000
# 3 -0.004352 -0.000870 0.014761 0.000000 0.007378 0.000000
# 4 0.000000 0.000000 0.000000 6.939337 0.000000 13.445508
# 5 -0.003700 0.001739 0.007378 0.000000 0.063623 0.000000
# 6 0.000000 0.000000 0.000000 13.445508 0.000000 26.188836
#
#
# Mechanical properties :
#
#
# Convention : Reuss Voigt Hill
#
# Bulk Modulus (GPa) = 32.30390 41.55929 36.93159
# Shear Modulus (GPa) = 0.15029 24.46667 12.30848
#
# Velocity S-wave (km/s) = 0.27005 3.44564 2.44391
# Velocity P-wave (km/s) = 3.97148 5.99971 5.08769
#
# Compressibility (1/GPa) = 0.03095602
#
# Stress axis : x y z
#
# Youngs Moduli (GPa) = 37.89911 131.43908 67.74564
#
# Poissons Ratio (x) = 0.48335 0.29484
# Poissons Ratio (y) = 0.13937 0.05894
# Poissons Ratio (z) = 0.16494 0.11435
#
# Static dielectric constant tensor:
#      x y z
#    x 1.712950 0.000000 0.007330 
#    y 0.000000 1.779250 0.000000 
#    z 0.007330 0.000000 1.712830 
# 
# From -- ./inp_files/48996.got.cif
#   From: 2010.05.17/outbox.cif.g08.bks.cpg/sg14_25_cif.got.tgz:48996.got - 2010.06.03 17:49:19.
