data_PCOD9246886
_publ_section_title
;
Structure prediction by ZEFSAII (Michael W. Deem and Ramdas Pophale) SiO2 
 PCOD9246886
Probable space group: P 21/C
;
_chemical_formula_sum "Si O2"
_cell_formula_units_Z 22
_cell_length_a 21.691350
_cell_length_b 4.993596
_cell_length_c 9.655541
_cell_angle_alpha 90.000000
_cell_angle_beta 130.703377
_cell_angle_gamma 90.000000
_cell_volume 792.867736
_symmetry_space_group_name_H-M "P 21/C"
_symmetry_group_IT_number 14
_symmetry_cell_setting 'monoclinic'
loop_
_space_group_symop_operation_xyz
x,y,z
-x,1/2+y,1/2-z
-x,-y,-z
x,1/2-y,1/2+z
loop_
_atom_site_type_symbol
_atom_site_label
_atom_site_fract_x
_atom_site_fract_y
_atom_site_fract_z
Si Si1 0.393032 0.715879 0.743135
Si Si2 0.822644 0.049859 0.848918
Si Si3 0.423189 0.082724 0.556660
Si Si4 0.712902 0.544290 0.628015
Si Si5 0.000000 0.500000 0.500000
Si Si6 0.030021 0.001689 0.771676
O O1 0.480392 0.607665 0.814519
O O2 0.315970 0.567798 0.562776
O O3 0.395304 0.003001 0.670279
O O4 0.397460 0.645087 0.910089
O O5 0.768777 0.315225 0.775932
O O6 0.767027 0.806838 0.721511
O O7 0.873246 0.014698 0.067100
O O8 0.896427 0.048419 0.848483
O O9 0.372709 0.341504 0.437803
O O10 0.992117 0.743268 0.626192
O O11 0.996860 0.772901 0.854338
#
# Coordination Sequence:
#
# PCOD9246886 Si02
#       6
#     4   4   4   4   2   4
#     4  11  25  47  77 111 154 212 258 330 388 484
#     4  10  24  44  69 101 150 184 256 303 382 454
#     4  11  25  47  77 110 157 207 269 312 405 466
#     4  12  23  47  66 111 148 195 251 330 378 448
#     4   8  24  44  66  96 140 188 238 296 368 458
#     4  10  21  42  68  96 133 189 239 289 367 447
#
# _framework density 27.747375999999999
#
# number of rings (size 3 to 8) (size 9 to 14) (size 15 to 20)
#    1.091    0.364    3.636    1.091    0.000    5.091 
#    9.818    0.000    0.000    0.000    0.000    0.000 
#    0.000    0.000    0.000    0.000    0.000    0.000 
#
# Total GULP energy -122771.840235 kJ/mol
# GULP energy per Si atom -5580.538192 kJ/mol
# Density = 2.768422 g / cm^3
# Si number density = 27.747376 Si / 1000 Ang^3
#
#
#
# Elastic Constant Matrix: (Units=GPa)
#
#
# Indices 1 2 3 4 5 6 
#
# 1 102.5780 46.3300 60.6116 0.0000 -9.0460 0.0000
# 2 46.3300 263.4807 70.8856 0.0000 27.0373 0.0000
# 3 60.6116 70.8856 188.0662 0.0000 25.9052 0.0000
# 4 0.0000 0.0000 0.0000 49.2031 0.0000 15.5463
# 5 -9.0460 27.0373 25.9052 0.0000 67.4947 0.0000
# 6 0.0000 0.0000 0.0000 15.5463 0.0000 12.2948
#
#
#
# Elastic Compliance Matrix: (Units=1/GPa)
#
#
# Indices 1 2 3 4 5 6 
#
# 1 0.013353 -0.001622 -0.004253 0.000000 0.004072 0.000000
# 2 -0.001622 0.004505 -0.000947 0.000000 -0.001659 0.000000
# 3 -0.004253 -0.000947 0.007466 0.000000 -0.003056 0.000000
# 4 0.000000 0.000000 0.000000 0.033846 0.000000 -0.042797
# 5 0.004072 -0.001659 -0.003056 0.000000 0.017199 0.000000
# 6 0.000000 0.000000 0.000000 -0.042797 0.000000 0.135450
#
#
# Mechanical properties :
#
#
# Convention : Reuss Voigt Hill
#
# Bulk Modulus (GPa) = 85.60983 101.08659 93.34821
# Shear Modulus (GPa) = 21.79994 50.88503 36.34249
#
# Velocity S-wave (km/s) = 2.80600 4.28701 3.62299
# Velocity P-wave (km/s) = 6.43572 7.81120 7.15658
#
# Compressibility (1/GPa) = 0.01168090
#
# Stress axis : x y z
#
# Youngs Moduli (GPa) = 74.88764 221.95145 133.94007
#
# Poissons Ratio (x) = 0.35991 0.56969
# Poissons Ratio (y) = 0.12144 0.12686
# Poissons Ratio (z) = 0.31852 0.21021
#
# Static dielectric constant tensor:
#      x y z
#    x 2.248630 0.000000 -0.144490 
#    y 0.000000 2.177790 0.000000 
#    z -0.144490 0.000000 2.077060 
# 
# From -- ./inp_files/36011.got.cif
#   From: 2010.05.17/outbox.cif.g08.bks.cpg/sg14_19_cif.got.tgz:36011.got - 2010.06.03 17:49:19.
