data_PCOD9246692
_publ_section_title
;
Structure prediction by ZEFSAII (Michael W. Deem and Ramdas Pophale) SiO2 
 PCOD9246692
Probable space group: P 21/C
;
_chemical_formula_sum "Si O2"
_cell_formula_units_Z 24
_cell_length_a 13.403477
_cell_length_b 14.168099
_cell_length_c 11.095575
_cell_angle_alpha 90.000000
_cell_angle_beta 146.783995
_cell_angle_gamma 90.000000
_cell_volume 1154.246256
_symmetry_space_group_name_H-M "P 21/C"
_symmetry_group_IT_number 14
_symmetry_cell_setting 'monoclinic'
loop_
_space_group_symop_operation_xyz
x,y,z
-x,1/2+y,1/2-z
-x,-y,-z
x,1/2-y,1/2+z
loop_
_atom_site_type_symbol
_atom_site_label
_atom_site_fract_x
_atom_site_fract_y
_atom_site_fract_z
Si Si1 0.218226 0.655183 0.488037
Si Si2 0.055075 0.001358 0.195395
Si Si3 0.386049 0.092407 0.029446
Si Si4 0.726131 0.399074 0.714601
Si Si5 0.472364 0.467644 0.108979
Si Si6 0.000197 0.659232 0.820646
O O1 0.253990 0.666229 0.382277
O O2 0.407500 0.625068 0.741835
O O3 0.106273 0.742542 0.425649
O O4 0.087678 0.565233 0.376987
O O5 0.257804 0.041747 0.414557
O O6 0.042107 0.898062 0.240860
O O7 0.000000 0.000000 0.000000
O O8 0.216444 0.161360 0.879204
O O9 0.316067 0.002933 0.880198
O O10 0.558324 0.131102 0.130216
O O11 0.455597 0.047563 0.225284
O O12 0.906401 0.398281 0.976540
O O13 0.500000 0.500000 0.000000
#
# Coordination Sequence:
#
# PCOD9246692 Si02
#       6
#     4   4   4   4   4   4
#     4  11  27  41  68 109 133 186 241 283 354 418
#     4  12  24  45  72  97 141 191 230 287 359 414
#     4  10  21  41  71  98 128 188 223 287 362 407
#     4  10  22  41  67  98 136 176 237 284 352 420
#     4  11  21  43  70  95 138 180 234 283 346 421
#     4  12  24  43  70 100 141 178 233 297 345 418
#
# _framework density 20.792788999999999
#
# number of rings (size 3 to 8) (size 9 to 14) (size 15 to 20)
#    0.000    1.000    6.667    0.500    2.333    1.333 
#    0.000    0.000    7.333    0.000    0.000    0.000 
#    0.000    0.000    0.000    0.000    0.000    0.000 
#
# Total GULP energy -134151.486787 kJ/mol
# GULP energy per Si atom -5589.645283 kJ/mol
# Density = 2.074546 g / cm^3
# Si number density = 20.792789 Si / 1000 Ang^3
#
#
#
# Elastic Constant Matrix: (Units=GPa)
#
#
# Indices 1 2 3 4 5 6 
#
# 1 135.5928 21.6787 64.6614 0.0000 6.4575 0.0000
# 2 21.6787 41.3036 21.3776 0.0000 11.8433 0.0000
# 3 64.6614 21.3776 149.4325 0.0000 11.7694 0.0000
# 4 0.0000 0.0000 0.0000 9.6601 0.0000 9.7656
# 5 6.4575 11.8433 11.7694 0.0000 57.8890 0.0000
# 6 0.0000 0.0000 0.0000 9.7656 0.0000 24.8830
#
#
#
# Elastic Compliance Matrix: (Units=1/GPa)
#
#
# Indices 1 2 3 4 5 6 
#
# 1 0.009661 -0.003231 -0.003746 0.000000 0.000345 0.000000
# 2 -0.003231 0.028528 -0.002288 0.000000 -0.005011 0.000000
# 3 -0.003746 -0.002288 0.008710 0.000000 -0.000885 0.000000
# 4 0.000000 0.000000 0.000000 0.171599 0.000000 -0.067346
# 5 0.000345 -0.005011 -0.000885 0.000000 0.018441 0.000000
# 6 0.000000 0.000000 0.000000 -0.067346 0.000000 0.066619
#
#
# Mechanical properties :
#
#
# Convention : Reuss Voigt Hill
#
# Bulk Modulus (GPa) = 35.24961 60.19602 47.72281
# Shear Modulus (GPa) = 15.08091 33.06049 24.07070
#
# Velocity S-wave (km/s) = 2.69605 3.99180 3.40611
# Velocity P-wave (km/s) = 5.16539 7.08938 6.20244
#
# Compressibility (1/GPa) = 0.02836911
#
# Stress axis : x y z
#
# Youngs Moduli (GPa) = 103.50514 35.05318 114.81360
#
# Poissons Ratio (x) = 0.11326 0.43003
# Poissons Ratio (y) = 0.33444 0.26273
# Poissons Ratio (z) = 0.38768 0.08021
#
# Static dielectric constant tensor:
#      x y z
#    x 1.752620 0.000000 0.009530 
#    y 0.000000 1.759660 0.000000 
#    z 0.009530 0.000000 1.729840 
# 
# From -- ./inp_files/32637.got.cif
#   From: 2010.05.17/outbox.cif.g08.bks.cpg/sg14_17_cif.got.tgz:32637.got - 2010.06.03 17:49:19.
