data_PCOD9246143
_publ_section_title
;
Structure prediction by ZEFSAII (Michael W. Deem and Ramdas Pophale) SiO2 
 PCOD9246143
Probable space group: P 21/C
;
_chemical_formula_sum "Si O2"
_cell_formula_units_Z 28
_cell_length_a 13.296166
_cell_length_b 9.212625
_cell_length_c 19.760834
_cell_angle_alpha 90.000000
_cell_angle_beta 148.939409
_cell_angle_gamma 90.000000
_cell_volume 1248.871832
_symmetry_space_group_name_H-M "P 21/C"
_symmetry_group_IT_number 14
_symmetry_cell_setting 'monoclinic'
loop_
_space_group_symop_operation_xyz
x,y,z
-x,1/2+y,1/2-z
-x,-y,-z
x,1/2-y,1/2+z
loop_
_atom_site_type_symbol
_atom_site_label
_atom_site_fract_x
_atom_site_fract_y
_atom_site_fract_z
Si Si1 0.393732 0.275634 0.208654
Si Si2 0.466478 0.049006 0.870175
Si Si3 0.672996 0.183693 0.113391
Si Si4 0.403219 0.969260 0.608691
Si Si5 0.253724 0.490406 0.799205
Si Si6 0.885030 0.631505 0.145666
Si Si7 0.160939 0.409228 0.476401
O O1 0.334402 0.364736 0.241242
O O2 0.576153 0.173473 0.333754
O O3 0.440686 0.391331 0.177454
O O4 0.226530 0.171714 0.082461
O O5 0.382155 0.898255 0.849161
O O6 0.521674 0.140815 0.968124
O O7 0.665299 0.015204 0.944655
O O8 0.690679 0.353720 0.136155
O O9 0.883474 0.120896 0.213103
O O10 0.575148 0.953229 0.653264
O O11 0.205882 0.005697 0.454452
O O12 0.215563 0.382984 0.839672
O O13 0.048196 0.515719 0.643085
O O14 0.847095 0.783785 0.086246
#
# Coordination Sequence:
#
# PCOD9246143 Si02
#       7
#     4   4   4   4   4   4   4
#     4  11  23  43  63  92 130 174 219 258 328 384
#     4  11  21  42  66  90 131 173 206 270 329 382
#     4  10  22  38  65  97 125 168 215 270 326 382
#     4  11  24  41  66  91 130 175 213 271 320 393
#     4  11  22  41  65  95 130 168 217 270 328 377
#     4  10  21  40  63  96 127 164 218 271 320 380
#     4  10  22  41  64  96 133 166 221 270 310 399
#
# _framework density 22.420235000000002
#
# number of rings (size 3 to 8) (size 9 to 14) (size 15 to 20)
#    0.000    1.429    2.857    3.000    0.000    2.857 
#    2.571    2.143    0.000    0.000    0.000    0.000 
#    0.000    0.000    0.000    0.000    0.000    0.000 
#
# Total GULP energy -156665.895708 kJ/mol
# GULP energy per Si atom -5595.210561 kJ/mol
# Density = 2.236921 g / cm^3
# Si number density = 22.420235 Si / 1000 Ang^3
#
#
#
# Elastic Constant Matrix: (Units=GPa)
#
#
# Indices 1 2 3 4 5 6 
#
# 1 49.9127 13.6125 25.2659 0.0000 -4.2610 0.0000
# 2 13.6125 53.2830 18.6523 0.0000 -5.9126 0.0000
# 3 25.2659 18.6523 71.3336 0.0000 -18.8462 0.0000
# 4 0.0000 0.0000 0.0000 25.5831 0.0000 -4.9064
# 5 -4.2610 -5.9126 -18.8462 0.0000 34.7234 0.0000
# 6 0.0000 0.0000 0.0000 -4.9064 0.0000 22.0350
#
#
#
# Elastic Compliance Matrix: (Units=1/GPa)
#
#
# Indices 1 2 3 4 5 6 
#
# 1 0.025170 -0.003687 -0.008523 0.000000 -0.002165 0.000000
# 2 -0.003687 0.021213 -0.003976 0.000000 0.001002 0.000000
# 3 -0.008523 -0.003976 0.020572 0.000000 0.009442 0.000000
# 4 0.000000 0.000000 0.000000 0.040832 0.000000 0.009092
# 5 -0.002165 0.001002 0.009442 0.000000 0.033829 0.000000
# 6 0.000000 0.000000 0.000000 0.009092 0.000000 0.047407
#
#
# Mechanical properties :
#
#
# Convention : Reuss Voigt Hill
#
# Bulk Modulus (GPa) = 28.91662 32.17676 30.54669
# Shear Modulus (GPa) = 21.46642 24.26821 22.86731
#
# Velocity S-wave (km/s) = 3.09764 3.29359 3.19712
# Velocity P-wave (km/s) = 5.07143 5.37089 5.22331
#
# Compressibility (1/GPa) = 0.03458218
#
# Stress axis : x y z
#
# Youngs Moduli (GPa) = 39.72976 47.14155 48.61027
#
# Poissons Ratio (x) = 0.17381 0.41430
# Poissons Ratio (y) = 0.14648 0.19328
# Poissons Ratio (z) = 0.33862 0.18744
#
# Static dielectric constant tensor:
#      x y z
#    x 1.794180 0.000000 -0.028420 
#    y 0.000000 1.845750 0.000000 
#    z -0.028420 0.000000 1.857250 
# 
# From -- ./inp_files/68241.got.cif
#   From: 2010.05.17/outbox.cif.g08.bks.cpg/sg14_35_cif.got.tgz:68241.got - 2010.06.03 17:49:19.
