data_PCOD9246059
_publ_section_title
;
Structure prediction by ZEFSAII (Michael W. Deem and Ramdas Pophale) SiO2 
 PCOD9246059
Probable space group: P 21/C
;
_chemical_formula_sum "Si O2"
_cell_formula_units_Z 28
_cell_length_a 11.135987
_cell_length_b 9.370709
_cell_length_c 26.190335
_cell_angle_alpha 90.000000
_cell_angle_beta 149.867769
_cell_angle_gamma 90.000000
_cell_volume 1371.966901
_symmetry_space_group_name_H-M "P 21/C"
_symmetry_group_IT_number 14
_symmetry_cell_setting 'monoclinic'
loop_
_space_group_symop_operation_xyz
x,y,z
-x,1/2+y,1/2-z
-x,-y,-z
x,1/2-y,1/2+z
loop_
_atom_site_type_symbol
_atom_site_label
_atom_site_fract_x
_atom_site_fract_y
_atom_site_fract_z
Si Si1 0.775949 0.242764 0.069936
Si Si2 0.606898 0.915619 0.132095
Si Si3 0.031905 0.997738 0.426126
Si Si4 0.302743 0.824324 0.770867
Si Si5 0.843988 0.102361 0.698440
Si Si6 0.642212 0.907252 0.363891
Si Si7 0.296721 0.368797 0.780793
O O1 0.733536 0.320093 0.108546
O O2 0.822672 0.370730 0.047185
O O3 0.023646 0.154862 0.163760
O O4 0.569481 0.136203 0.976688
O O5 0.601691 0.787633 0.171450
O O6 0.879452 0.925063 0.212770
O O7 0.557025 0.062589 0.142326
O O8 0.825088 0.929943 0.385407
O O9 0.897946 0.092626 0.334802
O O10 0.204096 0.086675 0.527014
O O11 0.181153 0.709704 0.763536
O O12 0.487312 0.735779 0.804284
O O13 0.721719 0.956819 0.672560
O O14 0.457733 0.039214 0.301999
#
# Coordination Sequence:
#
# PCOD9246059 Si02
#       7
#     4   4   4   4   4   4   4
#     4  11  23  37  66  93 130 173 212 261 327 379
#     4  11  21  38  63  93 130 167 213 260 318 384
#     4  11  23  44  67  91 131 171 214 267 329 376
#     4  11  24  42  67  98 129 168 218 270 314 383
#     4  10  23  39  60  96 131 168 214 261 319 386
#     4  10  25  44  67  94 125 170 223 265 321 384
#     4  10  21  40  61  91 127 167 215 261 319 380
#
# _framework density 20.408655
#
# number of rings (size 3 to 8) (size 9 to 14) (size 15 to 20)
#    0.000    1.429    4.286    1.714    2.000    7.429 
#    0.000    0.714    0.000    0.000    0.000    0.000 
#    0.000    0.000    0.000    0.000    0.000    0.000 
#
# Total GULP energy -156517.366507 kJ/mol
# GULP energy per Si atom -5589.905947 kJ/mol
# Density = 2.036220 g / cm^3
# Si number density = 20.408655 Si / 1000 Ang^3
#
#
#
# Elastic Constant Matrix: (Units=GPa)
#
#
# Indices 1 2 3 4 5 6 
#
# 1 43.5804 18.3339 -6.4451 0.0000 -6.8145 0.0000
# 2 18.3339 68.5972 3.4751 0.0000 14.8595 0.0000
# 3 -6.4451 3.4751 41.6553 0.0000 -0.0704 0.0000
# 4 0.0000 0.0000 0.0000 22.7215 0.0000 5.1211
# 5 -6.8145 14.8595 -0.0704 0.0000 18.8413 0.0000
# 6 0.0000 0.0000 0.0000 5.1211 0.0000 16.1603
#
#
#
# Elastic Compliance Matrix: (Units=1/GPa)
#
#
# Indices 1 2 3 4 5 6 
#
# 1 0.033657 -0.014430 0.006451 0.000000 0.023577 0.000000
# 2 -0.014430 0.023861 -0.004264 0.000000 -0.024053 0.000000
# 3 0.006451 -0.004264 0.025370 0.000000 0.005791 0.000000
# 4 0.000000 0.000000 0.000000 0.047396 0.000000 -0.015020
# 5 0.023577 -0.024053 0.005791 0.000000 0.080594 0.000000
# 6 0.000000 0.000000 0.000000 -0.015020 0.000000 0.066640
#
#
# Mechanical properties :
#
#
# Convention : Reuss Voigt Hill
#
# Bulk Modulus (GPa) = 17.12217 20.50674 18.81446
# Shear Modulus (GPa) = 15.55353 20.77590 18.16471
#
# Velocity S-wave (km/s) = 2.76362 3.19406 2.98661
# Velocity P-wave (km/s) = 4.31177 4.86545 4.59695
#
# Compressibility (1/GPa) = 0.05840380
#
# Stress axis : x y z
#
# Youngs Moduli (GPa) = 29.71126 41.90975 39.41625
#
# Poissons Ratio (x) = 0.60474 -0.25429
# Poissons Ratio (y) = 0.42872 0.16807
# Poissons Ratio (z) = -0.19168 0.17870
#
# Static dielectric constant tensor:
#      x y z
#    x 1.716670 0.000000 -0.012410 
#    y 0.000000 1.714400 0.000000 
#    z -0.012410 0.000000 1.749490 
# 
# From -- ./inp_files/48595.got.cif
#   From: 2010.05.17/outbox.cif.g08.bks.cpg/sg14_25_cif.got.tgz:48595.got - 2010.06.03 17:49:19.
