data_PCOD9246099
_publ_section_title
;
Structure prediction by ZEFSAII (Michael W. Deem and Ramdas Pophale) SiO2 
 PCOD9246099
Probable space group: P 21/C
;
_chemical_formula_sum "Si O2"
_cell_formula_units_Z 28
_cell_length_a 8.455888
_cell_length_b 10.629469
_cell_length_c 19.663698
_cell_angle_alpha 90.000000
_cell_angle_beta 136.281406
_cell_angle_gamma 90.000000
_cell_volume 1221.483377
_symmetry_space_group_name_H-M "P 21/C"
_symmetry_group_IT_number 14
_symmetry_cell_setting 'monoclinic'
loop_
_space_group_symop_operation_xyz
x,y,z
-x,1/2+y,1/2-z
-x,-y,-z
x,1/2-y,1/2+z
loop_
_atom_site_type_symbol
_atom_site_label
_atom_site_fract_x
_atom_site_fract_y
_atom_site_fract_z
Si Si1 0.312001 0.941393 0.633448
Si Si2 0.633186 0.030580 0.609368
Si Si3 0.596083 0.588896 0.589731
Si Si4 0.175579 0.813399 0.028421
Si Si5 0.776845 0.534342 0.345435
Si Si6 0.875955 0.047219 0.292781
Si Si7 0.089989 0.823626 0.218657
O O1 0.442577 0.004222 0.609442
O O2 0.176904 0.821165 0.563788
O O3 0.534033 0.910270 0.749072
O O4 0.153305 0.012435 0.640545
O O5 0.880778 0.963621 0.670730
O O6 0.500000 0.000000 0.500000
O O7 0.745265 0.165309 0.664305
O O8 0.500000 0.500000 0.500000
O O9 0.392347 0.680882 0.546602
O O10 0.688142 0.507093 0.682344
O O11 0.818877 0.670765 0.642742
O O12 0.222545 0.928474 0.095634
O O13 0.947917 0.855415 0.919152
O O14 0.861730 0.451013 0.308250
O O15 0.845693 0.194946 0.296174
#
# Coordination Sequence:
#
# PCOD9246099 Si02
#       7
#     4   4   4   4   4   4   4
#     4  11  23  43  68  95 130 175 214 266 332 385
#     4  10  25  47  61  94 138 166 213 273 321 388
#     4  11  22  39  65  94 128 168 218 270 322 391
#     4  11  21  39  65  95 128 164 219 268 316 388
#     4  10  21  40  62  95 129 160 214 273 313 371
#     4  11  23  42  67  95 125 177 219 256 338 385
#     4  10  21  41  66  88 130 164 210 275 315 375
#
# _framework density 22.92295
#
# number of rings (size 3 to 8) (size 9 to 14) (size 15 to 20)
#    0.000    1.429    4.286    0.857    0.000    2.857 
#    7.714    0.000    0.000    0.000    0.000    0.000 
#    0.000    0.000    0.000    0.000    0.000    0.000 
#
# Total GULP energy -155989.786529 kJ/mol
# GULP energy per Si atom -5571.063805 kJ/mol
# Density = 2.287078 g / cm^3
# Si number density = 22.922950 Si / 1000 Ang^3
#
#
#
# Elastic Constant Matrix: (Units=GPa)
#
#
# Indices 1 2 3 4 5 6 
#
# 1 124.2724 14.1347 15.7068 0.0000 -9.5101 0.0000
# 2 14.1347 15.4146 4.6923 0.0000 -3.2672 0.0000
# 3 15.7068 4.6923 89.3549 0.0000 -0.6538 0.0000
# 4 0.0000 0.0000 0.0000 13.8830 0.0000 -9.7673
# 5 -9.5101 -3.2672 -0.6538 0.0000 33.9459 0.0000
# 6 0.0000 0.0000 0.0000 -9.7673 0.0000 17.5773
#
#
#
# Elastic Compliance Matrix: (Units=1/GPa)
#
#
# Indices 1 2 3 4 5 6 
#
# 1 0.009213 -0.007697 -0.001202 0.000000 0.001817 0.000000
# 2 -0.007697 0.073724 -0.002483 0.000000 0.004891 0.000000
# 3 -0.001202 -0.002483 0.011530 0.000000 -0.000354 0.000000
# 4 0.000000 0.000000 0.000000 0.118265 0.000000 0.065717
# 5 0.001817 0.004891 -0.000354 0.000000 0.030432 0.000000
# 6 0.000000 0.000000 0.000000 0.065717 0.000000 0.093409
#
#
# Mechanical properties :
#
#
# Convention : Reuss Voigt Hill
#
# Bulk Modulus (GPa) = 13.94624 33.12327 23.53476
# Shear Modulus (GPa) = 13.04671 26.04845 19.54758
#
# Velocity S-wave (km/s) = 2.38828 3.37463 2.92336
# Velocity P-wave (km/s) = 3.70167 5.44660 4.65660
#
# Compressibility (1/GPa) = 0.07170391
#
# Stress axis : x y z
#
# Youngs Moduli (GPa) = 108.53875 13.56410 86.72727
#
# Poissons Ratio (x) = 0.10441 0.10425
# Poissons Ratio (y) = 0.83545 0.21531
# Poissons Ratio (z) = 0.13046 0.03368
#
# Static dielectric constant tensor:
#      x y z
#    x 2.033190 0.000000 -0.063250 
#    y 0.000000 1.951120 0.000000 
#    z -0.063250 0.000000 1.886980 
# 
# From -- ./inp_files/65636.got.cif
#   From: 2010.05.17/outbox.cif.g08.bks.cpg/sg14_33_cif.got.tgz:65636.got - 2010.06.03 17:49:19.
