data_PCOD9246959
_publ_section_title
;
Structure prediction by ZEFSAII (Michael W. Deem and Ramdas Pophale) SiO2 
 PCOD9246959
Probable space group: P 21/C
;
_chemical_formula_sum "Si O2"
_cell_formula_units_Z 24
_cell_length_a 7.225748
_cell_length_b 24.208860
_cell_length_c 11.758973
_cell_angle_alpha 90.000000
_cell_angle_beta 29.032597
_cell_angle_gamma 90.000000
_cell_volume 998.258966
_symmetry_space_group_name_H-M "P 21/C"
_symmetry_group_IT_number 14
_symmetry_cell_setting 'monoclinic'
loop_
_space_group_symop_operation_xyz
x,y,z
-x,1/2+y,1/2-z
-x,-y,-z
x,1/2-y,1/2+z
loop_
_atom_site_type_symbol
_atom_site_label
_atom_site_fract_x
_atom_site_fract_y
_atom_site_fract_z
Si Si1 0.306962 0.173332 0.707866
Si Si2 0.519860 0.957635 0.790637
Si Si3 0.415998 0.299181 0.697815
Si Si4 0.839464 0.636724 0.958504
Si Si5 0.688346 0.610463 0.416350
Si Si6 0.721426 0.572268 0.634197
O O1 0.446613 0.234747 0.657406
O O2 0.365993 0.155034 0.546801
O O3 0.455641 0.125500 0.710573
O O4 0.846130 0.176910 0.976400
O O5 0.678684 0.916210 0.610719
O O6 0.562812 0.021666 0.736496
O O7 0.672046 0.937537 0.830521
O O8 0.059740 0.948573 0.034596
O O9 0.216758 0.333258 0.702274
O O10 0.200814 0.313440 0.929760
O O11 0.266230 0.622741 0.691646
O O12 0.894544 0.590600 0.419466
#
# Coordination Sequence:
#
# PCOD9246959 Si02
#       6
#     4   4   4   4   4   4
#     4  11  24  41  61  94 121 168 207 255 314 366
#     4  10  22  45  62  92 130 163 205 264 304 369
#     4  10  24  41  61  89 131 160 208 261 305 367
#     4  10  21  43  62  87 134 157 206 263 304 369
#     4  10  22  43  62  95 125 165 206 256 311 367
#     4  11  22  41  67  92 127 164 211 254 313 369
#
# _framework density 24.041855000000002
#
# number of rings (size 3 to 8) (size 9 to 14) (size 15 to 20)
#    0.000    1.667    5.000    0.500    4.667    4.000 
#    3.000    0.000    0.000    0.000    0.000    0.000 
#    0.000    0.000    0.000    0.000    0.000    0.000 
#
# Total GULP energy -134357.472162 kJ/mol
# GULP energy per Si atom -5598.228007 kJ/mol
# Density = 2.398713 g / cm^3
# Si number density = 24.041855 Si / 1000 Ang^3
#
#
#
# Elastic Constant Matrix: (Units=GPa)
#
#
# Indices 1 2 3 4 5 6 
#
# 1 98.1376 50.0877 27.7563 0.0000 42.1742 0.0000
# 2 50.0877 181.4060 30.3532 0.0000 30.8812 0.0000
# 3 27.7563 30.3532 95.4552 0.0000 21.7472 0.0000
# 4 0.0000 0.0000 0.0000 23.9095 0.0000 0.4222
# 5 42.1742 30.8812 21.7472 0.0000 51.1021 0.0000
# 6 0.0000 0.0000 0.0000 0.4222 0.0000 29.6180
#
#
#
# Elastic Compliance Matrix: (Units=1/GPa)
#
#
# Indices 1 2 3 4 5 6 
#
# 1 0.016950 -0.002409 -0.001448 0.000000 -0.011917 0.000000
# 2 -0.002409 0.006620 -0.001048 0.000000 -0.001566 0.000000
# 3 -0.001448 -0.001048 0.011975 0.000000 -0.003268 0.000000
# 4 0.000000 0.000000 0.000000 0.041835 0.000000 -0.000596
# 5 -0.011917 -0.001566 -0.003268 0.000000 0.031741 0.000000
# 6 0.000000 0.000000 0.000000 -0.000596 0.000000 0.033772
#
#
# Mechanical properties :
#
#
# Convention : Reuss Voigt Hill
#
# Bulk Modulus (GPa) = 38.85680 65.71036 52.28358
# Shear Modulus (GPa) = 31.00216 38.71270 34.85743
#
# Velocity S-wave (km/s) = 3.59487 4.01711 3.81184
# Velocity P-wave (km/s) = 5.78170 6.99337 6.41620
#
# Compressibility (1/GPa) = 0.02573552
#
# Stress axis : x y z
#
# Youngs Moduli (GPa) = 58.99709 151.06691 83.50891
#
# Poissons Ratio (x) = 0.36395 0.12089
# Poissons Ratio (y) = 0.14213 0.08748
# Poissons Ratio (z) = 0.08541 0.15825
#
# Static dielectric constant tensor:
#      x y z
#    x 1.991150 0.000000 -0.080940 
#    y 0.000000 1.903660 0.000000 
#    z -0.080940 0.000000 1.923050 
# 
# From -- ./inp_files/6245.got.cif
#   From: 2010.05.17/outbox.cif.g08.bks.cpg/sg14_4_cif.got.tgz:6245.got - 2010.06.03 17:49:19.
