data_PCOD9246674
_publ_section_title
;
Structure prediction by ZEFSAII (Michael W. Deem and Ramdas Pophale) SiO2 
 PCOD9246674
Probable space group: P 21/C
;
_chemical_formula_sum "Si O2"
_cell_formula_units_Z 28
_cell_length_a 11.730172
_cell_length_b 18.837104
_cell_length_c 10.566285
_cell_angle_alpha 90.000000
_cell_angle_beta 34.162049
_cell_angle_gamma 90.000000
_cell_volume 1311.046190
_symmetry_space_group_name_H-M "P 21/C"
_symmetry_group_IT_number 14
_symmetry_cell_setting 'monoclinic'
loop_
_space_group_symop_operation_xyz
x,y,z
-x,1/2+y,1/2-z
-x,-y,-z
x,1/2-y,1/2+z
loop_
_atom_site_type_symbol
_atom_site_label
_atom_site_fract_x
_atom_site_fract_y
_atom_site_fract_z
Si Si1 0.826848 0.004590 0.267017
Si Si2 0.197686 0.182041 0.330715
Si Si3 0.551522 0.098423 0.391652
Si Si4 0.349077 0.267273 0.966508
Si Si5 0.146615 0.567846 0.862647
Si Si6 0.536840 0.615316 0.616554
Si Si7 0.784661 0.015162 0.958991
O O1 0.697742 0.077547 0.374947
O O2 0.662026 0.942810 0.399436
O O3 0.971708 0.990115 0.252213
O O4 0.000000 0.000000 0.000000
O O5 0.251467 0.203837 0.425482
O O6 0.990625 0.137948 0.517551
O O7 0.198999 0.244214 0.221220
O O8 0.369349 0.131133 0.109899
O O9 0.500659 0.177044 0.393527
O O10 0.674421 0.059512 0.167739
O O11 0.461732 0.193873 0.826618
O O12 0.320319 0.578421 0.806507
O O13 0.265081 0.554259 0.624241
O O14 0.000000 0.500000 0.000000
O O15 0.694433 0.563721 0.540170
#
# Coordination Sequence:
#
# PCOD9246674 Si02
#       7
#     4   4   4   4   4   4   4
#     4   9  21  39  63 104 129 179 232 279 344 405
#     4  10  24  46  65  98 135 181 225 282 347 419
#     4  10  21  41  69  97 141 182 232 285 348 421
#     4  10  23  47  65  95 141 183 220 284 355 411
#     4  12  23  42  69  98 128 174 232 290 349 405
#     4  10  25  43  62 103 135 175 228 291 343 407
#     4  11  22  39  73  98 134 173 238 290 348 407
#
# _framework density 21.356988000000001
#
# number of rings (size 3 to 8) (size 9 to 14) (size 15 to 20)
#    0.857    0.857    1.429    2.143    4.000    3.429 
#   12.857    0.000    0.000    0.000    0.000    0.000 
#    0.000    0.000    0.000    0.000    0.000    0.000 
#
# Total GULP energy -155997.689326 kJ/mol
# GULP energy per Si atom -5571.346047 kJ/mol
# Density = 2.130838 g / cm^3
# Si number density = 21.356988 Si / 1000 Ang^3
#
#
#
# Elastic Constant Matrix: (Units=GPa)
#
#
# Indices 1 2 3 4 5 6 
#
# 1 65.3060 5.1823 3.4495 0.0000 -2.3632 0.0000
# 2 5.1823 87.8962 20.3864 0.0000 -8.5772 0.0000
# 3 3.4495 20.3864 58.5537 0.0000 -11.8648 0.0000
# 4 0.0000 0.0000 0.0000 23.7678 0.0000 1.9301
# 5 -2.3632 -8.5772 -11.8648 0.0000 42.2931 0.0000
# 6 0.0000 0.0000 0.0000 1.9301 0.0000 24.7311
#
#
#
# Elastic Compliance Matrix: (Units=1/GPa)
#
#
# Indices 1 2 3 4 5 6 
#
# 1 0.015419 -0.000729 -0.000541 0.000000 0.000562 0.000000
# 2 -0.000729 0.012487 -0.004029 0.000000 0.001362 0.000000
# 3 -0.000541 -0.004029 0.019447 0.000000 0.004608 0.000000
# 4 0.000000 0.000000 0.000000 0.042342 0.000000 -0.003305
# 5 0.000562 0.001362 0.004608 0.000000 0.025245 0.000000
# 6 0.000000 0.000000 0.000000 -0.003305 0.000000 0.040693
#
#
# Mechanical properties :
#
#
# Convention : Reuss Voigt Hill
#
# Bulk Modulus (GPa) = 27.20609 29.97690 28.59150
# Shear Modulus (GPa) = 28.01407 30.34094 29.17750
#
# Velocity S-wave (km/s) = 3.62568 3.77325 3.70020
# Velocity P-wave (km/s) = 5.50398 5.74889 5.62777
#
# Compressibility (1/GPa) = 0.03675648
#
# Stress axis : x y z
#
# Youngs Moduli (GPa) = 64.85390 80.08123 51.42272
#
# Poissons Ratio (x) = 0.05837 0.02781
# Poissons Ratio (y) = 0.04727 0.20717
# Poissons Ratio (z) = 0.03507 0.32263
#
# Static dielectric constant tensor:
#      x y z
#    x 1.566020 0.000000 -0.028750 
#    y 0.000000 1.767240 0.000000 
#    z -0.028750 0.000000 1.750480 
# 
# From -- ./inp_files/30662.got.cif
#   From: 2010.05.17/outbox.cif.g08.bks.cpg/sg14_16_cif.got.tgz:30662.got - 2010.06.03 17:49:19.
