data_PCOD9246392
_publ_section_title
;
Structure prediction by ZEFSAII (Michael W. Deem and Ramdas Pophale) SiO2 
 PCOD9246392
Probable space group: P 21/C
;
_chemical_formula_sum "Si O2"
_cell_formula_units_Z 28
_cell_length_a 9.033031
_cell_length_b 26.104281
_cell_length_c 7.529465
_cell_angle_alpha 90.000000
_cell_angle_beta 144.788841
_cell_angle_gamma 90.000000
_cell_volume 1023.711439
_symmetry_space_group_name_H-M "P 21/C"
_symmetry_group_IT_number 14
_symmetry_cell_setting 'monoclinic'
loop_
_space_group_symop_operation_xyz
x,y,z
-x,1/2+y,1/2-z
-x,-y,-z
x,1/2-y,1/2+z
loop_
_atom_site_type_symbol
_atom_site_label
_atom_site_fract_x
_atom_site_fract_y
_atom_site_fract_z
Si Si1 0.522216 0.186979 0.403157
Si Si2 0.883069 0.093019 0.773422
Si Si3 0.275166 0.941223 0.887769
Si Si4 0.038941 0.142690 0.584999
Si Si5 0.741608 0.505762 0.976556
Si Si6 0.216641 0.746597 0.071716
Si Si7 0.120320 0.340460 0.805382
O O1 0.644643 0.131086 0.502696
O O2 0.509788 0.218632 0.209506
O O3 0.735335 0.225526 0.692055
O O4 0.311350 0.182600 0.346112
O O5 0.074968 0.106445 0.794440
O O6 0.798922 0.034248 0.689596
O O7 0.998642 0.112853 0.071914
O O8 0.195072 0.884241 0.752855
O O9 0.339432 0.967022 0.761003
O O10 0.010332 0.968612 0.687174
O O11 0.508211 0.953764 0.249796
O O12 0.967627 0.197729 0.590662
O O13 0.234704 0.145833 0.611126
O O14 0.083811 0.795960 0.852962
#
# Coordination Sequence:
#
# PCOD9246392 Si02
#       7
#     4   4   4   4   4   4   4
#     4  10  22  37  61  91 119 169 208 261 327 382
#     4   9  22  41  63  94 127 168 211 263 325 390
#     4   9  19  37  64  99 123 174 217 272 326 389
#     4  10  21  43  63  89 130 164 218 265 324 388
#     4   9  18  38  66  93 134 164 222 269 327 393
#     4  10  21  41  57  89 123 163 215 262 317 391
#     4  11  23  41  62  90 130 163 213 270 318 391
#
# _framework density 27.351458000000001
#
# number of rings (size 3 to 8) (size 9 to 14) (size 15 to 20)
#    0.000    2.286    1.429    0.000    4.000    0.000 
#   15.429    1.429    0.000    0.000    0.000    0.000 
#    0.000    0.000    0.000    0.000    0.000    0.000 
#
# Total GULP energy -156283.110789 kJ/mol
# GULP energy per Si atom -5581.539671 kJ/mol
# Density = 2.728920 g / cm^3
# Si number density = 27.351458 Si / 1000 Ang^3
#
#
#
# Elastic Constant Matrix: (Units=GPa)
#
#
# Indices 1 2 3 4 5 6 
#
# 1 142.7378 23.3318 28.0517 0.0000 -18.7001 0.0000
# 2 23.3318 117.8983 9.8113 0.0000 -1.9908 0.0000
# 3 28.0517 9.8113 63.3461 0.0000 4.7774 0.0000
# 4 0.0000 0.0000 0.0000 18.2906 0.0000 -12.7685
# 5 -18.7001 -1.9908 4.7774 0.0000 31.8861 0.0000
# 6 0.0000 0.0000 0.0000 -12.7685 0.0000 40.8667
#
#
#
# Elastic Compliance Matrix: (Units=1/GPa)
#
#
# Indices 1 2 3 4 5 6 
#
# 1 0.008770 -0.001298 -0.004111 0.000000 0.005678 0.000000
# 2 -0.001298 0.008802 -0.000782 0.000000 -0.000094 0.000000
# 3 -0.004111 -0.000782 0.018118 0.000000 -0.005174 0.000000
# 4 0.000000 0.000000 0.000000 0.069925 0.000000 0.021847
# 5 0.005678 -0.000094 -0.005174 0.000000 0.035461 0.000000
# 6 0.000000 0.000000 0.000000 0.021847 0.000000 0.031296
#
#
# Mechanical properties :
#
#
# Convention : Reuss Voigt Hill
#
# Bulk Modulus (GPa) = 42.90009 49.59685 46.24847
# Shear Modulus (GPa) = 25.97121 35.72784 30.84952
#
# Velocity S-wave (km/s) = 3.08480 3.61813 3.36206
# Velocity P-wave (km/s) = 5.32980 5.96884 5.65835
#
# Compressibility (1/GPa) = 0.02330997
#
# Stress axis : x y z
#
# Youngs Moduli (GPa) = 114.02909 113.60899 55.19387
#
# Poissons Ratio (x) = 0.14741 0.22689
# Poissons Ratio (y) = 0.14796 0.04314
# Poissons Ratio (z) = 0.46875 0.08880
#
# Static dielectric constant tensor:
#      x y z
#    x 2.416210 0.000000 -0.075480 
#    y 0.000000 2.464220 0.000000 
#    z -0.075480 0.000000 2.268540 
# 
# From -- ./inp_files/11186.got.cif
#   From: 2010.05.17/outbox.cif.g08.bks.cpg/sg14_6_cif.got.tgz:11186.got - 2010.06.03 17:49:19.
