data_PCOD9246837
_publ_section_title
;
Structure prediction by ZEFSAII (Michael W. Deem and Ramdas Pophale) SiO2 
 PCOD9246837
Probable space group: P 21/C
;
_chemical_formula_sum "Si O2"
_cell_formula_units_Z 26
_cell_length_a 22.000690
_cell_length_b 5.062769
_cell_length_c 26.063763
_cell_angle_alpha 90.000000
_cell_angle_beta 20.875256
_cell_angle_gamma 90.000000
_cell_volume 1034.473630
_symmetry_space_group_name_H-M "P 21/C"
_symmetry_group_IT_number 14
_symmetry_cell_setting 'monoclinic'
loop_
_space_group_symop_operation_xyz
x,y,z
-x,1/2+y,1/2-z
-x,-y,-z
x,1/2-y,1/2+z
loop_
_atom_site_type_symbol
_atom_site_label
_atom_site_fract_x
_atom_site_fract_y
_atom_site_fract_z
Si Si1 0.867936 0.676933 0.674748
Si Si2 0.894022 0.748373 0.848710
Si Si3 0.586014 0.340811 0.656909
Si Si4 0.500000 0.500000 0.000000
Si Si5 0.122375 0.516014 0.032542
Si Si6 0.800483 0.840509 0.116498
Si Si7 0.444095 0.528813 0.920878
O O1 0.702173 0.538478 0.827762
O O2 0.822827 0.792092 0.654502
O O3 0.938588 0.895116 0.657612
O O4 0.027271 0.486542 0.536583
O O5 0.887092 0.687920 0.914146
O O6 0.968541 0.034258 0.779363
O O7 0.710099 0.672368 0.969715
O O8 0.472358 0.124496 0.777559
O O9 0.585497 0.269409 0.596642
O O10 0.226419 0.765053 0.971185
O O11 0.452974 0.573317 0.974937
O O12 0.223463 0.386129 0.906035
O O13 0.639983 0.037457 0.249797
#
# Coordination Sequence:
#
# PCOD9246837 Si02
#       7
#     4   4   4   2   4   4   4
#     4  10  22  41  69  98 144 186 240 295 369 433
#     4  11  27  47  71 104 149 194 239 300 363 442
#     4  11  23  41  69 104 144 180 233 297 358 423
#     4  10  22  42  72  96 146 192 238 300 356 458
#     4  11  23  37  72  94 142 179 245 293 364 425
#     4  10  21  42  67 104 138 185 235 310 352 440
#     4  10  22  42  71 105 143 187 247 289 376 419
#
# _framework density 25.133555000000001
#
# number of rings (size 3 to 8) (size 9 to 14) (size 15 to 20)
#    0.000    1.538    1.538    2.308    4.308    3.692 
#    2.769    0.769    3.385    0.000    0.000    0.000 
#    0.000    0.000    0.000    0.000    0.000    0.000 
#
# Total GULP energy -145009.240085 kJ/mol
# GULP energy per Si atom -5577.278465 kJ/mol
# Density = 2.507635 g / cm^3
# Si number density = 25.133555 Si / 1000 Ang^3
#
#
#
# Elastic Constant Matrix: (Units=GPa)
#
#
# Indices 1 2 3 4 5 6 
#
# 1 203.7225 21.9461 75.0997 0.0000 8.8856 0.0000
# 2 21.9461 60.2164 45.8376 0.0000 1.6607 0.0000
# 3 75.0997 45.8376 209.3010 0.0000 4.4510 0.0000
# 4 0.0000 0.0000 0.0000 39.3858 0.0000 9.3521
# 5 8.8856 1.6607 4.4510 0.0000 30.0921 0.0000
# 6 0.0000 0.0000 0.0000 9.3521 0.0000 10.3286
#
#
#
# Elastic Compliance Matrix: (Units=1/GPa)
#
#
# Indices 1 2 3 4 5 6 
#
# 1 0.005733 -0.000609 -0.001894 0.000000 -0.001379 0.000000
# 2 -0.000609 0.020000 -0.004155 0.000000 -0.000309 0.000000
# 3 -0.001894 -0.004155 0.006371 0.000000 -0.000154 0.000000
# 4 0.000000 0.000000 0.000000 0.032344 0.000000 -0.029286
# 5 -0.001379 -0.000309 -0.000154 0.000000 0.033678 0.000000
# 6 0.000000 0.000000 0.000000 -0.029286 0.000000 0.123336
#
#
# Mechanical properties :
#
#
# Convention : Reuss Voigt Hill
#
# Bulk Modulus (GPa) = 53.22937 84.33407 68.78172
# Shear Modulus (GPa) = 20.74338 37.98506 29.36422
#
# Velocity S-wave (km/s) = 2.87597 3.89180 3.42179
# Velocity P-wave (km/s) = 5.67916 7.33635 6.56029
#
# Compressibility (1/GPa) = 0.01878662
#
# Stress axis : x y z
#
# Youngs Moduli (GPa) = 174.43811 49.99969 156.96973
#
# Poissons Ratio (x) = 0.03047 0.29733
# Poissons Ratio (y) = 0.10630 0.65219
# Poissons Ratio (z) = 0.33042 0.20774
#
# Static dielectric constant tensor:
#      x y z
#    x 2.042890 0.000000 -0.038810 
#    y 0.000000 1.995330 0.000000 
#    z -0.038810 0.000000 2.013640 
# 
# From -- ./inp_files/78094.got.cif
#   From: 2010.05.17/outbox.cif.g08.bks.cpg/sg14_40_cif.got.tgz:78094.got - 2010.06.03 17:49:19.
