data_PCOD9246549
_publ_section_title
;
Structure prediction by ZEFSAII (Michael W. Deem and Ramdas Pophale) SiO2 
 PCOD9246549
Probable space group: P 21/C
;
_chemical_formula_sum "Si O2"
_cell_formula_units_Z 24
_cell_length_a 17.749875
_cell_length_b 9.366805
_cell_length_c 15.789433
_cell_angle_alpha 90.000000
_cell_angle_beta 23.444879
_cell_angle_gamma 90.000000
_cell_volume 1044.457642
_symmetry_space_group_name_H-M "P 21/C"
_symmetry_group_IT_number 14
_symmetry_cell_setting 'monoclinic'
loop_
_space_group_symop_operation_xyz
x,y,z
-x,1/2+y,1/2-z
-x,-y,-z
x,1/2-y,1/2+z
loop_
_atom_site_type_symbol
_atom_site_label
_atom_site_fract_x
_atom_site_fract_y
_atom_site_fract_z
Si Si1 0.486214 0.164347 0.987830
Si Si2 0.047847 0.144707 0.401102
Si Si3 0.705436 0.193768 0.414661
Si Si4 0.900990 0.897194 0.241937
Si Si5 0.132315 0.543027 0.669164
Si Si6 0.560764 0.685834 0.647706
O O1 0.260676 0.182199 0.212756
O O2 0.593499 0.257562 0.946457
O O3 0.555736 0.189408 0.820038
O O4 0.500000 0.000000 0.000000
O O5 0.986578 0.307256 0.446270
O O6 0.020479 0.078783 0.335030
O O7 0.000000 0.000000 0.500000
O O8 0.857229 0.315932 0.283668
O O9 0.561808 0.200124 0.642359
O O10 0.803333 0.040721 0.309255
O O11 0.727811 0.803488 0.462908
O O12 0.043993 0.931293 0.169989
O O13 0.338781 0.469658 0.452103
#
# Coordination Sequence:
#
# PCOD9246549 Si02
#       6
#     4   4   4   4   4   4
#     4  10  21  41  65  94 129 170 228 265 329 420
#     4  10  23  42  64  93 130 177 213 268 340 401
#     4  12  21  40  71  92 133 176 219 291 331 390
#     4  10  23  40  63  98 132 165 229 275 327 408
#     4  10  21  42  62  95 130 169 217 271 333 409
#     4  10  23  39  64 100 127 174 220 267 347 397
#
# _framework density 22.978432000000002
#
# number of rings (size 3 to 8) (size 9 to 14) (size 15 to 20)
#    0.000    2.000    3.333    3.000    2.333    4.000 
#    0.000    0.833    0.000    0.000    0.000    0.000 
#    0.000    0.000    0.000    0.000    0.000    0.000 
#
# Total GULP energy -133755.430382 kJ/mol
# GULP energy per Si atom -5573.142933 kJ/mol
# Density = 2.292613 g / cm^3
# Si number density = 22.978432 Si / 1000 Ang^3
#
#
#
# Elastic Constant Matrix: (Units=GPa)
#
#
# Indices 1 2 3 4 5 6 
#
# 1 209.4988 70.0473 31.8460 0.0000 10.5511 0.0000
# 2 70.0473 175.3840 36.1422 0.0000 3.3152 0.0000
# 3 31.8460 36.1422 59.2119 0.0000 14.1631 0.0000
# 4 0.0000 0.0000 0.0000 35.6704 0.0000 3.2366
# 5 10.5511 3.3152 14.1631 0.0000 26.4652 0.0000
# 6 0.0000 0.0000 0.0000 3.2366 0.0000 38.6770
#
#
#
# Elastic Compliance Matrix: (Units=1/GPa)
#
#
# Indices 1 2 3 4 5 6 
#
# 1 0.005724 -0.001930 -0.001620 0.000000 -0.001173 0.000000
# 2 -0.001930 0.007226 -0.003830 0.000000 0.001914 0.000000
# 3 -0.001620 -0.003830 0.022739 0.000000 -0.011044 0.000000
# 4 0.000000 0.000000 0.000000 0.028249 0.000000 -0.002364
# 5 -0.001173 0.001914 -0.011044 0.000000 0.043924 0.000000
# 6 0.000000 0.000000 0.000000 -0.002364 0.000000 0.026053
#
#
# Mechanical properties :
#
#
# Convention : Reuss Voigt Hill
#
# Bulk Modulus (GPa) = 47.78157 80.01842 63.89999
# Shear Modulus (GPa) = 32.12315 40.56646 36.34481
#
# Velocity S-wave (km/s) = 3.74300 4.20624 3.98136
# Velocity P-wave (km/s) = 6.28644 7.64780 7.00029
#
# Compressibility (1/GPa) = 0.02092857
#
# Stress axis : x y z
#
# Youngs Moduli (GPa) = 174.70400 138.39272 43.97706
#
# Poissons Ratio (x) = 0.26712 0.07123
# Poissons Ratio (y) = 0.33721 0.16845
# Poissons Ratio (z) = 0.28297 0.53009
#
# Static dielectric constant tensor:
#      x y z
#    x 1.843970 0.000000 0.050260 
#    y 0.000000 1.820090 0.000000 
#    z 0.050260 0.000000 2.016110 
# 
# From -- ./inp_files/48500.got.cif
#   From: 2010.05.17/outbox.cif.g08.bks.cpg/sg14_25_cif.got.tgz:48500.got - 2010.06.03 17:49:19.
