data_PCOD9246540
_publ_section_title
;
Structure prediction by ZEFSAII (Michael W. Deem and Ramdas Pophale) SiO2 
 PCOD9246540
Probable space group: P 21/C
;
_chemical_formula_sum "Si O2"
_cell_formula_units_Z 24
_cell_length_a 6.154634
_cell_length_b 14.754070
_cell_length_c 13.729544
_cell_angle_alpha 90.000000
_cell_angle_beta 65.711583
_cell_angle_gamma 90.000000
_cell_volume 1136.371679
_symmetry_space_group_name_H-M "P 21/C"
_symmetry_group_IT_number 14
_symmetry_cell_setting 'monoclinic'
loop_
_space_group_symop_operation_xyz
x,y,z
-x,1/2+y,1/2-z
-x,-y,-z
x,1/2-y,1/2+z
loop_
_atom_site_type_symbol
_atom_site_label
_atom_site_fract_x
_atom_site_fract_y
_atom_site_fract_z
Si Si1 0.137779 0.549437 0.263380
Si Si2 0.800898 0.642386 0.654123
Si Si3 0.025984 0.913532 0.563076
Si Si4 0.348030 0.408522 0.538504
Si Si5 0.528225 0.812391 0.689624
Si Si6 0.702648 0.243065 0.968714
O O1 0.207591 0.449232 0.283663
O O2 0.127359 0.555916 0.148883
O O3 0.325041 0.622958 0.269579
O O4 0.878530 0.573180 0.352774
O O5 0.742143 0.617968 0.552857
O O6 0.616812 0.719635 0.722910
O O7 0.065034 0.685262 0.605921
O O8 0.193838 0.830880 0.494506
O O9 0.766029 0.870571 0.628485
O O10 0.000000 0.000000 0.500000
O O11 0.500000 0.500000 0.500000
O O12 0.513047 0.327010 0.547292
O O13 0.422607 0.780958 0.605220
#
# Coordination Sequence:
#
# PCOD9246540 Si02
#       6
#     4   4   4   4   4   4
#     4  11  23  38  67 100 127 174 220 262 333 393
#     4  10  21  41  65  92 132 169 208 278 322 388
#     4  10  23  45  66  87 133 177 223 268 316 388
#     4  11  22  37  68  94 136 164 211 271 342 392
#     4   9  22  42  63  90 135 167 222 269 316 388
#     4   9  20  41  62  93 130 166 217 271 324 382
#
# _framework density 21.11985
#
# number of rings (size 3 to 8) (size 9 to 14) (size 15 to 20)
#    0.000    2.000    1.667    0.500    2.333    2.667 
#    0.000   28.333    0.000    0.000    0.000    0.000 
#    0.000    0.000    0.000    0.000    0.000    0.000 
#
# Total GULP energy -134103.212908 kJ/mol
# GULP energy per Si atom -5587.633871 kJ/mol
# Density = 2.107178 g / cm^3
# Si number density = 21.119850 Si / 1000 Ang^3
#
#
#
# Elastic Constant Matrix: (Units=GPa)
#
#
# Indices 1 2 3 4 5 6 
#
# 1 107.0828 73.7492 32.6532 0.0000 -5.4123 0.0000
# 2 73.7492 208.5894 66.1924 0.0000 -18.8792 0.0000
# 3 32.6532 66.1924 57.8572 0.0000 -5.1697 0.0000
# 4 0.0000 0.0000 0.0000 29.4956 0.0000 5.1666
# 5 -5.4123 -18.8792 -5.1697 0.0000 38.0136 0.0000
# 6 0.0000 0.0000 0.0000 5.1666 0.0000 61.7912
#
#
#
# Elastic Compliance Matrix: (Units=1/GPa)
#
#
# Indices 1 2 3 4 5 6 
#
# 1 0.012714 -0.003519 -0.003183 0.000000 -0.000370 0.000000
# 2 -0.003519 0.008763 -0.007790 0.000000 0.002792 0.000000
# 3 -0.003183 -0.007790 0.027946 0.000000 -0.000521 0.000000
# 4 0.000000 0.000000 0.000000 0.034407 0.000000 -0.002877
# 5 -0.000370 0.002792 -0.000521 0.000000 0.027569 0.000000
# 6 0.000000 0.000000 0.000000 -0.002877 0.000000 0.016424
#
#
# Mechanical properties :
#
#
# Convention : Reuss Voigt Hill
#
# Bulk Modulus (GPa) = 48.92489 79.85768 64.39129
# Shear Modulus (GPa) = 30.55876 39.25573 34.90724
#
# Velocity S-wave (km/s) = 3.80797 4.31596 4.06990
# Velocity P-wave (km/s) = 6.52302 7.92025 7.25535
#
# Compressibility (1/GPa) = 0.02043949
#
# Stress axis : x y z
#
# Youngs Moduli (GPa) = 78.65533 114.11863 35.78333
#
# Poissons Ratio (x) = 0.40153 0.11390
# Poissons Ratio (y) = 0.27675 0.27875
# Poissons Ratio (z) = 0.25036 0.88898
#
# Static dielectric constant tensor:
#      x y z
#    x 1.755630 0.000000 0.009860 
#    y 0.000000 1.760840 0.000000 
#    z 0.009860 0.000000 1.749480 
# 
# From -- ./inp_files/37253.got.cif
#   From: 2010.05.17/outbox.cif.g08.bks.cpg/sg14_19_cif.got.tgz:37253.got - 2010.06.03 17:49:19.
