data_PCOD9246735
_publ_section_title
;
Structure prediction by ZEFSAII (Michael W. Deem and Ramdas Pophale) SiO2 
 PCOD9246735
Probable space group: P 21/C
;
_chemical_formula_sum "Si O2"
_cell_formula_units_Z 20
_cell_length_a 11.115814
_cell_length_b 10.063231
_cell_length_c 7.387767
_cell_angle_alpha 90.000000
_cell_angle_beta 131.653026
_cell_angle_gamma 90.000000
_cell_volume 617.474564
_symmetry_space_group_name_H-M "P 21/C"
_symmetry_group_IT_number 14
_symmetry_cell_setting 'monoclinic'
loop_
_space_group_symop_operation_xyz
x,y,z
-x,1/2+y,1/2-z
-x,-y,-z
x,1/2-y,1/2+z
loop_
_atom_site_type_symbol
_atom_site_label
_atom_site_fract_x
_atom_site_fract_y
_atom_site_fract_z
Si Si1 0.331563 0.106162 0.718539
Si Si2 0.168437 0.893838 0.055414
Si Si3 0.500000 0.500000 0.000000
Si Si4 0.960645 0.773194 0.156758
Si Si5 0.000000 0.000000 0.500000
Si Si6 0.539355 0.226806 0.235468
O O1 0.451340 0.136707 0.001180
O O2 0.296679 0.003411 0.230604
O O3 0.453785 0.121475 0.665526
O O4 0.203321 0.996589 0.637247
O O5 0.048660 0.863293 0.098501
O O6 0.046215 0.878525 0.757956
O O7 0.279340 0.768782 0.116777
O O8 0.540438 0.362886 0.914798
O O9 0.959562 0.862886 0.333922
O O10 0.779340 0.731218 0.941905
#
# Coordination Sequence:
#
# PCOD9246735 Si02
#       6
#     4   4   2   4   2   4
#     4  10  21  42  62  92 124 162 210 254 311 369
#     4  10  21  42  62  92 124 162 210 254 311 369
#     4   8  24  36  62  92 120 164 210 244 320 360
#     4  10  21  42  62  92 124 162 210 254 311 369
#     4   8  24  36  62  92 120 164 210 244 320 360
#     4  10  21  42  62  92 124 162 210 254 311 369
#
# _framework density 32.389997999999999
#
# number of rings (size 3 to 8) (size 9 to 14) (size 15 to 20)
#    2.400    0.000    0.000    2.400    0.000    3.200 
#    0.000    4.000    0.000    0.000    0.000    0.000 
#    0.000    0.000    0.000    0.000    0.000    0.000 
#
# Total GULP energy -111700.568710 kJ/mol
# GULP energy per Si atom -5585.028436 kJ/mol
# Density = 3.231628 g / cm^3
# Si number density = 32.389998 Si / 1000 Ang^3
#
#
#
# Elastic Constant Matrix: (Units=GPa)
#
#
# Indices 1 2 3 4 5 6 
#
# 1 181.0846 -1.3105 30.6570 0.0000 3.5083 0.0000
# 2 -1.3105 204.5798 10.6305 0.0000 12.7546 0.0000
# 3 30.6570 10.6305 185.5150 0.0000 1.2238 0.0000
# 4 0.0000 0.0000 0.0000 74.5371 0.0000 6.2624
# 5 3.5083 12.7546 1.2238 0.0000 74.4159 0.0000
# 6 0.0000 0.0000 0.0000 6.2624 0.0000 68.6742
#
#
#
# Elastic Compliance Matrix: (Units=1/GPa)
#
#
# Indices 1 2 3 4 5 6 
#
# 1 0.005688 0.000102 -0.000944 0.000000 -0.000270 0.000000
# 2 0.000102 0.004957 -0.000295 0.000000 -0.000850 0.000000
# 3 -0.000944 -0.000295 0.005563 0.000000 0.000004 0.000000
# 4 0.000000 0.000000 0.000000 0.013520 0.000000 -0.001233
# 5 -0.000270 -0.000850 0.000004 0.000000 0.013596 0.000000
# 6 0.000000 0.000000 0.000000 -0.001233 0.000000 0.014674
#
#
# Mechanical properties :
#
#
# Convention : Reuss Voigt Hill
#
# Bulk Modulus (GPa) = 71.76550 72.34815 72.05682
# Shear Modulus (GPa) = 77.02109 78.93893 77.98001
#
# Velocity S-wave (km/s) = 4.88169 4.94209 4.91199
# Velocity P-wave (km/s) = 7.34706 7.41288 7.38004
#
# Compressibility (1/GPa) = 0.01393427
#
# Stress axis : x y z
#
# Youngs Moduli (GPa) = 175.80624 201.73332 179.74910
#
# Poissons Ratio (x) = -0.02064 0.16969
# Poissons Ratio (y) = -0.01799 0.05309
# Poissons Ratio (z) = 0.16597 0.05958
#
# Static dielectric constant tensor:
#      x y z
#    x 4.310620 0.000000 -1.239390 
#    y 0.000000 3.373550 0.000000 
#    z -1.239390 0.000000 3.150300 
# 
# From -- ./inp_files/8012.got.cif
#   From: 2010.05.17/outbox.cif.g08.bks.cpg/sg14_5_cif.got.tgz:8012.got - 2010.06.03 17:49:19.
