data_PCOD9246091
_publ_section_title
;
Structure prediction by ZEFSAII (Michael W. Deem and Ramdas Pophale) SiO2 
 PCOD9246091
Probable space group: P 21/C
;
_chemical_formula_sum "Si O2"
_cell_formula_units_Z 20
_cell_length_a 8.668901
_cell_length_b 8.066955
_cell_length_c 18.203409
_cell_angle_alpha 90.000000
_cell_angle_beta 136.086737
_cell_angle_gamma 90.000000
_cell_volume 882.908770
_symmetry_space_group_name_H-M "P 21/C"
_symmetry_group_IT_number 14
_symmetry_cell_setting 'monoclinic'
loop_
_space_group_symop_operation_xyz
x,y,z
-x,1/2+y,1/2-z
-x,-y,-z
x,1/2-y,1/2+z
loop_
_atom_site_type_symbol
_atom_site_label
_atom_site_fract_x
_atom_site_fract_y
_atom_site_fract_z
Si Si1 0.474684 0.423071 0.363259
Si Si2 0.650158 0.275996 0.138055
Si Si3 0.708339 0.476656 0.297522
Si Si4 0.022944 0.200884 0.642182
Si Si5 0.629822 0.081911 0.430945
O O1 0.456581 0.595133 0.398815
O O2 0.664977 0.433215 0.366336
O O3 0.240651 0.394903 0.242602
O O4 0.522266 0.254119 0.423263
O O5 0.737119 0.325270 0.250446
O O6 0.465752 0.418807 0.062720
O O7 0.854348 0.290805 0.152817
O O8 0.896977 0.615153 0.352395
O O9 0.479319 0.560741 0.187120
O O10 0.888834 0.108475 0.531996
#
# Coordination Sequence:
#
# PCOD9246091 Si02
#       5
#     4   4   4   4   4
#     4  11  22  42  62  85 133 159 200 261 300 366
#     4  10  21  40  62  91 122 163 203 249 307 365
#     4   9  22  41  59  90 125 159 201 254 300 362
#     4  11  21  41  64  88 125 164 203 256 306 359
#     4   9  23  39  62  93 122 154 214 248 303 368
#
# _framework density 22.652396
#
# number of rings (size 3 to 8) (size 9 to 14) (size 15 to 20)
#    1.200    0.800    0.000    4.200    0.000    2.400 
#    3.600    0.000    0.000    0.000    0.000    0.000 
#    0.000    0.000    0.000    0.000    0.000    0.000 
#
# Total GULP energy -111591.443235 kJ/mol
# GULP energy per Si atom -5579.572162 kJ/mol
# Density = 2.260084 g / cm^3
# Si number density = 22.652396 Si / 1000 Ang^3
#
#
#
# Elastic Constant Matrix: (Units=GPa)
#
#
# Indices 1 2 3 4 5 6 
#
# 1 67.1989 13.7178 4.4505 0.0000 -12.0022 0.0000
# 2 13.7178 160.6305 23.8984 0.0000 -2.2868 0.0000
# 3 4.4505 23.8984 86.6386 0.0000 15.6219 0.0000
# 4 0.0000 0.0000 0.0000 16.9294 0.0000 3.8536
# 5 -12.0022 -2.2868 15.6219 0.0000 9.9585 0.0000
# 6 0.0000 0.0000 0.0000 3.8536 0.0000 34.4933
#
#
#
# Elastic Compliance Matrix: (Units=1/GPa)
#
#
# Indices 1 2 3 4 5 6 
#
# 1 0.022723 -0.000102 -0.008468 0.000000 0.040646 0.000000
# 2 -0.000102 0.006760 -0.002952 0.000000 0.006060 0.000000
# 3 -0.008468 -0.002952 0.020573 0.000000 -0.043157 0.000000
# 4 0.000000 0.000000 0.000000 0.060610 0.000000 -0.006771
# 5 0.040646 0.006060 -0.043157 0.000000 0.218497 0.000000
# 6 0.000000 0.000000 0.000000 -0.006771 0.000000 0.029748
#
#
# Mechanical properties :
#
#
# Convention : Reuss Voigt Hill
#
# Bulk Modulus (GPa) = 37.02174 44.28906 40.65540
# Shear Modulus (GPa) = 12.78911 30.43632 21.61272
#
# Velocity S-wave (km/s) = 2.37867 3.66953 3.09221
# Velocity P-wave (km/s) = 4.89111 6.12764 5.54396
#
# Compressibility (1/GPa) = 0.02701116
#
# Stress axis : x y z
#
# Youngs Moduli (GPa) = 44.00918 147.93636 48.60697
#
# Poissons Ratio (x) = 0.01508 0.41161
# Poissons Ratio (y) = 0.00449 0.14349
# Poissons Ratio (z) = 0.37267 0.43672
#
# Static dielectric constant tensor:
#      x y z
#    x 1.814120 0.000000 -0.050410 
#    y 0.000000 1.855620 0.000000 
#    z -0.050410 0.000000 1.870850 
# 
# From -- ./inp_files/38727.got.cif
#   From: 2010.05.17/outbox.cif.g08.bks.cpg/sg14_20_cif.got.tgz:38727.got - 2010.06.03 17:49:19.
