data_PCOD9246254
_publ_section_title
;
Structure prediction by ZEFSAII (Michael W. Deem and Ramdas Pophale) SiO2 
 PCOD9246254
Probable space group: P 21/C
;
_chemical_formula_sum "Si O2"
_cell_formula_units_Z 28
_cell_length_a 16.612400
_cell_length_b 7.982962
_cell_length_c 14.996107
_cell_angle_alpha 90.000000
_cell_angle_beta 143.547068
_cell_angle_gamma 90.000000
_cell_volume 1181.625920
_symmetry_space_group_name_H-M "P 21/C"
_symmetry_group_IT_number 14
_symmetry_cell_setting 'monoclinic'
loop_
_space_group_symop_operation_xyz
x,y,z
-x,1/2+y,1/2-z
-x,-y,-z
x,1/2-y,1/2+z
loop_
_atom_site_type_symbol
_atom_site_label
_atom_site_fract_x
_atom_site_fract_y
_atom_site_fract_z
Si Si1 0.084081 0.687666 0.172710
Si Si2 0.251370 0.985295 0.256132
Si Si3 0.075177 0.261488 0.802975
Si Si4 0.134300 0.152092 0.668091
Si Si5 0.703994 0.942719 0.897799
Si Si6 0.663094 0.981282 0.488017
Si Si7 0.528326 0.276427 0.284320
O O1 0.127107 0.867618 0.174457
O O2 0.184041 0.535374 0.235206
O O3 0.050808 0.694779 0.247350
O O4 0.947243 0.645235 0.996606
O O5 0.228153 0.185214 0.244666
O O6 0.273069 0.954265 0.171732
O O7 0.353629 0.944319 0.427934
O O8 0.044497 0.196363 0.676524
O O9 0.162264 0.125856 0.937061
O O10 0.185572 0.410875 0.890411
O O11 0.603906 0.789694 0.780589
O O12 0.616530 0.060590 0.885497
O O13 0.553124 0.833986 0.376822
O O14 0.629074 0.120788 0.384193
#
# Coordination Sequence:
#
# PCOD9246254 Si02
#       7
#     4   4   4   4   4   4   4
#     4  11  24  41  61  97 135 177 217 260 324 390
#     4  11  23  42  65  96 129 172 218 266 324 397
#     4  10  22  39  65  91 131 174 213 267 316 393
#     4  10  24  40  58  94 139 167 220 263 311 383
#     4  10  21  40  66  89 128 159 218 271 325 389
#     4   9  21  40  64  93 125 164 218 269 328 387
#     4   9  20  39  62  90 115 161 209 268 329 378
#
# _framework density 23.696161
#
# number of rings (size 3 to 8) (size 9 to 14) (size 15 to 20)
#    0.000    2.000    1.429    0.429    6.000    4.571 
#    2.571    0.000    3.143    6.000    0.000    0.000 
#    0.000    0.000    0.000    0.000    0.000    0.000 
#
# Total GULP energy -155961.957374 kJ/mol
# GULP energy per Si atom -5570.069906 kJ/mol
# Density = 2.364223 g / cm^3
# Si number density = 23.696161 Si / 1000 Ang^3
#
#
#
# Elastic Constant Matrix: (Units=GPa)
#
#
# Indices 1 2 3 4 5 6 
#
# 1 59.9747 15.6128 4.0752 0.0000 -15.1660 0.0000
# 2 15.6128 103.2046 17.8457 0.0000 3.9280 0.0000
# 3 4.0752 17.8457 43.6171 0.0000 -12.6876 0.0000
# 4 0.0000 0.0000 0.0000 39.8800 0.0000 5.0094
# 5 -15.1660 3.9280 -12.6876 0.0000 28.2224 0.0000
# 6 0.0000 0.0000 0.0000 5.0094 0.0000 24.0068
#
#
#
# Elastic Compliance Matrix: (Units=1/GPa)
#
#
# Indices 1 2 3 4 5 6 
#
# 1 0.020979 -0.004341 0.003763 0.000000 0.013570 0.000000
# 2 -0.004341 0.011707 -0.006370 0.000000 -0.006826 0.000000
# 3 0.003763 -0.006370 0.029943 0.000000 0.016370 0.000000
# 4 0.000000 0.000000 0.000000 0.025750 0.000000 -0.005373
# 5 0.013570 -0.006826 0.016370 0.000000 0.051034 0.000000
# 6 0.000000 0.000000 0.000000 -0.005373 0.000000 0.042776
#
#
# Mechanical properties :
#
#
# Convention : Reuss Voigt Hill
#
# Bulk Modulus (GPa) = 20.51926 31.31819 25.91872
# Shear Modulus (GPa) = 23.54812 29.70602 26.62707
#
# Velocity S-wave (km/s) = 3.15580 3.54449 3.35578
# Velocity P-wave (km/s) = 4.68582 5.47691 5.09674
#
# Compressibility (1/GPa) = 0.04873470
#
# Stress axis : x y z
#
# Youngs Moduli (GPa) = 47.66558 85.41551 33.39648
#
# Poissons Ratio (x) = 0.37079 -0.12568
# Poissons Ratio (y) = 0.20692 0.21274
# Poissons Ratio (z) = -0.17938 0.54410
#
# Static dielectric constant tensor:
#      x y z
#    x 1.946960 0.000000 0.006600 
#    y 0.000000 2.013650 0.000000 
#    z 0.006600 0.000000 1.919150 
# 
# From -- ./inp_files/48603.got.cif
#   From: 2010.05.17/outbox.cif.g08.bks.cpg/sg14_25_cif.got.tgz:48603.got - 2010.06.03 17:49:19.
