data_PCOD9246976
_publ_section_title
;
Structure prediction by ZEFSAII (Michael W. Deem and Ramdas Pophale) SiO2 
 PCOD9246976
Probable space group: P 21/C
;
_chemical_formula_sum "Si O2"
_cell_formula_units_Z 32
_cell_length_a 12.007274
_cell_length_b 16.732801
_cell_length_c 15.115909
_cell_angle_alpha 90.000000
_cell_angle_beta 150.372738
_cell_angle_gamma 90.000000
_cell_volume 1501.366529
_symmetry_space_group_name_H-M "P 21/C"
_symmetry_group_IT_number 14
_symmetry_cell_setting 'monoclinic'
loop_
_space_group_symop_operation_xyz
x,y,z
-x,1/2+y,1/2-z
-x,-y,-z
x,1/2-y,1/2+z
loop_
_atom_site_type_symbol
_atom_site_label
_atom_site_fract_x
_atom_site_fract_y
_atom_site_fract_z
Si Si1 0.959445 0.162124 0.829015
Si Si2 0.840824 0.525139 0.227121
Si Si3 0.346182 0.700793 0.045736
Si Si4 0.687642 0.827187 0.226488
Si Si5 0.608963 0.634922 0.471763
Si Si6 0.341654 0.957676 0.058892
Si Si7 0.512780 0.973192 0.655330
Si Si8 0.836930 0.220365 0.394954
O O1 0.898401 0.068415 0.784654
O O2 0.820837 0.201964 0.653055
O O3 0.890013 0.203329 0.871566
O O4 0.222490 0.168533 0.986979
O O5 0.710895 0.552733 0.224907
O O6 0.078522 0.565546 0.370098
O O7 0.663084 0.525345 0.023832
O O8 0.574359 0.743001 0.172714
O O9 0.388099 0.607867 0.098219
O O10 0.244029 0.741432 0.062166
O O11 0.514776 0.892314 0.144552
O O12 0.934903 0.830447 0.438297
O O13 0.700650 0.839180 0.130355
O O14 0.619165 0.539419 0.469033
O O15 0.362122 0.670001 0.287452
O O16 0.392759 0.980411 0.195746
#
# Coordination Sequence:
#
# PCOD9246976 Si02
#       8
#     4   4   4   4   4   4   4   4
#     4  10  22  44  70  94 130 175 217 269 329 386
#     4   9  22  41  69  94 130 169 219 273 322 383
#     4  11  23  44  67  95 136 167 217 273 330 384
#     4  12  27  41  65 101 127 175 223 263 325 404
#     4  11  23  46  64  91 132 176 211 274 330 378
#     4  11  24  41  66  94 131 170 223 264 327 386
#     4  10  21  43  64  98 128 172 212 274 332 376
#     4  12  24  42  67  95 133 174 214 268 329 387
#
# _framework density 21.313915999999999
#
# number of rings (size 3 to 8) (size 9 to 14) (size 15 to 20)
#    0.000    1.250    3.750    1.500    3.500    2.500 
#    0.000    0.000    0.000    0.000    0.000    0.000 
#    0.000    0.000    0.000    0.000    0.000    0.000 
#
# Total GULP energy -179061.959566 kJ/mol
# GULP energy per Si atom -5595.686236 kJ/mol
# Density = 2.126540 g / cm^3
# Si number density = 21.313916 Si / 1000 Ang^3
#
#
#
# Elastic Constant Matrix: (Units=GPa)
#
#
# Indices 1 2 3 4 5 6 
#
# 1 67.4083 3.7869 12.9381 0.0000 0.0825 0.0000
# 2 3.7869 17.6991 3.4720 0.0000 2.1569 0.0000
# 3 12.9381 3.4720 101.9097 0.0000 20.2310 0.0000
# 4 0.0000 0.0000 0.0000 9.0410 0.0000 14.0338
# 5 0.0825 2.1569 20.2310 0.0000 40.9317 0.0000
# 6 0.0000 0.0000 0.0000 14.0338 0.0000 30.1308
#
#
#
# Elastic Compliance Matrix: (Units=1/GPa)
#
#
# Indices 1 2 3 4 5 6 
#
# 1 0.015403 -0.003028 -0.002082 0.000000 0.001158 0.000000
# 2 -0.003028 0.057665 -0.001085 0.000000 -0.002496 0.000000
# 3 -0.002082 -0.001085 0.011201 0.000000 -0.005475 0.000000
# 4 0.000000 0.000000 0.000000 0.399278 0.000000 -0.185969
# 5 0.001158 -0.002496 -0.005475 0.000000 0.027266 0.000000
# 6 0.000000 0.000000 0.000000 -0.185969 0.000000 0.119806
#
#
# Mechanical properties :
#
#
# Convention : Reuss Voigt Hill
#
# Bulk Modulus (GPa) = 13.91229 25.26789 19.59009
# Shear Modulus (GPa) = 7.49660 27.14203 17.31932
#
# Velocity S-wave (km/s) = 1.87746 3.57240 2.85368
# Velocity P-wave (km/s) = 3.35281 5.37559 4.47986
#
# Compressibility (1/GPa) = 0.07187888
#
# Stress axis : x y z
#
# Youngs Moduli (GPa) = 64.92101 17.34160 89.27976
#
# Poissons Ratio (x) = 0.05252 0.18590
# Poissons Ratio (y) = 0.19660 0.09683
# Poissons Ratio (z) = 0.13518 0.01881
#
# Static dielectric constant tensor:
#      x y z
#    x 1.753000 0.000000 0.005500 
#    y 0.000000 1.753150 0.000000 
#    z 0.005500 0.000000 1.771830 
# 
# From -- ./inp_files/45405.got.cif
#   From: 2010.05.17/outbox.cif.g08.bks.cpg/sg14_23_cif.got.tgz:45405.got - 2010.06.03 17:49:19.
