data_PCOD9246800
_publ_section_title
;
Structure prediction by ZEFSAII (Michael W. Deem and Ramdas Pophale) SiO2 
 PCOD9246800
Probable space group: P 21/C
;
_chemical_formula_sum "Si O2"
_cell_formula_units_Z 24
_cell_length_a 12.236433
_cell_length_b 13.973207
_cell_length_c 10.384107
_cell_angle_alpha 90.000000
_cell_angle_beta 144.453077
_cell_angle_gamma 90.000000
_cell_volume 1032.220120
_symmetry_space_group_name_H-M "P 21/C"
_symmetry_group_IT_number 14
_symmetry_cell_setting 'monoclinic'
loop_
_space_group_symop_operation_xyz
x,y,z
-x,1/2+y,1/2-z
-x,-y,-z
x,1/2-y,1/2+z
loop_
_atom_site_type_symbol
_atom_site_label
_atom_site_fract_x
_atom_site_fract_y
_atom_site_fract_z
Si Si1 0.555259 0.324717 0.259254
Si Si2 0.736900 0.812750 0.292256
Si Si3 0.576428 0.121532 0.210583
Si Si4 0.904348 0.519555 0.076907
Si Si5 0.240245 0.106458 0.292204
Si Si6 0.259752 0.015939 0.043717
O O1 0.383927 0.297895 0.191478
O O2 0.653098 0.226015 0.318564
O O3 0.691023 0.406106 0.440879
O O4 0.456815 0.374613 0.041663
O O5 0.813074 0.714325 0.304431
O O6 0.901912 0.886052 0.486730
O O7 0.574008 0.860159 0.047175
O O8 0.742951 0.046221 0.360420
O O9 0.444421 0.077690 0.194616
O O10 0.850660 0.560040 0.168089
O O11 0.091314 0.460511 0.285348
O O12 0.210026 0.037241 0.143008
#
# Coordination Sequence:
#
# PCOD9246800 Si02
#       6
#     4   4   4   4   4   4
#     4  10  22  40  66  93 124 173 207 260 311 371
#     4  10  21  42  65  92 128 168 208 255 321 366
#     4  11  23  42  65  89 132 166 208 265 308 372
#     4  11  25  40  66  96 128 164 210 261 312 375
#     4  10  21  42  67  89 129 167 208 262 305 373
#     4  12  23  40  67  94 126 163 217 249 321 367
#
# _framework density 23.250855000000001
#
# number of rings (size 3 to 8) (size 9 to 14) (size 15 to 20)
#    0.000    1.333    5.000    1.500    0.000    2.000 
#    0.000    1.667    0.000    0.000    0.000    0.000 
#    0.000    0.000    0.000    0.000    0.000    0.000 
#
# Total GULP energy -134002.158028 kJ/mol
# GULP energy per Si atom -5583.423251 kJ/mol
# Density = 2.319794 g / cm^3
# Si number density = 23.250855 Si / 1000 Ang^3
#
#
#
# Elastic Constant Matrix: (Units=GPa)
#
#
# Indices 1 2 3 4 5 6 
#
# 1 38.7968 30.3467 3.9672 0.0000 -6.0741 0.0000
# 2 30.3467 108.1889 30.4995 0.0000 -5.9119 0.0000
# 3 3.9672 30.4995 35.3516 0.0000 2.9741 0.0000
# 4 0.0000 0.0000 0.0000 25.9183 0.0000 -18.6604
# 5 -6.0741 -5.9119 2.9741 0.0000 21.3175 0.0000
# 6 0.0000 0.0000 0.0000 -18.6604 0.0000 19.9241
#
#
#
# Elastic Compliance Matrix: (Units=1/GPa)
#
#
# Indices 1 2 3 4 5 6 
#
# 1 0.034663 -0.010755 0.004866 0.000000 0.006215 0.000000
# 2 -0.010755 0.016082 -0.012937 0.000000 0.003200 0.000000
# 3 0.004866 -0.012937 0.039552 0.000000 -0.007719 0.000000
# 4 0.000000 0.000000 0.000000 0.118463 0.000000 0.110949
# 5 0.006215 0.003200 -0.007719 0.000000 0.050645 0.000000
# 6 0.000000 0.000000 0.000000 0.110949 0.000000 0.154103
#
#
# Mechanical properties :
#
#
# Convention : Reuss Voigt Hill
#
# Bulk Modulus (GPa) = 18.99502 34.66268 26.82885
# Shear Modulus (GPa) = 10.66761 21.26689 15.96725
#
# Velocity S-wave (km/s) = 2.14430 3.02763 2.62341
# Velocity P-wave (km/s) = 3.78392 5.21177 4.55415
#
# Compressibility (1/GPa) = 0.05264538
#
# Stress axis : x y z
#
# Youngs Moduli (GPa) = 28.84879 62.18208 25.28325
#
# Poissons Ratio (x) = 0.66878 -0.12303
# Poissons Ratio (y) = 0.31027 0.32709
# Poissons Ratio (z) = -0.14038 0.80444
#
# Static dielectric constant tensor:
#      x y z
#    x 1.919490 0.000000 -0.006980 
#    y 0.000000 1.919360 0.000000 
#    z -0.006980 0.000000 1.861850 
# 
# From -- ./inp_files/32810.got.cif
#   From: 2010.05.17/outbox.cif.g08.bks.cpg/sg14_17_cif.got.tgz:32810.got - 2010.06.03 17:49:19.
