data_PCOD9246485
_publ_section_title
;
Structure prediction by ZEFSAII (Michael W. Deem and Ramdas Pophale) SiO2 
 PCOD9246485
Probable space group: P 21/C
;
_chemical_formula_sum "Si O2"
_cell_formula_units_Z 28
_cell_length_a 9.540109
_cell_length_b 11.168229
_cell_length_c 15.972211
_cell_angle_alpha 90.000000
_cell_angle_beta 58.857164
_cell_angle_gamma 90.000000
_cell_volume 1456.518160
_symmetry_space_group_name_H-M "P 21/C"
_symmetry_group_IT_number 14
_symmetry_cell_setting 'monoclinic'
loop_
_space_group_symop_operation_xyz
x,y,z
-x,1/2+y,1/2-z
-x,-y,-z
x,1/2-y,1/2+z
loop_
_atom_site_type_symbol
_atom_site_label
_atom_site_fract_x
_atom_site_fract_y
_atom_site_fract_z
Si Si1 0.826611 0.811690 0.894421
Si Si2 0.828169 0.182425 0.118032
Si Si3 0.699613 0.925227 0.771537
Si Si4 0.481972 0.237964 0.305037
Si Si5 0.380404 0.411995 0.986692
Si Si6 0.831748 0.439771 0.076644
Si Si7 0.357258 0.471809 0.412356
O O1 0.813754 0.861909 0.804417
O O2 0.009506 0.821425 0.875595
O O3 0.750202 0.676202 0.925643
O O4 0.719164 0.900165 0.986680
O O5 0.665273 0.217168 0.218930
O O6 0.849397 0.299220 0.054097
O O7 0.776328 0.063672 0.083624
O O8 0.635142 0.833252 0.721681
O O9 0.784825 0.027543 0.687764
O O10 0.532855 0.964492 0.871582
O O11 0.475339 0.183340 0.399772
O O12 0.412413 0.371639 0.328109
O O13 0.296142 0.499847 0.946010
O O14 0.500000 0.500000 0.000000
O O15 0.000000 0.500000 0.000000
#
# Coordination Sequence:
#
# PCOD9246485 Si02
#       7
#     4   4   4   4   4   4   4
#     4  11  23  40  60  95 127 155 212 262 311 376
#     4  11  22  40  64  89 126 166 204 259 319 374
#     4  10  22  39  64  87 123 164 200 258 310 372
#     4   9  21  41  62  88 123 165 210 251 308 378
#     4  10  23  39  65  92 120 162 212 256 302 380
#     4  11  22  43  62  89 128 162 203 260 322 360
#     4  10  21  41  64  87 121 167 211 252 312 377
#
# _framework density 19.223929999999999
#
# number of rings (size 3 to 8) (size 9 to 14) (size 15 to 20)
#    0.000    1.714    2.857    0.857    4.000    1.143 
#    2.571    0.000    0.000    0.000    0.000    0.000 
#    0.000    0.000    0.000    0.000    0.000    0.000 
#
# Total GULP energy -155972.599859 kJ/mol
# GULP energy per Si atom -5570.449995 kJ/mol
# Density = 1.918018 g / cm^3
# Si number density = 19.223930 Si / 1000 Ang^3
#
#
#
# Elastic Constant Matrix: (Units=GPa)
#
#
# Indices 1 2 3 4 5 6 
#
# 1 113.2745 57.1594 33.9112 0.0000 11.0989 0.0000
# 2 57.1594 124.0399 20.8722 0.0000 14.5306 0.0000
# 3 33.9112 20.8722 49.6859 0.0000 10.1086 0.0000
# 4 0.0000 0.0000 0.0000 24.3188 0.0000 -3.2301
# 5 11.0989 14.5306 10.1086 0.0000 19.4822 0.0000
# 6 0.0000 0.0000 0.0000 -3.2301 0.0000 32.9659
#
#
#
# Elastic Compliance Matrix: (Units=1/GPa)
#
#
# Indices 1 2 3 4 5 6 
#
# 1 0.013487 -0.004994 -0.007046 0.000000 -0.000303 0.000000
# 2 -0.004994 0.011006 -0.000138 0.000000 -0.005292 0.000000
# 3 -0.007046 -0.000138 0.027007 0.000000 -0.009896 0.000000
# 4 0.000000 0.000000 0.000000 0.041663 0.000000 0.004082
# 5 -0.000303 -0.005292 -0.009896 0.000000 0.060583 0.000000
# 6 0.000000 0.000000 0.000000 0.004082 0.000000 0.030734
#
#
# Mechanical properties :
#
#
# Convention : Reuss Voigt Hill
#
# Bulk Modulus (GPa) = 36.84047 56.76511 46.80279
# Shear Modulus (GPa) = 22.94797 27.02388 24.98593
#
# Velocity S-wave (km/s) = 3.45877 3.75339 3.60909
# Velocity P-wave (km/s) = 5.92927 6.95531 6.46269
#
# Compressibility (1/GPa) = 0.02714406
#
# Stress axis : x y z
#
# Youngs Moduli (GPa) = 74.14519 90.85568 37.02811
#
# Poissons Ratio (x) = 0.45373 0.26088
# Poissons Ratio (y) = 0.37028 0.00513
# Poissons Ratio (z) = 0.52239 0.01258
#
# Static dielectric constant tensor:
#      x y z
#    x 1.610040 0.000000 -0.024470 
#    y 0.000000 1.723490 0.000000 
#    z -0.024470 0.000000 1.693160 
# 
# From -- ./inp_files/40225.got.cif
#   From: 2010.05.17/outbox.cif.g08.bks.cpg/sg14_21_cif.got.tgz:40225.got - 2010.06.03 17:49:19.
