data_PCOD9246587
_publ_section_title
;
Structure prediction by ZEFSAII (Michael W. Deem and Ramdas Pophale) SiO2 
 PCOD9246587
Probable space group: P 21/C
;
_chemical_formula_sum "Si O2"
_cell_formula_units_Z 32
_cell_length_a 6.555577
_cell_length_b 15.949949
_cell_length_c 14.757066
_cell_angle_alpha 90.000000
_cell_angle_beta 112.322508
_cell_angle_gamma 90.000000
_cell_volume 1427.382660
_symmetry_space_group_name_H-M "P 21/C"
_symmetry_group_IT_number 14
_symmetry_cell_setting 'monoclinic'
loop_
_space_group_symop_operation_xyz
x,y,z
-x,1/2+y,1/2-z
-x,-y,-z
x,1/2-y,1/2+z
loop_
_atom_site_type_symbol
_atom_site_label
_atom_site_fract_x
_atom_site_fract_y
_atom_site_fract_z
Si Si1 0.699671 0.933469 0.858541
Si Si2 0.936559 0.313654 0.011807
Si Si3 0.977572 0.189001 0.167768
Si Si4 0.363302 0.187436 0.796469
Si Si5 0.021157 0.054764 0.679407
Si Si6 0.790581 0.110782 0.817178
Si Si7 0.247795 0.619686 0.198400
Si Si8 0.759371 0.689804 0.529043
O O1 0.926691 0.897551 0.854458
O O2 0.492714 0.912948 0.759404
O O3 0.726205 0.032768 0.870798
O O4 0.668097 0.879418 0.944410
O O5 0.861385 0.241600 0.069170
O O6 0.969926 0.395702 0.078652
O O7 0.780811 0.335241 0.902076
O O8 0.164695 0.274512 0.009468
O O9 0.194772 0.243230 0.230356
O O10 0.831552 0.175883 0.230852
O O11 0.236917 0.099775 0.757604
O O12 0.592388 0.176527 0.784671
O O13 0.386942 0.202496 0.907211
O O14 0.838037 0.073223 0.725354
O O15 0.079015 0.959014 0.671358
O O16 0.010052 0.153426 0.892383
#
# Coordination Sequence:
#
# PCOD9246587 Si02
#       8
#     4   4   4   4   4   4   4   4
#     4  11  24  40  64  99 128 178 229 278 337 399
#     4  10  23  43  68  97 130 182 222 277 347 397
#     4  10  23  42  65  96 139 169 223 284 334 404
#     4  10  21  41  66  96 131 179 224 275 342 400
#     4  10  22  42  67  96 135 172 223 285 334 406
#     4  11  22  41  67  95 136 175 221 276 340 399
#     4  12  22  44  69  94 135 179 228 283 341 398
#     4  10  23  41  64  98 135 175 227 282 335 397
#
# _framework density 22.418655000000001
#
# number of rings (size 3 to 8) (size 9 to 14) (size 15 to 20)
#    0.000    1.500    3.750    0.750    1.750    2.500 
#    0.000    5.625    0.000    0.000    0.000    0.000 
#    0.000    0.000    0.000    0.000    0.000    0.000 
#
# Total GULP energy -178992.408968 kJ/mol
# GULP energy per Si atom -5593.512780 kJ/mol
# Density = 2.236763 g / cm^3
# Si number density = 22.418655 Si / 1000 Ang^3
#
#
#
# Elastic Constant Matrix: (Units=GPa)
#
#
# Indices 1 2 3 4 5 6 
#
# 1 71.8646 26.2611 33.3548 0.0000 1.8866 0.0000
# 2 26.2611 71.2019 13.0767 0.0000 -5.9073 0.0000
# 3 33.3548 13.0767 106.3587 0.0000 -18.8126 0.0000
# 4 0.0000 0.0000 0.0000 35.1266 0.0000 0.9966
# 5 1.8866 -5.9073 -18.8126 0.0000 26.5911 0.0000
# 6 0.0000 0.0000 0.0000 0.9966 0.0000 27.6860
#
#
#
# Elastic Compliance Matrix: (Units=1/GPa)
#
#
# Indices 1 2 3 4 5 6 
#
# 1 0.019649 -0.006650 -0.006690 0.000000 -0.007604 0.000000
# 2 -0.006650 0.016735 0.000879 0.000000 0.004811 0.000000
# 3 -0.006690 0.000879 0.013157 0.000000 0.009978 0.000000
# 4 0.000000 0.000000 0.000000 0.028498 0.000000 -0.001026
# 5 -0.007604 0.004811 0.009978 0.000000 0.046274 0.000000
# 6 0.000000 0.000000 0.000000 -0.001026 0.000000 0.036156
#
#
# Mechanical properties :
#
#
# Convention : Reuss Voigt Hill
#
# Bulk Modulus (GPa) = 40.61657 43.86783 42.24220
# Shear Modulus (GPa) = 25.82686 29.66290 27.74488
#
# Velocity S-wave (km/s) = 3.39783 3.64144 3.52174
# Velocity P-wave (km/s) = 5.79226 6.10656 5.95149
#
# Compressibility (1/GPa) = 0.02462049
#
# Stress axis : x y z
#
# Youngs Moduli (GPa) = 50.89188 59.75556 76.00557
#
# Poissons Ratio (x) = 0.39735 0.50845
# Poissons Ratio (y) = 0.33841 -0.06679
# Poissons Ratio (z) = 0.34045 -0.05251
#
# Static dielectric constant tensor:
#      x y z
#    x 1.821250 0.000000 -0.014840 
#    y 0.000000 1.857770 0.000000 
#    z -0.014840 0.000000 1.814790 
# 
# From -- ./inp_files/37879.got.cif
#   From: 2010.05.17/outbox.cif.g08.bks.cpg/sg14_19_cif.got.tgz:37879.got - 2010.06.03 17:49:19.
