data_PCOD9246931
_publ_section_title
;
Structure prediction by ZEFSAII (Michael W. Deem and Ramdas Pophale) SiO2 
 PCOD9246931
Probable space group: P 21/C
;
_chemical_formula_sum "Si O2"
_cell_formula_units_Z 18
_cell_length_a 12.253589
_cell_length_b 5.326711
_cell_length_c 9.629348
_cell_angle_alpha 90.000000
_cell_angle_beta 84.187013
_cell_angle_gamma 90.000000
_cell_volume 625.288334
_symmetry_space_group_name_H-M "P 21/C"
_symmetry_group_IT_number 14
_symmetry_cell_setting 'monoclinic'
loop_
_space_group_symop_operation_xyz
x,y,z
-x,1/2+y,1/2-z
-x,-y,-z
x,1/2-y,1/2+z
loop_
_atom_site_type_symbol
_atom_site_label
_atom_site_fract_x
_atom_site_fract_y
_atom_site_fract_z
Si Si1 0.652014 0.258470 0.368331
Si Si2 0.630794 0.739024 0.712805
Si Si3 0.121048 0.194129 0.910052
Si Si4 0.500000 0.500000 0.000000
Si Si5 0.893800 0.195097 0.409505
O O1 0.617742 0.510743 0.303012
O O2 0.782622 0.239261 0.339918
O O3 0.596534 0.993087 0.319142
O O4 0.604829 0.208738 0.526664
O O5 0.759984 0.711778 0.670585
O O6 0.567778 0.774239 0.578200
O O7 0.014333 0.257654 0.830506
O O8 0.115117 0.417249 0.025029
O O9 0.111154 0.915547 0.974005
#
# Coordination Sequence:
#
# PCOD9246931 Si02
#       5
#     4   4   4   2   4
#     4  12  27  45  72 106 135 187 243 286 359 427
#     4  12  27  45  72 106 135 187 243 286 359 427
#     4  10  21  42  71 103 142 185 225 285 362 424
#     4  12  28  50  70  96 150 188 230 318 342 418
#     4  10  21  42  71 103 142 185 225 285 362 424
#
# _framework density 28.786721
#
# number of rings (size 3 to 8) (size 9 to 14) (size 15 to 20)
#    0.000    0.889    2.222    4.000    0.000    3.556 
#    0.000    0.000    0.000    0.000    0.000    0.000 
#    0.000    0.000    0.000    0.000    0.000    0.000 
#
# Total GULP energy -100609.211566 kJ/mol
# GULP energy per Si atom -5589.400643 kJ/mol
# Density = 2.872120 g / cm^3
# Si number density = 28.786721 Si / 1000 Ang^3
#
#
#
# Elastic Constant Matrix: (Units=GPa)
#
#
# Indices 1 2 3 4 5 6 
#
# 1 251.8846 31.0032 32.8166 0.0000 -9.0928 0.0000
# 2 31.0032 188.3306 79.6143 0.0000 7.5449 0.0000
# 3 32.8166 79.6143 95.1054 0.0000 -3.4547 0.0000
# 4 0.0000 0.0000 0.0000 49.2992 0.0000 -1.0978
# 5 -9.0928 7.5449 -3.4547 0.0000 46.9687 0.0000
# 6 0.0000 0.0000 0.0000 -1.0978 0.0000 45.3041
#
#
#
# Elastic Compliance Matrix: (Units=1/GPa)
#
#
# Indices 1 2 3 4 5 6 
#
# 1 0.004184 -0.000186 -0.001261 0.000000 0.000747 0.000000
# 2 -0.000186 0.008386 -0.007025 0.000000 -0.001900 0.000000
# 3 -0.001261 -0.007025 0.016908 0.000000 0.002128 0.000000
# 4 0.000000 0.000000 0.000000 0.020295 0.000000 0.000492
# 5 0.000747 -0.001900 0.002128 0.000000 0.021897 0.000000
# 6 0.000000 0.000000 0.000000 0.000492 0.000000 0.022085
#
#
# Mechanical properties :
#
#
# Convention : Reuss Voigt Hill
#
# Bulk Modulus (GPa) = 79.78077 91.35430 85.56754
# Shear Modulus (GPa) = 43.52423 54.44017 48.98220
#
# Velocity S-wave (km/s) = 3.89261 4.35346 4.12947
# Velocity P-wave (km/s) = 6.92660 7.55473 7.24747
#
# Compressibility (1/GPa) = 0.01253435
#
# Stress axis : x y z
#
# Youngs Moduli (GPa) = 238.99386 119.24176 59.14295
#
# Poissons Ratio (x) = 0.02212 0.07460
# Poissons Ratio (y) = 0.04434 0.41550
# Poissons Ratio (z) = 0.30145 0.83771
#
# Static dielectric constant tensor:
#      x y z
#    x 2.572050 0.000000 -0.619170 
#    y 0.000000 2.184960 0.000000 
#    z -0.619170 0.000000 3.580200 
# 
# From -- ./inp_files/27403.got.cif
#   From: 2010.05.17/outbox.cif.g08.bks.cpg/sg14_14_cif.got.tgz:27403.got - 2010.06.03 17:49:19.
