data_PCOD9246583
_publ_section_title
;
Structure prediction by ZEFSAII (Michael W. Deem and Ramdas Pophale) SiO2 
 PCOD9246583
Probable space group: P 21/C
;
_chemical_formula_sum "Si O2"
_cell_formula_units_Z 28
_cell_length_a 8.179691
_cell_length_b 8.026533
_cell_length_c 19.507471
_cell_angle_alpha 90.000000
_cell_angle_beta 103.523835
_cell_angle_gamma 90.000000
_cell_volume 1245.242588
_symmetry_space_group_name_H-M "P 21/C"
_symmetry_group_IT_number 14
_symmetry_cell_setting 'monoclinic'
loop_
_space_group_symop_operation_xyz
x,y,z
-x,1/2+y,1/2-z
-x,-y,-z
x,1/2-y,1/2+z
loop_
_atom_site_type_symbol
_atom_site_label
_atom_site_fract_x
_atom_site_fract_y
_atom_site_fract_z
Si Si1 0.040273 0.657526 0.421784
Si Si2 0.731321 0.800075 0.573204
Si Si3 0.321415 0.549170 0.352479
Si Si4 0.425126 0.014684 0.322517
Si Si5 0.918745 0.223460 0.925617
Si Si6 0.667758 0.221399 0.279460
Si Si7 0.340745 0.243168 0.593298
O O1 0.001145 0.460433 0.427681
O O2 0.848811 0.723478 0.399447
O O3 0.180187 0.662793 0.376665
O O4 0.122480 0.735730 0.498472
O O5 0.695809 0.629832 0.612923
O O6 0.657990 0.940859 0.614226
O O7 0.663646 0.780693 0.489433
O O8 0.927720 0.838590 0.581745
O O9 0.282546 0.573214 0.268051
O O10 0.512884 0.618071 0.379764
O O11 0.479721 0.176306 0.285278
O O12 0.324814 0.889026 0.264460
O O13 0.593326 0.917755 0.360786
O O14 0.772143 0.248880 0.857966
#
# Coordination Sequence:
#
# PCOD9246583 Si02
#       7
#     4   4   4   4   4   4   4
#     4   9  20  41  67  97 125 165 217 270 316 391
#     4  10  21  41  66  96 125 166 218 268 330 393
#     4  10  22  41  66  96 126 171 216 264 338 390
#     4  11  25  41  63  91 136 172 216 274 332 395
#     4   9  21  40  65  95 126 165 216 267 324 384
#     4  11  25  43  59  97 127 174 219 264 338 397
#     4  10  22  41  67  98 125 169 215 273 327 388
#
# _framework density 22.485578
#
# number of rings (size 3 to 8) (size 9 to 14) (size 15 to 20)
#    0.000    2.000    0.000    2.571    8.000    2.286 
#   10.286    1.429    0.000    0.000    0.000    0.000 
#    0.000    0.000    0.000    0.000    0.000    0.000 
#
# Total GULP energy -156250.389858 kJ/mol
# GULP energy per Si atom -5580.371066 kJ/mol
# Density = 2.243440 g / cm^3
# Si number density = 22.485578 Si / 1000 Ang^3
#
#
#
# Elastic Constant Matrix: (Units=GPa)
#
#
# Indices 1 2 3 4 5 6 
#
# 1 33.1420 33.7581 -16.2317 0.0000 -29.4283 0.0000
# 2 33.7581 18.9827 64.7955 0.0000 17.2350 0.0000
# 3 -16.2317 64.7955 -74.3149 0.0000 -68.0158 0.0000
# 4 0.0000 0.0000 0.0000 23.7204 0.0000 -10.3979
# 5 -29.4283 17.2350 -68.0158 0.0000 8.4143 0.0000
# 6 0.0000 0.0000 0.0000 -10.3979 0.0000 33.4414
#
#
#
# Elastic Compliance Matrix: (Units=1/GPa)
#
#
# Indices 1 2 3 4 5 6 
#
# 1 0.031935 -0.006921 -0.015266 0.000000 0.002465 0.000000
# 2 -0.006921 0.021328 0.009793 0.000000 0.011270 0.000000
# 3 -0.015266 0.009793 0.007816 0.000000 -0.010270 0.000000
# 4 0.000000 0.000000 0.000000 0.048810 0.000000 0.015177
# 5 0.002465 0.011270 -0.010270 0.000000 0.021369 0.000000
# 6 0.000000 0.000000 0.000000 0.015177 0.000000 0.034622
#
#
# Mechanical properties :
#
#
# Convention : Reuss Voigt Hill
#
# Bulk Modulus (GPa) = 27.55505 15.82818 21.69162
# Shear Modulus (GPa) = 24.65897 6.14777 15.40337
#
# Velocity S-wave (km/s) = 3.31517 1.65530 2.62015
# Velocity P-wave (km/s) = 5.18989 3.27229 4.33837
#
# Compressibility (1/GPa) = 0.03629099
#
# Stress axis : x y z
#
# Youngs Moduli (GPa) = 31.31325 46.88705 127.93784
#
# Poissons Ratio (x) = 0.32451 1.95313
# Poissons Ratio (y) = 0.21673 -1.25292
# Poissons Ratio (z) = 0.47804 -0.45917
#
# Static dielectric constant tensor:
#      x y z
#    x 1.838820 0.000000 -0.004480 
#    y 0.000000 1.913840 0.000000 
#    z -0.004480 0.000000 1.831740 
# 
# From -- ./inp_files/54907.got.cif
#   From: 2010.05.17/outbox.cif.g08.bks.cpg/sg14_28_cif.got.tgz:54907.got - 2010.06.03 17:49:19.
