data_PCOD9246902
_publ_section_title
;
Structure prediction by ZEFSAII (Michael W. Deem and Ramdas Pophale) SiO2 
 PCOD9246902
Probable space group: P 21/C
;
_chemical_formula_sum "Si O2"
_cell_formula_units_Z 24
_cell_length_a 7.906250
_cell_length_b 11.076838
_cell_length_c 22.494410
_cell_angle_alpha 90.000000
_cell_angle_beta 146.948088
_cell_angle_gamma 90.000000
_cell_volume 1074.422349
_symmetry_space_group_name_H-M "P 21/C"
_symmetry_group_IT_number 14
_symmetry_cell_setting 'monoclinic'
loop_
_space_group_symop_operation_xyz
x,y,z
-x,1/2+y,1/2-z
-x,-y,-z
x,1/2-y,1/2+z
loop_
_atom_site_type_symbol
_atom_site_label
_atom_site_fract_x
_atom_site_fract_y
_atom_site_fract_z
Si Si1 0.845891 0.339558 0.005315
Si Si2 0.790811 0.128469 0.699615
Si Si3 0.106422 0.879363 0.751937
Si Si4 0.773236 0.901562 0.904737
Si Si5 0.570227 0.004515 0.314765
Si Si6 0.603186 0.863063 0.522635
O O1 0.660554 0.403454 0.895836
O O2 0.612392 0.303250 0.990221
O O3 0.033348 0.221257 0.042363
O O4 0.106745 0.435705 0.104561
O O5 0.980282 0.251275 0.743373
O O6 0.659928 0.097889 0.725721
O O7 0.487730 0.156858 0.571032
O O8 0.963091 0.005067 0.731717
O O9 0.471204 0.891022 0.857107
O O10 0.958881 0.853130 0.643776
O O11 0.619248 0.937624 0.795552
O O12 0.000000 0.000000 0.000000
O O13 0.500000 0.000000 0.500000
#
# Coordination Sequence:
#
# PCOD9246902 Si02
#       6
#     4   4   4   4   4   4
#     4  11  24  44  73 103 137 189 240 290 361 433
#     4  11  24  44  73 104 136 189 239 299 357 427
#     4  11  25  45  68 103 141 185 235 297 356 420
#     4  12  30  44  70 108 152 183 234 305 356 423
#     4  11  24  46  73 101 136 193 239 284 362 438
#     4  10  21  42  69  97 132 182 233 285 348 427
#
# _framework density 22.337582999999999
#
# number of rings (size 3 to 8) (size 9 to 14) (size 15 to 20)
#    0.000    1.000    5.000    2.000    9.333    1.333 
#    0.000    1.667    0.000    0.000    0.000    0.000 
#    0.000    0.000    0.000    0.000    0.000    0.000 
#
# Total GULP energy -133785.998453 kJ/mol
# GULP energy per Si atom -5574.416602 kJ/mol
# Density = 2.228674 g / cm^3
# Si number density = 22.337583 Si / 1000 Ang^3
#
#
#
# Elastic Constant Matrix: (Units=GPa)
#
#
# Indices 1 2 3 4 5 6 
#
# 1 70.7490 32.7993 13.3144 0.0000 19.9074 0.0000
# 2 32.7993 148.0741 62.4984 0.0000 9.8836 0.0000
# 3 13.3144 62.4984 105.7223 0.0000 8.8477 0.0000
# 4 0.0000 0.0000 0.0000 27.2308 0.0000 9.1465
# 5 19.9074 9.8836 8.8477 0.0000 38.6350 0.0000
# 6 0.0000 0.0000 0.0000 9.1465 0.0000 35.2417
#
#
#
# Elastic Compliance Matrix: (Units=1/GPa)
#
#
# Indices 1 2 3 4 5 6 
#
# 1 0.018141 -0.003712 0.000624 0.000000 -0.008541 0.000000
# 2 -0.003712 0.009805 -0.005382 0.000000 0.000637 0.000000
# 3 0.000624 -0.005382 0.012717 0.000000 -0.001857 0.000000
# 4 0.000000 0.000000 0.000000 0.040230 0.000000 -0.010441
# 5 -0.008541 0.000637 -0.001857 0.000000 0.030547 0.000000
# 6 0.000000 0.000000 0.000000 -0.010441 0.000000 0.031085
#
#
# Mechanical properties :
#
#
# Convention : Reuss Voigt Hill
#
# Bulk Modulus (GPa) = 42.15127 60.19665 51.17396
# Shear Modulus (GPa) = 29.87370 34.61707 32.24538
#
# Velocity S-wave (km/s) = 3.66098 3.94092 3.80353
# Velocity P-wave (km/s) = 6.06477 6.90760 6.49986
#
# Compressibility (1/GPa) = 0.02372408
#
# Stress axis : x y z
#
# Youngs Moduli (GPa) = 55.12376 101.99273 78.63440
#
# Poissons Ratio (x) = 0.37858 -0.04910
# Poissons Ratio (y) = 0.20461 0.42320
# Poissons Ratio (z) = -0.03442 0.54892
#
# Static dielectric constant tensor:
#      x y z
#    x 2.261450 0.000000 -0.273300 
#    y 0.000000 1.899950 0.000000 
#    z -0.273300 0.000000 2.019390 
# 
# From -- ./inp_files/72377.got.cif
#   From: 2010.05.17/outbox.cif.g08.bks.cpg/sg14_37_cif.got.tgz:72377.got - 2010.06.03 17:49:19.
