data_PCOD9246393
_publ_section_title
;
Structure prediction by ZEFSAII (Michael W. Deem and Ramdas Pophale) SiO2 
 PCOD9246393
Probable space group: P 21/C
;
_chemical_formula_sum "Si O2"
_cell_formula_units_Z 32
_cell_length_a 7.611830
_cell_length_b 21.874166
_cell_length_c 13.292363
_cell_angle_alpha 90.000000
_cell_angle_beta 136.008124
_cell_angle_gamma 90.000000
_cell_volume 1537.199640
_symmetry_space_group_name_H-M "P 21/C"
_symmetry_group_IT_number 14
_symmetry_cell_setting 'monoclinic'
loop_
_space_group_symop_operation_xyz
x,y,z
-x,1/2+y,1/2-z
-x,-y,-z
x,1/2-y,1/2+z
loop_
_atom_site_type_symbol
_atom_site_label
_atom_site_fract_x
_atom_site_fract_y
_atom_site_fract_z
Si Si1 0.343918 0.657997 0.888245
Si Si2 0.805308 0.679636 0.196229
Si Si3 0.924662 0.069335 0.092725
Si Si4 0.558588 0.895487 0.009334
Si Si5 0.104398 0.558027 0.657197
Si Si6 0.006665 0.214206 0.446793
Si Si7 0.813298 0.816177 0.273577
Si Si8 0.487502 0.282715 0.653763
O O1 0.434451 0.720501 0.872116
O O2 0.297953 0.602406 0.793680
O O3 0.076233 0.672248 0.826458
O O4 0.548343 0.646237 0.058268
O O5 0.963071 0.634935 0.331383
O O6 0.752297 0.745415 0.224034
O O7 0.944111 0.692356 0.146652
O O8 0.676238 0.061671 0.059981
O O9 0.866501 0.066031 0.950267
O O10 0.118963 0.013571 0.190554
O O11 0.479087 0.843745 0.896719
O O12 0.817995 0.923740 0.073538
O O13 0.616667 0.859816 0.137817
O O14 0.132176 0.173738 0.586407
O O15 0.180358 0.275051 0.533366
O O16 0.702174 0.217646 0.329818
#
# Coordination Sequence:
#
# PCOD9246393 Si02
#       8
#     4   4   4   4   4   4   4   4
#     4  10  21  41  58  86 129 152 205 257 313 374
#     4  11  23  38  58  91 122 163 198 256 315 379
#     4  11  24  42  66  89 121 168 217 254 312 363
#     4  11  21  42  66  91 128 159 207 266 310 379
#     4  10  25  43  64  92 118 169 217 259 302 372
#     4  11  23  35  57  89 132 162 203 245 319 388
#     4  11  23  36  60  95 124 161 200 256 327 381
#     4  11  21  39  57  94 126 161 195 258 320 378
#
# _framework density 20.817073000000001
#
# number of rings (size 3 to 8) (size 9 to 14) (size 15 to 20)
#    0.000    1.250    5.000    1.125    8.750    0.500 
#    0.000    0.000    0.000    1.500    0.000    0.000 
#    0.000    0.000    0.000    0.000    0.000    0.000 
#
# Total GULP energy -178485.502784 kJ/mol
# GULP energy per Si atom -5577.671962 kJ/mol
# Density = 2.076969 g / cm^3
# Si number density = 20.817073 Si / 1000 Ang^3
#
#
#
# Elastic Constant Matrix: (Units=GPa)
#
#
# Indices 1 2 3 4 5 6 
#
# 1 44.2625 11.5797 7.4961 0.0000 -5.5149 0.0000
# 2 11.5797 42.8600 -7.9697 0.0000 -2.3214 0.0000
# 3 7.4961 -7.9697 73.8928 0.0000 10.2172 0.0000
# 4 0.0000 0.0000 0.0000 14.0082 0.0000 1.0666
# 5 -5.5149 -2.3214 10.2172 0.0000 31.5963 0.0000
# 6 0.0000 0.0000 0.0000 1.0666 0.0000 23.5489
#
#
#
# Elastic Compliance Matrix: (Units=1/GPa)
#
#
# Indices 1 2 3 4 5 6 
#
# 1 0.025923 -0.007491 -0.004174 0.000000 0.005324 0.000000
# 2 -0.007491 0.026002 0.003644 0.000000 -0.000576 0.000000
# 3 -0.004174 0.003644 0.015088 0.000000 -0.005340 0.000000
# 4 0.000000 0.000000 0.000000 0.071634 0.000000 -0.003245
# 5 0.005324 -0.000576 -0.005340 0.000000 0.034263 0.000000
# 6 0.000000 0.000000 0.000000 -0.003245 0.000000 0.042612
#
#
# Mechanical properties :
#
#
# Convention : Reuss Voigt Hill
#
# Bulk Modulus (GPa) = 19.61932 20.35861 19.98896
# Shear Modulus (GPa) = 20.11637 23.82463 21.97050
#
# Velocity S-wave (km/s) = 3.11197 3.38668 3.25223
# Velocity P-wave (km/s) = 4.72838 5.00937 4.87090
#
# Compressibility (1/GPa) = 0.05097018
#
# Stress axis : x y z
#
# Youngs Moduli (GPa) = 38.57649 38.45833 66.27828
#
# Poissons Ratio (x) = 0.28811 0.27664
# Poissons Ratio (y) = 0.28899 -0.24152
# Poissons Ratio (z) = 0.16101 -0.14014
#
# Static dielectric constant tensor:
#      x y z
#    x 1.827600 0.000000 0.027120 
#    y 0.000000 1.739390 0.000000 
#    z 0.027120 0.000000 1.779640 
# 
# From -- ./inp_files/42065.got.cif
#   From: 2010.05.17/outbox.cif.g08.bks.cpg/sg14_22_cif.got.tgz:42065.got - 2010.06.03 17:49:19.
