data_PCOD9246482
_publ_section_title
;
Structure prediction by ZEFSAII (Michael W. Deem and Ramdas Pophale) SiO2 
 PCOD9246482
Probable space group: P 21/C
;
_chemical_formula_sum "Si O2"
_cell_formula_units_Z 24
_cell_length_a 11.172343
_cell_length_b 15.050132
_cell_length_c 14.731683
_cell_angle_alpha 90.000000
_cell_angle_beta 29.837694
_cell_angle_gamma 90.000000
_cell_volume 1232.449339
_symmetry_space_group_name_H-M "P 21/C"
_symmetry_group_IT_number 14
_symmetry_cell_setting 'monoclinic'
loop_
_space_group_symop_operation_xyz
x,y,z
-x,1/2+y,1/2-z
-x,-y,-z
x,1/2-y,1/2+z
loop_
_atom_site_type_symbol
_atom_site_label
_atom_site_fract_x
_atom_site_fract_y
_atom_site_fract_z
Si Si1 0.316775 0.803294 0.688602
Si Si2 0.559538 0.070294 0.541394
Si Si3 0.227116 0.896623 0.216605
Si Si4 0.125368 0.410533 0.454628
Si Si5 0.676000 0.907790 0.579657
Si Si6 0.596222 0.015774 0.080214
O O1 0.304593 0.851682 0.598867
O O2 0.343022 0.699378 0.656700
O O3 0.542553 0.843983 0.595623
O O4 0.074494 0.835634 0.899016
O O5 0.328422 0.108958 0.746044
O O6 0.500000 0.000000 0.500000
O O7 0.688392 0.007671 0.529662
O O8 0.947258 0.883353 0.422502
O O9 0.367082 0.967331 0.186319
O O10 0.258041 0.933439 0.093864
O O11 0.248170 0.442352 0.467830
O O12 0.000000 0.500000 0.500000
O O13 0.504429 0.915794 0.779247
#
# Coordination Sequence:
#
# PCOD9246482 Si02
#       6
#     4   4   4   4   4   4
#     4  11  23  37  60  98 120 153 212 262 296 354
#     4   9  18  35  62  88 116 154 203 246 304 352
#     4  11  25  40  61  90 130 161 201 252 308 376
#     4  11  19  38  67  89 117 162 207 255 299 365
#     4  10  21  41  64  84 122 164 202 247 304 369
#     4  10  23  44  63  85 125 174 198 239 324 372
#
# _framework density 19.473417999999999
#
# number of rings (size 3 to 8) (size 9 to 14) (size 15 to 20)
#    0.000    1.667    5.000    1.500    4.667    1.333 
#    3.000    0.000    0.000    0.000    0.000    0.000 
#    0.000    0.000    0.000    0.000    0.000    0.000 
#
# Total GULP energy -133890.374696 kJ/mol
# GULP energy per Si atom -5578.765612 kJ/mol
# Density = 1.942910 g / cm^3
# Si number density = 19.473418 Si / 1000 Ang^3
#
#
#
# Elastic Constant Matrix: (Units=GPa)
#
#
# Indices 1 2 3 4 5 6 
#
# 1 57.8536 -6.2008 9.5732 0.0000 -1.0970 0.0000
# 2 -6.2008 47.5459 12.8791 0.0000 2.6570 0.0000
# 3 9.5732 12.8791 65.9363 0.0000 -0.6268 0.0000
# 4 0.0000 0.0000 0.0000 20.6476 0.0000 -0.4913
# 5 -1.0970 2.6570 -0.6268 0.0000 32.2171 0.0000
# 6 0.0000 0.0000 0.0000 -0.4913 0.0000 33.9057
#
#
#
# Elastic Compliance Matrix: (Units=1/GPa)
#
#
# Indices 1 2 3 4 5 6 
#
# 1 0.018179 0.003240 -0.003270 0.000000 0.000288 0.000000
# 2 0.003240 0.022904 -0.004962 0.000000 -0.001875 0.000000
# 3 -0.003270 -0.004962 0.016616 0.000000 0.000621 0.000000
# 4 0.000000 0.000000 0.000000 0.048448 0.000000 0.000702
# 5 0.000288 -0.001875 0.000621 0.000000 0.031216 0.000000
# 6 0.000000 0.000000 0.000000 0.000702 0.000000 0.029504
#
#
# Mechanical properties :
#
#
# Convention : Reuss Voigt Hill
#
# Bulk Modulus (GPa) = 20.95726 22.64877 21.80302
# Shear Modulus (GPa) = 25.93973 27.69304 26.81639
#
# Velocity S-wave (km/s) = 3.65370 3.77516 3.71492
# Velocity P-wave (km/s) = 5.34646 5.53699 5.44256
#
# Compressibility (1/GPa) = 0.04771616
#
# Stress axis : x y z
#
# Youngs Moduli (GPa) = 55.00916 43.66087 60.18303
#
# Poissons Ratio (x) = -0.14148 0.19677
# Poissons Ratio (y) = -0.17825 0.29863
# Poissons Ratio (z) = 0.17986 0.21665
#
# Static dielectric constant tensor:
#      x y z
#    x 1.723180 0.000000 0.014560 
#    y 0.000000 1.679870 0.000000 
#    z 0.014560 0.000000 1.739760 
# 
# From -- ./inp_files/45031.got.cif
#   From: 2010.05.17/outbox.cif.g08.bks.cpg/sg14_23_cif.got.tgz:45031.got - 2010.06.03 17:49:19.
