data_PCOD9246879
_publ_section_title
;
Structure prediction by ZEFSAII (Michael W. Deem and Ramdas Pophale) SiO2 
 PCOD9246879
Probable space group: P 21/C
;
_chemical_formula_sum "Si O2"
_cell_formula_units_Z 24
_cell_length_a 12.246014
_cell_length_b 9.073527
_cell_length_c 18.674316
_cell_angle_alpha 90.000000
_cell_angle_beta 35.127848
_cell_angle_gamma 90.000000
_cell_volume 1193.953986
_symmetry_space_group_name_H-M "P 21/C"
_symmetry_group_IT_number 14
_symmetry_cell_setting 'monoclinic'
loop_
_space_group_symop_operation_xyz
x,y,z
-x,1/2+y,1/2-z
-x,-y,-z
x,1/2-y,1/2+z
loop_
_atom_site_type_symbol
_atom_site_label
_atom_site_fract_x
_atom_site_fract_y
_atom_site_fract_z
Si Si1 0.333179 0.384368 0.081824
Si Si2 0.844525 0.672640 0.231616
Si Si3 0.234071 0.658198 0.776015
Si Si4 0.318793 0.199112 0.954332
Si Si5 0.034212 0.615618 0.275609
Si Si6 0.954407 0.674946 0.527849
O O1 0.341854 0.239751 0.127652
O O2 0.500000 0.500000 0.000000
O O3 0.819340 0.991390 0.714307
O O4 0.307559 0.340618 0.012849
O O5 0.907489 0.773763 0.132371
O O6 0.993443 0.664382 0.216762
O O7 0.850417 0.967102 0.290756
O O8 0.460595 0.660960 0.664363
O O9 0.157203 0.764178 0.753299
O O10 0.126210 0.728711 0.902131
O O11 0.226653 0.211917 0.925789
O O12 0.167393 0.094396 0.076489
O O13 0.000000 0.500000 0.500000
#
# Coordination Sequence:
#
# PCOD9246879 Si02
#       6
#     4   4   4   4   4   4
#     4  11  22  43  68  97 132 175 224 278 332 405
#     4  11  23  41  65  98 129 176 219 277 341 390
#     4  11  23  43  66  97 133 170 227 281 327 413
#     4  10  23  42  68  95 133 172 225 273 336 395
#     4  10  21  42  68  94 133 167 219 279 330 392
#     4  11  25  45  66  92 138 180 220 274 344 407
#
# _framework density 20.101277
#
# number of rings (size 3 to 8) (size 9 to 14) (size 15 to 20)
#    0.000    1.333    1.667    5.500    0.000    5.333 
#   12.000    0.000    0.000    0.000    0.000    0.000 
#    0.000    0.000    0.000    0.000    0.000    0.000 
#
# Total GULP energy -133900.592478 kJ/mol
# GULP energy per Si atom -5579.191353 kJ/mol
# Density = 2.005553 g / cm^3
# Si number density = 20.101277 Si / 1000 Ang^3
#
#
#
# Elastic Constant Matrix: (Units=GPa)
#
#
# Indices 1 2 3 4 5 6 
#
# 1 122.4374 23.2135 80.5848 0.0000 13.1247 0.0000
# 2 23.2135 92.9389 25.8003 0.0000 7.1206 0.0000
# 3 80.5848 25.8003 85.9814 0.0000 -1.7994 0.0000
# 4 0.0000 0.0000 0.0000 34.0669 0.0000 1.2913
# 5 13.1247 7.1206 -1.7994 0.0000 48.0981 0.0000
# 6 0.0000 0.0000 0.0000 1.2913 0.0000 30.4610
#
#
#
# Elastic Compliance Matrix: (Units=1/GPa)
#
#
# Indices 1 2 3 4 5 6 
#
# 1 0.023689 0.000939 -0.022640 0.000000 -0.007450 0.000000
# 2 0.000939 0.011945 -0.004510 0.000000 -0.002193 0.000000
# 3 -0.022640 -0.004510 0.034373 0.000000 0.008131 0.000000
# 4 0.000000 0.000000 0.000000 0.029401 0.000000 -0.001246
# 5 -0.007450 -0.002193 0.008131 0.000000 0.023453 0.000000
# 6 0.000000 0.000000 0.000000 -0.001246 0.000000 0.032882
#
#
# Mechanical properties :
#
#
# Convention : Reuss Voigt Hill
#
# Bulk Modulus (GPa) = 56.86741 62.28388 59.57565
# Shear Modulus (GPa) = 23.36166 33.97581 28.66874
#
# Velocity S-wave (km/s) = 3.41280 4.11570 3.78062
# Velocity P-wave (km/s) = 6.62431 7.32377 6.98280
#
# Compressibility (1/GPa) = 0.01758476
#
# Stress axis : x y z
#
# Youngs Moduli (GPa) = 42.21413 83.71445 29.09296
#
# Poissons Ratio (x) = -0.07860 0.65865
# Poissons Ratio (y) = -0.03963 0.13122
# Poissons Ratio (z) = 0.95571 0.37758
#
# Static dielectric constant tensor:
#      x y z
#    x 1.714470 0.000000 -0.000750 
#    y 0.000000 1.754180 0.000000 
#    z -0.000750 0.000000 1.739650 
# 
# From -- ./inp_files/44483.got.cif
#   From: 2010.05.17/outbox.cif.g08.bks.cpg/sg14_23_cif.got.tgz:44483.got - 2010.06.03 17:49:19.
