data_PCOD9246854
_publ_section_title
;
Structure prediction by ZEFSAII (Michael W. Deem and Ramdas Pophale) SiO2 
 PCOD9246854
Probable space group: P 21/C
;
_chemical_formula_sum "Si O2"
_cell_formula_units_Z 32
_cell_length_a 16.410179
_cell_length_b 14.784853
_cell_length_c 12.111650
_cell_angle_alpha 90.000000
_cell_angle_beta 28.603074
_cell_angle_gamma 90.000000
_cell_volume 1406.800181
_symmetry_space_group_name_H-M "P 21/C"
_symmetry_group_IT_number 14
_symmetry_cell_setting 'monoclinic'
loop_
_space_group_symop_operation_xyz
x,y,z
-x,1/2+y,1/2-z
-x,-y,-z
x,1/2-y,1/2+z
loop_
_atom_site_type_symbol
_atom_site_label
_atom_site_fract_x
_atom_site_fract_y
_atom_site_fract_z
Si Si1 0.195703 0.588142 0.826843
Si Si2 0.274029 0.610463 0.121904
Si Si3 0.218269 0.471879 0.008169
Si Si4 0.349864 0.391162 0.274194
Si Si5 0.794855 0.202281 0.882605
Si Si6 0.794677 0.699605 0.106724
Si Si7 0.836684 0.428326 0.527613
Si Si8 0.810605 0.596138 0.299772
O O1 0.274253 0.663747 0.653021
O O2 0.179078 0.505017 0.760285
O O3 0.270340 0.539568 0.846242
O O4 0.007779 0.622046 0.087117
O O5 0.278618 0.517157 0.048782
O O6 0.250248 0.692414 0.064189
O O7 0.133675 0.614308 0.386394
O O8 0.451017 0.621726 0.973926
O O9 0.268547 0.370105 0.913088
O O10 0.012537 0.465241 0.265735
O O11 0.258364 0.301798 0.341735
O O12 0.277428 0.483905 0.313032
O O13 0.303897 0.398832 0.457919
O O14 0.000164 0.194821 0.635421
O O15 0.752648 0.141189 0.039800
O O16 0.737431 0.658289 0.290658
#
# Coordination Sequence:
#
# PCOD9246854 Si02
#       8
#     4   4   4   4   4   4   4   4
#     4   9  16  37  68  89 110 147 217 267 294 356
#     4  12  28  37  59  97 134 170 201 253 325 383
#     4  10  21  42  67  95 120 158 218 266 308 360
#     4  12  23  41  60  90 133 174 203 252 325 381
#     4  10  22  40  65  95 117 161 220 265 307 364
#     4   9  22  38  66  94 120 160 216 266 310 363
#     4  11  23  44  67  86 126 169 215 260 311 367
#     4   9  17  36  63  91 110 160 206 259 306 356
#
# _framework density 22.746656999999999
#
# number of rings (size 3 to 8) (size 9 to 14) (size 15 to 20)
#    0.000    1.750    2.500    3.000    1.750    6.000 
#    0.000    1.250    0.000    0.000    0.000    0.000 
#    0.000    0.000    0.000    0.000    0.000    0.000 
#
# Total GULP energy -178660.381069 kJ/mol
# GULP energy per Si atom -5583.136908 kJ/mol
# Density = 2.269488 g / cm^3
# Si number density = 22.746657 Si / 1000 Ang^3
#
#
#
# Elastic Constant Matrix: (Units=GPa)
#
#
# Indices 1 2 3 4 5 6 
#
# 1 36.6167 31.5533 7.9370 0.0000 12.0637 0.0000
# 2 31.5533 117.7103 18.4277 0.0000 13.4338 0.0000
# 3 7.9370 18.4277 34.2881 0.0000 13.7687 0.0000
# 4 0.0000 0.0000 0.0000 7.0379 0.0000 -3.3871
# 5 12.0637 13.4338 13.7687 0.0000 20.6256 0.0000
# 6 0.0000 0.0000 0.0000 -3.3871 0.0000 84.7935
#
#
#
# Elastic Compliance Matrix: (Units=1/GPa)
#
#
# Indices 1 2 3 4 5 6 
#
# 1 0.041300 -0.009303 0.003698 0.000000 -0.020566 0.000000
# 2 -0.009303 0.011584 -0.004409 0.000000 0.000840 0.000000
# 3 0.003698 -0.004409 0.041525 0.000000 -0.027011 0.000000
# 4 0.000000 0.000000 0.000000 0.144872 0.000000 0.005787
# 5 -0.020566 0.000840 -0.027011 0.000000 0.077996 0.000000
# 6 0.000000 0.000000 0.000000 0.005787 0.000000 0.012025
#
#
# Mechanical properties :
#
#
# Convention : Reuss Voigt Hill
#
# Bulk Modulus (GPa) = 13.44441 33.82789 23.63615
# Shear Modulus (GPa) = 13.36456 31.20456 22.28456
#
# Velocity S-wave (km/s) = 2.42655 3.70784 3.13339
# Velocity P-wave (km/s) = 3.71136 5.76495 4.84814
#
# Compressibility (1/GPa) = 0.07438038
#
# Stress axis : x y z
#
# Youngs Moduli (GPa) = 24.21290 86.32949 24.08186
#
# Poissons Ratio (x) = 0.80310 -0.08905
# Poissons Ratio (y) = 0.22525 0.10619
# Poissons Ratio (z) = -0.08954 0.38066
#
# Static dielectric constant tensor:
#      x y z
#    x 1.868520 0.000000 0.003640 
#    y 0.000000 1.889870 0.000000 
#    z 0.003640 0.000000 1.824830 
# 
# From -- ./inp_files/34211.got.cif
#   From: 2010.05.17/outbox.cif.g08.bks.cpg/sg14_18_cif.got.tgz:34211.got - 2010.06.03 17:49:19.
