data_PCOD9246460
_publ_section_title
;
Structure prediction by ZEFSAII (Michael W. Deem and Ramdas Pophale) SiO2 
 PCOD9246460
Probable space group: P 21/C
;
_chemical_formula_sum "Si O2"
_cell_formula_units_Z 32
_cell_length_a 8.588248
_cell_length_b 30.807963
_cell_length_c 5.432519
_cell_angle_alpha 90.000000
_cell_angle_beta 119.140282
_cell_angle_gamma 90.000000
_cell_volume 1255.442894
_symmetry_space_group_name_H-M "P 21/C"
_symmetry_group_IT_number 14
_symmetry_cell_setting 'monoclinic'
loop_
_space_group_symop_operation_xyz
x,y,z
-x,1/2+y,1/2-z
-x,-y,-z
x,1/2-y,1/2+z
loop_
_atom_site_type_symbol
_atom_site_label
_atom_site_fract_x
_atom_site_fract_y
_atom_site_fract_z
Si Si1 0.457383 0.229708 0.841854
Si Si2 0.899158 0.412844 0.544646
Si Si3 0.907313 0.138157 0.577966
Si Si4 0.231073 0.506924 0.292247
Si Si5 0.502398 0.556520 0.216320
Si Si6 0.753497 0.936396 0.522864
Si Si7 0.858169 0.236538 0.586039
Si Si8 0.672718 0.863002 0.086536
O O1 0.388647 0.239612 0.512739
O O2 0.418685 0.181564 0.906976
O O3 0.669434 0.238815 0.975749
O O4 0.829440 0.388058 0.252336
O O5 0.818956 0.460301 0.530474
O O6 0.107955 0.423056 0.660550
O O7 0.890474 0.384858 0.794860
O O8 0.826129 0.185956 0.515074
O O9 0.117885 0.145308 0.806774
O O10 0.311620 0.539640 0.150862
O O11 0.371606 0.472544 0.511049
O O12 0.130514 0.470055 0.052299
O O13 0.574163 0.545579 0.002083
O O14 0.552342 0.606862 0.313157
O O15 0.693117 0.894058 0.336824
O O16 0.953443 0.255975 0.420166
#
# Coordination Sequence:
#
# PCOD9246460 Si02
#       8
#     4   4   4   4   4   4   4   4
#     4  10  24  41  65  95 125 162 211 264 325 393
#     4  11  24  42  66  97 130 176 217 267 322 386
#     4  11  24  42  66  94 132 168 217 266 329 387
#     4  10  23  37  61  98 128 176 222 273 320 375
#     4  10  21  41  63  89 136 170 224 268 326 377
#     4  10  21  41  64  91 129 175 220 270 320 384
#     4  10  22  43  65  91 128 164 204 269 325 387
#     4  10  23  41  63  94 125 173 217 265 323 395
#
# _framework density 25.489015999999999
#
# number of rings (size 3 to 8) (size 9 to 14) (size 15 to 20)
#    0.000    1.750    1.250    1.500    3.500    5.500 
#    2.250    0.000    0.000    0.000    0.000    0.000 
#    0.000    0.000    0.000    0.000    0.000    0.000 
#
# Total GULP energy -178654.439073 kJ/mol
# GULP energy per Si atom -5582.951221 kJ/mol
# Density = 2.543100 g / cm^3
# Si number density = 25.489016 Si / 1000 Ang^3
#
#
#
# Elastic Constant Matrix: (Units=GPa)
#
#
# Indices 1 2 3 4 5 6 
#
# 1 45.0414 23.6208 18.3793 0.0000 -20.9449 0.0000
# 2 23.6208 139.0124 17.8130 0.0000 -2.1085 0.0000
# 3 18.3793 17.8130 88.9804 0.0000 -21.5017 0.0000
# 4 0.0000 0.0000 0.0000 29.8072 0.0000 -6.3740
# 5 -20.9449 -2.1085 -21.5017 0.0000 33.8140 0.0000
# 6 0.0000 0.0000 0.0000 -6.3740 0.0000 41.7567
#
#
#
# Elastic Compliance Matrix: (Units=1/GPa)
#
#
# Indices 1 2 3 4 5 6 
#
# 1 0.035208 -0.005520 -0.001159 0.000000 0.020727 0.000000
# 2 -0.005520 0.008258 -0.001435 0.000000 -0.003817 0.000000
# 3 -0.001159 -0.001435 0.013671 0.000000 0.007886 0.000000
# 4 0.000000 0.000000 0.000000 0.034681 0.000000 0.005294
# 5 0.020727 -0.003817 0.007886 0.000000 0.047189 0.000000
# 6 0.000000 0.000000 0.000000 0.005294 0.000000 0.024756
#
#
# Mechanical properties :
#
#
# Convention : Reuss Voigt Hill
#
# Bulk Modulus (GPa) = 24.44464 43.62893 34.03679
# Shear Modulus (GPa) = 25.82309 35.29032 30.55670
#
# Velocity S-wave (km/s) = 3.18639 3.72496 3.46615
# Velocity P-wave (km/s) = 4.81129 5.97113 5.42231
#
# Compressibility (1/GPa) = 0.04090876
#
# Stress axis : x y z
#
# Youngs Moduli (GPa) = 28.40287 121.10184 73.14947
#
# Poissons Ratio (x) = 0.66843 0.08476
# Poissons Ratio (y) = 0.15677 0.10499
# Poissons Ratio (z) = 0.03291 0.17381
#
# Static dielectric constant tensor:
#      x y z
#    x 2.114990 0.000000 0.039480 
#    y 0.000000 1.958410 0.000000 
#    z 0.039480 0.000000 2.125100 
# 
# From -- ./inp_files/2259.got.cif
#   From: 2010.05.17/outbox.cif.g08.bks.cpg/sg14_2_cif.got.tgz:2259.got - 2010.06.03 17:49:19.
