data_PCOD9246301
_publ_section_title
;
Structure prediction by ZEFSAII (Michael W. Deem and Ramdas Pophale) SiO2 
 PCOD9246301
Probable space group: P 21/C
;
_chemical_formula_sum "Si O2"
_cell_formula_units_Z 28
_cell_length_a 9.406406
_cell_length_b 19.839086
_cell_length_c 15.607756
_cell_angle_alpha 90.000000
_cell_angle_beta 156.381009
_cell_angle_gamma 90.000000
_cell_volume 1166.954622
_symmetry_space_group_name_H-M "P 21/C"
_symmetry_group_IT_number 14
_symmetry_cell_setting 'monoclinic'
loop_
_space_group_symop_operation_xyz
x,y,z
-x,1/2+y,1/2-z
-x,-y,-z
x,1/2-y,1/2+z
loop_
_atom_site_type_symbol
_atom_site_label
_atom_site_fract_x
_atom_site_fract_y
_atom_site_fract_z
Si Si1 0.854948 0.211920 0.900557
Si Si2 0.420160 0.652139 0.278372
Si Si3 0.276588 0.444498 0.827227
Si Si4 0.706436 0.670585 0.618457
Si Si5 0.437279 0.601533 0.632859
Si Si6 0.575787 0.518062 0.273430
Si Si7 0.529229 0.186152 0.540957
O O1 0.866883 0.293413 0.914867
O O2 0.742923 0.166008 0.919307
O O3 0.580952 0.199948 0.670130
O O4 0.223541 0.183458 0.068247
O O5 0.441581 0.653956 0.393357
O O6 0.444132 0.574713 0.265578
O O7 0.477954 0.446036 0.847440
O O8 0.859670 0.447685 0.574957
O O9 0.500000 0.500000 0.000000
O O10 0.290880 0.376981 0.889736
O O11 0.669112 0.627025 0.682458
O O12 0.621924 0.748645 0.589749
O O13 0.092311 0.667508 0.789979
O O14 0.594524 0.553444 0.794050
O O15 0.000000 0.500000 0.500000
#
# Coordination Sequence:
#
# PCOD9246301 Si02
#       7
#     4   4   4   4   4   4   4
#     4  10  21  40  67  94 126 172 216 270 319 394
#     4  10  21  41  66  94 128 171 217 266 329 389
#     4  11  23  39  68  95 129 173 218 266 324 405
#     4  10  23  39  68  95 130 168 213 277 322 388
#     4  11  23  41  68  94 129 173 222 270 330 389
#     4  10  21  41  66  93 127 178 218 262 330 397
#     4  10  22  42  63  96 129 170 220 264 334 390
#
# _framework density 23.994077000000001
#
# number of rings (size 3 to 8) (size 9 to 14) (size 15 to 20)
#    0.000    1.714    2.857    1.714    8.000    2.857 
#    0.000    0.714    0.000    0.000    0.000    0.000 
#    0.000    0.000    0.000    0.000    0.000    0.000 
#
# Total GULP energy -156332.228700 kJ/mol
# GULP energy per Si atom -5583.293882 kJ/mol
# Density = 2.393947 g / cm^3
# Si number density = 23.994077 Si / 1000 Ang^3
#
#
#
# Elastic Constant Matrix: (Units=GPa)
#
#
# Indices 1 2 3 4 5 6 
#
# 1 97.4528 34.4118 4.8716 0.0000 2.2679 0.0000
# 2 34.4118 102.3279 1.9136 0.0000 -4.0819 0.0000
# 3 4.8716 1.9136 45.7320 0.0000 3.8958 0.0000
# 4 0.0000 0.0000 0.0000 31.8992 0.0000 -6.4807
# 5 2.2679 -4.0819 3.8958 0.0000 18.0523 0.0000
# 6 0.0000 0.0000 0.0000 -6.4807 0.0000 49.3485
#
#
#
# Elastic Compliance Matrix: (Units=1/GPa)
#
#
# Indices 1 2 3 4 5 6 
#
# 1 0.011782 -0.004033 -0.000899 0.000000 -0.002198 0.000000
# 2 -0.004033 0.011259 -0.000307 0.000000 0.003119 0.000000
# 3 -0.000899 -0.000307 0.022383 0.000000 -0.004787 0.000000
# 4 0.000000 0.000000 0.000000 0.032208 0.000000 0.004230
# 5 -0.002198 0.003119 -0.004787 0.000000 0.057409 0.000000
# 6 0.000000 0.000000 0.000000 0.004230 0.000000 0.020819
#
#
# Mechanical properties :
#
#
# Convention : Reuss Voigt Hill
#
# Bulk Modulus (GPa) = 28.61630 36.43409 32.52519
# Shear Modulus (GPa) = 28.09205 33.48106 30.78656
#
# Velocity S-wave (km/s) = 3.42539 3.73954 3.58591
# Velocity P-wave (km/s) = 5.25326 5.81921 5.54346
#
# Compressibility (1/GPa) = 0.03494512
#
# Stress axis : x y z
#
# Youngs Moduli (GPa) = 84.87860 88.81878 44.67692
#
# Poissons Ratio (x) = 0.35820 0.04017
# Poissons Ratio (y) = 0.34230 0.01372
# Poissons Ratio (z) = 0.07631 0.02728
#
# Static dielectric constant tensor:
#      x y z
#    x 1.890200 0.000000 -0.032200 
#    y 0.000000 1.964500 0.000000 
#    z -0.032200 0.000000 2.030690 
# 
# From -- ./inp_files/16827.got.cif
#   From: 2010.05.17/outbox.cif.g08.bks.cpg/sg14_9_cif.got.tgz:16827.got - 2010.06.03 17:49:19.
