data_PCOD9246528
_publ_section_title
;
Structure prediction by ZEFSAII (Michael W. Deem and Ramdas Pophale) SiO2 
 PCOD9246528
Probable space group: P 21/C
;
_chemical_formula_sum "Si O2"
_cell_formula_units_Z 32
_cell_length_a 15.109843
_cell_length_b 15.397618
_cell_length_c 21.777356
_cell_angle_alpha 90.000000
_cell_angle_beta 19.238037
_cell_angle_gamma 90.000000
_cell_volume 1669.419642
_symmetry_space_group_name_H-M "P 21/C"
_symmetry_group_IT_number 14
_symmetry_cell_setting 'monoclinic'
loop_
_space_group_symop_operation_xyz
x,y,z
-x,1/2+y,1/2-z
-x,-y,-z
x,1/2-y,1/2+z
loop_
_atom_site_type_symbol
_atom_site_label
_atom_site_fract_x
_atom_site_fract_y
_atom_site_fract_z
Si Si1 0.408947 0.511061 0.958171
Si Si2 0.782827 0.400212 0.204160
Si Si3 0.793090 0.599171 0.176256
Si Si4 0.064573 0.989669 0.808961
Si Si5 0.671285 0.673930 0.576759
Si Si6 0.076262 0.146609 0.629025
Si Si7 0.209362 0.836372 0.053875
Si Si8 0.264010 0.656270 0.955575
O O1 0.709612 0.499636 0.786561
O O2 0.368360 0.593393 0.940813
O O3 0.220634 0.521238 0.141784
O O4 0.305101 0.425698 0.990270
O O5 0.710618 0.498390 0.232670
O O6 0.541233 0.340735 0.339342
O O7 0.853862 0.391786 0.228553
O O8 0.051944 0.380659 0.988594
O O9 0.526817 0.654661 0.357709
O O10 0.013789 0.612805 0.084353
O O11 0.893398 0.078247 0.914881
O O12 0.879191 0.905966 0.940736
O O13 0.814034 0.765365 0.472616
O O14 0.497144 0.670933 0.752852
O O15 0.946361 0.166193 0.779873
O O16 0.166698 0.748129 0.045128
#
# Coordination Sequence:
#
# PCOD9246528 Si02
#       8
#     4   4   4   4   4   4   4   4
#     4  10  23  43  63  89 125 163 205 253 307 367
#     4  10  21  41  65  90 122 158 204 257 307 364
#     4  10  21  41  65  90 122 158 204 257 307 364
#     4  10  23  43  63  89 125 163 205 253 307 367
#     4  11  24  41  64  92 124 162 205 255 307 365
#     4  11  24  40  63  92 125 163 205 254 306 366
#     4  11  24  40  63  92 125 163 205 254 306 366
#     4  11  24  41  64  92 124 162 205 255 307 365
#
# _framework density 19.168337000000001
#
# number of rings (size 3 to 8) (size 9 to 14) (size 15 to 20)
#    0.000    1.500    2.500    1.500    3.500    4.000 
#    0.000    0.000    0.000    0.000    0.000    0.000 
#    0.000    0.000    0.000    0.000    0.000    0.000 
#
# Total GULP energy -178834.053657 kJ/mol
# GULP energy per Si atom -5588.564177 kJ/mol
# Density = 1.912471 g / cm^3
# Si number density = 19.168337 Si / 1000 Ang^3
#
#
#
# Elastic Constant Matrix: (Units=GPa)
#
#
# Indices 1 2 3 4 5 6 
#
# 1 84.6574 21.2218 5.9254 0.0000 0.9798 0.0000
# 2 21.2218 84.1289 18.6281 0.0000 5.8454 0.0000
# 3 5.9254 18.6281 35.2142 0.0000 -1.2645 0.0000
# 4 0.0000 0.0000 0.0000 21.0624 0.0000 -2.6398
# 5 0.9798 5.8454 -1.2645 0.0000 8.9430 0.0000
# 6 0.0000 0.0000 0.0000 -2.6398 0.0000 23.5927
#
#
#
# Elastic Compliance Matrix: (Units=1/GPa)
#
#
# Indices 1 2 3 4 5 6 
#
# 1 0.012620 -0.003126 -0.000449 0.000000 0.000597 0.000000
# 2 -0.003126 0.015162 -0.007878 0.000000 -0.010681 0.000000
# 3 -0.000449 -0.007878 0.032995 0.000000 0.009864 0.000000
# 4 0.000000 0.000000 0.000000 0.048153 0.000000 0.005388
# 5 0.000597 -0.010681 0.009864 0.000000 0.120129 0.000000
# 6 0.000000 0.000000 0.000000 0.005388 0.000000 0.042989
#
#
# Mechanical properties :
#
#
# Convention : Reuss Voigt Hill
#
# Bulk Modulus (GPa) = 26.40475 32.83902 29.62189
# Shear Modulus (GPa) = 16.25610 21.26797 18.76204
#
# Velocity S-wave (km/s) = 2.91532 3.33458 3.13198
# Velocity P-wave (km/s) = 5.01371 5.65642 5.34473
#
# Compressibility (1/GPa) = 0.03787197
#
# Stress axis : x y z
#
# Youngs Moduli (GPa) = 79.23712 65.95649 30.30786
#
# Poissons Ratio (x) = 0.20616 0.01360
# Poissons Ratio (y) = 0.24767 0.23876
# Poissons Ratio (z) = 0.03555 0.51960
#
# Static dielectric constant tensor:
#      x y z
#    x 1.642840 0.000000 0.008140 
#    y 0.000000 1.637830 0.000000 
#    z 0.008140 0.000000 1.644650 
# 
# From -- ./inp_files/68644.got.cif
#   From: 2010.05.17/outbox.cif.g08.bks.cpg/sg14_35_cif.got.tgz:68644.got - 2010.06.03 17:49:19.
