data_PCOD9246490
_publ_section_title
;
Structure prediction by ZEFSAII (Michael W. Deem and Ramdas Pophale) SiO2 
 PCOD9246490
Probable space group: P 21/C
;
_chemical_formula_sum "Si O2"
_cell_formula_units_Z 24
_cell_length_a 14.702770
_cell_length_b 8.004874
_cell_length_c 14.964545
_cell_angle_alpha 90.000000
_cell_angle_beta 140.174694
_cell_angle_gamma 90.000000
_cell_volume 1127.980807
_symmetry_space_group_name_H-M "P 21/C"
_symmetry_group_IT_number 14
_symmetry_cell_setting 'monoclinic'
loop_
_space_group_symop_operation_xyz
x,y,z
-x,1/2+y,1/2-z
-x,-y,-z
x,1/2-y,1/2+z
loop_
_atom_site_type_symbol
_atom_site_label
_atom_site_fract_x
_atom_site_fract_y
_atom_site_fract_z
Si Si1 0.911533 0.653088 0.129070
Si Si2 0.414918 0.847379 0.893455
Si Si3 0.406850 0.311699 0.128392
Si Si4 0.907573 0.158733 0.397932
Si Si5 0.124950 0.743789 0.934574
Si Si6 0.575217 0.303100 0.913466
O O1 0.891077 0.456310 0.093532
O O2 0.007323 0.729531 0.122134
O O3 0.999136 0.671539 0.285488
O O4 0.756425 0.733786 0.013630
O O5 0.488092 0.789527 0.857091
O O6 0.250565 0.889831 0.752118
O O7 0.426240 0.710231 0.980947
O O8 0.500000 0.000000 0.000000
O O9 0.423909 0.505458 0.116441
O O10 0.447768 0.282385 0.262428
O O11 0.887483 0.273966 0.469400
O O12 0.000000 0.000000 0.500000
O O13 0.279808 0.784463 0.012170
#
# Coordination Sequence:
#
# PCOD9246490 Si02
#       6
#     4   4   4   4   4   4
#     4  10  23  39  65  91 125 165 209 260 319 381
#     4  12  25  41  69  95 128 176 217 266 327 379
#     4  11  25  42  64  98 130 169 217 266 320 383
#     4  10  22  41  64  91 127 165 213 258 316 386
#     4  10  21  41  64  90 126 165 210 263 318 379
#     4  11  23  42  65  93 134 168 215 266 321 383
#
# _framework density 21.276958
#
# number of rings (size 3 to 8) (size 9 to 14) (size 15 to 20)
#    0.000    1.333    3.333    1.500    9.333    1.333 
#    0.000    0.833    0.000    0.000    0.000    0.000 
#    0.000    0.000    0.000    0.000    0.000    0.000 
#
# Total GULP energy -134140.735207 kJ/mol
# GULP energy per Si atom -5589.197300 kJ/mol
# Density = 2.122853 g / cm^3
# Si number density = 21.276958 Si / 1000 Ang^3
#
#
#
# Elastic Constant Matrix: (Units=GPa)
#
#
# Indices 1 2 3 4 5 6 
#
# 1 78.1842 5.8868 27.4720 0.0000 3.4399 0.0000
# 2 5.8868 25.0916 13.6886 0.0000 8.2405 0.0000
# 3 27.4720 13.6886 145.0614 0.0000 8.3073 0.0000
# 4 0.0000 0.0000 0.0000 25.4085 0.0000 -6.4775
# 5 3.4399 8.2405 8.3073 0.0000 45.5239 0.0000
# 6 0.0000 0.0000 0.0000 -6.4775 0.0000 15.9579
#
#
#
# Elastic Compliance Matrix: (Units=1/GPa)
#
#
# Indices 1 2 3 4 5 6 
#
# 1 0.013791 -0.001825 -0.002424 0.000000 -0.000269 0.000000
# 2 -0.001825 0.044557 -0.003441 0.000000 -0.007300 0.000000
# 3 -0.002424 -0.003441 0.007712 0.000000 -0.000601 0.000000
# 4 0.000000 0.000000 0.000000 0.043900 0.000000 0.017820
# 5 -0.000269 -0.007300 -0.000601 0.000000 0.023418 0.000000
# 6 0.000000 0.000000 0.000000 0.017820 0.000000 0.069898
#
#
# Mechanical properties :
#
#
# Convention : Reuss Voigt Hill
#
# Bulk Modulus (GPa) = 19.73160 38.04801 28.88981
# Shear Modulus (GPa) = 21.22705 30.79738 26.01221
#
# Velocity S-wave (km/s) = 3.16199 3.80867 3.50030
# Velocity P-wave (km/s) = 4.75655 6.10429 5.47207
#
# Compressibility (1/GPa) = 0.05068013
#
# Stress axis : x y z
#
# Youngs Moduli (GPa) = 72.50916 22.44340 129.67018
#
# Poissons Ratio (x) = 0.04095 0.31435
# Poissons Ratio (y) = 0.13230 0.44619
# Poissons Ratio (z) = 0.17578 0.07723
#
# Static dielectric constant tensor:
#      x y z
#    x 1.799040 0.000000 -0.012430 
#    y 0.000000 1.778110 0.000000 
#    z -0.012430 0.000000 1.770740 
# 
# From -- ./inp_files/46343.got.cif
#   From: 2010.05.17/outbox.cif.g08.bks.cpg/sg14_24_cif.got.tgz:46343.got - 2010.06.03 17:49:19.
