data_PCOD9246066
_publ_section_title
;
Structure prediction by ZEFSAII (Michael W. Deem and Ramdas Pophale) SiO2 
 PCOD9246066
Probable space group: P 21/C
;
_chemical_formula_sum "Si O2"
_cell_formula_units_Z 32
_cell_length_a 9.325494
_cell_length_b 18.921572
_cell_length_c 11.019017
_cell_angle_alpha 90.000000
_cell_angle_beta 136.855499
_cell_angle_gamma 90.000000
_cell_volume 1329.617875
_symmetry_space_group_name_H-M "P 21/C"
_symmetry_group_IT_number 14
_symmetry_cell_setting 'monoclinic'
loop_
_space_group_symop_operation_xyz
x,y,z
-x,1/2+y,1/2-z
-x,-y,-z
x,1/2-y,1/2+z
loop_
_atom_site_type_symbol
_atom_site_label
_atom_site_fract_x
_atom_site_fract_y
_atom_site_fract_z
Si Si1 0.225228 0.125068 0.683010
Si Si2 0.426388 0.785411 0.203052
Si Si3 0.320361 0.960601 0.737066
Si Si4 0.887848 0.093394 0.639064
Si Si5 0.938731 0.152392 0.282147
Si Si6 0.634891 0.285976 0.072243
Si Si7 0.038111 0.881594 0.964998
Si Si8 0.802593 0.530317 0.498716
O O1 0.453677 0.155543 0.802323
O O2 0.079087 0.142880 0.707520
O O3 0.100765 0.154497 0.491082
O O4 0.238016 0.040533 0.692027
O O5 0.501012 0.775300 0.388577
O O6 0.443416 0.721977 0.116510
O O7 0.190024 0.814531 0.077825
O O8 0.240759 0.932662 0.556889
O O9 0.221906 0.909472 0.776660
O O10 0.569945 0.960740 0.904206
O O11 0.010045 0.033604 0.787879
O O12 0.738877 0.136978 0.635322
O O13 0.808251 0.224082 0.188689
O O14 0.044823 0.131813 0.221481
O O15 0.177294 0.953849 0.051346
O O16 0.856124 0.903291 0.944584
#
# Coordination Sequence:
#
# PCOD9246066 Si02
#       8
#     4   4   4   4   4   4   4   4
#     4  11  23  42  68 103 133 173 226 287 353 405
#     4  11  23  44  69  96 137 177 229 285 338 411
#     4  11  23  42  70 106 133 175 228 283 350 416
#     4  11  24  43  66  99 136 179 226 282 337 418
#     4  10  23  43  66  92 137 173 225 279 335 407
#     4  11  25  47  65  94 141 184 233 282 332 417
#     4  10  21  40  61  99 129 170 214 280 337 404
#     4  11  22  39  69  96 136 171 218 276 353 398
#
# _framework density 24.067067000000002
#
# number of rings (size 3 to 8) (size 9 to 14) (size 15 to 20)
#    0.000    1.250    2.500    4.500    3.500    3.000 
#    2.250    2.500    0.000    0.000    0.000    0.000 
#    0.000    0.000    0.000    0.000    0.000    0.000 
#
# Total GULP energy -178776.213349 kJ/mol
# GULP energy per Si atom -5586.756667 kJ/mol
# Density = 2.401229 g / cm^3
# Si number density = 24.067067 Si / 1000 Ang^3
#
#
#
# Elastic Constant Matrix: (Units=GPa)
#
#
# Indices 1 2 3 4 5 6 
#
# 1 56.6183 -1.9343 11.3528 0.0000 -23.4292 0.0000
# 2 -1.9343 57.6710 7.1094 0.0000 3.0346 0.0000
# 3 11.3528 7.1094 54.1185 0.0000 -14.5540 0.0000
# 4 0.0000 0.0000 0.0000 23.9366 0.0000 -4.8826
# 5 -23.4292 3.0346 -14.5540 0.0000 37.0637 0.0000
# 6 0.0000 0.0000 0.0000 -4.8826 0.0000 38.4182
#
#
#
# Elastic Compliance Matrix: (Units=1/GPa)
#
#
# Indices 1 2 3 4 5 6 
#
# 1 0.023975 0.000165 -0.001095 0.000000 0.014712 0.000000
# 2 0.000165 0.017859 -0.003070 0.000000 -0.002563 0.000000
# 3 -0.001095 -0.003070 0.021235 0.000000 0.007898 0.000000
# 4 0.000000 0.000000 0.000000 0.042889 0.000000 0.005451
# 5 0.014712 -0.002563 0.007898 0.000000 0.039592 0.000000
# 6 0.000000 0.000000 0.000000 0.005451 0.000000 0.026722
#
#
# Mechanical properties :
#
#
# Convention : Reuss Voigt Hill
#
# Bulk Modulus (GPa) = 18.15887 22.38484 20.27185
# Shear Modulus (GPa) = 25.17275 30.00904 27.59089
#
# Velocity S-wave (km/s) = 3.23761 3.53497 3.38955
# Velocity P-wave (km/s) = 4.64087 5.09731 4.87443
#
# Compressibility (1/GPa) = 0.05506951
#
# Stress axis : x y z
#
# Youngs Moduli (GPa) = 41.70948 55.99544 47.09246
#
# Poissons Ratio (x) = -0.00923 0.05154
# Poissons Ratio (y) = -0.00688 0.14457
# Poissons Ratio (z) = 0.04565 0.17191
#
# Static dielectric constant tensor:
#      x y z
#    x 1.926980 0.000000 -0.047470 
#    y 0.000000 1.923950 0.000000 
#    z -0.047470 0.000000 1.980060 
# 
# From -- ./inp_files/26798.got.cif
#   From: 2010.05.17/outbox.cif.g08.bks.cpg/sg14_14_cif.got.tgz:26798.got - 2010.06.03 17:49:19.
