data_PCOD9246737
_publ_section_title
;
Structure prediction by ZEFSAII (Michael W. Deem and Ramdas Pophale) SiO2 
 PCOD9246737
Probable space group: P 21/C
;
_chemical_formula_sum "Si O2"
_cell_formula_units_Z 32
_cell_length_a 9.808562
_cell_length_b 14.098448
_cell_length_c 9.315037
_cell_angle_alpha 90.000000
_cell_angle_beta 83.024446
_cell_angle_gamma 90.000000
_cell_volume 1278.599865
_symmetry_space_group_name_H-M "P 21/C"
_symmetry_group_IT_number 14
_symmetry_cell_setting 'monoclinic'
loop_
_space_group_symop_operation_xyz
x,y,z
-x,1/2+y,1/2-z
-x,-y,-z
x,1/2-y,1/2+z
loop_
_atom_site_type_symbol
_atom_site_label
_atom_site_fract_x
_atom_site_fract_y
_atom_site_fract_z
Si Si1 0.860776 0.812457 0.215811
Si Si2 0.629622 0.423744 0.158520
Si Si3 0.453168 0.736116 0.995161
Si Si4 0.859030 0.062436 0.444985
Si Si5 0.799946 0.016887 0.140738
Si Si6 0.119552 0.355766 0.967548
Si Si7 0.495737 0.884578 0.772699
Si Si8 0.179177 0.655371 0.615044
O O1 0.804104 0.903022 0.135994
O O2 0.824668 0.826413 0.385888
O O3 0.027785 0.813091 0.183421
O O4 0.818062 0.711251 0.159094
O O5 0.587534 0.526366 0.216100
O O6 0.736566 0.382404 0.258817
O O7 0.519901 0.343135 0.133085
O O8 0.698844 0.425044 0.992309
O O9 0.493909 0.691005 0.142058
O O10 0.292234 0.772310 0.030933
O O11 0.524901 0.830011 0.918966
O O12 0.953352 0.147934 0.484800
O O13 0.885033 0.041997 0.274954
O O14 0.873123 0.968960 0.543306
O O15 0.651302 0.063673 0.184712
O O16 0.850959 0.070751 0.993708
#
# Coordination Sequence:
#
# PCOD9246737 Si02
#       8
#     4   4   4   4   4   4   4   4
#     4  11  23  40  64  99 127 175 214 269 328 393
#     4  12  23  44  68  96 132 173 223 271 334 385
#     4  11  23  43  66 101 126 173 225 266 333 388
#     4  10  21  42  62  93 129 178 212 264 328 398
#     4  10  24  41  64  93 135 164 216 267 331 380
#     4  10  23  38  62  93 136 167 217 266 329 390
#     4  11  25  45  71  97 132 173 217 282 324 404
#     4  11  24  40  68  97 129 170 222 277 316 393
#
# _framework density 25.027377000000001
#
# number of rings (size 3 to 8) (size 9 to 14) (size 15 to 20)
#    0.000    1.250    3.750    1.500    1.750    3.000 
#    2.250    0.000    0.000    0.000    0.000    0.000 
#    0.000    0.000    0.000    0.000    0.000    0.000 
#
# Total GULP energy -178635.977397 kJ/mol
# GULP energy per Si atom -5582.374294 kJ/mol
# Density = 2.497041 g / cm^3
# Si number density = 25.027377 Si / 1000 Ang^3
#
#
#
# Elastic Constant Matrix: (Units=GPa)
#
#
# Indices 1 2 3 4 5 6 
#
# 1 50.5195 11.6072 6.6451 0.0000 1.2075 0.0000
# 2 11.6072 125.2347 24.5694 0.0000 1.4342 0.0000
# 3 6.6451 24.5694 53.2583 0.0000 0.5316 0.0000
# 4 0.0000 0.0000 0.0000 42.9762 0.0000 -3.4768
# 5 1.2075 1.4342 0.5316 0.0000 18.0337 0.0000
# 6 0.0000 0.0000 0.0000 -3.4768 0.0000 31.0580
#
#
#
# Elastic Compliance Matrix: (Units=1/GPa)
#
#
# Indices 1 2 3 4 5 6 
#
# 1 0.020413 -0.001518 -0.001835 0.000000 -0.001192 0.000000
# 2 -0.001518 0.008899 -0.003911 0.000000 -0.000491 0.000000
# 3 -0.001835 -0.003911 0.020811 0.000000 -0.000180 0.000000
# 4 0.000000 0.000000 0.000000 0.023481 0.000000 0.002629
# 5 -0.001192 -0.000491 -0.000180 0.000000 0.055576 0.000000
# 6 0.000000 0.000000 0.000000 0.002629 0.000000 0.032492
#
#
# Mechanical properties :
#
#
# Convention : Reuss Voigt Hill
#
# Bulk Modulus (GPa) = 28.09358 34.96178 31.52768
# Shear Modulus (GPa) = 26.58659 30.82631 28.70645
#
# Velocity S-wave (km/s) = 3.26283 3.51337 3.39042
# Velocity P-wave (km/s) = 5.04423 5.51889 5.28689
#
# Compressibility (1/GPa) = 0.03559532
#
# Stress axis : x y z
#
# Youngs Moduli (GPa) = 48.98839 112.37722 48.05089
#
# Poissons Ratio (x) = 0.17063 0.08815
# Poissons Ratio (y) = 0.07438 0.18792
# Poissons Ratio (z) = 0.08987 0.43948
#
# Static dielectric constant tensor:
#      x y z
#    x 2.267830 0.000000 -0.025300 
#    y 0.000000 2.042270 0.000000 
#    z -0.025300 0.000000 1.927960 
# 
# From -- ./inp_files/13343.got.cif
#   From: 2010.05.17/outbox.cif.g08.bks.cpg/sg14_7_cif.got.tgz:13343.got - 2010.06.03 17:49:19.
