data_PCOD9247172
_publ_section_title
;
Structure prediction by ZEFSAII (Michael W. Deem and Ramdas Pophale) SiO2 
 PCOD9247172
Probable space group: P 21/C
;
_chemical_formula_sum "Si O2"
_cell_formula_units_Z 24
_cell_length_a 17.591833
_cell_length_b 5.667199
_cell_length_c 10.584546
_cell_angle_alpha 90.000000
_cell_angle_beta 65.117198
_cell_angle_gamma 90.000000
_cell_volume 957.283646
_symmetry_space_group_name_H-M "P 21/C"
_symmetry_group_IT_number 14
_symmetry_cell_setting 'monoclinic'
loop_
_space_group_symop_operation_xyz
x,y,z
-x,1/2+y,1/2-z
-x,-y,-z
x,1/2-y,1/2+z
loop_
_atom_site_type_symbol
_atom_site_label
_atom_site_fract_x
_atom_site_fract_y
_atom_site_fract_z
Si Si1 0.904400 0.090406 0.063695
Si Si2 0.555983 0.342335 0.051689
Si Si3 0.050104 0.876333 0.699812
Si Si4 0.387820 0.203400 0.291030
Si Si5 0.747954 0.447122 0.558399
Si Si6 0.705902 0.097923 0.812090
O O1 0.833542 0.928445 0.046818
O O2 0.887805 0.106661 0.224223
O O3 0.910853 0.316120 0.964587
O O4 0.000000 0.000000 0.000000
O O5 0.484201 0.211369 0.181762
O O6 0.612918 0.499313 0.104026
O O7 0.500000 0.500000 0.000000
O O8 0.616911 0.206307 0.916279
O O9 0.997941 0.630755 0.768168
O O10 0.344263 0.434341 0.376374
O O11 0.324164 0.151951 0.220909
O O12 0.742156 0.243108 0.668741
O O13 0.759062 0.406056 0.402003
#
# Coordination Sequence:
#
# PCOD9247172 Si02
#       6
#     4   4   4   4   4   4
#     4  10  23  47  70 106 140 191 245 296 369 439
#     4  12  22  43  70  98 139 185 236 285 354 441
#     4  10  21  44  73 106 142 183 245 306 367 442
#     4  12  25  45  70 104 140 189 236 294 365 426
#     4  12  26  47  71 104 146 187 239 302 361 429
#     4  12  25  47  68 104 144 184 238 296 361 432
#
# _framework density 25.07094
#
# number of rings (size 3 to 8) (size 9 to 14) (size 15 to 20)
#    0.000    0.667    3.333    5.000    0.000    0.000 
#   24.000    0.000    0.000    0.000    0.000    0.000 
#    0.000    0.000    0.000    0.000    0.000    0.000 
#
# Total GULP energy -133900.662099 kJ/mol
# GULP energy per Si atom -5579.194254 kJ/mol
# Density = 2.501388 g / cm^3
# Si number density = 25.070940 Si / 1000 Ang^3
#
#
#
# Elastic Constant Matrix: (Units=GPa)
#
#
# Indices 1 2 3 4 5 6 
#
# 1 146.8259 8.9522 37.4809 0.0000 23.3757 0.0000
# 2 8.9522 49.6683 12.4434 0.0000 3.0801 0.0000
# 3 37.4809 12.4434 75.5057 0.0000 24.3902 0.0000
# 4 0.0000 0.0000 0.0000 30.8336 0.0000 -3.4864
# 5 23.3757 3.0801 24.3902 0.0000 69.1893 0.0000
# 6 0.0000 0.0000 0.0000 -3.4864 0.0000 23.0693
#
#
#
# Elastic Compliance Matrix: (Units=1/GPa)
#
#
# Indices 1 2 3 4 5 6 
#
# 1 0.007939 -0.000492 -0.003386 0.000000 -0.001467 0.000000
# 2 -0.000492 0.021037 -0.003356 0.000000 0.000413 0.000000
# 3 -0.003386 -0.003356 0.016995 0.000000 -0.004698 0.000000
# 4 0.000000 0.000000 0.000000 0.032996 0.000000 0.004987
# 5 -0.001467 0.000413 -0.004698 0.000000 0.016586 0.000000
# 6 0.000000 0.000000 0.000000 0.004987 0.000000 0.044101
#
#
# Mechanical properties :
#
#
# Convention : Reuss Voigt Hill
#
# Bulk Modulus (GPa) = 31.74223 43.30589 37.52406
# Shear Modulus (GPa) = 30.37225 38.82666 34.59945
#
# Velocity S-wave (km/s) = 3.48437 3.93959 3.71895
# Velocity P-wave (km/s) = 5.37366 6.16479 5.78277
#
# Compressibility (1/GPa) = 0.03150377
#
# Stress axis : x y z
#
# Youngs Moduli (GPa) = 125.96681 47.53436 58.83936
#
# Poissons Ratio (x) = 0.02337 0.19923
# Poissons Ratio (y) = 0.06193 0.19748
# Poissons Ratio (z) = 0.42652 0.15954
#
# Static dielectric constant tensor:
#      x y z
#    x 2.086130 0.000000 -0.163770 
#    y 0.000000 2.100240 0.000000 
#    z -0.163770 0.000000 2.279710 
# 
# From -- ./inp_files/33355.got.cif
#   From: 2010.05.17/outbox.cif.g08.bks.cpg/sg14_17_cif.got.tgz:33355.got - 2010.06.03 17:49:19.
