data_PCOD9247940
_publ_section_title
;
Structure prediction by ZEFSAII (Michael W. Deem and Ramdas Pophale) SiO2 
 PCOD9247940
Probable space group: P 21/C
;
_chemical_formula_sum "Si O2"
_cell_formula_units_Z 24
_cell_length_a 11.564362
_cell_length_b 8.792872
_cell_length_c 11.568976
_cell_angle_alpha 90.000000
_cell_angle_beta 56.604974
_cell_angle_gamma 90.000000
_cell_volume 982.153903
_symmetry_space_group_name_H-M "P 21/C"
_symmetry_group_IT_number 14
_symmetry_cell_setting 'monoclinic'
loop_
_space_group_symop_operation_xyz
x,y,z
-x,1/2+y,1/2-z
-x,-y,-z
x,1/2-y,1/2+z
loop_
_atom_site_type_symbol
_atom_site_label
_atom_site_fract_x
_atom_site_fract_y
_atom_site_fract_z
Si Si1 0.002250 0.838856 0.752763
Si Si2 0.632671 0.008712 0.179391
Si Si3 0.462829 0.350684 0.593222
Si Si4 0.269678 0.274657 0.017830
Si Si5 0.682523 0.408536 0.910528
Si Si6 0.927574 0.398335 0.441276
O O1 0.894990 0.747614 0.892511
O O2 0.164722 0.839431 0.694083
O O3 0.003339 0.762945 0.625248
O O4 0.949419 0.008529 0.809447
O O5 0.634808 0.021501 0.314841
O O6 0.661244 0.838836 0.114045
O O7 0.496424 0.085749 0.201454
O O8 0.766287 0.103637 0.060460
O O9 0.500000 0.500000 0.500000
O O10 0.320258 0.294109 0.615021
O O11 0.573608 0.218504 0.506376
O O12 0.302090 0.452539 0.008430
O O13 0.000000 0.500000 0.500000
#
# Coordination Sequence:
#
# PCOD9247940 Si02
#       6
#     4   4   4   4   4   4
#     4  11  21  37  68  98 127 174 220 268 334 394
#     4  10  22  40  67  91 131 172 222 270 333 396
#     4  10  23  42  64  96 133 172 221 278 331 408
#     4  10  23  40  64  97 133 171 224 275 327 401
#     4  12  22  42  70  94 132 181 218 278 341 392
#     4  11  20  39  64  93 132 167 214 274 326 387
#
# _framework density 24.436087000000001
#
# number of rings (size 3 to 8) (size 9 to 14) (size 15 to 20)
#    0.000    1.333    5.000    0.500    0.000    2.667 
#    0.000    4.167   14.667    0.000    0.000    0.000 
#    0.000    0.000    0.000    0.000    0.000    0.000 
#
# Total GULP energy -134033.795682 kJ/mol
# GULP energy per Si atom -5584.741487 kJ/mol
# Density = 2.438047 g / cm^3
# Si number density = 24.436087 Si / 1000 Ang^3
#
#
#
# Elastic Constant Matrix: (Units=GPa)
#
#
# Indices 1 2 3 4 5 6 
#
# 1 96.6536 35.0877 40.2408 0.0000 1.3179 0.0000
# 2 35.0877 137.2418 65.3202 0.0000 -1.3941 0.0000
# 3 40.2408 65.3202 89.0393 0.0000 4.8604 0.0000
# 4 0.0000 0.0000 0.0000 49.8487 0.0000 -5.4175
# 5 1.3179 -1.3941 4.8604 0.0000 38.0868 0.0000
# 6 0.0000 0.0000 0.0000 -5.4175 0.0000 45.6529
#
#
#
# Elastic Compliance Matrix: (Units=1/GPa)
#
#
# Indices 1 2 3 4 5 6 
#
# 1 0.012802 -0.000787 -0.005219 0.000000 0.000194 0.000000
# 2 -0.000787 0.011326 -0.008033 0.000000 0.001467 0.000000
# 3 -0.005219 -0.008033 0.019626 0.000000 -0.002618 0.000000
# 4 0.000000 0.000000 0.000000 0.020323 0.000000 0.002412
# 5 0.000194 0.001467 -0.002618 0.000000 0.026637 0.000000
# 6 0.000000 0.000000 0.000000 0.002412 0.000000 0.022191
#
#
# Mechanical properties :
#
#
# Convention : Reuss Voigt Hill
#
# Bulk Modulus (GPa) = 63.79451 67.13691 65.46571
# Shear Modulus (GPa) = 34.19781 38.87007 36.53394
#
# Velocity S-wave (km/s) = 3.74502 3.99266 3.87082
# Velocity P-wave (km/s) = 6.69803 6.98493 6.84298
#
# Compressibility (1/GPa) = 0.01567533
#
# Stress axis : x y z
#
# Youngs Moduli (GPa) = 78.11146 88.29287 50.95305
#
# Poissons Ratio (x) = 0.06949 0.26593
# Poissons Ratio (y) = 0.06148 0.40932
# Poissons Ratio (z) = 0.40767 0.70928
#
# Static dielectric constant tensor:
#      x y z
#    x 1.946520 0.000000 0.039060 
#    y 0.000000 2.001460 0.000000 
#    z 0.039060 0.000000 1.946880 
# 
# From -- ./inp_files/28051.got.cif
#   From: 2010.05.17/outbox.cif.g08.bks.cpg/sg14_15_cif.got.tgz:28051.got - 2010.06.03 17:49:19.
