data_PCOD9247989
_publ_section_title
;
Structure prediction by ZEFSAII (Michael W. Deem and Ramdas Pophale) SiO2 
 PCOD9247989
Probable space group: P 21/C
;
_chemical_formula_sum "Si O2"
_cell_formula_units_Z 32
_cell_length_a 9.514230
_cell_length_b 9.828350
_cell_length_c 16.653838
_cell_angle_alpha 90.000000
_cell_angle_beta 120.105844
_cell_angle_gamma 90.000000
_cell_volume 1347.209200
_symmetry_space_group_name_H-M "P 21/C"
_symmetry_group_IT_number 14
_symmetry_cell_setting 'monoclinic'
loop_
_space_group_symop_operation_xyz
x,y,z
-x,1/2+y,1/2-z
-x,-y,-z
x,1/2-y,1/2+z
loop_
_atom_site_type_symbol
_atom_site_label
_atom_site_fract_x
_atom_site_fract_y
_atom_site_fract_z
Si Si1 0.527339 0.302641 0.133034
Si Si2 0.816118 0.099392 0.256423
Si Si3 0.384733 0.889606 0.020226
Si Si4 0.946243 0.612344 0.044836
Si Si5 0.085377 0.254555 0.756196
Si Si6 0.229721 0.890923 0.405499
Si Si7 0.623689 0.828366 0.234859
Si Si8 0.772331 0.841945 0.028776
O O1 0.667013 0.190916 0.187776
O O2 0.630815 0.421583 0.120746
O O3 0.445146 0.330609 0.195181
O O4 0.399478 0.234134 0.035790
O O5 0.893904 0.150998 0.360366
O O6 0.969296 0.116135 0.241325
O O7 0.743460 0.954426 0.253326
O O8 0.485372 0.849087 0.128354
O O9 0.304986 0.745624 0.969283
O O10 0.500000 0.000000 0.000000
O O11 0.241154 0.999467 0.992172
O O12 0.809983 0.526502 0.055610
O O13 0.878860 0.755095 0.996465
O O14 0.000000 0.500000 0.000000
O O15 0.244204 0.287764 0.748728
O O16 0.156231 0.194592 0.862011
O O17 0.945989 0.156980 0.678502
#
# Coordination Sequence:
#
# PCOD9247989 Si02
#       8
#     4   4   4   4   4   4   4   4
#     4  11  24  43  68 105 145 180 240 298 361 436
#     4  10  22  45  65  95 143 178 231 294 349 420
#     4  12  22  45  75 104 141 187 237 303 362 426
#     4  11  25  45  73  98 146 192 240 297 365 435
#     4  10  22  40  72  97 133 190 236 281 358 426
#     4  11  24  44  71 104 144 193 240 293 367 436
#     4  12  22  43  74 101 141 188 232 299 364 426
#     4  11  23  43  72 101 141 185 237 294 359 423
#
# _framework density 23.75281
#
# number of rings (size 3 to 8) (size 9 to 14) (size 15 to 20)
#    0.000    1.000    5.000    1.500    1.750    0.500 
#    4.500    0.625    0.000    0.000    0.000    0.000 
#    0.000    0.000    0.000    0.000    0.000    0.000 
#
# Total GULP energy -178246.356607 kJ/mol
# GULP energy per Si atom -5570.198644 kJ/mol
# Density = 2.369875 g / cm^3
# Si number density = 23.752810 Si / 1000 Ang^3
#
#
#
# Elastic Constant Matrix: (Units=GPa)
#
#
# Indices 1 2 3 4 5 6 
#
# 1 123.8076 36.8736 53.9009 0.0000 -5.6634 0.0000
# 2 36.8736 102.9183 23.9241 0.0000 10.7844 0.0000
# 3 53.9009 23.9241 113.6039 0.0000 27.6781 0.0000
# 4 0.0000 0.0000 0.0000 30.1110 0.0000 5.5715
# 5 -5.6634 10.7844 27.6781 0.0000 39.2073 0.0000
# 6 0.0000 0.0000 0.0000 5.5715 0.0000 28.0451
#
#
#
# Elastic Compliance Matrix: (Units=1/GPa)
#
#
# Indices 1 2 3 4 5 6 
#
# 1 0.012650 -0.003698 -0.007145 0.000000 0.007888 0.000000
# 2 -0.003698 0.011377 0.000303 0.000000 -0.003878 0.000000
# 3 -0.007145 0.000303 0.014976 0.000000 -0.011688 0.000000
# 4 0.000000 0.000000 0.000000 0.034478 0.000000 -0.006849
# 5 0.007888 -0.003878 -0.011688 0.000000 0.035962 0.000000
# 6 0.000000 0.000000 0.000000 -0.006849 0.000000 0.037018
#
#
# Mechanical properties :
#
#
# Convention : Reuss Voigt Hill
#
# Bulk Modulus (GPa) = 55.79087 63.30300 59.54694
# Shear Modulus (GPa) = 28.81592 34.51476 31.66534
#
# Velocity S-wave (km/s) = 3.48682 3.81607 3.65515
# Velocity P-wave (km/s) = 6.30473 6.79154 6.55266
#
# Compressibility (1/GPa) = 0.01792408
#
# Stress axis : x y z
#
# Youngs Moduli (GPa) = 79.05196 87.89561 66.77212
#
# Poissons Ratio (x) = 0.32503 0.47709
# Poissons Ratio (y) = 0.29232 -0.02025
# Poissons Ratio (z) = 0.56483 -0.02666
#
# Static dielectric constant tensor:
#      x y z
#    x 2.366360 0.000000 -0.158740 
#    y 0.000000 2.036210 0.000000 
#    z -0.158740 0.000000 2.002590 
# 
# From -- ./inp_files/55604.got.cif
#   From: 2010.05.17/outbox.cif.g08.bks.cpg/sg14_28_cif.got.tgz:55604.got - 2010.06.03 17:49:19.
