data_PCOD9247203
_publ_section_title
;
Structure prediction by ZEFSAII (Michael W. Deem and Ramdas Pophale) SiO2 
 PCOD9247203
Probable space group: P 21/C
;
_chemical_formula_sum "Si O2"
_cell_formula_units_Z 20
_cell_length_a 5.109084
_cell_length_b 12.948092
_cell_length_c 10.863757
_cell_angle_alpha 90.000000
_cell_angle_beta 92.092585
_cell_angle_gamma 90.000000
_cell_volume 718.189658
_symmetry_space_group_name_H-M "P 21/C"
_symmetry_group_IT_number 14
_symmetry_cell_setting 'monoclinic'
loop_
_space_group_symop_operation_xyz
x,y,z
-x,1/2+y,1/2-z
-x,-y,-z
x,1/2-y,1/2+z
loop_
_atom_site_type_symbol
_atom_site_label
_atom_site_fract_x
_atom_site_fract_y
_atom_site_fract_z
Si Si1 0.800886 0.162426 0.363735
Si Si2 0.919004 0.362701 0.125160
Si Si3 0.327465 0.969189 0.137511
Si Si4 0.300897 0.305749 0.314792
Si Si5 0.076961 0.877277 0.887962
O O1 0.538586 0.229043 0.347659
O O2 0.843754 0.098504 0.488963
O O3 0.048293 0.242016 0.357705
O O4 0.808570 0.090638 0.243416
O O5 0.217457 0.341494 0.175348
O O6 0.839027 0.242179 0.110391
O O7 0.779279 0.422031 0.234838
O O8 0.608957 0.914709 0.126174
O O9 0.228373 0.087904 0.133069
O O10 0.179971 0.921545 0.016733
#
# Coordination Sequence:
#
# PCOD9247203 Si02
#       5
#     4   4   4   4   4
#     4  11  25  42  74  92 139 177 229 271 346 388
#     4  11  23  45  70 100 133 185 220 286 332 407
#     4  11  23  43  70 101 138 176 232 272 345 395
#     4  11  22  43  65 101 128 178 217 280 327 407
#     4  10  21  45  67 104 134 184 219 286 329 412
#
# _framework density 27.847797
#
# number of rings (size 3 to 8) (size 9 to 14) (size 15 to 20)
#    0.000    1.200    6.000    0.000    5.600    0.800 
#    7.200    4.000    0.000    0.000    0.000    0.000 
#    0.000    0.000    0.000    0.000    0.000    0.000 
#
# Total GULP energy -111628.282039 kJ/mol
# GULP energy per Si atom -5581.414102 kJ/mol
# Density = 2.778441 g / cm^3
# Si number density = 27.847797 Si / 1000 Ang^3
#
#
#
# Elastic Constant Matrix: (Units=GPa)
#
#
# Indices 1 2 3 4 5 6 
#
# 1 156.9436 17.1816 38.9970 0.0000 19.1429 0.0000
# 2 17.1816 72.7072 -17.8395 0.0000 -11.3626 0.0000
# 3 38.9970 -17.8395 197.7868 0.0000 14.3571 0.0000
# 4 0.0000 0.0000 0.0000 26.1127 0.0000 -4.2887
# 5 19.1429 -11.3626 14.3571 0.0000 40.4494 0.0000
# 6 0.0000 0.0000 0.0000 -4.2887 0.0000 55.0970
#
#
#
# Elastic Compliance Matrix: (Units=1/GPa)
#
#
# Indices 1 2 3 4 5 6 
#
# 1 0.007492 -0.002719 -0.001447 0.000000 -0.003796 0.000000
# 2 -0.002719 0.015579 0.001571 0.000000 0.005106 0.000000
# 3 -0.001447 0.001571 0.005544 0.000000 -0.000842 0.000000
# 4 0.000000 0.000000 0.000000 0.038791 0.000000 0.003019
# 5 -0.003796 0.005106 -0.000842 0.000000 0.028252 0.000000
# 6 0.000000 0.000000 0.000000 0.003019 0.000000 0.018385
#
#
# Mechanical properties :
#
#
# Convention : Reuss Voigt Hill
#
# Bulk Modulus (GPa) = 42.68816 56.01288 49.35052
# Shear Modulus (GPa) = 39.35729 50.27174 44.81452
#
# Velocity S-wave (km/s) = 3.76347 4.25341 4.01592
# Velocity P-wave (km/s) = 5.85212 6.65429 6.26606
#
# Compressibility (1/GPa) = 0.02342570
#
# Stress axis : x y z
#
# Youngs Moduli (GPa) = 133.47912 64.18694 180.37564
#
# Poissons Ratio (x) = 0.17450 0.26097
# Poissons Ratio (y) = 0.36287 -0.28330
# Poissons Ratio (z) = 0.19312 -0.10081
#
# Static dielectric constant tensor:
#      x y z
#    x 2.234370 0.000000 -0.053850 
#    y 0.000000 2.198410 0.000000 
#    z -0.053850 0.000000 2.307100 
# 
# From -- ./inp_files/20835.got.cif
#   From: 2010.05.17/outbox.cif.g08.bks.cpg/sg14_11_cif.got.tgz:20835.got - 2010.06.03 17:49:19.
