data_PCOD9247208
_publ_section_title
;
Structure prediction by ZEFSAII (Michael W. Deem and Ramdas Pophale) SiO2 
 PCOD9247208
Probable space group: P 21/C
;
_chemical_formula_sum "Si O2"
_cell_formula_units_Z 26
_cell_length_a 12.982063
_cell_length_b 4.843858
_cell_length_c 16.714734
_cell_angle_alpha 90.000000
_cell_angle_beta 96.689133
_cell_angle_gamma 90.000000
_cell_volume 1043.922192
_symmetry_space_group_name_H-M "P 21/C"
_symmetry_group_IT_number 14
_symmetry_cell_setting 'monoclinic'
loop_
_space_group_symop_operation_xyz
x,y,z
-x,1/2+y,1/2-z
-x,-y,-z
x,1/2-y,1/2+z
loop_
_atom_site_type_symbol
_atom_site_label
_atom_site_fract_x
_atom_site_fract_y
_atom_site_fract_z
Si Si1 0.163395 0.660948 0.388154
Si Si2 0.639522 0.129127 0.275188
Si Si3 0.723873 0.668598 0.042623
Si Si4 0.578210 0.620392 0.165498
Si Si5 0.174501 0.902924 0.601823
Si Si6 0.068933 0.366471 0.237783
Si Si7 0.000000 0.500000 0.500000
O O1 0.247184 0.487615 0.446240
O O2 0.152607 0.518499 0.301680
O O3 0.056824 0.578511 0.421685
O O4 0.197975 0.976058 0.397392
O O5 0.612760 0.322327 0.198483
O O6 0.543314 0.152102 0.328361
O O7 0.740698 0.227689 0.331778
O O8 0.634817 0.827824 0.233560
O O9 0.614382 0.645976 0.077219
O O10 0.757209 0.565428 0.958261
O O11 0.086803 0.711427 0.553984
O O12 0.114007 0.117508 0.653023
O O13 0.968987 0.569020 0.236868
#
# Coordination Sequence:
#
# PCOD9247208 Si02
#       7
#     4   4   4   4   4   4   2
#     4  11  24  42  62  91 131 181 221 280 332 403
#     4  10  23  42  74  99 134 180 226 287 341 423
#     4  11  24  39  67  94 135 173 219 282 345 409
#     4  10  21  45  69 103 135 172 231 287 349 404
#     4  11  25  43  68 100 139 182 229 277 352 401
#     4  12  25  41  64  91 125 177 232 281 320 402
#     4  10  24  44  62  94 140 174 226 276 336 400
#
# _framework density 24.906071000000001
#
# number of rings (size 3 to 8) (size 9 to 14) (size 15 to 20)
#    0.000    1.231    1.538    3.692    2.154    5.538 
#    0.000    0.000    0.000   10.154    0.000    0.000 
#    0.000    0.000    0.000    0.000    0.000    0.000 
#
# Total GULP energy -144857.154880 kJ/mol
# GULP energy per Si atom -5571.429034 kJ/mol
# Density = 2.484938 g / cm^3
# Si number density = 24.906071 Si / 1000 Ang^3
#
#
#
# Elastic Constant Matrix: (Units=GPa)
#
#
# Indices 1 2 3 4 5 6 
#
# 1 103.9715 3.9685 45.8227 0.0000 -30.9238 0.0000
# 2 3.9685 70.2525 -0.9038 0.0000 -2.0416 0.0000
# 3 45.8227 -0.9038 104.9232 0.0000 -50.9171 0.0000
# 4 0.0000 0.0000 0.0000 7.0332 0.0000 -0.4878
# 5 -30.9238 -2.0416 -50.9171 0.0000 55.9366 0.0000
# 6 0.0000 0.0000 0.0000 -0.4878 0.0000 28.2961
#
#
#
# Elastic Compliance Matrix: (Units=1/GPa)
#
#
# Indices 1 2 3 4 5 6 
#
# 1 0.012293 -0.000645 -0.003739 0.000000 0.003368 0.000000
# 2 -0.000645 0.014310 0.000869 0.000000 0.000957 0.000000
# 3 -0.003739 0.000869 0.018241 0.000000 0.014569 0.000000
# 4 0.000000 0.000000 0.000000 0.142353 0.000000 0.002454
# 5 0.003368 0.000957 0.014569 0.000000 0.033036 0.000000
# 6 0.000000 0.000000 0.000000 0.002454 0.000000 0.035383
#
#
# Mechanical properties :
#
#
# Convention : Reuss Voigt Hill
#
# Bulk Modulus (GPa) = 26.44508 41.88023 34.16265
# Shear Modulus (GPa) = 18.16534 33.60384 25.88459
#
# Velocity S-wave (km/s) = 2.70359 3.67716 3.22730
# Velocity P-wave (km/s) = 4.51517 5.90597 5.25677
#
# Compressibility (1/GPa) = 0.03781422
#
# Stress axis : x y z
#
# Youngs Moduli (GPa) = 81.35037 69.88223 54.82050
#
# Poissons Ratio (x) = 0.04505 0.20500
# Poissons Ratio (y) = 0.05244 -0.04766
# Poissons Ratio (z) = 0.30420 -0.06075
#
# Static dielectric constant tensor:
#      x y z
#    x 1.951440 0.000000 -0.024910 
#    y 0.000000 1.918770 0.000000 
#    z -0.024910 0.000000 2.056490 
# 
# From -- ./inp_files/56597.got.cif
#   From: 2010.05.17/outbox.cif.g08.bks.cpg/sg14_29_cif.got.tgz:56597.got - 2010.06.03 17:49:19.
