data_PCOD9247029
_publ_section_title
;
Structure prediction by ZEFSAII (Michael W. Deem and Ramdas Pophale) SiO2 
 PCOD9247029
Probable space group: P 21/C
;
_chemical_formula_sum "Si O2"
_cell_formula_units_Z 28
_cell_length_a 11.562619
_cell_length_b 7.644560
_cell_length_c 16.016232
_cell_angle_alpha 90.000000
_cell_angle_beta 114.308713
_cell_angle_gamma 90.000000
_cell_volume 1290.178558
_symmetry_space_group_name_H-M "P 21/C"
_symmetry_group_IT_number 14
_symmetry_cell_setting 'monoclinic'
loop_
_space_group_symop_operation_xyz
x,y,z
-x,1/2+y,1/2-z
-x,-y,-z
x,1/2-y,1/2+z
loop_
_atom_site_type_symbol
_atom_site_label
_atom_site_fract_x
_atom_site_fract_y
_atom_site_fract_z
Si Si1 0.852864 0.226197 0.723705
Si Si2 0.016731 0.202289 0.027487
Si Si3 0.559359 0.504894 0.425663
Si Si4 0.271995 0.155336 0.551725
Si Si5 0.876497 0.816955 0.753364
Si Si6 0.246371 0.706878 0.989698
Si Si7 0.305144 0.472673 0.250445
O O1 0.838659 0.019086 0.733470
O O2 0.797101 0.267626 0.615042
O O3 0.776857 0.350983 0.763216
O O4 0.002561 0.272404 0.768464
O O5 0.123918 0.290377 0.002913
O O6 0.879552 0.290948 0.990275
O O7 0.071901 0.209844 0.137402
O O8 0.000000 0.000000 0.000000
O O9 0.500000 0.500000 0.500000
O O10 0.644045 0.677258 0.442270
O O11 0.650455 0.338006 0.443574
O O12 0.446005 0.503112 0.325666
O O13 0.302813 0.091259 0.654688
O O14 0.295860 0.990322 0.499943
O O15 0.763549 0.676981 0.713255
#
# Coordination Sequence:
#
# PCOD9247029 Si02
#       7
#     4   4   4   4   4   4   4
#     4  11  22  41  69 102 132 176 221 285 344 400
#     4  10  21  43  68 101 133 176 221 288 345 388
#     4  12  27  48  67  99 143 185 227 279 339 407
#     4  11  27  45  71 102 134 183 232 280 343 401
#     4  10  23  39  68  98 137 174 220 280 347 400
#     4  11  25  43  71 100 138 176 227 283 342 411
#     4  11  26  45  66 101 137 179 233 280 340 407
#
# _framework density 21.702421000000001
#
# number of rings (size 3 to 8) (size 9 to 14) (size 15 to 20)
#    0.000    1.143    4.286    0.429    6.000    2.857 
#    0.000    0.000    0.000    0.000    0.000    0.000 
#    0.000    0.000    0.000    0.000    0.000    0.000 
#
# Total GULP energy -156727.055722 kJ/mol
# GULP energy per Si atom -5597.394847 kJ/mol
# Density = 2.165303 g / cm^3
# Si number density = 21.702421 Si / 1000 Ang^3
#
#
#
# Elastic Constant Matrix: (Units=GPa)
#
#
# Indices 1 2 3 4 5 6 
#
# 1 90.7820 42.7736 26.3073 0.0000 16.9106 0.0000
# 2 42.7736 147.9330 -6.3787 0.0000 13.3587 0.0000
# 3 26.3073 -6.3787 39.9181 0.0000 -4.2349 0.0000
# 4 0.0000 0.0000 0.0000 32.3988 0.0000 -9.6157
# 5 16.9106 13.3587 -4.2349 0.0000 22.2753 0.0000
# 6 0.0000 0.0000 0.0000 -9.6157 0.0000 -8.2573
#
#
#
# Elastic Compliance Matrix: (Units=1/GPa)
#
#
# Indices 1 2 3 4 5 6 
#
# 1 0.021453 -0.005462 -0.016728 0.000000 -0.016191 0.000000
# 2 -0.005462 0.008557 0.004963 0.000000 -0.000042 0.000000
# 3 -0.016728 0.004963 0.038681 0.000000 0.017077 0.000000
# 4 0.000000 0.000000 0.000000 0.022938 0.000000 -0.026711
# 5 -0.016191 -0.000042 0.017077 0.000000 0.060456 0.000000
# 6 0.000000 0.000000 0.000000 -0.026711 0.000000 -0.090000
#
#
# Mechanical properties :
#
#
# Convention : Reuss Voigt Hill
#
# Bulk Modulus (GPa) = 29.21049 44.89306 37.05177
# Shear Modulus (GPa) = 46.31752 23.67878 34.99815
#
# Velocity S-wave (km/s) = 4.62476 3.30671 4.02012
# Velocity P-wave (km/s) = 6.48126 5.94220 6.21757
#
# Compressibility (1/GPa) = 0.03423428
#
# Stress axis : x y z
#
# Youngs Moduli (GPa) = 46.61451 116.86516 25.85275
#
# Poissons Ratio (x) = 0.63833 0.43248
# Poissons Ratio (y) = 0.25461 -0.12830
# Poissons Ratio (z) = 0.77979 -0.57996
#
# Static dielectric constant tensor:
#      x y z
#    x 1.798750 0.000000 -0.013590 
#    y 0.000000 1.770550 0.000000 
#    z -0.013590 0.000000 1.786680 
# 
# From -- ./inp_files/66548.got.cif
#   From: 2010.05.17/outbox.cif.g08.bks.cpg/sg14_34_cif.got.tgz:66548.got - 2010.06.03 17:49:19.
