data_PCOD9247394
_publ_section_title
;
Structure prediction by ZEFSAII (Michael W. Deem and Ramdas Pophale) SiO2 
 PCOD9247394
Probable space group: P 21/C
;
_chemical_formula_sum "Si O2"
_cell_formula_units_Z 24
_cell_length_a 28.730651
_cell_length_b 9.462659
_cell_length_c 13.053550
_cell_angle_alpha 90.000000
_cell_angle_beta 18.410883
_cell_angle_gamma 90.000000
_cell_volume 1120.829784
_symmetry_space_group_name_H-M "P 21/C"
_symmetry_group_IT_number 14
_symmetry_cell_setting 'monoclinic'
loop_
_space_group_symop_operation_xyz
x,y,z
-x,1/2+y,1/2-z
-x,-y,-z
x,1/2-y,1/2+z
loop_
_atom_site_type_symbol
_atom_site_label
_atom_site_fract_x
_atom_site_fract_y
_atom_site_fract_z
Si Si1 0.356905 0.241086 0.641063
Si Si2 0.780687 0.249877 0.749343
Si Si3 0.180681 0.614000 0.043215
Si Si4 0.579004 0.216442 0.351965
Si Si5 0.543516 0.053266 0.634718
Si Si6 0.048487 0.192590 0.828085
O O1 0.432381 0.251861 0.595189
O O2 0.398131 0.381765 0.491052
O O3 0.434086 0.113820 0.416918
O O4 0.185059 0.207787 0.015162
O O5 0.812353 0.146964 0.590093
O O6 0.930201 0.311164 0.483983
O O7 0.692713 0.172248 0.024605
O O8 0.674746 0.372519 0.925657
O O9 0.130407 0.456535 0.171338
O O10 0.053902 0.714198 0.358763
O O11 0.334855 0.653128 0.775265
O O12 0.554186 0.106574 0.494955
#
# Coordination Sequence:
#
# PCOD9247394 Si02
#       6
#     4   4   4   4   4   4
#     4  11  24  39  63  95 122 164 208 251 307 366
#     4   9  20  40  62  86 124 165 199 258 307 360
#     4   9  20  41  60  86 124 163 200 255 307 361
#     4   9  20  41  62  83 126 161 202 253 307 357
#     4  10  23  42  61  92 127 163 207 254 306 364
#     4  10  22  37  61  92 122 160 211 246 306 371
#
# _framework density 21.412707000000001
#
# number of rings (size 3 to 8) (size 9 to 14) (size 15 to 20)
#    0.000    2.333    0.000    0.500    9.333    2.000 
#    9.000    2.500    0.000    0.000    0.000    0.000 
#    0.000    0.000    0.000    0.000    0.000    0.000 
#
# Total GULP energy -133963.727325 kJ/mol
# GULP energy per Si atom -5581.821972 kJ/mol
# Density = 2.136397 g / cm^3
# Si number density = 21.412707 Si / 1000 Ang^3
#
#
#
# Elastic Constant Matrix: (Units=GPa)
#
#
# Indices 1 2 3 4 5 6 
#
# 1 108.9371 3.7747 52.0436 0.0000 11.0843 0.0000
# 2 3.7747 48.4110 8.8466 0.0000 2.2107 0.0000
# 3 52.0436 8.8466 97.5872 0.0000 -6.9981 0.0000
# 4 0.0000 0.0000 0.0000 19.7913 0.0000 5.9380
# 5 11.0843 2.2107 -6.9981 0.0000 38.5076 0.0000
# 6 0.0000 0.0000 0.0000 5.9380 0.0000 10.4735
#
#
#
# Elastic Compliance Matrix: (Units=1/GPa)
#
#
# Indices 1 2 3 4 5 6 
#
# 1 0.013277 0.000575 -0.007507 0.000000 -0.005219 0.000000
# 2 0.000575 0.021124 -0.002351 0.000000 -0.001805 0.000000
# 3 -0.007507 -0.002351 0.014822 0.000000 0.004989 0.000000
# 4 0.000000 0.000000 0.000000 0.060884 0.000000 -0.034519
# 5 -0.005219 -0.001805 0.004989 0.000000 0.028482 0.000000
# 6 0.000000 0.000000 0.000000 -0.034519 0.000000 0.115050
#
#
# Mechanical properties :
#
#
# Convention : Reuss Voigt Hill
#
# Bulk Modulus (GPa) = 32.61985 42.69613 37.65799
# Shear Modulus (GPa) = 17.70393 26.43916 22.07155
#
# Velocity S-wave (km/s) = 2.87852 3.51770 3.21404
# Velocity P-wave (km/s) = 5.12980 6.04002 5.60342
#
# Compressibility (1/GPa) = 0.03065618
#
# Stress axis : x y z
#
# Youngs Moduli (GPa) = 75.31702 47.34015 67.46828
#
# Poissons Ratio (x) = -0.02722 0.50650
# Poissons Ratio (y) = -0.04330 0.15862
# Poissons Ratio (z) = 0.56542 0.11130
#
# Static dielectric constant tensor:
#      x y z
#    x 1.755800 0.000000 0.002800 
#    y 0.000000 1.805540 0.000000 
#    z 0.002800 0.000000 1.863570 
# 
# From -- ./inp_files/24156.got.cif
#   From: 2010.05.17/outbox.cif.g08.bks.cpg/sg14_13_cif.got.tgz:24156.got - 2010.06.03 17:49:19.
