data_PCOD9247094
_publ_section_title
;
Structure prediction by ZEFSAII (Michael W. Deem and Ramdas Pophale) SiO2 
 PCOD9247094
Probable space group: P 21/C
;
_chemical_formula_sum "Si O2"
_cell_formula_units_Z 28
_cell_length_a 9.770922
_cell_length_b 11.826777
_cell_length_c 16.116052
_cell_angle_alpha 90.000000
_cell_angle_beta 52.915446
_cell_angle_gamma 90.000000
_cell_volume 1485.680865
_symmetry_space_group_name_H-M "P 21/C"
_symmetry_group_IT_number 14
_symmetry_cell_setting 'monoclinic'
loop_
_space_group_symop_operation_xyz
x,y,z
-x,1/2+y,1/2-z
-x,-y,-z
x,1/2-y,1/2+z
loop_
_atom_site_type_symbol
_atom_site_label
_atom_site_fract_x
_atom_site_fract_y
_atom_site_fract_z
Si Si1 0.777167 0.865087 0.711210
Si Si2 0.187554 0.054971 0.937452
Si Si3 0.275325 0.191173 0.458624
Si Si4 0.553751 0.165339 0.496354
Si Si5 0.883147 0.000501 0.373387
Si Si6 0.454950 0.582675 0.441854
Si Si7 0.241514 0.388323 0.232198
O O1 0.718041 0.853959 0.637591
O O2 0.621240 0.910044 0.822780
O O3 0.817527 0.740280 0.732067
O O4 0.945698 0.939671 0.659090
O O5 0.207378 0.179577 0.973096
O O6 0.261169 0.064318 0.817047
O O7 0.300701 0.970021 0.948129
O O8 0.000000 0.000000 0.000000
O O9 0.453664 0.179184 0.444871
O O10 0.152481 0.109560 0.556995
O O11 0.720324 0.086093 0.436458
O O12 0.592379 0.292305 0.510470
O O13 0.415392 0.116692 0.613627
O O14 0.890519 0.958326 0.275618
O O15 0.500000 0.500000 0.500000
#
# Coordination Sequence:
#
# PCOD9247094 Si02
#       7
#     4   4   4   4   4   4   4
#     4  10  24  40  64  94 132 162 213 265 312 378
#     4  11  25  41  67  89 129 170 219 265 323 384
#     4  10  21  44  61  97 130 163 208 274 312 384
#     4  10  22  41  68  91 129 169 208 259 332 382
#     4  11  23  39  72  92 129 168 217 257 327 388
#     4  11  24  43  64  91 130 170 213 266 321 378
#     4   9  22  41  60  91 129 161 207 266 312 373
#
# _framework density 18.846578999999998
#
# number of rings (size 3 to 8) (size 9 to 14) (size 15 to 20)
#    0.000    1.714    1.429    2.143   10.000    0.000 
#    0.000    0.000    0.000    0.000    0.000    0.000 
#    0.000    0.000    0.000    0.000    0.000    0.000 
#
# Total GULP energy -156317.926190 kJ/mol
# GULP energy per Si atom -5582.783078 kJ/mol
# Density = 1.880368 g / cm^3
# Si number density = 18.846579 Si / 1000 Ang^3
#
#
#
# Elastic Constant Matrix: (Units=GPa)
#
#
# Indices 1 2 3 4 5 6 
#
# 1 140.3264 93.6238 74.5177 0.0000 19.1855 0.0000
# 2 93.6238 115.6069 51.4724 0.0000 8.8560 0.0000
# 3 74.5177 51.4724 58.3802 0.0000 24.9707 0.0000
# 4 0.0000 0.0000 0.0000 22.3032 0.0000 10.5097
# 5 19.1855 8.8560 24.9707 0.0000 18.9554 0.0000
# 6 0.0000 0.0000 0.0000 10.5097 0.0000 38.3696
#
#
#
# Elastic Compliance Matrix: (Units=1/GPa)
#
#
# Indices 1 2 3 4 5 6 
#
# 1 0.040750 -0.006403 -0.068739 0.000000 0.052299 0.000000
# 2 -0.006403 0.021292 -0.020885 0.000000 0.024045 0.000000
# 3 -0.068739 -0.020885 0.204679 0.000000 -0.190301 0.000000
# 4 0.000000 0.000000 0.000000 0.051481 0.000000 -0.014101
# 5 0.052299 0.024045 -0.190301 0.000000 0.239279 0.000000
# 6 0.000000 0.000000 0.000000 -0.014101 0.000000 0.029925
#
#
# Mechanical properties :
#
#
# Convention : Reuss Voigt Hill
#
# Bulk Modulus (GPa) = 13.39254 83.72680 48.55967
# Shear Modulus (GPa) = 6.21622 22.23895 14.22759
#
# Velocity S-wave (km/s) = 1.81810 3.43884 2.75055
# Velocity P-wave (km/s) = 3.39541 7.76462 5.99242
#
# Compressibility (1/GPa) = 0.07466842
#
# Stress axis : x y z
#
# Youngs Moduli (GPa) = 24.53984 46.96637 4.88570
#
# Poissons Ratio (x) = 0.30071 0.33584
# Poissons Ratio (y) = 0.15712 0.10204
# Poissons Ratio (z) = 1.68684 0.98089
#
# Static dielectric constant tensor:
#      x y z
#    x 1.644290 0.000000 0.016060 
#    y 0.000000 1.665660 0.000000 
#    z 0.016060 0.000000 1.651640 
# 
# From -- ./inp_files/40174.got.cif
#   From: 2010.05.17/outbox.cif.g08.bks.cpg/sg14_21_cif.got.tgz:40174.got - 2010.06.03 17:49:19.
