data_PCOD9247810
_publ_section_title
;
Structure prediction by ZEFSAII (Michael W. Deem and Ramdas Pophale) SiO2 
 PCOD9247810
Probable space group: P 21/C
;
_chemical_formula_sum "Si O2"
_cell_formula_units_Z 32
_cell_length_a 16.602554
_cell_length_b 12.307975
_cell_length_c 20.284322
_cell_angle_alpha 90.000000
_cell_angle_beta 23.904230
_cell_angle_gamma 90.000000
_cell_volume 1679.581856
_symmetry_space_group_name_H-M "P 21/C"
_symmetry_group_IT_number 14
_symmetry_cell_setting 'monoclinic'
loop_
_space_group_symop_operation_xyz
x,y,z
-x,1/2+y,1/2-z
-x,-y,-z
x,1/2-y,1/2+z
loop_
_atom_site_type_symbol
_atom_site_label
_atom_site_fract_x
_atom_site_fract_y
_atom_site_fract_z
Si Si1 0.462555 0.819571 0.855211
Si Si2 0.147920 0.399336 0.883220
Si Si3 0.720864 0.543216 0.354892
Si Si4 0.734634 0.695644 0.472834
Si Si5 0.598405 0.369256 0.745729
Si Si6 0.920917 0.308882 0.610006
Si Si7 0.853411 0.308576 0.291609
Si Si8 0.675945 0.600205 0.656202
O O1 0.640109 0.905482 0.737395
O O2 0.358700 0.840078 0.862807
O O3 0.574826 0.706092 0.762014
O O4 0.313524 0.810532 0.027307
O O5 0.200143 0.391458 0.767275
O O6 0.000000 0.500000 0.000000
O O7 0.033474 0.296562 0.997625
O O8 0.500000 0.500000 0.500000
O O9 0.721967 0.623551 0.416602
O O10 0.855914 0.435406 0.266932
O O11 0.577041 0.793253 0.596654
O O12 0.680765 0.615765 0.573907
O O13 0.945696 0.754779 0.329314
O O14 0.776383 0.350563 0.662446
O O15 0.559975 0.496913 0.769516
O O16 0.813153 0.265403 0.757024
O O17 0.091535 0.396285 0.498550
#
# Coordination Sequence:
#
# PCOD9247810 Si02
#       8
#     4   4   4   4   4   4   4   4
#     4  10  23  39  63  92 124 161 210 267 311 386
#     4  11  23  38  64  93 124 162 212 257 328 376
#     4  12  23  40  68  94 128 167 215 273 322 381
#     4  10  25  40  60  97 128 166 216 263 322 389
#     4  11  22  40  65  87 124 167 210 252 324 379
#     4  10  22  40  62  92 121 166 209 261 309 396
#     4  11  22  43  61  91 134 160 207 269 322 373
#     4   9  21  42  61  85 125 165 207 255 318 379
#
# _framework density 19.052361999999999
#
# number of rings (size 3 to 8) (size 9 to 14) (size 15 to 20)
#    0.000    1.500    2.500    2.625    1.750    2.000 
#    0.000    0.625    0.000    0.000    0.000    0.000 
#    0.000    0.000    0.000    0.000    0.000    0.000 
#
# Total GULP energy -178502.606825 kJ/mol
# GULP energy per Si atom -5578.206463 kJ/mol
# Density = 1.900900 g / cm^3
# Si number density = 19.052362 Si / 1000 Ang^3
#
#
#
# Elastic Constant Matrix: (Units=GPa)
#
#
# Indices 1 2 3 4 5 6 
#
# 1 121.1054 39.9213 27.4879 0.0000 8.7856 0.0000
# 2 39.9213 77.9246 5.8114 0.0000 -2.2317 0.0000
# 3 27.4879 5.8114 39.4580 0.0000 17.2319 0.0000
# 4 0.0000 0.0000 0.0000 22.0077 0.0000 1.4353
# 5 8.7856 -2.2317 17.2319 0.0000 26.0742 0.0000
# 6 0.0000 0.0000 0.0000 1.4353 0.0000 28.7070
#
#
#
# Elastic Compliance Matrix: (Units=1/GPa)
#
#
# Indices 1 2 3 4 5 6 
#
# 1 0.011737 -0.005423 -0.007658 0.000000 0.000642 0.000000
# 2 -0.005423 0.015691 0.000116 0.000000 0.003094 0.000000
# 3 -0.007658 0.000116 0.041510 0.000000 -0.024843 0.000000
# 4 0.000000 0.000000 0.000000 0.045587 0.000000 -0.002279
# 5 0.000642 0.003094 -0.024843 0.000000 0.054819 0.000000
# 6 0.000000 0.000000 0.000000 -0.002279 0.000000 0.034949
#
#
# Mechanical properties :
#
#
# Convention : Reuss Voigt Hill
#
# Bulk Modulus (GPa) = 23.25151 42.76992 33.01072
# Shear Modulus (GPa) = 20.44495 26.37561 23.41028
#
# Velocity S-wave (km/s) = 3.27936 3.72476 3.50913
# Velocity P-wave (km/s) = 5.15456 6.40279 5.81228
#
# Compressibility (1/GPa) = 0.04300796
#
# Stress axis : x y z
#
# Youngs Moduli (GPa) = 85.20412 63.72986 24.09034
#
# Poissons Ratio (x) = 0.34562 0.18448
# Poissons Ratio (y) = 0.46208 -0.00279
# Poissons Ratio (z) = 0.65247 -0.00738
#
# Static dielectric constant tensor:
#      x y z
#    x 1.685090 0.000000 -0.015850 
#    y 0.000000 1.668370 0.000000 
#    z -0.015850 0.000000 1.656140 
# 
# From -- ./inp_files/59397.got.cif
#   From: 2010.05.17/outbox.cif.g08.bks.cpg/sg14_30_cif.got.tgz:59397.got - 2010.06.03 17:49:19.
