data_PCOD9247701
_publ_section_title
;
Structure prediction by ZEFSAII (Michael W. Deem and Ramdas Pophale) SiO2 
 PCOD9247701
Probable space group: P 21/C
;
_chemical_formula_sum "Si O2"
_cell_formula_units_Z 32
_cell_length_a 12.609120
_cell_length_b 11.151540
_cell_length_c 10.343814
_cell_angle_alpha 90.000000
_cell_angle_beta 82.577457
_cell_angle_gamma 90.000000
_cell_volume 1442.267391
_symmetry_space_group_name_H-M "P 21/C"
_symmetry_group_IT_number 14
_symmetry_cell_setting 'monoclinic'
loop_
_space_group_symop_operation_xyz
x,y,z
-x,1/2+y,1/2-z
-x,-y,-z
x,1/2-y,1/2+z
loop_
_atom_site_type_symbol
_atom_site_label
_atom_site_fract_x
_atom_site_fract_y
_atom_site_fract_z
Si Si1 0.015242 0.356608 0.512119
Si Si2 0.468652 0.101017 0.905118
Si Si3 0.233746 0.495894 0.134343
Si Si4 0.327901 0.815960 0.250243
Si Si5 0.098677 0.784762 0.703004
Si Si6 0.563817 0.098726 0.292351
Si Si7 0.680575 0.583937 0.134503
Si Si8 0.756113 0.678470 0.624661
O O1 0.139842 0.327214 0.479258
O O2 0.000000 0.500000 0.500000
O O3 0.967069 0.308851 0.655073
O O4 0.959055 0.291229 0.398692
O O5 0.576988 0.176405 0.871300
O O6 0.351528 0.155657 0.942803
O O7 0.450902 0.029242 0.774667
O O8 0.500000 0.000000 0.000000
O O9 0.134891 0.586035 0.141372
O O10 0.343114 0.574973 0.119692
O O11 0.227454 0.422665 0.268124
O O12 0.252676 0.415270 0.007956
O O13 0.210233 0.779335 0.224549
O O14 0.382660 0.699235 0.311648
O O15 0.316890 0.948481 0.311821
O O16 0.443961 0.120093 0.358919
O O17 0.735066 0.694640 0.200402
#
# Coordination Sequence:
#
# PCOD9247701 Si02
#       8
#     4   4   4   4   4   4   4   4
#     4  12  28  50  76 107 148 198 249 310 368 439
#     4  10  22  39  65  97 134 180 228 289 358 430
#     4  10  22  43  68  94 137 186 239 295 360 436
#     4  10  22  42  66 105 135 184 238 294 365 445
#     4  11  26  49  77 104 144 195 252 306 369 445
#     4   9  20  39  60  95 139 176 226 281 357 441
#     4  11  22  39  66 101 139 183 231 300 369 432
#     4  11  25  44  65 102 142 179 238 299 365 426
#
# _framework density 22.187286
#
# number of rings (size 3 to 8) (size 9 to 14) (size 15 to 20)
#    0.000    1.500    2.500    1.125    3.500    5.000 
#    0.000    1.875    0.000    0.000    0.000    0.000 
#    0.000    0.000    0.000    0.000    0.000    0.000 
#
# Total GULP energy -178335.422687 kJ/mol
# GULP energy per Si atom -5572.981959 kJ/mol
# Density = 2.213679 g / cm^3
# Si number density = 22.187286 Si / 1000 Ang^3
#
#
#
# Elastic Constant Matrix: (Units=GPa)
#
#
# Indices 1 2 3 4 5 6 
#
# 1 145.6230 57.4132 70.1964 0.0000 -41.2661 0.0000
# 2 57.4132 119.0253 26.7804 0.0000 -8.1030 0.0000
# 3 70.1964 26.7804 74.4804 0.0000 -15.4887 0.0000
# 4 0.0000 0.0000 0.0000 34.3878 0.0000 -6.1373
# 5 -41.2661 -8.1030 -15.4887 0.0000 25.5244 0.0000
# 6 0.0000 0.0000 0.0000 -6.1373 0.0000 39.7584
#
#
#
# Elastic Compliance Matrix: (Units=1/GPa)
#
#
# Indices 1 2 3 4 5 6 
#
# 1 0.025130 -0.006712 -0.015181 0.000000 0.029286 0.000000
# 2 -0.006712 0.010958 0.000976 0.000000 -0.006781 0.000000
# 3 -0.015181 0.000976 0.025571 0.000000 -0.008717 0.000000
# 4 0.000000 0.000000 0.000000 0.029904 0.000000 0.004616
# 5 0.029286 -0.006781 -0.008717 0.000000 0.079083 0.000000
# 6 0.000000 0.000000 0.000000 0.004616 0.000000 0.025864
#
#
# Mechanical properties :
#
#
# Convention : Reuss Voigt Hill
#
# Bulk Modulus (GPa) = 50.44419 71.98985 61.21702
# Shear Modulus (GPa) = 20.41205 32.25003 26.33104
#
# Velocity S-wave (km/s) = 3.03642 3.81666 3.44868
# Velocity P-wave (km/s) = 5.92268 7.20690 6.59612
#
# Compressibility (1/GPa) = 0.01982389
#
# Stress axis : x y z
#
# Youngs Moduli (GPa) = 39.79256 91.25631 39.10750
#
# Poissons Ratio (x) = 0.61255 0.59370
# Poissons Ratio (y) = 0.26711 -0.03817
# Poissons Ratio (z) = 0.60410 -0.08907
#
# Static dielectric constant tensor:
#      x y z
#    x 1.530660 0.000000 -0.333680 
#    y 0.000000 2.030820 0.000000 
#    z -0.333680 0.000000 1.428460 
# 
# From -- ./inp_files/29081.got.cif
#   From: 2010.05.17/outbox.cif.g08.bks.cpg/sg14_15_cif.got.tgz:29081.got - 2010.06.03 17:49:19.
