data_PCOD9247727
_publ_section_title
;
Structure prediction by ZEFSAII (Michael W. Deem and Ramdas Pophale) SiO2 
 PCOD9247727
Probable space group: P 21/C
;
_chemical_formula_sum "Si O2"
_cell_formula_units_Z 28
_cell_length_a 9.213680
_cell_length_b 9.812746
_cell_length_c 14.018592
_cell_angle_alpha 90.000000
_cell_angle_beta 108.508945
_cell_angle_gamma 90.000000
_cell_volume 1201.882385
_symmetry_space_group_name_H-M "P 21/C"
_symmetry_group_IT_number 14
_symmetry_cell_setting 'monoclinic'
loop_
_space_group_symop_operation_xyz
x,y,z
-x,1/2+y,1/2-z
-x,-y,-z
x,1/2-y,1/2+z
loop_
_atom_site_type_symbol
_atom_site_label
_atom_site_fract_x
_atom_site_fract_y
_atom_site_fract_z
Si Si1 0.468000 0.399939 0.802601
Si Si2 0.733060 0.192729 0.900323
Si Si3 0.742182 0.554473 0.789692
Si Si4 0.098469 0.777256 0.729661
Si Si5 0.728301 0.891942 0.928819
Si Si6 0.749545 0.726570 0.119618
Si Si7 0.001186 0.777907 0.422828
O O1 0.579059 0.275185 0.853977
O O2 0.581176 0.526057 0.807305
O O3 0.381681 0.372571 0.684835
O O4 0.344706 0.402651 0.861775
O O5 0.810915 0.165300 0.813503
O O6 0.716677 0.051219 0.951680
O O7 0.856329 0.288645 0.977862
O O8 0.800535 0.412765 0.757687
O O9 0.734498 0.662876 0.702392
O O10 0.871680 0.606654 0.889640
O O11 0.930150 0.801941 0.650246
O O12 0.068921 0.737148 0.831506
O O13 0.900487 0.854051 0.931543
O O14 0.692730 0.795658 0.010808
#
# Coordination Sequence:
#
# PCOD9247727 Si02
#       7
#     4   4   4   4   4   4   4
#     4  11  25  43  65 101 139 175 218 282 343 397
#     4  11  25  43  70 101 132 176 238 274 331 407
#     4  10  23  43  66  95 142 173 221 285 336 399
#     4  10  22  39  68 100 132 177 228 279 341 390
#     4  12  24  42  74  98 137 177 229 283 330 401
#     4  11  23  44  69 100 136 181 228 272 342 402
#     4  11  23  41  70  98 132 179 229 279 335 395
#
# _framework density 23.296789
#
# number of rings (size 3 to 8) (size 9 to 14) (size 15 to 20)
#    0.000    1.143    4.286    2.143    4.000    6.857 
#    0.000    0.714    3.143    0.000    0.000    0.000 
#    0.000    0.000    0.000    0.000    0.000    0.000 
#
# Total GULP energy -156632.603029 kJ/mol
# GULP energy per Si atom -5594.021537 kJ/mol
# Density = 2.324376 g / cm^3
# Si number density = 23.296789 Si / 1000 Ang^3
#
#
#
# Elastic Constant Matrix: (Units=GPa)
#
#
# Indices 1 2 3 4 5 6 
#
# 1 66.5216 -4.3496 21.0382 0.0000 11.2124 0.0000
# 2 -4.3496 34.9140 4.2423 0.0000 -3.3283 0.0000
# 3 21.0382 4.2423 108.5085 0.0000 11.2086 0.0000
# 4 0.0000 0.0000 0.0000 28.8344 0.0000 3.9211
# 5 11.2124 -3.3283 11.2086 0.0000 37.7397 0.0000
# 6 0.0000 0.0000 0.0000 3.9211 0.0000 42.2499
#
#
#
# Elastic Compliance Matrix: (Units=1/GPa)
#
#
# Indices 1 2 3 4 5 6 
#
# 1 0.016754 0.002068 -0.002924 0.000000 -0.003927 0.000000
# 2 0.002068 0.029359 -0.001808 0.000000 0.002512 0.000000
# 3 -0.002924 -0.001808 0.010090 0.000000 -0.002287 0.000000
# 4 0.000000 0.000000 0.000000 0.035124 0.000000 -0.003260
# 5 -0.003927 0.002512 -0.002287 0.000000 0.028565 0.000000
# 6 0.000000 0.000000 0.000000 -0.003260 0.000000 0.023971
#
#
# Mechanical properties :
#
#
# Convention : Reuss Voigt Hill
#
# Bulk Modulus (GPa) = 19.65590 27.97845 23.81718
# Shear Modulus (GPa) = 30.09348 34.36568 32.22958
#
# Velocity S-wave (km/s) = 3.59798 3.84490 3.72349
# Velocity P-wave (km/s) = 5.07111 5.63442 5.36017
#
# Compressibility (1/GPa) = 0.05087531
#
# Stress axis : x y z
#
# Youngs Moduli (GPa) = 59.68547 34.06154 99.11086
#
# Poissons Ratio (x) = -0.07045 0.28977
# Poissons Ratio (y) = -0.12344 0.17922
# Poissons Ratio (z) = 0.17450 0.06159
#
# Static dielectric constant tensor:
#      x y z
#    x 1.874870 0.000000 -0.003570 
#    y 0.000000 1.915330 0.000000 
#    z -0.003570 0.000000 1.866770 
# 
# From -- ./inp_files/40164.got.cif
#   From: 2010.05.17/outbox.cif.g08.bks.cpg/sg14_21_cif.got.tgz:40164.got - 2010.06.03 17:49:19.
