data_PCOD9247667
_publ_section_title
;
Structure prediction by ZEFSAII (Michael W. Deem and Ramdas Pophale) SiO2 
 PCOD9247667
Probable space group: P 21/C
;
_chemical_formula_sum "Si O2"
_cell_formula_units_Z 24
_cell_length_a 11.070050
_cell_length_b 9.685789
_cell_length_c 9.144787
_cell_angle_alpha 90.000000
_cell_angle_beta 107.396937
_cell_angle_gamma 90.000000
_cell_volume 935.671115
_symmetry_space_group_name_H-M "P 21/C"
_symmetry_group_IT_number 14
_symmetry_cell_setting 'monoclinic'
loop_
_space_group_symop_operation_xyz
x,y,z
-x,1/2+y,1/2-z
-x,-y,-z
x,1/2-y,1/2+z
loop_
_atom_site_type_symbol
_atom_site_label
_atom_site_fract_x
_atom_site_fract_y
_atom_site_fract_z
Si Si1 0.434941 0.167178 0.395873
Si Si2 0.232912 0.400501 0.261107
Si Si3 0.608071 0.179932 0.186701
Si Si4 0.146086 0.750107 0.091459
Si Si5 0.220179 0.486842 0.935017
Si Si6 0.974138 0.069337 0.191745
O O1 0.316481 0.271258 0.332470
O O2 0.503068 0.141294 0.268204
O O3 0.534450 0.249164 0.530175
O O4 0.364991 0.037356 0.443289
O O5 0.317234 0.538666 0.321223
O O6 0.104523 0.429901 0.301962
O O7 0.202029 0.396778 0.077025
O O8 0.715819 0.282531 0.290686
O O9 0.183604 0.636875 0.982084
O O10 0.070293 0.865793 0.976663
O O11 0.069436 0.670957 0.190446
O O12 0.121849 0.452818 0.771774
#
# Coordination Sequence:
#
# PCOD9247667 Si02
#       6
#     4   4   4   4   4   4
#     4  12  22  41  63  96 122 164 208 253 308 372
#     4  10  22  42  62  93 121 167 204 257 315 351
#     4  10  22  39  64  90 126 158 205 253 306 371
#     4  10  22  43  61  93 119 170 203 254 316 355
#     4  10  23  39  66  90 126 166 200 259 311 362
#     4  10  22  41  67  87 126 162 209 256 304 373
#
# _framework density 25.650039
#
# number of rings (size 3 to 8) (size 9 to 14) (size 15 to 20)
#    0.000    2.000    1.667    4.500    4.667    2.667 
#    9.000    0.833    0.000    0.000    0.000    0.000 
#    0.000    0.000    0.000    0.000    0.000    0.000 
#
# Total GULP energy -134561.039771 kJ/mol
# GULP energy per Si atom -5606.709990 kJ/mol
# Density = 2.559166 g / cm^3
# Si number density = 25.650039 Si / 1000 Ang^3
#
#
#
# Elastic Constant Matrix: (Units=GPa)
#
#
# Indices 1 2 3 4 5 6 
#
# 1 119.7158 25.7096 11.2325 0.0000 9.9926 0.0000
# 2 25.7096 68.7327 21.7538 0.0000 8.9016 0.0000
# 3 11.2325 21.7538 87.8333 0.0000 21.9449 0.0000
# 4 0.0000 0.0000 0.0000 23.7550 0.0000 2.6130
# 5 9.9926 8.9016 21.9449 0.0000 54.1745 0.0000
# 6 0.0000 0.0000 0.0000 2.6130 0.0000 49.6677
#
#
#
# Elastic Compliance Matrix: (Units=1/GPa)
#
#
# Indices 1 2 3 4 5 6 
#
# 1 0.009153 -0.003252 -0.000086 0.000000 -0.001119 0.000000
# 2 -0.003252 0.017003 -0.003613 0.000000 -0.000731 0.000000
# 3 -0.000086 -0.003613 0.013506 0.000000 -0.004861 0.000000
# 4 0.000000 0.000000 0.000000 0.042341 0.000000 -0.002228
# 5 -0.001119 -0.000731 -0.004861 0.000000 0.020755 0.000000
# 6 0.000000 0.000000 0.000000 -0.002228 0.000000 0.020251
#
#
# Mechanical properties :
#
#
# Convention : Reuss Voigt Hill
#
# Bulk Modulus (GPa) = 38.81709 43.74151 41.27930
# Shear Modulus (GPa) = 34.36514 40.02517 37.19516
#
# Velocity S-wave (km/s) = 3.66426 3.95452 3.81215
# Velocity P-wave (km/s) = 5.75053 6.15964 5.95860
#
# Compressibility (1/GPa) = 0.02576185
#
# Stress axis : x y z
#
# Youngs Moduli (GPa) = 109.25536 58.81143 74.04363
#
# Poissons Ratio (x) = 0.19123 0.00633
# Poissons Ratio (y) = 0.35526 0.26751
# Poissons Ratio (z) = 0.00934 0.21248
#
# Static dielectric constant tensor:
#      x y z
#    x 1.964970 0.000000 -0.003990 
#    y 0.000000 2.087710 0.000000 
#    z -0.003990 0.000000 1.992480 
# 
# From -- ./inp_files/12365.got.cif
#   From: 2010.05.17/outbox.cif.g08.bks.cpg/sg14_7_cif.got.tgz:12365.got - 2010.06.03 17:49:19.
