data_PCOD9247055
_publ_section_title
;
Structure prediction by ZEFSAII (Michael W. Deem and Ramdas Pophale) SiO2 
 PCOD9247055
Probable space group: P 21/C
;
_chemical_formula_sum "Si O2"
_cell_formula_units_Z 24
_cell_length_a 12.146979
_cell_length_b 19.077670
_cell_length_c 7.912018
_cell_angle_alpha 90.000000
_cell_angle_beta 36.524287
_cell_angle_gamma 90.000000
_cell_volume 1091.232151
_symmetry_space_group_name_H-M "P 21/C"
_symmetry_group_IT_number 14
_symmetry_cell_setting 'monoclinic'
loop_
_space_group_symop_operation_xyz
x,y,z
-x,1/2+y,1/2-z
-x,-y,-z
x,1/2-y,1/2+z
loop_
_atom_site_type_symbol
_atom_site_label
_atom_site_fract_x
_atom_site_fract_y
_atom_site_fract_z
Si Si1 0.977862 0.829497 0.353293
Si Si2 0.858402 0.895429 0.839693
Si Si3 0.348029 0.965405 0.804933
Si Si4 0.355684 0.276343 0.235932
Si Si5 0.040058 0.583415 0.461055
Si Si6 0.594712 0.172895 0.135931
O O1 0.951672 0.880677 0.545911
O O2 0.834440 0.766434 0.552730
O O3 0.932179 0.871894 0.236933
O O4 0.192208 0.805464 0.091252
O O5 0.998001 0.887597 0.827500
O O6 0.697474 0.837458 0.066228
O O7 0.774062 0.972778 0.965058
O O8 0.240218 0.917144 0.800519
O O9 0.406145 0.911368 0.878625
O O10 0.500000 0.000000 0.500000
O O11 0.511786 0.220097 0.091800
O O12 0.444011 0.313668 0.967307
O O13 0.000000 0.500000 0.500000
#
# Coordination Sequence:
#
# PCOD9247055 Si02
#       6
#     4   4   4   4   4   4
#     4  11  26  45  70 107 141 183 247 298 349 444
#     4  11  23  45  75  97 143 193 234 299 361 426
#     4  10  21  43  69 104 143 182 237 297 354 424
#     4  12  24  45  69 102 143 190 234 300 367 418
#     4   9  22  41  72  97 135 184 227 287 366 410
#     4  11  26  44  71 102 140 184 243 291 362 429
#
# _framework density 21.993486000000001
#
# number of rings (size 3 to 8) (size 9 to 14) (size 15 to 20)
#    0.000    1.333    3.333    1.000    4.667    7.333 
#    3.000    0.833    0.000    0.000    0.000    0.000 
#    0.000    0.000    0.000    0.000    0.000    0.000 
#
# Total GULP energy -133879.497280 kJ/mol
# GULP energy per Si atom -5578.312387 kJ/mol
# Density = 2.194343 g / cm^3
# Si number density = 21.993486 Si / 1000 Ang^3
#
#
#
# Elastic Constant Matrix: (Units=GPa)
#
#
# Indices 1 2 3 4 5 6 
#
# 1 68.0278 41.3988 21.5530 0.0000 -7.6287 0.0000
# 2 41.3988 116.0241 31.3344 0.0000 -12.3432 0.0000
# 3 21.5530 31.3344 96.2420 0.0000 -14.3237 0.0000
# 4 0.0000 0.0000 0.0000 35.5941 0.0000 -9.3752
# 5 -7.6287 -12.3432 -14.3237 0.0000 37.4621 0.0000
# 6 0.0000 0.0000 0.0000 -9.3752 0.0000 22.0777
#
#
#
# Elastic Compliance Matrix: (Units=1/GPa)
#
#
# Indices 1 2 3 4 5 6 
#
# 1 0.019259 -0.006180 -0.002142 0.000000 0.001067 0.000000
# 2 -0.006180 0.011584 -0.002128 0.000000 0.001745 0.000000
# 3 -0.002142 -0.002128 0.012081 0.000000 0.003482 0.000000
# 4 0.000000 0.000000 0.000000 0.031633 0.000000 0.013433
# 5 0.001067 0.001745 0.003482 0.000000 0.028817 0.000000
# 6 0.000000 0.000000 0.000000 0.013433 0.000000 0.050999
#
#
# Mechanical properties :
#
#
# Convention : Reuss Voigt Hill
#
# Bulk Modulus (GPa) = 45.40405 52.09626 48.75016
# Shear Modulus (GPa) = 27.38013 31.42730 29.40372
#
# Velocity S-wave (km/s) = 3.53217 3.78423 3.66037
# Velocity P-wave (km/s) = 6.10935 6.54465 6.33074
#
# Compressibility (1/GPa) = 0.02202447
#
# Stress axis : x y z
#
# Youngs Moduli (GPa) = 51.92386 86.32407 82.77293
#
# Poissons Ratio (x) = 0.53347 0.17732
# Poissons Ratio (y) = 0.32088 0.17614
# Poissons Ratio (z) = 0.11123 0.18369
#
# Static dielectric constant tensor:
#      x y z
#    x 1.767630 0.000000 0.151200 
#    y 0.000000 1.880990 0.000000 
#    z 0.151200 0.000000 1.715690 
# 
# From -- ./inp_files/16610.got.cif
#   From: 2010.05.17/outbox.cif.g08.bks.cpg/sg14_9_cif.got.tgz:16610.got - 2010.06.03 17:49:19.
