data_PCOD9247036
_publ_section_title
;
Structure prediction by ZEFSAII (Michael W. Deem and Ramdas Pophale) SiO2 
 PCOD9247036
Probable space group: P 21/C
;
_chemical_formula_sum "Si O2"
_cell_formula_units_Z 32
_cell_length_a 11.749547
_cell_length_b 15.621518
_cell_length_c 13.925336
_cell_angle_alpha 90.000000
_cell_angle_beta 32.698558
_cell_angle_gamma 90.000000
_cell_volume 1380.765756
_symmetry_space_group_name_H-M "P 21/C"
_symmetry_group_IT_number 14
_symmetry_cell_setting 'monoclinic'
loop_
_space_group_symop_operation_xyz
x,y,z
-x,1/2+y,1/2-z
-x,-y,-z
x,1/2-y,1/2+z
loop_
_atom_site_type_symbol
_atom_site_label
_atom_site_fract_x
_atom_site_fract_y
_atom_site_fract_z
Si Si1 0.885451 0.559190 0.850706
Si Si2 0.877129 0.690698 0.156271
Si Si3 0.548689 0.433712 0.050355
Si Si4 0.838049 0.310306 0.729266
Si Si5 0.729129 0.001655 0.793755
Si Si6 0.324201 0.664727 0.784489
Si Si7 0.749663 0.735851 0.027348
Si Si8 0.894041 0.876184 0.138904
O O1 0.724543 0.482156 0.985930
O O2 0.947321 0.565179 0.693257
O O3 0.091986 0.545249 0.767513
O O4 0.759509 0.645347 0.967119
O O5 0.788402 0.597835 0.240979
O O6 0.801306 0.709266 0.100503
O O7 0.828656 0.784207 0.231916
O O8 0.128473 0.684805 0.991857
O O9 0.664332 0.356729 0.914884
O O10 0.500000 0.500000 0.000000
O O11 0.322333 0.410771 0.254863
O O12 0.739297 0.220849 0.764273
O O13 0.046797 0.292913 0.643370
O O14 0.925799 0.360480 0.570321
O O15 0.698296 0.065072 0.725158
O O16 0.500000 0.000000 0.000000
O O17 0.541590 0.707147 0.663635
#
# Coordination Sequence:
#
# PCOD9247036 Si02
#       8
#     4   4   4   4   4   4   4   4
#     4  11  23  41  65 100 135 172 216 276 336 390
#     4  10  24  45  66  96 134 167 225 274 327 400
#     4  10  22  39  66  97 133 169 216 280 334 381
#     4  10  22  42  67  93 131 169 221 274 321 394
#     4  12  27  40  63 101 138 174 214 277 335 400
#     4  10  21  43  68  90 124 177 215 272 327 388
#     4  10  22  42  70  93 126 177 221 267 337 388
#     4   9  22  43  69  97 128 176 225 268 329 402
#
# _framework density 23.175547000000002
#
# number of rings (size 3 to 8) (size 9 to 14) (size 15 to 20)
#    0.000    2.000    2.500    1.875    5.250    6.000 
#    0.000    1.250    0.000    0.000    0.000    0.000 
#    0.000    0.000    0.000    0.000    0.000    0.000 
#
# Total GULP energy -178512.381352 kJ/mol
# GULP energy per Si atom -5578.511917 kJ/mol
# Density = 2.312280 g / cm^3
# Si number density = 23.175547 Si / 1000 Ang^3
#
#
#
# Elastic Constant Matrix: (Units=GPa)
#
#
# Indices 1 2 3 4 5 6 
#
# 1 84.8868 18.1954 29.0191 0.0000 -15.9667 0.0000
# 2 18.1954 58.4434 -1.9497 0.0000 -7.2399 0.0000
# 3 29.0191 -1.9497 44.3010 0.0000 -22.5244 0.0000
# 4 0.0000 0.0000 0.0000 42.8008 0.0000 -0.8411
# 5 -15.9667 -7.2399 -22.5244 0.0000 36.8217 0.0000
# 6 0.0000 0.0000 0.0000 -0.8411 0.0000 35.8749
#
#
#
# Elastic Compliance Matrix: (Units=1/GPa)
#
#
# Indices 1 2 3 4 5 6 
#
# 1 0.016868 -0.005779 -0.011847 0.000000 -0.001069 0.000000
# 2 -0.005779 0.019938 0.007812 0.000000 0.006193 0.000000
# 3 -0.011847 0.007812 0.041868 0.000000 0.022010 0.000000
# 4 0.000000 0.000000 0.000000 0.023375 0.000000 0.000548
# 5 -0.001069 0.006193 0.022010 0.000000 0.041376 0.000000
# 6 0.000000 0.000000 0.000000 0.000548 0.000000 0.027887
#
#
# Mechanical properties :
#
#
# Convention : Reuss Voigt Hill
#
# Bulk Modulus (GPa) = 16.93657 30.90676 23.92167
# Shear Modulus (GPa) = 23.73915 32.59057 28.16486
#
# Velocity S-wave (km/s) = 3.20397 3.75407 3.48987
# Velocity P-wave (km/s) = 4.58378 5.67059 5.15590
#
# Compressibility (1/GPa) = 0.05904382
#
# Stress axis : x y z
#
# Youngs Moduli (GPa) = 59.28327 50.15651 23.88470
#
# Poissons Ratio (x) = 0.28987 0.28297
# Poissons Ratio (y) = 0.34261 -0.18658
# Poissons Ratio (z) = 0.70235 -0.39181
#
# Static dielectric constant tensor:
#      x y z
#    x 2.348400 0.000000 0.106840 
#    y 0.000000 1.980220 0.000000 
#    z 0.106840 0.000000 1.896050 
# 
# From -- ./inp_files/45363.got.cif
#   From: 2010.05.17/outbox.cif.g08.bks.cpg/sg14_23_cif.got.tgz:45363.got - 2010.06.03 17:49:19.
