data_PCOD9247807
_publ_section_title
;
Structure prediction by ZEFSAII (Michael W. Deem and Ramdas Pophale) SiO2 
 PCOD9247807
Probable space group: P 21/C
;
_chemical_formula_sum "Si O2"
_cell_formula_units_Z 24
_cell_length_a 16.537809
_cell_length_b 9.194620
_cell_length_c 19.533852
_cell_angle_alpha 90.000000
_cell_angle_beta 25.512189
_cell_angle_gamma 90.000000
_cell_volume 1279.315462
_symmetry_space_group_name_H-M "P 21/C"
_symmetry_group_IT_number 14
_symmetry_cell_setting 'monoclinic'
loop_
_space_group_symop_operation_xyz
x,y,z
-x,1/2+y,1/2-z
-x,-y,-z
x,1/2-y,1/2+z
loop_
_atom_site_type_symbol
_atom_site_label
_atom_site_fract_x
_atom_site_fract_y
_atom_site_fract_z
Si Si1 0.934892 0.600401 0.245007
Si Si2 0.334271 0.129790 0.319144
Si Si3 0.007199 0.262655 0.165219
Si Si4 0.363059 0.615135 0.904619
Si Si5 0.618860 0.102779 0.457935
Si Si6 0.633158 0.614765 0.360668
O O1 0.889302 0.675963 0.352320
O O2 0.799889 0.642969 0.286275
O O3 0.939663 0.422923 0.243596
O O4 0.144241 0.656630 0.068101
O O5 0.147418 0.198433 0.496290
O O6 0.496318 0.250718 0.201213
O O7 0.301238 0.077449 0.266444
O O8 0.397845 0.994772 0.316799
O O9 0.829592 0.160629 0.280559
O O10 0.376192 0.538619 0.969088
O O11 0.494732 0.246477 0.553429
O O12 0.500000 0.000000 0.500000
O O13 0.500000 0.500000 0.500000
#
# Coordination Sequence:
#
# PCOD9247807 Si02
#       6
#     4   4   4   4   4   4
#     4  10  22  40  62  90 118 164 204 249 312 366
#     4  10  23  41  60  92 122 160 210 254 311 361
#     4  10  22  40  64  89 123 161 208 252 305 381
#     4   9  22  40  59  87 123 157 205 255 302 379
#     4  10  22  41  59  90 124 159 209 250 312 371
#     4  11  23  40  63  89 123 163 204 257 310 370
#
# _framework density 18.760031999999999
#
# number of rings (size 3 to 8) (size 9 to 14) (size 15 to 20)
#    0.000    2.000    1.667    0.000    9.333    2.667 
#    3.000    1.667    0.000    0.000    0.000    0.000 
#    0.000    0.000    0.000    0.000    0.000    0.000 
#
# Total GULP energy -133751.170808 kJ/mol
# GULP energy per Si atom -5572.965450 kJ/mol
# Density = 1.871733 g / cm^3
# Si number density = 18.760032 Si / 1000 Ang^3
#
#
#
# Elastic Constant Matrix: (Units=GPa)
#
#
# Indices 1 2 3 4 5 6 
#
# 1 177.8327 31.5475 73.9181 0.0000 3.6495 0.0000
# 2 31.5475 40.9249 29.8465 0.0000 15.2820 0.0000
# 3 73.9181 29.8465 71.0674 0.0000 14.8270 0.0000
# 4 0.0000 0.0000 0.0000 28.1401 0.0000 -1.0864
# 5 3.6495 15.2820 14.8270 0.0000 32.0715 0.0000
# 6 0.0000 0.0000 0.0000 -1.0864 0.0000 37.1713
#
#
#
# Elastic Compliance Matrix: (Units=1/GPa)
#
#
# Indices 1 2 3 4 5 6 
#
# 1 0.010473 -0.001714 -0.011173 0.000000 0.004790 0.000000
# 2 -0.001714 0.039403 -0.012052 0.000000 -0.013009 0.000000
# 3 -0.011173 -0.012052 0.032417 0.000000 -0.007973 0.000000
# 4 0.000000 0.000000 0.000000 0.035577 0.000000 0.001040
# 5 0.004790 -0.013009 -0.007973 0.000000 0.040520 0.000000
# 6 0.000000 0.000000 0.000000 0.001040 0.000000 0.026933
#
#
# Mechanical properties :
#
#
# Convention : Reuss Voigt Hill
#
# Bulk Modulus (GPa) = 30.84856 62.27214 46.56035
# Shear Modulus (GPa) = 20.32482 29.77745 25.05113
#
# Velocity S-wave (km/s) = 3.29509 3.98839 3.65820
# Velocity P-wave (km/s) = 5.56384 7.38077 6.53575
#
# Compressibility (1/GPa) = 0.03241642
#
# Stress axis : x y z
#
# Youngs Moduli (GPa) = 95.48274 25.37877 30.84795
#
# Poissons Ratio (x) = 0.04349 0.34466
# Poissons Ratio (y) = 0.16363 0.37177
# Poissons Ratio (z) = 1.06682 0.30586
#
# Static dielectric constant tensor:
#      x y z
#    x 1.685340 0.000000 0.024240 
#    y 0.000000 1.645500 0.000000 
#    z 0.024240 0.000000 1.683600 
# 
# From -- ./inp_files/54486.got.cif
#   From: 2010.05.17/outbox.cif.g08.bks.cpg/sg14_28_cif.got.tgz:54486.got - 2010.06.03 17:49:19.
