data_PCOD9247875
_publ_section_title
;
Structure prediction by ZEFSAII (Michael W. Deem and Ramdas Pophale) SiO2 
 PCOD9247875
Probable space group: P 21/C
;
_chemical_formula_sum "Si O2"
_cell_formula_units_Z 24
_cell_length_a 20.995443
_cell_length_b 5.080790
_cell_length_c 29.925928
_cell_angle_alpha 90.000000
_cell_angle_beta 162.118926
_cell_angle_gamma 90.000000
_cell_volume 980.171525
_symmetry_space_group_name_H-M "P 21/C"
_symmetry_group_IT_number 14
_symmetry_cell_setting 'monoclinic'
loop_
_space_group_symop_operation_xyz
x,y,z
-x,1/2+y,1/2-z
-x,-y,-z
x,1/2-y,1/2+z
loop_
_atom_site_type_symbol
_atom_site_label
_atom_site_fract_x
_atom_site_fract_y
_atom_site_fract_z
Si Si1 0.887028 0.215789 0.191093
Si Si2 0.754733 0.881808 0.338252
Si Si3 0.539634 0.463101 0.901832
Si Si4 0.104822 0.765882 0.132979
Si Si5 0.356155 0.777470 0.656395
Si Si6 0.097716 0.095709 0.416459
O O1 0.020473 0.487266 0.279068
O O2 0.913664 0.079893 0.257174
O O3 0.667416 0.315540 0.025907
O O4 0.536497 0.750122 0.184686
O O5 0.729440 0.138778 0.352110
O O6 0.915644 0.697477 0.471753
O O7 0.831593 0.971208 0.340919
O O8 0.324569 0.588272 0.775165
O O9 0.702568 0.644200 0.982841
O O10 0.997768 0.784097 0.109505
O O11 0.543585 0.991900 0.777375
O O12 0.182211 0.856449 0.503825
#
# Coordination Sequence:
#
# PCOD9247875 Si02
#       6
#     4   4   4   4   4   4
#     4  10  25  44  71 102 138 188 239 289 343 415
#     4  10  22  40  64  98 139 176 225 294 346 413
#     4  11  22  43  70  93 140 185 226 293 355 402
#     4  10  23  43  65 103 137 178 239 287 350 422
#     4  11  22  37  67 100 129 178 223 271 344 413
#     4  10  23  45  66 102 138 180 238 282 347 422
#
# _framework density 24.485512
#
# number of rings (size 3 to 8) (size 9 to 14) (size 15 to 20)
#    0.000    1.667    1.667    1.500    7.000    0.667 
#   15.000    0.833    0.000    0.000    0.000    0.000 
#    0.000    0.000    0.000    0.000    0.000    0.000 
#
# Total GULP energy -133809.114127 kJ/mol
# GULP energy per Si atom -5575.379755 kJ/mol
# Density = 2.442978 g / cm^3
# Si number density = 24.485512 Si / 1000 Ang^3
#
#
#
# Elastic Constant Matrix: (Units=GPa)
#
#
# Indices 1 2 3 4 5 6 
#
# 1 99.2781 42.9803 59.7682 0.0000 -5.6759 0.0000
# 2 42.9803 65.4904 55.9872 0.0000 9.8851 0.0000
# 3 59.7682 55.9872 190.9011 0.0000 -23.1430 0.0000
# 4 0.0000 0.0000 0.0000 48.1764 0.0000 16.1032
# 5 -5.6759 9.8851 -23.1430 0.0000 54.5867 0.0000
# 6 0.0000 0.0000 0.0000 16.1032 0.0000 22.2893
#
#
#
# Elastic Compliance Matrix: (Units=1/GPa)
#
#
# Indices 1 2 3 4 5 6 
#
# 1 0.015088 -0.008612 -0.001917 0.000000 0.002316 0.000000
# 2 -0.008612 0.027798 -0.006510 0.000000 -0.008689 0.000000
# 3 -0.001917 -0.006510 0.008293 0.000000 0.004495 0.000000
# 4 0.000000 0.000000 0.000000 0.027365 0.000000 -0.019770
# 5 0.002316 -0.008689 0.004495 0.000000 0.022040 0.000000
# 6 0.000000 0.000000 0.000000 -0.019770 0.000000 0.059148
#
#
# Mechanical properties :
#
#
# Convention : Reuss Voigt Hill
#
# Bulk Modulus (GPa) = 58.47875 74.79342 66.63609
# Shear Modulus (GPa) = 25.06133 38.13941 31.60037
#
# Velocity S-wave (km/s) = 3.20272 3.95097 3.59635
# Velocity P-wave (km/s) = 6.13281 7.17118 6.67223
#
# Compressibility (1/GPa) = 0.01710023
#
# Stress axis : x y z
#
# Youngs Moduli (GPa) = 66.27828 35.97351 120.58853
#
# Poissons Ratio (x) = 0.30982 0.23119
# Poissons Ratio (y) = 0.57082 0.78498
# Poissons Ratio (z) = 0.12707 0.23417
#
# Static dielectric constant tensor:
#      x y z
#    x 2.046670 0.000000 0.041350 
#    y 0.000000 2.002960 0.000000 
#    z 0.041350 0.000000 1.971380 
# 
# From -- ./inp_files/56589.got.cif
#   From: 2010.05.17/outbox.cif.g08.bks.cpg/sg14_29_cif.got.tgz:56589.got - 2010.06.03 17:49:19.
