data_PCOD9247997
_publ_section_title
;
Structure prediction by ZEFSAII (Michael W. Deem and Ramdas Pophale) SiO2 
 PCOD9247997
Probable space group: P 21/C
;
_chemical_formula_sum "Si O2"
_cell_formula_units_Z 26
_cell_length_a 14.365834
_cell_length_b 13.436936
_cell_length_c 9.276530
_cell_angle_alpha 90.000000
_cell_angle_beta 41.090068
_cell_angle_gamma 90.000000
_cell_volume 1176.911152
_symmetry_space_group_name_H-M "P 21/C"
_symmetry_group_IT_number 14
_symmetry_cell_setting 'monoclinic'
loop_
_space_group_symop_operation_xyz
x,y,z
-x,1/2+y,1/2-z
-x,-y,-z
x,1/2-y,1/2+z
loop_
_atom_site_type_symbol
_atom_site_label
_atom_site_fract_x
_atom_site_fract_y
_atom_site_fract_z
Si Si1 0.000000 0.000000 0.500000
Si Si2 0.807390 0.964034 0.987824
Si Si3 0.333300 0.829758 0.426225
Si Si4 0.815488 0.182943 0.099748
Si Si5 0.274902 0.458992 0.868529
Si Si6 0.856224 0.835585 0.216634
Si Si7 0.369979 0.338385 0.513495
O O1 0.840295 0.990375 0.616718
O O2 0.939658 0.957805 0.725584
O O3 0.836403 0.906496 0.102381
O O4 0.791243 0.080260 0.042533
O O5 0.675791 0.912918 0.061182
O O6 0.217715 0.773818 0.465286
O O7 0.288182 0.816230 0.642913
O O8 0.334744 0.945300 0.379866
O O9 0.486212 0.786765 0.205248
O O10 0.978028 0.188289 0.961406
O O11 0.387546 0.396046 0.644173
O O12 0.196586 0.390672 0.077609
O O13 0.758692 0.738603 0.313682
#
# Coordination Sequence:
#
# PCOD9247997 Si02
#       7
#     2   4   4   4   4   4   4
#     4  10  22  40  74 108 134 184 236 298 358 422
#     4  11  24  48  73 104 145 191 240 300 369 425
#     4  12  30  48  70 108 149 193 243 300 365 441
#     4  12  29  45  75 107 146 188 245 307 362 429
#     4  11  24  47  76 101 148 185 247 293 367 427
#     4  12  25  46  77 110 141 192 246 305 362 436
#     4  11  29  46  75 104 149 195 239 296 367 445
#
# _framework density 22.091726999999999
#
# number of rings (size 3 to 8) (size 9 to 14) (size 15 to 20)
#    0.000    0.615    3.077    2.769   17.231    1.846 
#    0.000    0.000    0.000    0.000    0.000    0.000 
#    0.000    0.000    0.000    0.000    0.000    0.000 
#
# Total GULP energy -145060.005132 kJ/mol
# GULP energy per Si atom -5579.230967 kJ/mol
# Density = 2.204145 g / cm^3
# Si number density = 22.091727 Si / 1000 Ang^3
#
#
#
# Elastic Constant Matrix: (Units=GPa)
#
#
# Indices 1 2 3 4 5 6 
#
# 1 36.2077 -0.5533 11.3524 0.0000 6.3470 0.0000
# 2 -0.5533 71.9565 6.7673 0.0000 -1.1737 0.0000
# 3 11.3524 6.7673 89.9529 0.0000 -5.0010 0.0000
# 4 0.0000 0.0000 0.0000 14.7794 0.0000 -4.7146
# 5 6.3470 -1.1737 -5.0010 0.0000 12.8213 0.0000
# 6 0.0000 0.0000 0.0000 -4.7146 0.0000 15.0992
#
#
#
# Elastic Compliance Matrix: (Units=1/GPa)
#
#
# Indices 1 2 3 4 5 6 
#
# 1 0.032384 0.000437 -0.005120 0.000000 -0.017988 0.000000
# 2 0.000437 0.014012 -0.001073 0.000000 0.000648 0.000000
# 3 -0.005120 -0.001073 0.012245 0.000000 0.007212 0.000000
# 4 0.000000 0.000000 0.000000 0.075146 0.000000 0.023464
# 5 -0.017988 0.000648 0.007212 0.000000 0.089773 0.000000
# 6 0.000000 0.000000 0.000000 0.023464 0.000000 0.073555
#
#
# Mechanical properties :
#
#
# Convention : Reuss Voigt Hill
#
# Bulk Modulus (GPa) = 21.21862 25.91666 23.56764
# Shear Modulus (GPa) = 15.41610 20.57670 17.99640
#
# Velocity S-wave (km/s) = 2.64450 3.05523 2.85725
# Velocity P-wave (km/s) = 4.35317 4.91963 4.64505
#
# Compressibility (1/GPa) = 0.04712841
#
# Stress axis : x y z
#
# Youngs Moduli (GPa) = 30.87978 71.36666 81.66720
#
# Poissons Ratio (x) = -0.03120 0.41813
# Poissons Ratio (y) = -0.01350 0.08765
# Poissons Ratio (z) = 0.15810 0.07660
#
# Static dielectric constant tensor:
#      x y z
#    x 1.776160 0.000000 -0.024180 
#    y 0.000000 1.830830 0.000000 
#    z -0.024180 0.000000 1.788300 
# 
# From -- ./inp_files/13185.got.cif
#   From: 2010.05.17/outbox.cif.g08.bks.cpg/sg14_7_cif.got.tgz:13185.got - 2010.06.03 17:49:19.
