data_PCOD9247881
_publ_section_title
;
Structure prediction by ZEFSAII (Michael W. Deem and Ramdas Pophale) SiO2 
 PCOD9247881
Probable space group: P 21/C
;
_chemical_formula_sum "Si O2"
_cell_formula_units_Z 32
_cell_length_a 13.196508
_cell_length_b 13.504180
_cell_length_c 8.756263
_cell_angle_alpha 90.000000
_cell_angle_beta 106.724778
_cell_angle_gamma 90.000000
_cell_volume 1494.426920
_symmetry_space_group_name_H-M "P 21/C"
_symmetry_group_IT_number 14
_symmetry_cell_setting 'monoclinic'
loop_
_space_group_symop_operation_xyz
x,y,z
-x,1/2+y,1/2-z
-x,-y,-z
x,1/2-y,1/2+z
loop_
_atom_site_type_symbol
_atom_site_label
_atom_site_fract_x
_atom_site_fract_y
_atom_site_fract_z
Si Si1 0.635028 0.737666 0.293376
Si Si2 0.469393 0.444961 0.830200
Si Si3 0.411912 0.853187 0.204748
Si Si4 0.122420 0.511207 0.518085
Si Si5 0.763098 0.092034 0.644125
Si Si6 0.312830 0.565091 0.203884
Si Si7 0.220300 0.802692 0.901490
Si Si8 0.270143 0.121973 0.883179
O O1 0.609701 0.643826 0.173818
O O2 0.527224 0.803187 0.258241
O O3 0.662481 0.683325 0.463605
O O4 0.728830 0.802853 0.260877
O O5 0.428605 0.528581 0.695939
O O6 0.571263 0.399892 0.791773
O O7 0.500000 0.500000 0.000000
O O8 0.343375 0.857147 0.331398
O O9 0.331118 0.811393 0.044053
O O10 0.186251 0.524178 0.704729
O O11 0.144743 0.616295 0.445683
O O12 0.170374 0.423467 0.432994
O O13 0.000000 0.500000 0.500000
O O14 0.738601 0.034117 0.479009
O O15 0.825249 0.192520 0.628877
O O16 0.246671 0.653726 0.246984
O O17 0.318206 0.476917 0.327097
#
# Coordination Sequence:
#
# PCOD9247881 Si02
#       8
#     4   4   4   4   4   4   4   4
#     4  12  25  41  62  96 143 186 230 270 335 405
#     4  12  22  34  57  90 137 194 229 261 319 392
#     4  11  23  37  61  96 141 190 228 269 329 400
#     4  10  24  51  73  93 132 171 226 297 360 402
#     4  11  21  40  69  98 130 173 228 283 332 412
#     4  11  22  37  62  92 138 173 230 269 332 389
#     4  10  22  40  65 103 129 171 228 285 332 405
#     4  11  27  43  64  96 133 183 225 284 336 411
#
# _framework density 21.412890000000001
#
# number of rings (size 3 to 8) (size 9 to 14) (size 15 to 20)
#    0.000    1.000    2.500    6.000    3.500    1.000 
#    2.250    2.500    0.000    0.000    0.000    0.000 
#    0.000    0.000    0.000    0.000    0.000    0.000 
#
# Total GULP energy -178556.807267 kJ/mol
# GULP energy per Si atom -5579.900227 kJ/mol
# Density = 2.136415 g / cm^3
# Si number density = 21.412890 Si / 1000 Ang^3
#
#
#
# Elastic Constant Matrix: (Units=GPa)
#
#
# Indices 1 2 3 4 5 6 
#
# 1 105.8336 37.1748 31.0125 0.0000 -16.6307 0.0000
# 2 37.1748 102.8387 26.5061 0.0000 -4.3743 0.0000
# 3 31.0125 26.5061 112.4417 0.0000 -14.7816 0.0000
# 4 0.0000 0.0000 0.0000 43.5390 0.0000 -5.6446
# 5 -16.6307 -4.3743 -14.7816 0.0000 12.8025 0.0000
# 6 0.0000 0.0000 0.0000 -5.6446 0.0000 19.2934
#
#
#
# Elastic Compliance Matrix: (Units=1/GPa)
#
#
# Indices 1 2 3 4 5 6 
#
# 1 0.013486 -0.004029 -0.000764 0.000000 0.015260 0.000000
# 2 -0.004029 0.011565 -0.002103 0.000000 -0.003710 0.000000
# 3 -0.000764 -0.002103 0.011052 0.000000 0.011051 0.000000
# 4 0.000000 0.000000 0.000000 0.023873 0.000000 0.006985
# 5 0.015260 -0.003710 0.011051 0.000000 0.109424 0.000000
# 6 0.000000 0.000000 0.000000 0.006985 0.000000 0.053875
#
#
# Mechanical properties :
#
#
# Convention : Reuss Voigt Hill
#
# Bulk Modulus (GPa) = 44.81859 56.72233 50.77046
# Shear Modulus (GPa) = 20.44971 30.22170 25.33570
#
# Velocity S-wave (km/s) = 3.09369 3.76091 3.44350
# Velocity P-wave (km/s) = 5.80838 6.73844 6.29062
#
# Compressibility (1/GPa) = 0.02231217
#
# Stress axis : x y z
#
# Youngs Moduli (GPa) = 74.15252 86.47138 90.47731
#
# Poissons Ratio (x) = 0.34839 0.06909
# Poissons Ratio (y) = 0.29876 0.19024
# Poissons Ratio (z) = 0.05663 0.18182
#
# Static dielectric constant tensor:
#      x y z
#    x 1.786090 0.000000 -0.007330 
#    y 0.000000 1.850230 0.000000 
#    z -0.007330 0.000000 1.842330 
# 
# From -- ./inp_files/13334.got.cif
#   From: 2010.05.17/outbox.cif.g08.bks.cpg/sg14_7_cif.got.tgz:13334.got - 2010.06.03 17:49:19.
