data_PCOD9247162
_publ_section_title
;
Structure prediction by ZEFSAII (Michael W. Deem and Ramdas Pophale) SiO2 
 PCOD9247162
Probable space group: P 21/C
;
_chemical_formula_sum "Si O2"
_cell_formula_units_Z 28
_cell_length_a 9.251971
_cell_length_b 23.191862
_cell_length_c 9.169934
_cell_angle_alpha 90.000000
_cell_angle_beta 35.797252
_cell_angle_gamma 90.000000
_cell_volume 1150.884264
_symmetry_space_group_name_H-M "P 21/C"
_symmetry_group_IT_number 14
_symmetry_cell_setting 'monoclinic'
loop_
_space_group_symop_operation_xyz
x,y,z
-x,1/2+y,1/2-z
-x,-y,-z
x,1/2-y,1/2+z
loop_
_atom_site_type_symbol
_atom_site_label
_atom_site_fract_x
_atom_site_fract_y
_atom_site_fract_z
Si Si1 0.760446 0.564911 0.329003
Si Si2 0.834654 0.108543 0.006253
Si Si3 0.908808 0.798975 0.014220
Si Si4 0.999949 0.691169 0.110508
Si Si5 0.172735 0.536014 0.209803
Si Si6 0.554529 0.372454 0.206976
Si Si7 0.284276 0.069644 0.451871
O O1 0.870540 0.629059 0.211817
O O2 0.512734 0.580115 0.617213
O O3 0.748623 0.539614 0.178478
O O4 0.928269 0.532105 0.307934
O O5 0.903633 0.166642 0.035606
O O6 0.034777 0.102152 0.711059
O O7 0.885216 0.055637 0.078930
O O8 0.539937 0.104981 0.221270
O O9 0.864372 0.737823 0.124599
O O10 0.677948 0.841562 0.177487
O O11 0.006125 0.788489 0.772558
O O12 0.283921 0.676289 0.845109
O O13 0.305920 0.592570 0.032719
O O14 0.322600 0.478911 0.044345
#
# Coordination Sequence:
#
# PCOD9247162 Si02
#       7
#     4   4   4   4   4   4   4
#     4  10  24  45  68 102 139 185 233 298 339 428
#     4  12  26  46  67 105 147 180 235 296 350 415
#     4  11  24  43  68  99 131 188 225 296 349 422
#     4  10  24  42  69  98 133 180 236 284 362 410
#     4  11  23  47  71  97 140 194 232 287 362 412
#     4  10  21  44  71  92 144 176 237 284 358 412
#     4  12  29  41  74 108 142 186 243 290 343 423
#
# _framework density 24.32912
#
# number of rings (size 3 to 8) (size 9 to 14) (size 15 to 20)
#    0.000    1.143    4.286    2.143    8.000    4.000 
#    0.000    0.000    0.000    0.000    0.000    0.000 
#    0.000    0.000    0.000    0.000    0.000    0.000 
#
# Total GULP energy -156533.983908 kJ/mol
# GULP energy per Si atom -5590.499425 kJ/mol
# Density = 2.427375 g / cm^3
# Si number density = 24.329120 Si / 1000 Ang^3
#
#
#
# Elastic Constant Matrix: (Units=GPa)
#
#
# Indices 1 2 3 4 5 6 
#
# 1 72.2889 5.1690 53.8250 0.0000 10.3106 0.0000
# 2 5.1690 72.5498 12.9593 0.0000 3.1085 0.0000
# 3 53.8250 12.9593 130.0006 0.0000 8.7595 0.0000
# 4 0.0000 0.0000 0.0000 23.4381 0.0000 7.4094
# 5 10.3106 3.1085 8.7595 0.0000 31.2116 0.0000
# 6 0.0000 0.0000 0.0000 7.4094 0.0000 34.3694
#
#
#
# Elastic Compliance Matrix: (Units=1/GPa)
#
#
# Indices 1 2 3 4 5 6 
#
# 1 0.020602 0.000198 -0.008246 0.000000 -0.004511 0.000000
# 2 0.000198 0.014068 -0.001412 0.000000 -0.001070 0.000000
# 3 -0.008246 -0.001412 0.011267 0.000000 -0.000297 0.000000
# 4 0.000000 0.000000 0.000000 0.045786 0.000000 -0.009871
# 5 -0.004511 -0.001070 -0.000297 0.000000 0.033720 0.000000
# 6 0.000000 0.000000 0.000000 -0.009871 0.000000 0.031224
#
#
# Mechanical properties :
#
#
# Convention : Reuss Voigt Hill
#
# Bulk Modulus (GPa) = 37.01319 46.52733 41.77026
# Shear Modulus (GPa) = 27.08672 31.32956 29.20814
#
# Velocity S-wave (km/s) = 3.34030 3.59240 3.46864
# Velocity P-wave (km/s) = 5.48848 6.03099 5.76612
#
# Compressibility (1/GPa) = 0.02701740
#
# Stress axis : x y z
#
# Youngs Moduli (GPa) = 48.53793 71.08511 88.75285
#
# Poissons Ratio (x) = -0.01410 0.73185
# Poissons Ratio (y) = -0.00963 0.12535
# Poissons Ratio (z) = 0.40024 0.10040
#
# Static dielectric constant tensor:
#      x y z
#    x 1.973330 0.000000 -0.051670 
#    y 0.000000 1.927520 0.000000 
#    z -0.051670 0.000000 2.010130 
# 
# From -- ./inp_files/11017.got.cif
#   From: 2010.05.17/outbox.cif.g08.bks.cpg/sg14_6_cif.got.tgz:11017.got - 2010.06.03 17:49:19.
