data_PCOD9247199
_publ_section_title
;
Structure prediction by ZEFSAII (Michael W. Deem and Ramdas Pophale) SiO2 
 PCOD9247199
Probable space group: P 21/C
;
_chemical_formula_sum "Si O2"
_cell_formula_units_Z 28
_cell_length_a 11.845533
_cell_length_b 8.894444
_cell_length_c 10.105267
_cell_angle_alpha 90.000000
_cell_angle_beta 79.861341
_cell_angle_gamma 90.000000
_cell_volume 1048.059719
_symmetry_space_group_name_H-M "P 21/C"
_symmetry_group_IT_number 14
_symmetry_cell_setting 'monoclinic'
loop_
_space_group_symop_operation_xyz
x,y,z
-x,1/2+y,1/2-z
-x,-y,-z
x,1/2-y,1/2+z
loop_
_atom_site_type_symbol
_atom_site_label
_atom_site_fract_x
_atom_site_fract_y
_atom_site_fract_z
Si Si1 0.455452 0.529225 0.213266
Si Si2 0.252363 0.726825 0.247629
Si Si3 0.670706 0.517010 0.356432
Si Si4 0.083693 0.488707 0.292132
Si Si5 0.825917 0.691536 0.123029
Si Si6 0.383200 0.193897 0.519185
Si Si7 0.033170 0.797192 0.409467
O O1 0.358700 0.639766 0.288960
O O2 0.563911 0.494358 0.280060
O O3 0.400551 0.379847 0.159949
O O4 0.511496 0.629530 0.084769
O O5 0.172777 0.598867 0.200622
O O6 0.282862 0.851412 0.133654
O O7 0.170906 0.805855 0.374520
O O8 0.771980 0.613411 0.263351
O O9 0.621330 0.626180 0.477047
O O10 0.015357 0.616433 0.388912
O O11 0.160540 0.370024 0.357042
O O12 0.009867 0.385359 0.211339
O O13 0.736091 0.652764 0.026156
O O14 0.953944 0.651049 0.046865
#
# Coordination Sequence:
#
# PCOD9247199 Si02
#       7
#     4   4   4   4   4   4   4
#     4  10  21  45  65  98 133 175 220 275 331 390
#     4  10  24  40  66  97 129 172 220 273 324 396
#     4  11  23  40  68  97 131 178 221 270 327 389
#     4  10  24  43  64  94 133 170 216 273 324 398
#     4  11  22  41  68  95 133 175 215 267 338 390
#     4  10  23  41  71  94 134 175 220 276 333 388
#     4  10  24  43  66  96 133 172 215 275 326 399
#
# _framework density 26.716035000000002
#
# number of rings (size 3 to 8) (size 9 to 14) (size 15 to 20)
#    0.857    0.857    0.000    3.857    4.000    2.286 
#    0.000    7.143    0.000    0.000    0.000    0.000 
#    0.000    0.000    0.000    0.000    0.000    0.000 
#
# Total GULP energy -156612.943018 kJ/mol
# GULP energy per Si atom -5593.319394 kJ/mol
# Density = 2.665523 g / cm^3
# Si number density = 26.716035 Si / 1000 Ang^3
#
#
#
# Elastic Constant Matrix: (Units=GPa)
#
#
# Indices 1 2 3 4 5 6 
#
# 1 131.2757 52.1421 25.8868 0.0000 -20.4837 0.0000
# 2 52.1421 144.9376 7.8827 0.0000 -7.8061 0.0000
# 3 25.8868 7.8827 35.8834 0.0000 -11.8565 0.0000
# 4 0.0000 0.0000 0.0000 32.7344 0.0000 -7.4383
# 5 -20.4837 -7.8061 -11.8565 0.0000 31.8471 0.0000
# 6 0.0000 0.0000 0.0000 -7.4383 0.0000 63.4718
#
#
#
# Elastic Compliance Matrix: (Units=1/GPa)
#
#
# Indices 1 2 3 4 5 6 
#
# 1 0.010667 -0.003317 -0.005665 0.000000 0.003939 0.000000
# 2 -0.003317 0.008062 0.000650 0.000000 0.000085 0.000000
# 3 -0.005665 0.000650 0.034962 0.000000 0.009532 0.000000
# 4 0.000000 0.000000 0.000000 0.031385 0.000000 0.003678
# 5 0.003939 0.000085 0.009532 0.000000 0.037503 0.000000
# 6 0.000000 0.000000 0.000000 0.003678 0.000000 0.016186
#
#
# Mechanical properties :
#
#
# Convention : Reuss Voigt Hill
#
# Bulk Modulus (GPa) = 27.00824 53.76887 40.38856
# Shear Modulus (GPa) = 29.80264 40.68965 35.24615
#
# Velocity S-wave (km/s) = 3.34358 3.90685 3.63614
# Velocity P-wave (km/s) = 5.00374 6.36562 5.72532
#
# Compressibility (1/GPa) = 0.03702574
#
# Stress axis : x y z
#
# Youngs Moduli (GPa) = 93.74867 124.03699 28.60288
#
# Poissons Ratio (x) = 0.41146 0.16204
# Poissons Ratio (y) = 0.31098 -0.01859
# Poissons Ratio (z) = 0.53109 -0.08062
#
# Static dielectric constant tensor:
#      x y z
#    x 2.060160 0.000000 -0.069270 
#    y 0.000000 2.097420 0.000000 
#    z -0.069270 0.000000 2.132890 
# 
# From -- ./inp_files/28629.got.cif
#   From: 2010.05.17/outbox.cif.g08.bks.cpg/sg14_15_cif.got.tgz:28629.got - 2010.06.03 17:49:19.
