data_PCOD9247579
_publ_section_title
;
Structure prediction by ZEFSAII (Michael W. Deem and Ramdas Pophale) SiO2 
 PCOD9247579
Probable space group: P 21/C
;
_chemical_formula_sum "Si O2"
_cell_formula_units_Z 28
_cell_length_a 15.193239
_cell_length_b 5.186666
_cell_length_c 18.266106
_cell_angle_alpha 90.000000
_cell_angle_beta 130.541476
_cell_angle_gamma 90.000000
_cell_volume 1093.859230
_symmetry_space_group_name_H-M "P 21/C"
_symmetry_group_IT_number 14
_symmetry_cell_setting 'monoclinic'
loop_
_space_group_symop_operation_xyz
x,y,z
-x,1/2+y,1/2-z
-x,-y,-z
x,1/2-y,1/2+z
loop_
_atom_site_type_symbol
_atom_site_label
_atom_site_fract_x
_atom_site_fract_y
_atom_site_fract_z
Si Si1 0.605439 0.576700 0.900981
Si Si2 0.254736 0.025740 0.827093
Si Si3 0.823823 0.917755 0.605106
Si Si4 0.049326 0.820928 0.205688
Si Si5 0.715757 0.479179 0.819666
Si Si6 0.428236 0.601745 0.530741
Si Si7 0.128498 0.026781 0.102301
O O1 0.608280 0.523835 0.816311
O O2 0.738317 0.507367 0.995070
O O3 0.586281 0.866640 0.919544
O O4 0.534740 0.365593 0.909634
O O5 0.250343 0.291811 0.868854
O O6 0.320475 0.004122 0.785590
O O7 0.308316 0.846297 0.920182
O O8 0.126790 0.933164 0.736283
O O9 0.913062 0.703484 0.622006
O O10 0.916767 0.100270 0.694085
O O11 0.103207 0.010718 0.175213
O O12 0.783016 0.208641 0.867084
O O13 0.806819 0.710406 0.881526
O O14 0.500000 0.500000 0.500000
O O15 0.000000 0.000000 0.000000
#
# Coordination Sequence:
#
# PCOD9247579 Si02
#       7
#     4   4   4   4   4   4   4
#     4  11  24  42  65  95 124 161 205 259 313 372
#     4  10  22  39  59  88 123 165 204 259 308 364
#     4  11  20  34  57  85 126 165 214 250 294 359
#     4  11  20  33  56  85 123 167 215 247 293 356
#     4  11  23  40  61  87 126 166 204 255 312 364
#     4  11  24  45  70  93 120 157 207 262 323 380
#     4  11  23  37  55  86 128 174 212 249 297 357
#
# _framework density 25.597443999999999
#
# number of rings (size 3 to 8) (size 9 to 14) (size 15 to 20)
#    0.000    1.143    4.286    2.571    0.000    3.429 
#    0.000    1.429    0.000    0.000    0.000    0.000 
#    0.000    0.000    0.000    0.000    0.000    0.000 
#
# Total GULP energy -156439.866881 kJ/mol
# GULP energy per Si atom -5587.138103 kJ/mol
# Density = 2.553918 g / cm^3
# Si number density = 25.597444 Si / 1000 Ang^3
#
#
#
# Elastic Constant Matrix: (Units=GPa)
#
#
# Indices 1 2 3 4 5 6 
#
# 1 85.6115 -1.8695 18.4720 0.0000 -27.1548 0.0000
# 2 -1.8695 99.7496 15.7423 0.0000 -14.3618 0.0000
# 3 18.4720 15.7423 77.8089 0.0000 -21.6793 0.0000
# 4 0.0000 0.0000 0.0000 24.5610 0.0000 -0.4496
# 5 -27.1548 -14.3618 -21.6793 0.0000 48.3749 0.0000
# 6 0.0000 0.0000 0.0000 -0.4496 0.0000 34.4893
#
#
#
# Elastic Compliance Matrix: (Units=1/GPa)
#
#
# Indices 1 2 3 4 5 6 
#
# 1 0.014588 0.001671 -0.001579 0.000000 0.007978 0.000000
# 2 0.001671 0.010806 -0.001631 0.000000 0.003415 0.000000
# 3 -0.001579 -0.001631 0.015055 0.000000 0.005376 0.000000
# 4 0.000000 0.000000 0.000000 0.040725 0.000000 0.000531
# 5 0.007978 0.003415 0.005376 0.000000 0.028573 0.000000
# 6 0.000000 0.000000 0.000000 0.000531 0.000000 0.029001
#
#
# Mechanical properties :
#
#
# Convention : Reuss Voigt Hill
#
# Bulk Modulus (GPa) = 26.75891 36.42884 31.59387
# Shear Modulus (GPa) = 32.40805 36.87339 34.64072
#
# Velocity S-wave (km/s) = 3.56204 3.79952 3.68270
# Velocity P-wave (km/s) = 5.23392 5.78885 5.51837
#
# Compressibility (1/GPa) = 0.03737073
#
# Stress axis : x y z
#
# Youngs Moduli (GPa) = 68.54869 92.54477 66.42394
#
# Poissons Ratio (x) = -0.15466 0.10486
# Poissons Ratio (y) = -0.11456 0.10837
# Poissons Ratio (z) = 0.10821 0.15098
#
# Static dielectric constant tensor:
#      x y z
#    x 2.211010 0.000000 0.046890 
#    y 0.000000 2.067270 0.000000 
#    z 0.046890 0.000000 2.052370 
# 
# From -- ./inp_files/58646.got.cif
#   From: 2010.05.17/outbox.cif.g08.bks.cpg/sg14_30_cif.got.tgz:58646.got - 2010.06.03 17:49:19.
