data_PCOD9247788
_publ_section_title
;
Structure prediction by ZEFSAII (Michael W. Deem and Ramdas Pophale) SiO2 
 PCOD9247788
Probable space group: P 21/C
;
_chemical_formula_sum "Si O2"
_cell_formula_units_Z 16
_cell_length_a 7.311847
_cell_length_b 6.484963
_cell_length_c 17.513412
_cell_angle_alpha 90.000000
_cell_angle_beta 54.430303
_cell_angle_gamma 90.000000
_cell_volume 675.482469
_symmetry_space_group_name_H-M "P 21/C"
_symmetry_group_IT_number 14
_symmetry_cell_setting 'monoclinic'
loop_
_space_group_symop_operation_xyz
x,y,z
-x,1/2+y,1/2-z
-x,-y,-z
x,1/2-y,1/2+z
loop_
_atom_site_type_symbol
_atom_site_label
_atom_site_fract_x
_atom_site_fract_y
_atom_site_fract_z
Si Si1 0.463474 0.227176 0.437953
Si Si2 0.306141 0.267280 0.812114
Si Si3 0.144349 0.935530 0.064350
Si Si4 0.325627 0.660704 0.894347
O O1 0.447419 0.293124 0.352884
O O2 0.687579 0.316241 0.419659
O O3 0.251806 0.338626 0.530049
O O4 0.431974 0.983351 0.435234
O O5 0.217146 0.492918 0.862085
O O6 0.472921 0.264539 0.700853
O O7 0.107147 0.105302 0.847640
O O8 0.168586 0.820702 0.976057
#
# Coordination Sequence:
#
# PCOD9247788 Si02
#       4
#     4   4   4   4
#     4   9  23  38  63  86 120 153 202 258 285 373
#     4  10  22  40  61  88 125 158 195 254 299 355
#     4  11  20  44  62  88 119 163 199 247 311 343
#     4  10  22  41  59  92 123 154 209 247 292 368
#
# _framework density 23.686771
#
# number of rings (size 3 to 8) (size 9 to 14) (size 15 to 20)
#    1.500    0.500    0.000    3.750    0.000    0.000 
#   13.500    0.000    0.000    0.000    0.000    0.000 
#    0.000    0.000    0.000    0.000    0.000    0.000 
#
# Total GULP energy -89300.216654 kJ/mol
# GULP energy per Si atom -5581.263541 kJ/mol
# Density = 2.363286 g / cm^3
# Si number density = 23.686771 Si / 1000 Ang^3
#
#
#
# Elastic Constant Matrix: (Units=GPa)
#
#
# Indices 1 2 3 4 5 6 
#
# 1 86.2876 8.3749 12.2585 0.0000 -8.9652 0.0000
# 2 8.3749 78.6657 25.6822 0.0000 8.8914 0.0000
# 3 12.2585 25.6822 92.1489 0.0000 -15.4745 0.0000
# 4 0.0000 0.0000 0.0000 25.9428 0.0000 -0.2947
# 5 -8.9652 8.8914 -15.4745 0.0000 11.8224 0.0000
# 6 0.0000 0.0000 0.0000 -0.2947 0.0000 23.5545
#
#
#
# Elastic Compliance Matrix: (Units=1/GPa)
#
#
# Indices 1 2 3 4 5 6 
#
# 1 0.013281 -0.003748 0.001849 0.000000 0.015310 0.000000
# 2 -0.003748 0.020067 -0.010390 0.000000 -0.031533 0.000000
# 3 0.001849 -0.010390 0.019289 0.000000 0.034463 0.000000
# 4 0.000000 0.000000 0.000000 0.038552 0.000000 0.000482
# 5 0.015310 -0.031533 0.034463 0.000000 0.165020 0.000000
# 6 0.000000 0.000000 0.000000 0.000482 0.000000 0.042461
#
#
# Mechanical properties :
#
#
# Convention : Reuss Voigt Hill
#
# Bulk Modulus (GPa) = 35.63821 38.85927 37.24874
# Shear Modulus (GPa) = 15.03307 26.31636 20.67472
#
# Velocity S-wave (km/s) = 2.52198 3.33681 2.95759
# Velocity P-wave (km/s) = 4.85374 5.59346 5.23668
#
# Compressibility (1/GPa) = 0.02805977
#
# Stress axis : x y z
#
# Youngs Moduli (GPa) = 75.29584 49.83299 51.84275
#
# Poissons Ratio (x) = 0.18677 -0.09585
# Poissons Ratio (y) = 0.28220 0.53862
# Poissons Ratio (z) = -0.13921 0.51774
#
# Static dielectric constant tensor:
#      x y z
#    x 1.913620 0.000000 0.044220 
#    y 0.000000 2.060080 0.000000 
#    z 0.044220 0.000000 1.834990 
# 
# From -- ./inp_files/22508.got.cif
#   From: 2010.05.17/outbox.cif.g08.bks.cpg/sg14_12_cif.got.tgz:22508.got - 2010.06.03 17:49:19.
