data_PCOD9247246
_publ_section_title
;
Structure prediction by ZEFSAII (Michael W. Deem and Ramdas Pophale) SiO2 
 PCOD9247246
Probable space group: P 21/C
;
_chemical_formula_sum "Si O2"
_cell_formula_units_Z 32
_cell_length_a 23.537460
_cell_length_b 4.861018
_cell_length_c 10.118662
_cell_angle_alpha 90.000000
_cell_angle_beta 99.125336
_cell_angle_gamma 90.000000
_cell_volume 1143.084419
_symmetry_space_group_name_H-M "P 21/C"
_symmetry_group_IT_number 14
_symmetry_cell_setting 'monoclinic'
loop_
_space_group_symop_operation_xyz
x,y,z
-x,1/2+y,1/2-z
-x,-y,-z
x,1/2-y,1/2+z
loop_
_atom_site_type_symbol
_atom_site_label
_atom_site_fract_x
_atom_site_fract_y
_atom_site_fract_z
Si Si1 0.000399 0.707692 0.667255
Si Si2 0.287965 0.548588 0.126890
Si Si3 0.193947 0.201449 0.233614
Si Si4 0.096534 0.499791 0.034774
Si Si5 0.807609 0.200260 0.094243
Si Si6 0.613012 0.730746 0.492688
Si Si7 0.507501 0.153606 0.662210
Si Si8 0.629118 0.431758 0.236017
O O1 0.056523 0.813048 0.612623
O O2 0.000484 0.385342 0.697289
O O3 0.944668 0.810519 0.569061
O O4 0.249584 0.306507 0.175136
O O5 0.341167 0.429639 0.063650
O O6 0.314833 0.746716 0.248103
O O7 0.246578 0.717802 0.014393
O O8 0.138320 0.305298 0.135048
O O9 0.193650 0.381719 0.368262
O O10 0.193013 0.883991 0.272346
O O11 0.135882 0.697796 0.960314
O O12 0.545146 0.805499 0.456012
O O13 0.618095 0.482080 0.388612
O O14 0.630933 0.788642 0.650857
O O15 0.493137 0.348094 0.780906
O O16 0.573491 0.223392 0.653697
#
# Coordination Sequence:
#
# PCOD9247246 Si02
#       8
#     4   4   4   4   4   4   4   4
#     4  11  24  41  68 104 144 184 231 291 352 427
#     4  11  26  43  69  99 140 187 241 301 369 441
#     4  11  26  45  69  99 138 186 240 299 358 426
#     4  10  24  43  70 102 139 188 236 289 359 423
#     4  11  26  45  70  98 140 184 243 297 359 427
#     4  11  25  44  73 103 144 189 240 303 371 454
#     4  10  21  46  69 105 140 186 235 297 367 448
#     4  11  25  46  71 107 142 189 241 301 374 450
#
# _framework density 27.994433999999998
#
# number of rings (size 3 to 8) (size 9 to 14) (size 15 to 20)
#    0.000    1.250    1.250    2.625    5.250    8.000 
#    0.000    3.125    0.000    0.000    0.000    0.000 
#    0.000    0.000    0.000    0.000    0.000    0.000 
#
# Total GULP energy -179711.015610 kJ/mol
# GULP energy per Si atom -5615.969238 kJ/mol
# Density = 2.793072 g / cm^3
# Si number density = 27.994434 Si / 1000 Ang^3
#
#
#
# Elastic Constant Matrix: (Units=GPa)
#
#
# Indices 1 2 3 4 5 6 
#
# 1 152.8708 36.2244 46.7282 0.0000 21.7998 0.0000
# 2 36.2244 80.6084 24.1952 0.0000 4.2343 0.0000
# 3 46.7282 24.1952 109.8189 0.0000 7.6905 0.0000
# 4 0.0000 0.0000 0.0000 45.9802 0.0000 -1.3861
# 5 21.7998 4.2343 7.6905 0.0000 50.9192 0.0000
# 6 0.0000 0.0000 0.0000 -1.3861 0.0000 29.5126
#
#
#
# Elastic Compliance Matrix: (Units=1/GPa)
#
#
# Indices 1 2 3 4 5 6 
#
# 1 0.008485 -0.002822 -0.002780 0.000000 -0.002978 0.000000
# 2 -0.002822 0.014245 -0.001960 0.000000 0.000320 0.000000
# 3 -0.002780 -0.001960 0.010739 0.000000 -0.000269 0.000000
# 4 0.000000 0.000000 0.000000 0.021779 0.000000 0.001023
# 5 -0.002978 0.000320 -0.000269 0.000000 0.020928 0.000000
# 6 0.000000 0.000000 0.000000 0.001023 0.000000 0.033932
#
#
# Mechanical properties :
#
#
# Convention : Reuss Voigt Hill
#
# Bulk Modulus (GPa) = 54.51001 61.95486 58.23244
# Shear Modulus (GPa) = 38.06688 41.02576 39.54632
#
# Velocity S-wave (km/s) = 3.69155 3.83233 3.76260
# Velocity P-wave (km/s) = 6.13873 6.46232 6.30260
#
# Compressibility (1/GPa) = 0.01834526
#
# Stress axis : x y z
#
# Youngs Moduli (GPa) = 117.86078 70.19808 93.11471
#
# Poissons Ratio (x) = 0.19810 0.25885
# Poissons Ratio (y) = 0.33261 0.18252
# Poissons Ratio (z) = 0.32764 0.13760
#
# Static dielectric constant tensor:
#      x y z
#    x 2.160050 0.000000 -0.028120 
#    y 0.000000 2.109530 0.000000 
#    z -0.028120 0.000000 2.160870 
# 
# From -- ./inp_files/35538.got.cif
#   From: 2010.05.17/outbox.cif.g08.bks.cpg/sg14_18_cif.got.tgz:35538.got - 2010.06.03 17:49:19.
