data_PCOD9247766
_publ_section_title
;
Structure prediction by ZEFSAII (Michael W. Deem and Ramdas Pophale) SiO2 
 PCOD9247766
Probable space group: P 21/C
;
_chemical_formula_sum "Si O2"
_cell_formula_units_Z 20
_cell_length_a 15.493945
_cell_length_b 5.377761
_cell_length_c 10.033075
_cell_angle_alpha 90.000000
_cell_angle_beta 75.750559
_cell_angle_gamma 90.000000
_cell_volume 810.262795
_symmetry_space_group_name_H-M "P 21/C"
_symmetry_group_IT_number 14
_symmetry_cell_setting 'monoclinic'
loop_
_space_group_symop_operation_xyz
x,y,z
-x,1/2+y,1/2-z
-x,-y,-z
x,1/2-y,1/2+z
loop_
_atom_site_type_symbol
_atom_site_label
_atom_site_fract_x
_atom_site_fract_y
_atom_site_fract_z
Si Si1 0.646662 0.135806 0.785637
Si Si2 0.103068 0.431290 0.252878
Si Si3 0.421892 0.372110 0.116592
Si Si4 0.733552 0.067286 0.476492
Si Si5 0.934399 0.069256 0.643478
O O1 0.600570 0.403739 0.772917
O O2 0.711545 0.088534 0.638320
O O3 0.700426 0.196113 0.901275
O O4 0.577145 0.907774 0.828158
O O5 0.167413 0.500337 0.106461
O O6 0.108539 0.659831 0.353446
O O7 0.000590 0.402359 0.246054
O O8 0.127438 0.166117 0.304552
O O9 0.334537 0.363463 0.055917
O O10 0.500000 0.500000 0.000000
O O11 0.000000 0.000000 0.500000
#
# Coordination Sequence:
#
# PCOD9247766 Si02
#       5
#     4   4   4   4   4
#     4  10  25  42  66  97 131 174 214 273 324 391
#     4  10  23  38  60  92 120 165 211 261 321 380
#     4  10  24  42  67  95 131 171 220 268 328 388
#     4  10  26  41  69  96 135 170 224 266 337 388
#     4  10  22  40  60  87 124 164 211 262 317 378
#
# _framework density 24.683351999999999
#
# number of rings (size 3 to 8) (size 9 to 14) (size 15 to 20)
#    1.200    0.800    0.000    1.200    8.400    1.600 
#    0.000    0.000    0.000    0.000    0.000    0.000 
#    0.000    0.000    0.000    0.000    0.000    0.000 
#
# Total GULP energy -111542.907550 kJ/mol
# GULP energy per Si atom -5577.145377 kJ/mol
# Density = 2.462717 g / cm^3
# Si number density = 24.683352 Si / 1000 Ang^3
#
#
#
# Elastic Constant Matrix: (Units=GPa)
#
#
# Indices 1 2 3 4 5 6 
#
# 1 79.9071 30.4187 8.8254 0.0000 -6.2780 0.0000
# 2 30.4187 159.4775 31.2233 0.0000 8.1549 0.0000
# 3 8.8254 31.2233 115.1803 0.0000 -19.4456 0.0000
# 4 0.0000 0.0000 0.0000 15.9101 0.0000 -9.3303
# 5 -6.2780 8.1549 -19.4456 0.0000 30.1530 0.0000
# 6 0.0000 0.0000 0.0000 -9.3303 0.0000 13.7883
#
#
#
# Elastic Compliance Matrix: (Units=1/GPa)
#
#
# Indices 1 2 3 4 5 6 
#
# 1 0.013896 -0.002929 0.000394 0.000000 0.003940 0.000000
# 2 -0.002929 0.007547 -0.002546 0.000000 -0.004293 0.000000
# 3 0.000394 -0.002546 0.010629 0.000000 0.007626 0.000000
# 4 0.000000 0.000000 0.000000 0.104205 0.000000 0.070513
# 5 0.003940 -0.004293 0.007626 0.000000 0.040063 0.000000
# 6 0.000000 0.000000 0.000000 0.070513 0.000000 0.120240
#
#
# Mechanical properties :
#
#
# Convention : Reuss Voigt Hill
#
# Bulk Modulus (GPa) = 45.64050 55.05553 50.34801
# Shear Modulus (GPa) = 15.92124 30.91013 23.41569
#
# Velocity S-wave (km/s) = 2.54248 3.54258 3.08335
# Velocity P-wave (km/s) = 5.21052 6.25190 5.75481
#
# Compressibility (1/GPa) = 0.02191037
#
# Stress axis : x y z
#
# Youngs Moduli (GPa) = 71.96555 132.49906 94.07789
#
# Poissons Ratio (x) = 0.38810 -0.03711
# Poissons Ratio (y) = 0.21080 0.23955
# Poissons Ratio (z) = -0.02839 0.33738
#
# Static dielectric constant tensor:
#      x y z
#    x 2.031150 0.000000 0.043800 
#    y 0.000000 2.043460 0.000000 
#    z 0.043800 0.000000 1.925180 
# 
# From -- ./inp_files/33216.got.cif
#   From: 2010.05.17/outbox.cif.g08.bks.cpg/sg14_17_cif.got.tgz:33216.got - 2010.06.03 17:49:19.
