data_PCOD9247564
_publ_section_title
;
Structure prediction by ZEFSAII (Michael W. Deem and Ramdas Pophale) SiO2 
 PCOD9247564
Probable space group: P 21/C
;
_chemical_formula_sum "Si O2"
_cell_formula_units_Z 24
_cell_length_a 8.153735
_cell_length_b 9.055983
_cell_length_c 16.255241
_cell_angle_alpha 90.000000
_cell_angle_beta 116.324191
_cell_angle_gamma 90.000000
_cell_volume 1075.817616
_symmetry_space_group_name_H-M "P 21/C"
_symmetry_group_IT_number 14
_symmetry_cell_setting 'monoclinic'
loop_
_space_group_symop_operation_xyz
x,y,z
-x,1/2+y,1/2-z
-x,-y,-z
x,1/2-y,1/2+z
loop_
_atom_site_type_symbol
_atom_site_label
_atom_site_fract_x
_atom_site_fract_y
_atom_site_fract_z
Si Si1 0.074176 0.258751 0.799727
Si Si2 0.043060 0.039874 0.145563
Si Si3 0.436478 0.932581 0.240022
Si Si4 0.460408 0.389606 0.916443
Si Si5 0.661957 0.379686 0.525125
Si Si6 0.691205 0.137943 0.221971
O O1 0.261451 0.313647 0.880837
O O2 0.079301 0.311442 0.706120
O O3 0.898284 0.344217 0.797381
O O4 0.026359 0.088855 0.806633
O O5 0.865190 0.060844 0.049393
O O6 0.241072 0.985518 0.160164
O O7 0.461197 0.017449 0.332487
O O8 0.600570 0.981276 0.218306
O O9 0.427076 0.760772 0.257507
O O10 0.500000 0.500000 0.000000
O O11 0.601867 0.254030 0.953878
O O12 0.500000 0.500000 0.500000
O O13 0.684822 0.322790 0.624362
#
# Coordination Sequence:
#
# PCOD9247564 Si02
#       6
#     4   4   4   4   4   4
#     4   9  19  35  57  81 112 149 189 227 277 343
#     4   9  19  35  56  83 110 149 190 226 278 343
#     4  10  22  39  58  81 116 152 188 230 282 342
#     4  11  21  39  60  84 116 147 190 241 281 328
#     4  11  21  37  62  86 112 146 192 238 281 332
#     4  10  22  39  57  84 115 151 189 229 282 341
#
# _framework density 22.308617000000002
#
# number of rings (size 3 to 8) (size 9 to 14) (size 15 to 20)
#    0.000    2.000    3.333    0.000    4.667    1.333 
#    0.000    3.333    0.000    0.000    0.000    0.000 
#    0.000    0.000    0.000    0.000    0.000    0.000 
#
# Total GULP energy -134050.894086 kJ/mol
# GULP energy per Si atom -5585.453920 kJ/mol
# Density = 2.225784 g / cm^3
# Si number density = 22.308617 Si / 1000 Ang^3
#
#
#
# Elastic Constant Matrix: (Units=GPa)
#
#
# Indices 1 2 3 4 5 6 
#
# 1 44.3921 2.2126 22.9182 0.0000 12.5206 0.0000
# 2 2.2126 71.4590 26.4419 0.0000 8.0730 0.0000
# 3 22.9182 26.4419 113.2130 0.0000 19.0176 0.0000
# 4 0.0000 0.0000 0.0000 36.1593 0.0000 -3.6975
# 5 12.5206 8.0730 19.0176 0.0000 37.7154 0.0000
# 6 0.0000 0.0000 0.0000 -3.6975 0.0000 37.9835
#
#
#
# Elastic Compliance Matrix: (Units=1/GPa)
#
#
# Indices 1 2 3 4 5 6 
#
# 1 0.026794 0.001673 -0.004655 0.000000 -0.006906 0.000000
# 2 0.001673 0.015512 -0.003617 0.000000 -0.002052 0.000000
# 3 -0.004655 -0.003617 0.011177 0.000000 -0.003316 0.000000
# 4 0.000000 0.000000 0.000000 0.027933 0.000000 0.002719
# 5 -0.006906 -0.002052 -0.003316 0.000000 0.030919 0.000000
# 6 0.000000 0.000000 0.000000 0.002719 0.000000 0.026592
#
#
# Mechanical properties :
#
#
# Convention : Reuss Voigt Hill
#
# Bulk Modulus (GPa) = 24.82253 36.91216 30.86735
# Shear Modulus (GPa) = 30.20168 34.20438 32.20303
#
# Velocity S-wave (km/s) = 3.68341 3.91990 3.80350
# Velocity P-wave (km/s) = 5.40750 6.08848 5.75807
#
# Compressibility (1/GPa) = 0.04028598
#
# Stress axis : x y z
#
# Youngs Moduli (GPa) = 37.32181 64.46425 89.46891
#
# Poissons Ratio (x) = -0.10784 0.41645
# Poissons Ratio (y) = -0.06244 0.32361
# Poissons Ratio (z) = 0.17372 0.23317
#
# Static dielectric constant tensor:
#      x y z
#    x 1.844750 0.000000 0.004970 
#    y 0.000000 1.814370 0.000000 
#    z 0.004970 0.000000 1.843950 
# 
# From -- ./inp_files/38912.got.cif
#   From: 2010.05.17/outbox.cif.g08.bks.cpg/sg14_20_cif.got.tgz:38912.got - 2010.06.03 17:49:19.
