data_PCOD9247918
_publ_section_title
;
Structure prediction by ZEFSAII (Michael W. Deem and Ramdas Pophale) SiO2 
 PCOD9247918
Probable space group: P 21/C
;
_chemical_formula_sum "Si O2"
_cell_formula_units_Z 24
_cell_length_a 8.497978
_cell_length_b 14.097463
_cell_length_c 8.810673
_cell_angle_alpha 90.000000
_cell_angle_beta 92.739526
_cell_angle_gamma 90.000000
_cell_volume 1054.311704
_symmetry_space_group_name_H-M "P 21/C"
_symmetry_group_IT_number 14
_symmetry_cell_setting 'monoclinic'
loop_
_space_group_symop_operation_xyz
x,y,z
-x,1/2+y,1/2-z
-x,-y,-z
x,1/2-y,1/2+z
loop_
_atom_site_type_symbol
_atom_site_label
_atom_site_fract_x
_atom_site_fract_y
_atom_site_fract_z
Si Si1 0.858838 0.849130 0.289078
Si Si2 0.002479 0.316289 0.881668
Si Si3 0.642025 0.353150 0.917900
Si Si4 0.434833 0.919144 0.887143
Si Si5 0.081714 0.954708 0.859967
Si Si6 0.480677 0.277959 0.188812
O O1 0.681903 0.814177 0.253553
O O2 0.889124 0.830836 0.468116
O O3 0.975106 0.787924 0.187187
O O4 0.877893 0.958107 0.248485
O O5 0.829674 0.348077 0.930933
O O6 0.029827 0.383438 0.737176
O O7 0.573780 0.432066 0.797908
O O8 0.596718 0.255999 0.826427
O O9 0.561386 0.350007 0.076433
O O10 0.247770 0.904732 0.911409
O O11 0.536558 0.822995 0.900820
O O12 0.500000 0.000000 0.000000
O O13 0.000000 0.000000 0.000000
#
# Coordination Sequence:
#
# PCOD9247918 Si02
#       6
#     4   4   4   4   4   4
#     4  12  25  40  75  97 139 178 233 282 343 424
#     4  11  24  44  64 103 136 182 227 285 350 405
#     4   9  21  40  63  90 128 173 220 270 340 403
#     4   9  23  39  65  92 136 169 224 282 339 405
#     4  11  26  45  67 103 138 181 231 289 348 411
#     4  10  22  40  66  95 128 178 226 277 334 411
#
# _framework density 22.763667999999999
#
# number of rings (size 3 to 8) (size 9 to 14) (size 15 to 20)
#    1.000    0.667    0.000    3.500    9.333    0.000 
#    0.000    3.333    0.000    0.000    0.000    0.000 
#    0.000    0.000    0.000    0.000    0.000    0.000 
#
# Total GULP energy -133920.236296 kJ/mol
# GULP energy per Si atom -5580.009846 kJ/mol
# Density = 2.271186 g / cm^3
# Si number density = 22.763668 Si / 1000 Ang^3
#
#
#
# Elastic Constant Matrix: (Units=GPa)
#
#
# Indices 1 2 3 4 5 6 
#
# 1 34.1513 -0.5277 3.9245 0.0000 -1.5915 0.0000
# 2 -0.5277 69.2863 -0.9540 0.0000 -1.3657 0.0000
# 3 3.9245 -0.9540 65.5157 0.0000 7.2847 0.0000
# 4 0.0000 0.0000 0.0000 37.3449 0.0000 -5.1366
# 5 -1.5915 -1.3657 7.2847 0.0000 24.8515 0.0000
# 6 0.0000 0.0000 0.0000 -5.1366 0.0000 33.5019
#
#
#
# Elastic Compliance Matrix: (Units=1/GPa)
#
#
# Indices 1 2 3 4 5 6 
#
# 1 0.029638 0.000247 -0.002051 0.000000 0.002513 0.000000
# 2 0.000247 0.014452 0.000109 0.000000 0.000778 0.000000
# 3 -0.002051 0.000109 0.015921 0.000000 -0.004792 0.000000
# 4 0.000000 0.000000 0.000000 0.027354 0.000000 0.004194
# 5 0.002513 0.000778 -0.004792 0.000000 0.041847 0.000000
# 6 0.000000 0.000000 0.000000 0.004194 0.000000 0.030492
#
#
# Mechanical properties :
#
#
# Convention : Reuss Voigt Hill
#
# Bulk Modulus (GPa) = 17.66145 19.31541 18.48843
# Shear Modulus (GPa) = 27.47738 30.24036 28.85887
#
# Velocity S-wave (km/s) = 3.47806 3.64874 3.56442
# Velocity P-wave (km/s) = 4.88924 5.12394 5.00796
#
# Compressibility (1/GPa) = 0.05662049
#
# Stress axis : x y z
#
# Youngs Moduli (GPa) = 33.74035 69.19651 62.81083
#
# Poissons Ratio (x) = -0.01709 0.12884
# Poissons Ratio (y) = -0.00833 -0.00686
# Poissons Ratio (z) = 0.06921 -0.00755
#
# Static dielectric constant tensor:
#      x y z
#    x 1.970770 0.000000 0.011200 
#    y 0.000000 1.867580 0.000000 
#    z 0.011200 0.000000 1.866920 
# 
# From -- ./inp_files/8329.got.cif
#   From: 2010.05.17/outbox.cif.g08.bks.cpg/sg14_5_cif.got.tgz:8329.got - 2010.06.03 17:49:19.
