data_PCOD9247530
_publ_section_title
;
Structure prediction by ZEFSAII (Michael W. Deem and Ramdas Pophale) SiO2 
 PCOD9247530
Probable space group: P 21/C
;
_chemical_formula_sum "Si O2"
_cell_formula_units_Z 32
_cell_length_a 13.279093
_cell_length_b 11.757472
_cell_length_c 13.707052
_cell_angle_alpha 90.000000
_cell_angle_beta 136.439303
_cell_angle_gamma 90.000000
_cell_volume 1474.765380
_symmetry_space_group_name_H-M "P 21/C"
_symmetry_group_IT_number 14
_symmetry_cell_setting 'monoclinic'
loop_
_space_group_symop_operation_xyz
x,y,z
-x,1/2+y,1/2-z
-x,-y,-z
x,1/2-y,1/2+z
loop_
_atom_site_type_symbol
_atom_site_label
_atom_site_fract_x
_atom_site_fract_y
_atom_site_fract_z
Si Si1 0.098917 0.034344 0.924818
Si Si2 0.412923 0.899387 0.566555
Si Si3 0.161969 0.376905 0.092206
Si Si4 0.055379 0.185947 0.159554
Si Si5 0.881203 0.055268 0.281265
Si Si6 0.875145 0.208920 0.708043
Si Si7 0.375075 0.352808 0.962530
Si Si8 0.364105 0.198424 0.133728
O O1 0.963539 0.120501 0.834929
O O2 0.121050 0.003349 0.825855
O O3 0.242208 0.099968 0.059619
O O4 0.052041 0.917231 0.942257
O O5 0.251418 0.852362 0.439509
O O6 0.508730 0.853769 0.542807
O O7 0.489843 0.850487 0.716325
O O8 0.407104 0.035398 0.550099
O O9 0.072989 0.282879 0.091853
O O10 0.195011 0.477586 0.191116
O O11 0.297483 0.308321 0.143309
O O12 0.050384 0.426473 0.933515
O O13 0.215256 0.139363 0.300914
O O14 0.990964 0.241724 0.212079
O O15 0.817623 0.181715 0.225868
O O16 0.379345 0.241967 0.033855
#
# Coordination Sequence:
#
# PCOD9247530 Si02
#       8
#     4   4   4   4   4   4   4   4
#     4  11  21  40  71  99 131 177 231 281 334 405
#     4  11  27  44  68 102 142 182 230 281 362 412
#     4  11  21  39  66 106 133 176 230 283 345 410
#     4  11  21  40  75  98 139 175 234 287 334 409
#     4  10  22  38  65  99 136 171 225 284 341 396
#     4  11  21  42  66 101 128 181 223 283 339 405
#     4  11  23  47  68  96 146 188 219 291 354 415
#     4  12  24  44  70 100 137 191 229 282 356 422
#
# _framework density 21.698367999999999
#
# number of rings (size 3 to 8) (size 9 to 14) (size 15 to 20)
#    0.000    1.000    6.250    0.750    0.000    2.500 
#    9.000    0.625    0.000    0.000    0.000    0.000 
#    0.000    0.000    0.000    0.000    0.000    0.000 
#
# Total GULP energy -179021.058717 kJ/mol
# GULP energy per Si atom -5594.408085 kJ/mol
# Density = 2.164898 g / cm^3
# Si number density = 21.698368 Si / 1000 Ang^3
#
#
#
# Elastic Constant Matrix: (Units=GPa)
#
#
# Indices 1 2 3 4 5 6 
#
# 1 40.3379 5.9034 -2.8973 0.0000 -3.8291 0.0000
# 2 5.9034 70.6997 -7.1493 0.0000 -6.5496 0.0000
# 3 -2.8973 -7.1493 54.4178 0.0000 0.7926 0.0000
# 4 0.0000 0.0000 0.0000 27.3828 0.0000 -8.0517
# 5 -3.8291 -6.5496 0.7926 0.0000 26.5288 0.0000
# 6 0.0000 0.0000 0.0000 -8.0517 0.0000 25.8412
#
#
#
# Elastic Compliance Matrix: (Units=1/GPa)
#
#
# Indices 1 2 3 4 5 6 
#
# 1 0.025424 -0.001716 0.001081 0.000000 0.003214 0.000000
# 2 -0.001716 0.014780 0.001802 0.000000 0.003347 0.000000
# 3 0.001081 0.001802 0.018670 0.000000 0.000043 0.000000
# 4 0.000000 0.000000 0.000000 0.040203 0.000000 0.012526
# 5 0.003214 0.003347 0.000043 0.000000 0.038984 0.000000
# 6 0.000000 0.000000 0.000000 0.012526 0.000000 0.042601
#
#
# Mechanical properties :
#
#
# Convention : Reuss Voigt Hill
#
# Bulk Modulus (GPa) = 16.33756 17.46323 16.90040
# Shear Modulus (GPa) = 25.15974 27.25713 26.20843
#
# Velocity S-wave (km/s) = 3.40887 3.54811 3.47919
# Velocity P-wave (km/s) = 4.79996 4.98509 4.89340
#
# Compressibility (1/GPa) = 0.06120866
#
# Stress axis : x y z
#
# Youngs Moduli (GPa) = 39.33230 67.65948 53.56191
#
# Poissons Ratio (x) = 0.11609 -0.05792
# Poissons Ratio (y) = 0.06749 -0.09650
# Poissons Ratio (z) = -0.04253 -0.12190
#
# Static dielectric constant tensor:
#      x y z
#    x 1.792460 0.000000 -0.037790 
#    y 0.000000 1.801830 0.000000 
#    z -0.037790 0.000000 1.757390 
# 
# From -- ./inp_files/47146.got.cif
#   From: 2010.05.17/outbox.cif.g08.bks.cpg/sg14_24_cif.got.tgz:47146.got - 2010.06.03 17:49:19.
