data_PCOD9247219
_publ_section_title
;
Structure prediction by ZEFSAII (Michael W. Deem and Ramdas Pophale) SiO2 
 PCOD9247219
Probable space group: P 21/C
;
_chemical_formula_sum "Si O2"
_cell_formula_units_Z 26
_cell_length_a 19.910300
_cell_length_b 5.100063
_cell_length_c 10.357988
_cell_angle_alpha 90.000000
_cell_angle_beta 66.714581
_cell_angle_gamma 90.000000
_cell_volume 966.117919
_symmetry_space_group_name_H-M "P 21/C"
_symmetry_group_IT_number 14
_symmetry_cell_setting 'monoclinic'
loop_
_space_group_symop_operation_xyz
x,y,z
-x,1/2+y,1/2-z
-x,-y,-z
x,1/2-y,1/2+z
loop_
_atom_site_type_symbol
_atom_site_label
_atom_site_fract_x
_atom_site_fract_y
_atom_site_fract_z
Si Si1 0.957052 0.281050 0.831702
Si Si2 0.675247 0.689457 0.759682
Si Si3 0.000000 0.500000 0.500000
Si Si4 0.655131 0.199591 0.914741
Si Si5 0.455674 0.486795 0.317233
Si Si6 0.186185 0.539898 0.651687
Si Si7 0.163622 0.240170 0.919646
O O1 0.875810 0.239332 0.847694
O O2 0.002849 0.004518 0.779941
O O3 0.966675 0.285429 0.975439
O O4 0.652896 0.511254 0.898656
O O5 0.617920 0.600892 0.698436
O O6 0.758958 0.603441 0.674513
O O7 0.667090 0.000817 0.784656
O O8 0.914499 0.619428 0.554562
O O9 0.731280 0.136224 0.930616
O O10 0.577558 0.106793 0.027835
O O11 0.505386 0.229007 0.284737
O O12 0.172238 0.480001 0.812751
O O13 0.169720 0.285851 0.571859
#
# Coordination Sequence:
#
# PCOD9247219 Si02
#       7
#     4   4   2   4   4   4   4
#     4  11  24  42  65  98 141 182 243 290 360 406
#     4  11  25  46  72 105 143 192 238 296 367 430
#     4  10  22  42  68 104 142 194 238 300 356 422
#     4  11  25  45  72 103 144 189 238 296 364 438
#     4  12  26  46  73 107 144 183 241 299 367 438
#     4  10  22  44  72 104 144 194 243 299 360 430
#     4  10  21  45  71 107 147 193 246 301 360 433
#
# _framework density 26.911829000000001
#
# number of rings (size 3 to 8) (size 9 to 14) (size 15 to 20)
#    0.000    1.231    3.077    1.846    2.154    4.308 
#    2.769    3.077    0.000    0.000    0.000    0.000 
#    0.000    0.000    0.000    0.000    0.000    0.000 
#
# Total GULP energy -144806.785191 kJ/mol
# GULP energy per Si atom -5569.491738 kJ/mol
# Density = 2.685058 g / cm^3
# Si number density = 26.911829 Si / 1000 Ang^3
#
#
#
# Elastic Constant Matrix: (Units=GPa)
#
#
# Indices 1 2 3 4 5 6 
#
# 1 107.2663 30.8608 13.9624 0.0000 -29.4417 0.0000
# 2 30.8608 103.3118 22.6862 0.0000 -12.3699 0.0000
# 3 13.9624 22.6862 59.8862 0.0000 -31.5919 0.0000
# 4 0.0000 0.0000 0.0000 182.7145 0.0000 72.7080
# 5 -29.4417 -12.3699 -31.5919 0.0000 44.8302 0.0000
# 6 0.0000 0.0000 0.0000 72.7080 0.0000 78.7617
#
#
#
# Elastic Compliance Matrix: (Units=1/GPa)
#
#
# Indices 1 2 3 4 5 6 
#
# 1 0.012504 -0.003334 0.003493 0.000000 0.009754 0.000000
# 2 -0.003334 0.011447 -0.004852 0.000000 -0.002450 0.000000
# 3 0.003493 -0.004852 0.029011 0.000000 0.021399 0.000000
# 4 0.000000 0.000000 0.000000 0.008651 0.000000 -0.007986
# 5 0.009754 -0.002450 0.021399 0.000000 0.043116 0.000000
# 6 0.000000 0.000000 0.000000 -0.007986 0.000000 0.020069
#
#
# Mechanical properties :
#
#
# Convention : Reuss Voigt Hill
#
# Bulk Modulus (GPa) = 22.94819 45.05366 34.00093
# Shear Modulus (GPa) = 33.62267 74.79162 54.20715
#
# Velocity S-wave (km/s) = 3.53847 5.27747 4.49291
# Velocity P-wave (km/s) = 5.02395 7.34256 6.29099
#
# Compressibility (1/GPa) = 0.04357642
#
# Stress axis : x y z
#
# Youngs Moduli (GPa) = 79.97228 87.35538 34.47022
#
# Poissons Ratio (x) = 0.29128 -0.12041
# Poissons Ratio (y) = 0.26666 0.16724
# Poissons Ratio (z) = -0.27935 0.42382
#
# Static dielectric constant tensor:
#      x y z
#    x 1.942640 0.000000 -0.135450 
#    y 0.000000 2.115590 0.000000 
#    z -0.135450 0.000000 1.775930 
# 
# From -- ./inp_files/34561.got.cif
#   From: 2010.05.17/outbox.cif.g08.bks.cpg/sg14_18_cif.got.tgz:34561.got - 2010.06.03 17:49:19.
