data_PCOD9247945
_publ_section_title
;
Structure prediction by ZEFSAII (Michael W. Deem and Ramdas Pophale) SiO2 
 PCOD9247945
Probable space group: P 21/C
;
_chemical_formula_sum "Si O2"
_cell_formula_units_Z 22
_cell_length_a 14.032839
_cell_length_b 7.388108
_cell_length_c 24.502238
_cell_angle_alpha 90.000000
_cell_angle_beta 160.766336
_cell_angle_gamma 90.000000
_cell_volume 836.828407
_symmetry_space_group_name_H-M "P 21/C"
_symmetry_group_IT_number 14
_symmetry_cell_setting 'monoclinic'
loop_
_space_group_symop_operation_xyz
x,y,z
-x,1/2+y,1/2-z
-x,-y,-z
x,1/2-y,1/2+z
loop_
_atom_site_type_symbol
_atom_site_label
_atom_site_fract_x
_atom_site_fract_y
_atom_site_fract_z
Si Si1 0.573598 0.484703 0.131725
Si Si2 0.425836 0.885624 0.055947
Si Si3 0.872655 0.624557 0.189561
Si Si4 0.658320 0.523800 0.377816
Si Si5 0.825252 0.265980 0.369096
Si Si6 0.500000 0.000000 0.000000
O O1 0.563805 0.695506 0.144635
O O2 0.761082 0.489456 0.177074
O O3 0.673704 0.365287 0.235929
O O4 0.254507 0.437337 0.936610
O O5 0.256165 0.951802 0.016347
O O6 0.607050 0.038727 0.124329
O O7 0.220456 0.865547 0.888755
O O8 0.729454 0.817633 0.123113
O O9 0.747481 0.379597 0.381190
O O10 0.321276 0.572061 0.201893
O O11 0.836786 0.705067 0.459808
#
# Coordination Sequence:
#
# PCOD9247945 Si02
#       6
#     4   4   4   4   4   2
#     4  11  22  41  67  95 135 169 224 263 333 371
#     4  10  22  40  67  95 129 174 212 273 314 389
#     4   9  22  38  59  99 128 177 205 267 314 389
#     4  11  25  47  69  96 131 167 224 262 338 378
#     4  11  25  46  68  97 130 172 213 279 316 404
#     4   8  20  36  56  92 126 166 208 254 316 368
#
# _framework density 26.289739000000001
#
# number of rings (size 3 to 8) (size 9 to 14) (size 15 to 20)
#    1.091    0.727    1.818    1.091    2.545    6.545 
#    0.000    0.000    0.000    0.000    0.000    0.000 
#    0.000    0.000    0.000    0.000    0.000    0.000 
#
# Total GULP energy -122735.252804 kJ/mol
# GULP energy per Si atom -5578.875127 kJ/mol
# Density = 2.622990 g / cm^3
# Si number density = 26.289739 Si / 1000 Ang^3
#
#
#
# Elastic Constant Matrix: (Units=GPa)
#
#
# Indices 1 2 3 4 5 6 
#
# 1 158.3150 26.8561 33.7873 0.0000 -17.3290 0.0000
# 2 26.8561 63.8296 -1.8011 0.0000 -8.5970 0.0000
# 3 33.7873 -1.8011 91.2716 0.0000 13.1305 0.0000
# 4 0.0000 0.0000 0.0000 30.1134 0.0000 7.5172
# 5 -17.3290 -8.5970 13.1305 0.0000 50.7106 0.0000
# 6 0.0000 0.0000 0.0000 7.5172 0.0000 33.2310
#
#
#
# Elastic Compliance Matrix: (Units=1/GPa)
#
#
# Indices 1 2 3 4 5 6 
#
# 1 0.007893 -0.003004 -0.003424 0.000000 0.003075 0.000000
# 2 -0.003004 0.017176 0.001225 0.000000 0.001568 0.000000
# 3 -0.003424 0.001225 0.012865 0.000000 -0.004293 0.000000
# 4 0.000000 0.000000 0.000000 0.035195 0.000000 -0.007962
# 5 0.003075 0.001568 -0.004293 0.000000 0.022148 0.000000
# 6 0.000000 0.000000 0.000000 -0.007962 0.000000 0.031893
#
#
# Mechanical properties :
#
#
# Convention : Reuss Voigt Hill
#
# Bulk Modulus (GPa) = 36.32244 47.90010 42.11127
# Shear Modulus (GPa) = 34.07099 39.78259 36.92679
#
# Velocity S-wave (km/s) = 3.60388 3.89425 3.75188
# Velocity P-wave (km/s) = 5.58242 6.20322 5.90099
#
# Compressibility (1/GPa) = 0.02753119
#
# Stress axis : x y z
#
# Youngs Moduli (GPa) = 126.69115 58.22000 77.72729
#
# Poissons Ratio (x) = 0.17487 0.26610
# Poissons Ratio (y) = 0.38052 -0.09523
# Poissons Ratio (z) = 0.43373 -0.07133
#
# Static dielectric constant tensor:
#      x y z
#    x 2.167100 0.000000 0.106100 
#    y 0.000000 2.074540 0.000000 
#    z 0.106100 0.000000 2.189970 
# 
# From -- ./inp_files/27807.got.cif
#   From: 2010.05.17/outbox.cif.g08.bks.cpg/sg14_14_cif.got.tgz:27807.got - 2010.06.03 17:49:19.
