data_PCOD9247619
_publ_section_title
;
Structure prediction by ZEFSAII (Michael W. Deem and Ramdas Pophale) SiO2 
 PCOD9247619
Probable space group: P 21/C
;
_chemical_formula_sum "Si O2"
_cell_formula_units_Z 16
_cell_length_a 11.804821
_cell_length_b 11.399243
_cell_length_c 5.098108
_cell_angle_alpha 90.000000
_cell_angle_beta 111.257066
_cell_angle_gamma 90.000000
_cell_volume 639.356665
_symmetry_space_group_name_H-M "P 21/C"
_symmetry_group_IT_number 14
_symmetry_cell_setting 'monoclinic'
loop_
_space_group_symop_operation_xyz
x,y,z
-x,1/2+y,1/2-z
-x,-y,-z
x,1/2-y,1/2+z
loop_
_atom_site_type_symbol
_atom_site_label
_atom_site_fract_x
_atom_site_fract_y
_atom_site_fract_z
Si Si1 0.318441 0.185231 0.126535
Si Si2 0.450695 0.569753 0.208366
Si Si3 0.983360 0.830491 0.711909
Si Si4 0.196028 0.981850 0.692308
O O1 0.283210 0.213442 0.392373
O O2 0.464900 0.183287 0.230263
O O3 0.258012 0.430488 0.456169
O O4 0.500000 0.500000 0.500000
O O5 0.306402 0.573701 0.116681
O O6 0.500000 0.500000 0.000000
O O7 0.968722 0.724560 0.488194
O O8 0.895071 0.938595 0.558750
O O9 0.116980 0.884356 0.773616
#
# Coordination Sequence:
#
# PCOD9247619 Si02
#       4
#     4   4   4   4
#     4  11  22  38  64  97 131 169 211 257 318 391
#     4  10  22  39  61  92 128 168 211 262 321 380
#     4  11  26  44  67  97 129 174 226 274 325 385
#     4  10  24  44  68  95 135 174 217 274 329 386
#
# _framework density 25.025153
#
# number of rings (size 3 to 8) (size 9 to 14) (size 15 to 20)
#    0.000    1.500    0.000    4.500    0.000   16.000 
#    0.000    0.000    0.000    0.000    0.000    0.000 
#    0.000    0.000    0.000    0.000    0.000    0.000 
#
# Total GULP energy -89567.692745 kJ/mol
# GULP energy per Si atom -5597.980797 kJ/mol
# Density = 2.496820 g / cm^3
# Si number density = 25.025153 Si / 1000 Ang^3
#
#
#
# Elastic Constant Matrix: (Units=GPa)
#
#
# Indices 1 2 3 4 5 6 
#
# 1 142.7973 8.3603 28.4825 0.0000 23.0562 0.0000
# 2 8.3603 40.7510 9.8842 0.0000 8.5360 0.0000
# 3 28.4825 9.8842 88.7562 0.0000 -21.9445 0.0000
# 4 0.0000 0.0000 0.0000 20.4891 0.0000 2.4653
# 5 23.0562 8.5360 -21.9445 0.0000 54.4004 0.0000
# 6 0.0000 0.0000 0.0000 2.4653 0.0000 60.8974
#
#
#
# Elastic Compliance Matrix: (Units=1/GPa)
#
#
# Indices 1 2 3 4 5 6 
#
# 1 0.008689 0.000364 -0.004169 0.000000 -0.005421 0.000000
# 2 0.000364 0.026905 -0.004660 0.000000 -0.006256 0.000000
# 3 -0.004169 -0.004660 0.015264 0.000000 0.008655 0.000000
# 4 0.000000 0.000000 0.000000 0.049045 0.000000 -0.001986
# 5 -0.005421 -0.006256 0.008655 0.000000 0.025153 0.000000
# 6 0.000000 0.000000 0.000000 -0.001986 0.000000 0.016501
#
#
# Mechanical properties :
#
#
# Convention : Reuss Voigt Hill
#
# Bulk Modulus (GPa) = 29.47429 40.63983 35.05706
# Shear Modulus (GPa) = 29.44709 42.19588 35.82148
#
# Velocity S-wave (km/s) = 3.43403 4.11072 3.78751
# Velocity P-wave (km/s) = 5.24660 6.22941 5.75901
#
# Compressibility (1/GPa) = 0.03392787
#
# Stress axis : x y z
#
# Youngs Moduli (GPa) = 115.09424 37.16757 65.51498
#
# Poissons Ratio (x) = -0.01354 0.27314
# Poissons Ratio (y) = -0.04194 0.30529
# Poissons Ratio (z) = 0.47985 0.17320
#
# Static dielectric constant tensor:
#      x y z
#    x 2.042320 0.000000 0.081900 
#    y 0.000000 2.006740 0.000000 
#    z 0.081900 0.000000 1.999510 
# 
# From -- ./inp_files/2408.got.cif
#   From: 2010.05.17/outbox.cif.g08.bks.cpg/sg14_2_cif.got.tgz:2408.got - 2010.06.03 17:49:19.
