data_PCOD9247058
_publ_section_title
;
Structure prediction by ZEFSAII (Michael W. Deem and Ramdas Pophale) SiO2 
 PCOD9247058
Probable space group: P 21/C
;
_chemical_formula_sum "Si O2"
_cell_formula_units_Z 28
_cell_length_a 14.250079
_cell_length_b 9.451168
_cell_length_c 10.482415
_cell_angle_alpha 90.000000
_cell_angle_beta 112.863088
_cell_angle_gamma 90.000000
_cell_volume 1300.856030
_symmetry_space_group_name_H-M "P 21/C"
_symmetry_group_IT_number 14
_symmetry_cell_setting 'monoclinic'
loop_
_space_group_symop_operation_xyz
x,y,z
-x,1/2+y,1/2-z
-x,-y,-z
x,1/2-y,1/2+z
loop_
_atom_site_type_symbol
_atom_site_label
_atom_site_fract_x
_atom_site_fract_y
_atom_site_fract_z
Si Si1 0.010663 0.172046 0.987652
Si Si2 0.249279 0.237902 0.095370
Si Si3 0.294518 0.648289 0.804892
Si Si4 0.266674 0.570201 0.523498
Si Si5 0.452006 0.843883 0.978510
Si Si6 0.349999 0.344996 0.907101
Si Si7 0.890929 0.260132 0.672744
O O1 0.957655 0.229723 0.831480
O O2 0.960455 0.244204 0.085320
O O3 0.128538 0.217162 0.040166
O O4 0.000000 0.000000 0.000000
O O5 0.290733 0.239222 0.262086
O O6 0.289891 0.092885 0.052659
O O7 0.292004 0.346556 0.013058
O O8 0.232180 0.627652 0.641943
O O9 0.357315 0.506334 0.863287
O O10 0.207883 0.659008 0.867910
O O11 0.368855 0.783358 0.833887
O O12 0.373027 0.648158 0.553818
O O13 0.175168 0.594247 0.375318
O O14 0.541910 0.731685 0.027819
O O15 0.500000 0.000000 0.000000
#
# Coordination Sequence:
#
# PCOD9247058 Si02
#       7
#     4   4   4   4   4   4   4
#     4  12  23  43  73  99 143 184 229 289 356 415
#     4  11  23  44  66  96 137 176 225 284 345 407
#     4  10  23  43  68  98 139 179 230 284 349 413
#     4  10  21  43  69  96 138 178 224 286 345 418
#     4  11  23  40  69  99 134 181 233 280 349 417
#     4  11  24  45  64  99 137 181 224 287 344 409
#     4  11  22  44  70 101 132 184 229 280 353 418
#
# _framework density 21.524289
#
# number of rings (size 3 to 8) (size 9 to 14) (size 15 to 20)
#    0.000    1.143    4.286    2.143    2.000    0.000 
#    7.714    1.429    0.000    0.000    0.000    0.000 
#    0.000    0.000    0.000    0.000    0.000    0.000 
#
# Total GULP energy -155916.682048 kJ/mol
# GULP energy per Si atom -5568.452930 kJ/mol
# Density = 2.147530 g / cm^3
# Si number density = 21.524289 Si / 1000 Ang^3
#
#
#
# Elastic Constant Matrix: (Units=GPa)
#
#
# Indices 1 2 3 4 5 6 
#
# 1 149.7049 16.6949 44.8581 0.0000 4.0581 0.0000
# 2 16.6949 28.9453 21.1807 0.0000 -8.4493 0.0000
# 3 44.8581 21.1807 108.6404 0.0000 -1.5059 0.0000
# 4 0.0000 0.0000 0.0000 26.5236 0.0000 -0.4046
# 5 4.0581 -8.4493 -1.5059 0.0000 34.9065 0.0000
# 6 0.0000 0.0000 0.0000 -0.4046 0.0000 33.4798
#
#
#
# Elastic Compliance Matrix: (Units=1/GPa)
#
#
# Indices 1 2 3 4 5 6 
#
# 1 0.007875 -0.003109 -0.002670 0.000000 -0.001783 0.000000
# 2 -0.003109 0.044878 -0.007315 0.000000 0.010909 0.000000
# 3 -0.002670 -0.007315 0.011720 0.000000 -0.000954 0.000000
# 4 0.000000 0.000000 0.000000 0.037709 0.000000 0.000456
# 5 -0.001783 0.010909 -0.000954 0.000000 0.031455 0.000000
# 6 0.000000 0.000000 0.000000 0.000456 0.000000 0.029874
#
#
# Mechanical properties :
#
#
# Convention : Reuss Voigt Hill
#
# Bulk Modulus (GPa) = 26.11942 50.30644 38.21293
# Shear Modulus (GPa) = 24.69625 32.61908 28.65767
#
# Velocity S-wave (km/s) = 3.39095 3.89711 3.65281
# Velocity P-wave (km/s) = 5.24334 6.60853 5.96512
#
# Compressibility (1/GPa) = 0.03828569
#
# Stress axis : x y z
#
# Youngs Moduli (GPa) = 126.98510 22.28277 85.32361
#
# Poissons Ratio (x) = 0.06927 0.22784
# Poissons Ratio (y) = 0.39475 0.62411
# Poissons Ratio (z) = 0.33908 0.16299
#
# Static dielectric constant tensor:
#      x y z
#    x 1.830900 0.000000 -0.040190 
#    y 0.000000 1.849750 0.000000 
#    z -0.040190 0.000000 1.820140 
# 
# From -- ./inp_files/31677.got.cif
#   From: 2010.05.17/outbox.cif.g08.bks.cpg/sg14_16_cif.got.tgz:31677.got - 2010.06.03 17:49:19.
