data_PCOD9247843
_publ_section_title
;
Structure prediction by ZEFSAII (Michael W. Deem and Ramdas Pophale) SiO2 
 PCOD9247843
Probable space group: P 21/C
;
_chemical_formula_sum "Si O2"
_cell_formula_units_Z 32
_cell_length_a 16.542056
_cell_length_b 5.196097
_cell_length_c 14.082033
_cell_angle_alpha 90.000000
_cell_angle_beta 80.328707
_cell_angle_gamma 90.000000
_cell_volume 1193.206244
_symmetry_space_group_name_H-M "P 21/C"
_symmetry_group_IT_number 14
_symmetry_cell_setting 'monoclinic'
loop_
_space_group_symop_operation_xyz
x,y,z
-x,1/2+y,1/2-z
-x,-y,-z
x,1/2-y,1/2+z
loop_
_atom_site_type_symbol
_atom_site_label
_atom_site_fract_x
_atom_site_fract_y
_atom_site_fract_z
Si Si1 0.720372 0.796512 0.870123
Si Si2 0.176409 0.247921 0.475137
Si Si3 0.251885 0.960593 0.792729
Si Si4 0.038087 0.273903 0.864073
Si Si5 0.386268 0.710759 0.060447
Si Si6 0.098098 0.770672 0.737413
Si Si7 0.477586 0.265279 0.314961
Si Si8 0.667810 0.449180 0.121133
O O1 0.740375 0.739370 0.757360
O O2 0.660835 0.551981 0.902385
O O3 0.668331 0.043842 0.904141
O O4 0.801823 0.796185 0.919658
O O5 0.208816 0.480956 0.401990
O O6 0.082863 0.211051 0.457406
O O7 0.241316 0.022266 0.434700
O O8 0.193619 0.815863 0.728567
O O9 0.323489 0.759142 0.797751
O O10 0.075077 0.508722 0.795604
O O11 0.941029 0.286553 0.860064
O O12 0.062628 0.007394 0.807518
O O13 0.471404 0.739743 0.098078
O O14 0.387597 0.691104 0.947167
O O15 0.497919 0.527660 0.258049
O O16 0.381710 0.211863 0.351618
#
# Coordination Sequence:
#
# PCOD9247843 Si02
#       8
#     4   4   4   4   4   4   4   4
#     4  11  25  40  66  97 131 170 225 276 322 391
#     4  10  22  40  63  96 127 172 221 269 327 387
#     4  11  22  39  67  95 133 172 223 272 330 387
#     4   9  17  33  58  87 131 168 215 265 320 384
#     4  11  25  47  64  95 131 171 217 271 334 395
#     4   9  18  32  57  93 123 173 216 259 324 389
#     4  12  28  44  68  98 130 169 217 273 334 397
#     4  11  24  43  69  93 129 174 221 269 336 395
#
# _framework density 26.818501000000001
#
# number of rings (size 3 to 8) (size 9 to 14) (size 15 to 20)
#    0.000    1.500    2.500    1.875    7.000    0.000 
#    0.000    3.750    0.000    0.000    0.000   12.250 
#    0.000    0.000    0.000    0.250    0.000    0.000 
#
# Total GULP energy -179244.764737 kJ/mol
# GULP energy per Si atom -5601.398898 kJ/mol
# Density = 2.675746 g / cm^3
# Si number density = 26.818501 Si / 1000 Ang^3
#
#
#
# Elastic Constant Matrix: (Units=GPa)
#
#
# Indices 1 2 3 4 5 6 
#
# 1 127.7895 8.7010 42.0436 0.0000 66.5563 0.0000
# 2 8.7010 138.3040 2.6091 0.0000 -4.1410 0.0000
# 3 42.0436 2.6091 98.5283 0.0000 52.2239 0.0000
# 4 0.0000 0.0000 0.0000 29.6617 0.0000 1.6703
# 5 66.5563 -4.1410 52.2239 0.0000 62.1028 0.0000
# 6 0.0000 0.0000 0.0000 1.6703 0.0000 41.7306
#
#
#
# Elastic Compliance Matrix: (Units=1/GPa)
#
#
# Indices 1 2 3 4 5 6 
#
# 1 0.019479 -0.002084 0.005199 0.000000 -0.025387 0.000000
# 2 -0.002084 0.007504 -0.001368 0.000000 0.003884 0.000000
# 3 0.005199 -0.001368 0.019789 0.000000 -0.022305 0.000000
# 4 0.000000 0.000000 0.000000 0.033790 0.000000 -0.001352
# 5 -0.025387 0.003884 -0.022305 0.000000 0.062325 0.000000
# 6 0.000000 0.000000 0.000000 -0.001352 0.000000 0.024017
#
#
# Mechanical properties :
#
#
# Convention : Reuss Voigt Hill
#
# Bulk Modulus (GPa) = 19.89400 52.36990 36.13195
# Shear Modulus (GPa) = 27.75238 47.45022 37.60130
#
# Velocity S-wave (km/s) = 3.22036 4.21088 3.74848
# Velocity P-wave (km/s) = 4.61104 6.57358 5.67775
#
# Compressibility (1/GPa) = 0.05026640
#
# Stress axis : x y z
#
# Youngs Moduli (GPa) = 51.33805 133.26862 50.53211
#
# Poissons Ratio (x) = 0.27769 -0.26273
# Poissons Ratio (y) = 0.10697 0.06914
# Poissons Ratio (z) = -0.26692 0.18235
#
# Static dielectric constant tensor:
#      x y z
#    x 2.137080 0.000000 -0.008720 
#    y 0.000000 2.102790 0.000000 
#    z -0.008720 0.000000 2.139570 
# 
# From -- ./inp_files/48169.got.cif
#   From: 2010.05.17/outbox.cif.g08.bks.cpg/sg14_25_cif.got.tgz:48169.got - 2010.06.03 17:49:19.
