data_PCOD9247502
_publ_section_title
;
Structure prediction by ZEFSAII (Michael W. Deem and Ramdas Pophale) SiO2 
 PCOD9247502
Probable space group: P 21/C
;
_chemical_formula_sum "Si O2"
_cell_formula_units_Z 28
_cell_length_a 13.148118
_cell_length_b 10.151979
_cell_length_c 14.436130
_cell_angle_alpha 90.000000
_cell_angle_beta 132.414341
_cell_angle_gamma 90.000000
_cell_volume 1422.623700
_symmetry_space_group_name_H-M "P 21/C"
_symmetry_group_IT_number 14
_symmetry_cell_setting 'monoclinic'
loop_
_space_group_symop_operation_xyz
x,y,z
-x,1/2+y,1/2-z
-x,-y,-z
x,1/2-y,1/2+z
loop_
_atom_site_type_symbol
_atom_site_label
_atom_site_fract_x
_atom_site_fract_y
_atom_site_fract_z
Si Si1 0.218610 0.370959 0.119990
Si Si2 0.949530 0.807688 0.317424
Si Si3 0.343604 0.991035 0.166139
Si Si4 0.103518 0.369829 0.426688
Si Si5 0.499993 0.262073 0.800349
Si Si6 0.828953 0.518213 0.260470
Si Si7 0.249559 0.909880 0.484512
O O1 0.115861 0.397511 0.141841
O O2 0.360143 0.309072 0.247625
O O3 0.149997 0.259234 0.011907
O O4 0.253657 0.492863 0.075285
O O5 0.895670 0.846455 0.182643
O O6 0.899134 0.660825 0.307869
O O7 0.113897 0.821106 0.415639
O O8 0.416176 0.851861 0.199906
O O9 0.445432 0.113414 0.207803
O O10 0.291073 0.008362 0.238585
O O11 0.210066 0.015819 0.020789
O O12 0.948981 0.413357 0.357044
O O13 0.610705 0.326314 0.937340
O O14 0.775887 0.491309 0.124649
#
# Coordination Sequence:
#
# PCOD9247502 Si02
#       7
#     4   4   4   4   4   4   4
#     4  11  22  42  62  89 130 170 206 271 324 373
#     4  11  22  40  66  94 126 168 216 269 328 374
#     4  11  23  43  68  89 132 170 215 264 322 383
#     4  10  22  38  63  94 124 161 216 271 311 379
#     4  11  23  42  64  94 127 173 214 261 317 387
#     4  11  22  40  67  97 121 172 219 261 325 388
#     4  11  24  41  64  96 134 161 219 270 322 387
#
# _framework density 19.681943
#
# number of rings (size 3 to 8) (size 9 to 14) (size 15 to 20)
#    0.000    1.143    5.714    1.714    2.000    0.571 
#    5.143    0.714    0.000    0.000    0.000    0.000 
#    0.000    0.000    0.000    0.000    0.000    0.000 
#
# Total GULP energy -156312.924849 kJ/mol
# GULP energy per Si atom -5582.604459 kJ/mol
# Density = 1.963715 g / cm^3
# Si number density = 19.681943 Si / 1000 Ang^3
#
#
#
# Elastic Constant Matrix: (Units=GPa)
#
#
# Indices 1 2 3 4 5 6 
#
# 1 49.7802 16.4632 30.9526 0.0000 -3.5187 0.0000
# 2 16.4632 67.2525 1.7725 0.0000 -2.6358 0.0000
# 3 30.9526 1.7725 76.6893 0.0000 7.2723 0.0000
# 4 0.0000 0.0000 0.0000 20.3216 0.0000 7.5374
# 5 -3.5187 -2.6358 7.2723 0.0000 20.9629 0.0000
# 6 0.0000 0.0000 0.0000 7.5374 0.0000 30.2312
#
#
#
# Elastic Compliance Matrix: (Units=1/GPa)
#
#
# Indices 1 2 3 4 5 6 
#
# 1 0.031318 -0.006962 -0.013334 0.000000 0.009007 0.000000
# 2 -0.006962 0.016512 0.002422 0.000000 0.000067 0.000000
# 3 -0.013334 0.002422 0.019180 0.000000 -0.008587 0.000000
# 4 0.000000 0.000000 0.000000 0.054223 0.000000 -0.013519
# 5 0.009007 0.000067 -0.008587 0.000000 0.052203 0.000000
# 6 0.000000 0.000000 0.000000 -0.013519 0.000000 0.036449
#
#
# Mechanical properties :
#
#
# Convention : Reuss Voigt Hill
#
# Bulk Modulus (GPa) = 31.98708 32.45541 32.22124
# Shear Modulus (GPa) = 19.52721 23.93872 21.73296
#
# Velocity S-wave (km/s) = 3.15324 3.49130 3.32657
# Velocity P-wave (km/s) = 5.43549 5.72521 5.58223
#
# Compressibility (1/GPa) = 0.03126263
#
# Stress axis : x y z
#
# Youngs Moduli (GPa) = 31.93048 60.56043 52.13898
#
# Poissons Ratio (x) = 0.42163 0.69520
# Poissons Ratio (y) = 0.22230 -0.12628
# Poissons Ratio (z) = 0.42575 -0.14667
#
# Static dielectric constant tensor:
#      x y z
#    x 1.667260 0.000000 0.025080 
#    y 0.000000 1.703920 0.000000 
#    z 0.025080 0.000000 1.692030 
# 
# From -- ./inp_files/44443.got.cif
#   From: 2010.05.17/outbox.cif.g08.bks.cpg/sg14_23_cif.got.tgz:44443.got - 2010.06.03 17:49:19.
