data_PCOD9247138
_publ_section_title
;
Structure prediction by ZEFSAII (Michael W. Deem and Ramdas Pophale) SiO2 
 PCOD9247138
Probable space group: P 21/C
;
_chemical_formula_sum "Si O2"
_cell_formula_units_Z 28
_cell_length_a 7.797849
_cell_length_b 12.376523
_cell_length_c 19.619967
_cell_angle_alpha 90.000000
_cell_angle_beta 44.120485
_cell_angle_gamma 90.000000
_cell_volume 1318.216496
_symmetry_space_group_name_H-M "P 21/C"
_symmetry_group_IT_number 14
_symmetry_cell_setting 'monoclinic'
loop_
_space_group_symop_operation_xyz
x,y,z
-x,1/2+y,1/2-z
-x,-y,-z
x,1/2-y,1/2+z
loop_
_atom_site_type_symbol
_atom_site_label
_atom_site_fract_x
_atom_site_fract_y
_atom_site_fract_z
Si Si1 0.566241 0.162618 0.429198
Si Si2 0.015498 0.289595 0.070922
Si Si3 0.593700 0.453503 0.600292
Si Si4 0.232473 0.650749 0.726010
Si Si5 0.001624 0.958203 0.897154
Si Si6 0.761672 0.954188 0.306620
Si Si7 0.362180 0.713582 0.933989
O O1 0.647392 0.250412 0.349314
O O2 0.633858 0.202775 0.485535
O O3 0.271545 0.147908 0.505284
O O4 0.699110 0.049654 0.376612
O O5 0.802732 0.328048 0.183635
O O6 0.072995 0.166799 0.076912
O O7 0.903723 0.287704 0.026846
O O8 0.381878 0.541570 0.667479
O O9 0.783538 0.473282 0.608211
O O10 0.517531 0.328604 0.621000
O O11 0.762184 0.473329 0.485631
O O12 0.955371 0.631653 0.779917
O O13 0.115083 0.991388 0.793688
O O14 0.516497 0.887100 0.361820
#
# Coordination Sequence:
#
# PCOD9247138 Si02
#       7
#     4   4   4   4   4   4   4
#     4  12  26  48  69 101 139 182 227 280 344 402
#     4  11  24  48  71  99 139 181 226 285 342 405
#     4  10  23  42  71 101 132 179 230 280 342 396
#     4  12  25  43  74  98 137 181 229 282 343 407
#     4  10  21  44  68 100 137 174 231 284 330 408
#     4  12  26  43  68 102 142 180 225 283 339 411
#     4  11  26  46  68 102 140 178 231 280 338 408
#
# _framework density 21.240819999999999
#
# number of rings (size 3 to 8) (size 9 to 14) (size 15 to 20)
#    0.000    0.857    4.286    2.143    4.000    1.714 
#    5.143    0.000    0.000    0.000    0.000    0.000 
#    0.000    0.000    0.000    0.000    0.000    0.000 
#
# Total GULP energy -156591.416820 kJ/mol
# GULP energy per Si atom -5592.550601 kJ/mol
# Density = 2.119247 g / cm^3
# Si number density = 21.240820 Si / 1000 Ang^3
#
#
#
# Elastic Constant Matrix: (Units=GPa)
#
#
# Indices 1 2 3 4 5 6 
#
# 1 65.1485 16.5850 28.5507 0.0000 13.0171 0.0000
# 2 16.5850 55.6049 6.1309 0.0000 -6.8696 0.0000
# 3 28.5507 6.1309 73.9223 0.0000 -0.7575 0.0000
# 4 0.0000 0.0000 0.0000 30.2671 0.0000 -3.9864
# 5 13.0171 -6.8696 -0.7575 0.0000 14.0956 0.0000
# 6 0.0000 0.0000 0.0000 -3.9864 0.0000 30.8876
#
#
#
# Elastic Compliance Matrix: (Units=1/GPa)
#
#
# Indices 1 2 3 4 5 6 
#
# 1 0.030014 -0.011962 -0.010950 0.000000 -0.034136 0.000000
# 2 -0.011962 0.024070 0.002859 0.000000 0.022931 0.000000
# 3 -0.010950 0.002859 0.017647 0.000000 0.012454 0.000000
# 4 0.000000 0.000000 0.000000 0.033610 0.000000 0.004338
# 5 -0.034136 0.022931 0.012454 0.000000 0.114313 0.000000
# 6 0.000000 0.000000 0.000000 0.004338 0.000000 0.032935
#
#
# Mechanical properties :
#
#
# Convention : Reuss Voigt Hill
#
# Bulk Modulus (GPa) = 31.62086 33.02319 32.32202
# Shear Modulus (GPa) = 16.48875 24.61069 20.54972
#
# Velocity S-wave (km/s) = 2.78920 3.40759 3.11378
# Velocity P-wave (km/s) = 5.02911 5.57342 5.30825
#
# Compressibility (1/GPa) = 0.03162470
#
# Stress axis : x y z
#
# Youngs Moduli (GPa) = 33.31782 41.54619 56.66564
#
# Poissons Ratio (x) = 0.49698 0.62048
# Poissons Ratio (y) = 0.39855 -0.16199
# Poissons Ratio (z) = 0.36483 -0.11877
#
# Static dielectric constant tensor:
#      x y z
#    x 1.763970 0.000000 0.027630 
#    y 0.000000 1.735560 0.000000 
#    z 0.027630 0.000000 1.760150 
# 
# From -- ./inp_files/65555.got.cif
#   From: 2010.05.17/outbox.cif.g08.bks.cpg/sg14_33_cif.got.tgz:65555.got - 2010.06.03 17:49:19.
