data_PCOD9247441
_publ_section_title
;
Structure prediction by ZEFSAII (Michael W. Deem and Ramdas Pophale) SiO2 
 PCOD9247441
Probable space group: P 21/C
;
_chemical_formula_sum "Si O2"
_cell_formula_units_Z 28
_cell_length_a 8.643235
_cell_length_b 11.432159
_cell_length_c 14.745440
_cell_angle_alpha 90.000000
_cell_angle_beta 68.486306
_cell_angle_gamma 90.000000
_cell_volume 1355.499351
_symmetry_space_group_name_H-M "P 21/C"
_symmetry_group_IT_number 14
_symmetry_cell_setting 'monoclinic'
loop_
_space_group_symop_operation_xyz
x,y,z
-x,1/2+y,1/2-z
-x,-y,-z
x,1/2-y,1/2+z
loop_
_atom_site_type_symbol
_atom_site_label
_atom_site_fract_x
_atom_site_fract_y
_atom_site_fract_z
Si Si1 0.696529 0.913820 0.265709
Si Si2 0.968021 0.278004 0.087691
Si Si3 0.871357 0.669263 0.267192
Si Si4 0.631931 0.325846 0.082654
Si Si5 0.142661 0.403136 0.452032
Si Si6 0.591967 0.885143 0.948374
Si Si7 0.870393 0.474342 0.899550
O O1 0.785976 0.787375 0.251452
O O2 0.504840 0.896581 0.330842
O O3 0.752651 0.952205 0.154669
O O4 0.772960 0.989101 0.329666
O O5 0.770146 0.278563 0.121765
O O6 0.021285 0.208049 0.167304
O O7 0.050778 0.406618 0.076207
O O8 0.031978 0.214142 0.982589
O O9 0.717030 0.592856 0.337466
O O10 0.980431 0.605146 0.169715
O O11 0.530104 0.222772 0.051405
O O12 0.740133 0.407968 0.992298
O O13 0.281533 0.365134 0.495789
O O14 0.000000 0.500000 0.500000
O O15 0.500000 0.000000 0.000000
#
# Coordination Sequence:
#
# PCOD9247441 Si02
#       7
#     4   4   4   4   4   4   4
#     4  10  22  38  58  86 118 151 198 253 307 362
#     4  10  22  40  62  90 121 164 211 251 313 387
#     4   9  21  39  60  85 117 157 200 245 303 372
#     4  11  23  39  60  90 124 159 203 260 315 369
#     4  11  22  41  63  85 117 161 203 249 306 376
#     4  10  22  39  59  88 120 154 200 256 308 364
#     4  11  22  40  63  88 123 166 208 256 315 384
#
# _framework density 20.656593000000001
#
# number of rings (size 3 to 8) (size 9 to 14) (size 15 to 20)
#    0.000    1.714    0.000    5.143    0.000    4.571 
#    0.000    5.714    0.000    0.000    0.000    0.000 
#    0.000    0.000    0.000    0.000    0.000    0.000 
#
# Total GULP energy -156077.283373 kJ/mol
# GULP energy per Si atom -5574.188692 kJ/mol
# Density = 2.060958 g / cm^3
# Si number density = 20.656593 Si / 1000 Ang^3
#
#
#
# Elastic Constant Matrix: (Units=GPa)
#
#
# Indices 1 2 3 4 5 6 
#
# 1 105.7560 34.2835 35.3085 0.0000 -22.7734 0.0000
# 2 34.2835 93.8927 58.5692 0.0000 -20.2092 0.0000
# 3 35.3085 58.5692 136.6998 0.0000 -38.4362 0.0000
# 4 0.0000 0.0000 0.0000 23.4867 0.0000 -8.0249
# 5 -22.7734 -20.2092 -38.4362 0.0000 35.4430 0.0000
# 6 0.0000 0.0000 0.0000 -8.0249 0.0000 32.9608
#
#
#
# Elastic Compliance Matrix: (Units=1/GPa)
#
#
# Indices 1 2 3 4 5 6 
#
# 1 0.011682 -0.002946 -0.000168 0.000000 0.005644 0.000000
# 2 -0.002946 0.015399 -0.005611 0.000000 0.000802 0.000000
# 3 -0.000168 -0.005611 0.012708 0.000000 0.010473 0.000000
# 4 0.000000 0.000000 0.000000 0.046441 0.000000 0.011307
# 5 0.005644 0.000802 0.010473 0.000000 0.043656 0.000000
# 6 0.000000 0.000000 0.000000 0.011307 0.000000 0.033092
#
#
# Mechanical properties :
#
#
# Convention : Reuss Voigt Hill
#
# Bulk Modulus (GPa) = 44.76623 65.85232 55.30927
# Shear Modulus (GPa) = 26.61353 32.25726 29.43539
#
# Velocity S-wave (km/s) = 3.59329 3.95599 3.77900
# Velocity P-wave (km/s) = 6.23974 7.26741 6.77309
#
# Compressibility (1/GPa) = 0.02233827
#
# Stress axis : x y z
#
# Youngs Moduli (GPa) = 85.59980 64.93929 78.69243
#
# Poissons Ratio (x) = 0.19130 0.01325
# Poissons Ratio (y) = 0.25216 0.44156
# Poissons Ratio (z) = 0.01441 0.36439
#
# Static dielectric constant tensor:
#      x y z
#    x 2.991070 0.000000 -0.236220 
#    y 0.000000 1.811090 0.000000 
#    z -0.236220 0.000000 1.860590 
# 
# From -- ./inp_files/39932.got.cif
#   From: 2010.05.17/outbox.cif.g08.bks.cpg/sg14_20_cif.got.tgz:39932.got - 2010.06.03 17:49:19.
