data_PCOD9247071
_publ_section_title
;
Structure prediction by ZEFSAII (Michael W. Deem and Ramdas Pophale) SiO2 
 PCOD9247071
Probable space group: P 21/C
;
_chemical_formula_sum "Si O2"
_cell_formula_units_Z 28
_cell_length_a 7.760415
_cell_length_b 5.213528
_cell_length_c 30.870248
_cell_angle_alpha 90.000000
_cell_angle_beta 119.720320
_cell_angle_gamma 90.000000
_cell_volume 1084.687081
_symmetry_space_group_name_H-M "P 21/C"
_symmetry_group_IT_number 14
_symmetry_cell_setting 'monoclinic'
loop_
_space_group_symop_operation_xyz
x,y,z
-x,1/2+y,1/2-z
-x,-y,-z
x,1/2-y,1/2+z
loop_
_atom_site_type_symbol
_atom_site_label
_atom_site_fract_x
_atom_site_fract_y
_atom_site_fract_z
Si Si1 0.387377 0.774684 0.538532
Si Si2 0.766645 0.767887 0.022343
Si Si3 0.096867 0.730808 0.341653
Si Si4 0.761929 0.704489 0.240223
Si Si5 0.418788 0.116103 0.691641
Si Si6 0.067622 0.728174 0.130833
Si Si7 0.471439 0.005488 0.861004
O O1 0.258189 0.549087 0.500509
O O2 0.597257 0.767135 0.538549
O O3 0.428659 0.692423 0.592510
O O4 0.284003 0.046969 0.518322
O O5 0.977201 0.734740 0.071686
O O6 0.042990 0.995582 0.357947
O O7 0.330860 0.689053 0.370462
O O8 0.989120 0.728271 0.281405
O O9 0.993949 0.492359 0.353745
O O10 0.653748 0.816069 0.269628
O O11 0.654155 0.430756 0.223005
O O12 0.689017 0.846624 0.188538
O O13 0.388685 0.334785 0.652133
O O14 0.295586 0.863024 0.662967
#
# Coordination Sequence:
#
# PCOD9247071 Si02
#       7
#     4   4   4   4   4   4   4
#     4  10  23  40  69 102 137 180 231 298 356 422
#     4  10  21  43  70  98 139 181 230 289 372 425
#     4  11  27  42  73 105 140 178 246 293 350 419
#     4  11  25  45  68  94 142 192 225 281 354 431
#     4  11  25  44  71  96 144 192 236 282 366 432
#     4  11  24  47  72 104 139 188 233 292 360 441
#     4  12  27  43  68 109 141 183 242 301 345 424
#
# _framework density 25.813898999999999
#
# number of rings (size 3 to 8) (size 9 to 14) (size 15 to 20)
#    0.000    1.143    2.857    1.714   14.000    0.000 
#    0.000    1.429    0.000    0.000    0.000    0.000 
#    0.000    0.000    0.000    0.000    0.000    0.000 
#
# Total GULP energy -157031.317050 kJ/mol
# GULP energy per Si atom -5608.261323 kJ/mol
# Density = 2.575515 g / cm^3
# Si number density = 25.813899 Si / 1000 Ang^3
#
#
#
# Elastic Constant Matrix: (Units=GPa)
#
#
# Indices 1 2 3 4 5 6 
#
# 1 87.9204 21.5987 30.1678 0.0000 5.5204 0.0000
# 2 21.5987 103.2696 21.4423 0.0000 0.0806 0.0000
# 3 30.1678 21.4423 141.1653 0.0000 14.8106 0.0000
# 4 0.0000 0.0000 0.0000 47.3607 0.0000 -2.1647
# 5 5.5204 0.0806 14.8106 0.0000 32.4165 0.0000
# 6 0.0000 0.0000 0.0000 -2.1647 0.0000 33.4525
#
#
#
# Elastic Compliance Matrix: (Units=1/GPa)
#
#
# Indices 1 2 3 4 5 6 
#
# 1 0.012765 -0.002196 -0.002276 0.000000 -0.001129 0.000000
# 2 -0.002196 0.010392 -0.001203 0.000000 0.000898 0.000000
# 3 -0.002276 -0.001203 0.008100 0.000000 -0.003310 0.000000
# 4 0.000000 0.000000 0.000000 0.021177 0.000000 0.001370
# 5 -0.001129 0.000898 -0.003310 0.000000 0.032551 0.000000
# 6 0.000000 0.000000 0.000000 0.001370 0.000000 0.029982
#
#
# Mechanical properties :
#
#
# Convention : Reuss Voigt Hill
#
# Bulk Modulus (GPa) = 50.23560 53.19698 51.71629
# Shear Modulus (GPa) = 37.60692 39.92239 38.76466
#
# Velocity S-wave (km/s) = 3.82101 3.93688 3.87938
# Velocity P-wave (km/s) = 6.24257 6.42791 6.33592
#
# Compressibility (1/GPa) = 0.01990620
#
# Stress axis : x y z
#
# Youngs Moduli (GPa) = 78.33736 96.22862 123.45109
#
# Poissons Ratio (x) = 0.21136 0.28097
# Poissons Ratio (y) = 0.17206 0.14855
# Poissons Ratio (z) = 0.17829 0.11579
#
# Static dielectric constant tensor:
#      x y z
#    x 2.104940 0.000000 -0.004430 
#    y 0.000000 2.051470 0.000000 
#    z -0.004430 0.000000 1.979180 
# 
# From -- ./inp_files/79298.got.cif
#   From: 2010.05.17/outbox.cif.g08.bks.cpg/sg14_40_cif.got.tgz:79298.got - 2010.06.03 17:49:19.
