data_PCOD9247345
_publ_section_title
;
Structure prediction by ZEFSAII (Michael W. Deem and Ramdas Pophale) SiO2 
 PCOD9247345
Probable space group: P 21/C
;
_chemical_formula_sum "Si O2"
_cell_formula_units_Z 24
_cell_length_a 18.238120
_cell_length_b 8.697666
_cell_length_c 8.785757
_cell_angle_alpha 90.000000
_cell_angle_beta 135.565659
_cell_angle_gamma 90.000000
_cell_volume 975.701005
_symmetry_space_group_name_H-M "P 21/C"
_symmetry_group_IT_number 14
_symmetry_cell_setting 'monoclinic'
loop_
_space_group_symop_operation_xyz
x,y,z
-x,1/2+y,1/2-z
-x,-y,-z
x,1/2-y,1/2+z
loop_
_atom_site_type_symbol
_atom_site_label
_atom_site_fract_x
_atom_site_fract_y
_atom_site_fract_z
Si Si1 0.392048 0.621223 0.675160
Si Si2 0.927700 0.152091 0.002468
Si Si3 0.704721 0.605192 0.688854
Si Si4 0.516266 0.683328 0.573910
Si Si5 0.210461 0.851770 0.463579
Si Si6 0.052146 0.131283 0.476605
O O1 0.353217 0.459371 0.548039
O O2 0.486573 0.672615 0.705135
O O3 0.286058 0.721328 0.507414
O O4 0.439020 0.679081 0.903905
O O5 0.863848 0.269163 0.019475
O O6 0.010559 0.089166 0.247070
O O7 0.999082 0.223026 0.975662
O O8 0.841775 0.073632 0.765432
O O9 0.629649 0.718200 0.670853
O O10 0.823790 0.650708 0.830330
O O11 0.722718 0.468532 0.838006
O O12 0.500000 0.500000 0.500000
O O13 0.000000 0.000000 0.500000
#
# Coordination Sequence:
#
# PCOD9247345 Si02
#       6
#     4   4   4   4   4   4
#     4  11  19  38  65  87 120 161 212 258 306 376
#     4  10  22  36  64  96 126 168 211 262 303 374
#     4  11  22  38  65  88 126 170 207 259 322 370
#     4  10  22  38  62  90 120 156 208 264 308 363
#     4  11  17  36  63  90 118 168 209 250 308 379
#     4  11  22  42  63  95 135 167 211 260 312 376
#
# _framework density 24.597698999999999
#
# number of rings (size 3 to 8) (size 9 to 14) (size 15 to 20)
#    0.000    1.333    6.667    1.000    0.000    2.000 
#    0.000    3.333    3.667    0.000    0.000    0.000 
#    0.000    0.000    0.000    0.000    0.000    0.000 
#
# Total GULP energy -133631.809584 kJ/mol
# GULP energy per Si atom -5567.992066 kJ/mol
# Density = 2.454171 g / cm^3
# Si number density = 24.597699 Si / 1000 Ang^3
#
#
#
# Elastic Constant Matrix: (Units=GPa)
#
#
# Indices 1 2 3 4 5 6 
#
# 1 132.9214 11.5358 34.6261 0.0000 18.2606 0.0000
# 2 11.5358 30.2961 28.2692 0.0000 -6.4727 0.0000
# 3 34.6261 28.2692 105.1467 0.0000 -3.9491 0.0000
# 4 0.0000 0.0000 0.0000 26.0065 0.0000 0.0113
# 5 18.2606 -6.4727 -3.9491 0.0000 52.0891 0.0000
# 6 0.0000 0.0000 0.0000 0.0113 0.0000 43.0659
#
#
#
# Elastic Compliance Matrix: (Units=1/GPa)
#
#
# Indices 1 2 3 4 5 6 
#
# 1 0.008824 -0.001700 -0.002580 0.000000 -0.003500 0.000000
# 2 -0.001700 0.045511 -0.011474 0.000000 0.005381 0.000000
# 3 -0.002580 -0.011474 0.013464 0.000000 0.000499 0.000000
# 4 0.000000 0.000000 0.000000 0.038452 0.000000 -0.000010
# 5 -0.003500 0.005381 0.000499 0.000000 0.021131 0.000000
# 6 0.000000 0.000000 0.000000 -0.000010 0.000000 0.023220
#
#
# Mechanical properties :
#
#
# Convention : Reuss Voigt Hill
#
# Bulk Modulus (GPa) = 27.55562 46.35849 36.95705
# Shear Modulus (GPa) = 25.74572 37.16118 31.45345
#
# Velocity S-wave (km/s) = 3.23874 3.89106 3.57979
# Velocity P-wave (km/s) = 5.02123 6.25098 5.66955
#
# Compressibility (1/GPa) = 0.03629024
#
# Stress axis : x y z
#
# Youngs Moduli (GPa) = 113.33025 21.97274 74.27332
#
# Poissons Ratio (x) = 0.03736 0.19164
# Poissons Ratio (y) = 0.19267 0.85220
# Poissons Ratio (z) = 0.29241 0.25211
#
# Static dielectric constant tensor:
#      x y z
#    x 2.403360 0.000000 0.193890 
#    y 0.000000 1.989570 0.000000 
#    z 0.193890 0.000000 2.093210 
# 
# From -- ./inp_files/18894.got.cif
#   From: 2010.05.17/outbox.cif.g08.bks.cpg/sg14_10_cif.got.tgz:18894.got - 2010.06.03 17:49:19.
