data_PCOD9247661
_publ_section_title
;
Structure prediction by ZEFSAII (Michael W. Deem and Ramdas Pophale) SiO2 
 PCOD9247661
Probable space group: P 21/C
;
_chemical_formula_sum "Si O2"
_cell_formula_units_Z 24
_cell_length_a 8.563928
_cell_length_b 11.747655
_cell_length_c 12.839303
_cell_angle_alpha 90.000000
_cell_angle_beta 107.092922
_cell_angle_gamma 90.000000
_cell_volume 1234.656062
_symmetry_space_group_name_H-M "P 21/C"
_symmetry_group_IT_number 14
_symmetry_cell_setting 'monoclinic'
loop_
_space_group_symop_operation_xyz
x,y,z
-x,1/2+y,1/2-z
-x,-y,-z
x,1/2-y,1/2+z
loop_
_atom_site_type_symbol
_atom_site_label
_atom_site_fract_x
_atom_site_fract_y
_atom_site_fract_z
Si Si1 0.383341 0.819227 0.930097
Si Si2 0.671472 0.063411 0.513711
Si Si3 0.688842 0.655812 0.642842
Si Si4 0.079910 0.977865 0.905403
Si Si5 0.431643 0.959778 0.733758
Si Si6 0.221490 0.084749 0.293487
O O1 0.233906 0.893960 0.943561
O O2 0.411487 0.862760 0.817930
O O3 0.339168 0.687548 0.937339
O O4 0.545668 0.844025 0.028593
O O5 0.676350 0.069016 0.389543
O O6 0.500000 0.000000 0.500000
O O7 0.796057 0.984285 0.601483
O O8 0.847019 0.593386 0.628003
O O9 0.626333 0.578045 0.726179
O O10 0.729583 0.784762 0.678635
O O11 0.942658 0.926641 0.803531
O O12 0.000000 0.000000 0.000000
O O13 0.621596 0.966524 0.737376
#
# Coordination Sequence:
#
# PCOD9247661 Si02
#       6
#     4   4   4   4   4   4
#     4  11  22  43  68  97 125 175 223 266 320 396
#     4  10  22  39  63  99 128 166 219 264 328 378
#     4  11  23  43  67  97 130 169 225 264 322 395
#     4  11  25  43  66  95 132 177 213 270 327 389
#     4  10  22  40  70  93 126 174 217 270 318 387
#     4  11  24  41  65  99 133 169 210 281 325 381
#
# _framework density 19.438611000000002
#
# number of rings (size 3 to 8) (size 9 to 14) (size 15 to 20)
#    0.000    1.333    3.333    4.000    7.000    2.667 
#    3.000    3.333    0.000    0.000    0.000    0.000 
#    0.000    0.000    0.000    0.000    0.000    0.000 
#
# Total GULP energy -134071.262972 kJ/mol
# GULP energy per Si atom -5586.302624 kJ/mol
# Density = 1.939437 g / cm^3
# Si number density = 19.438611 Si / 1000 Ang^3
#
#
#
# Elastic Constant Matrix: (Units=GPa)
#
#
# Indices 1 2 3 4 5 6 
#
# 1 85.6306 20.5316 50.6026 0.0000 -1.3930 0.0000
# 2 20.5316 114.0953 75.5870 0.0000 -6.3881 0.0000
# 3 50.6026 75.5870 164.2691 0.0000 8.0777 0.0000
# 4 0.0000 0.0000 0.0000 26.2657 0.0000 4.2677
# 5 -1.3930 -6.3881 8.0777 0.0000 31.2064 0.0000
# 6 0.0000 0.0000 0.0000 4.2677 0.0000 6.0173
#
#
#
# Elastic Compliance Matrix: (Units=1/GPa)
#
#
# Indices 1 2 3 4 5 6 
#
# 1 0.014422 0.000764 -0.004896 0.000000 0.002067 0.000000
# 2 0.000764 0.013198 -0.006526 0.000000 0.004425 0.000000
# 3 -0.004896 -0.006526 0.010813 0.000000 -0.004353 0.000000
# 4 0.000000 0.000000 0.000000 0.043031 0.000000 -0.030519
# 5 0.002067 0.004425 -0.004353 0.000000 0.034170 0.000000
# 6 0.000000 0.000000 0.000000 -0.030519 0.000000 0.187832
#
#
# Mechanical properties :
#
#
# Convention : Reuss Voigt Hill
#
# Bulk Modulus (GPa) = 58.42159 73.04861 65.73510
# Shear Modulus (GPa) = 15.12921 27.18281 21.15601
#
# Velocity S-wave (km/s) = 2.79284 3.74357 3.30259
# Velocity P-wave (km/s) = 6.36550 7.50643 6.95938
#
# Compressibility (1/GPa) = 0.01711696
#
# Stress axis : x y z
#
# Youngs Moduli (GPa) = 69.34040 75.76728 92.48434
#
# Poissons Ratio (x) = -0.05788 0.45278
# Poissons Ratio (y) = -0.05297 0.60355
# Poissons Ratio (z) = 0.33947 0.49446
#
# Static dielectric constant tensor:
#      x y z
#    x 1.656350 0.000000 -0.015410 
#    y 0.000000 1.240560 0.000000 
#    z -0.015410 0.000000 1.715060 
# 
# From -- ./inp_files/24241.got.cif
#   From: 2010.05.17/outbox.cif.g08.bks.cpg/sg14_13_cif.got.tgz:24241.got - 2010.06.03 17:49:19.
