data_PCOD9247885
_publ_section_title
;
Structure prediction by ZEFSAII (Michael W. Deem and Ramdas Pophale) SiO2 
 PCOD9247885
Probable space group: P 21/C
;
_chemical_formula_sum "Si O2"
_cell_formula_units_Z 24
_cell_length_a 12.161841
_cell_length_b 8.102931
_cell_length_c 11.192603
_cell_angle_alpha 90.000000
_cell_angle_beta 103.569030
_cell_angle_gamma 90.000000
_cell_volume 1072.205734
_symmetry_space_group_name_H-M "P 21/C"
_symmetry_group_IT_number 14
_symmetry_cell_setting 'monoclinic'
loop_
_space_group_symop_operation_xyz
x,y,z
-x,1/2+y,1/2-z
-x,-y,-z
x,1/2-y,1/2+z
loop_
_atom_site_type_symbol
_atom_site_label
_atom_site_fract_x
_atom_site_fract_y
_atom_site_fract_z
Si Si1 0.429064 0.933045 0.868572
Si Si2 0.123175 0.557632 0.994516
Si Si3 0.467607 0.544427 0.853830
Si Si4 0.186692 0.627632 0.261086
Si Si5 0.786238 0.525208 0.222935
Si Si6 0.995098 0.114482 0.113191
O O1 0.451669 0.739804 0.857026
O O2 0.294565 0.938033 0.860552
O O3 0.458141 0.010398 0.746048
O O4 0.500000 0.000000 0.000000
O O5 0.199489 0.566793 0.129536
O O6 0.181718 0.452766 0.907315
O O7 0.000000 0.500000 0.000000
O O8 0.091073 0.739613 0.940539
O O9 0.346744 0.456976 0.794574
O O10 0.500000 0.500000 0.000000
O O11 0.185888 0.828908 0.247417
O O12 0.070480 0.552481 0.285179
O O13 0.873950 0.637640 0.318363
O O14 0.000000 0.000000 0.000000
#
# Coordination Sequence:
#
# PCOD9247885 Si02
#       6
#     4   4   4   4   4   4
#     4  11  25  45  71  98 131 181 229 281 340 400
#     4  11  21  39  60  92 130 161 205 258 323 385
#     4  11  24  47  68  97 137 177 233 279 341 400
#     4  10  22  41  65  89 130 172 208 262 331 391
#     4  10  22  40  65  90 127 174 209 264 325 390
#     4  11  22  38  63  93 122 163 213 251 318 392
#
# _framework density 22.383762999999998
#
# number of rings (size 3 to 8) (size 9 to 14) (size 15 to 20)
#    0.000    1.333    3.333    2.000    2.333    2.667 
#    9.000    0.000    0.000    0.000    0.000    0.000 
#    0.000    0.000    0.000    0.000    0.000    0.000 
#
# Total GULP energy -133820.733871 kJ/mol
# GULP energy per Si atom -5575.863911 kJ/mol
# Density = 2.233282 g / cm^3
# Si number density = 22.383763 Si / 1000 Ang^3
#
#
#
# Elastic Constant Matrix: (Units=GPa)
#
#
# Indices 1 2 3 4 5 6 
#
# 1 102.5167 3.3415 11.6099 0.0000 13.7740 0.0000
# 2 3.3415 11.5939 5.9722 0.0000 3.9503 0.0000
# 3 11.6099 5.9722 109.5691 0.0000 11.8625 0.0000
# 4 0.0000 0.0000 0.0000 28.5582 0.0000 -1.2776
# 5 13.7740 3.9503 11.8625 0.0000 44.8011 0.0000
# 6 0.0000 0.0000 0.0000 -1.2776 0.0000 27.4827
#
#
#
# Elastic Compliance Matrix: (Units=1/GPa)
#
#
# Indices 1 2 3 4 5 6 
#
# 1 0.010266 -0.001638 -0.000692 0.000000 -0.002829 0.000000
# 2 -0.001638 0.091026 -0.004091 0.000000 -0.006439 0.000000
# 3 -0.000692 -0.004091 0.009637 0.000000 -0.001978 0.000000
# 4 0.000000 0.000000 0.000000 0.035089 0.000000 0.001631
# 5 -0.002829 -0.006439 -0.001978 0.000000 0.024282 0.000000
# 6 0.000000 0.000000 0.000000 0.001631 0.000000 0.036462
#
#
# Mechanical properties :
#
#
# Convention : Reuss Voigt Hill
#
# Bulk Modulus (GPa) = 10.19511 29.50299 19.84905
# Shear Modulus (GPa) = 19.81759 33.68547 26.75153
#
# Velocity S-wave (km/s) = 2.97872 3.88352 3.46082
# Velocity P-wave (km/s) = 4.04907 5.77219 4.98563
#
# Compressibility (1/GPa) = 0.09808625
#
# Stress axis : x y z
#
# Youngs Moduli (GPa) = 97.40549 10.98592 103.76514
#
# Poissons Ratio (x) = 0.01800 0.07183
# Poissons Ratio (y) = 0.15960 0.42447
# Poissons Ratio (z) = 0.06743 0.04494
#
# Static dielectric constant tensor:
#      x y z
#    x 1.851680 0.000000 0.004480 
#    y 0.000000 1.924170 0.000000 
#    z 0.004480 0.000000 1.742450 
# 
# From -- ./inp_files/28173.got.cif
#   From: 2010.05.17/outbox.cif.g08.bks.cpg/sg14_15_cif.got.tgz:28173.got - 2010.06.03 17:49:19.
