data_PCOD9247244
_publ_section_title
;
Structure prediction by ZEFSAII (Michael W. Deem and Ramdas Pophale) SiO2 
 PCOD9247244
Probable space group: P 21/C
;
_chemical_formula_sum "Si O2"
_cell_formula_units_Z 24
_cell_length_a 13.101989
_cell_length_b 11.446949
_cell_length_c 14.158746
_cell_angle_alpha 90.000000
_cell_angle_beta 29.536430
_cell_angle_gamma 90.000000
_cell_volume 1046.835152
_symmetry_space_group_name_H-M "P 21/C"
_symmetry_group_IT_number 14
_symmetry_cell_setting 'monoclinic'
loop_
_space_group_symop_operation_xyz
x,y,z
-x,1/2+y,1/2-z
-x,-y,-z
x,1/2-y,1/2+z
loop_
_atom_site_type_symbol
_atom_site_label
_atom_site_fract_x
_atom_site_fract_y
_atom_site_fract_z
Si Si1 0.264883 0.294000 0.642262
Si Si2 0.826649 0.074627 0.194692
Si Si3 0.503955 0.106993 0.582099
Si Si4 0.591793 0.779020 0.677277
Si Si5 0.805663 0.224712 0.586565
Si Si6 0.754028 0.975770 0.688628
O O1 0.399507 0.196465 0.590145
O O2 0.295540 0.263402 0.508167
O O3 0.316708 0.415812 0.655693
O O4 0.019494 0.285599 0.859773
O O5 0.749072 0.083960 0.366291
O O6 0.863192 0.206718 0.135266
O O7 0.617677 0.013714 0.325474
O O8 0.000000 0.000000 0.000000
O O9 0.442769 0.168751 0.727309
O O10 0.354863 0.806576 0.839384
O O11 0.697461 0.882721 0.651957
O O12 0.688602 0.105449 0.709203
O O13 0.000000 0.000000 0.500000
#
# Coordination Sequence:
#
# PCOD9247244 Si02
#       6
#     4   4   4   4   4   4
#     4  10  21  46  68  99 142 186 236 294 359 435
#     4  11  22  41  70  94 133 181 233 291 359 420
#     4  10  23  42  66  96 136 181 230 292 356 424
#     4  11  24  43  70 101 140 184 243 293 353 432
#     4  11  23  42  67 103 136 185 241 293 362 433
#     4   9  23  47  70 100 149 189 231 300 368 433
#
# _framework density 22.926245000000002
#
# number of rings (size 3 to 8) (size 9 to 14) (size 15 to 20)
#    0.000    1.667    3.333    0.000    2.333    2.000 
#    6.000    0.000    0.000    0.000    0.000    0.000 
#    0.000    0.000    0.000    0.000    0.000    0.000 
#
# Total GULP energy -133640.605624 kJ/mol
# GULP energy per Si atom -5568.358568 kJ/mol
# Density = 2.287406 g / cm^3
# Si number density = 22.926245 Si / 1000 Ang^3
#
#
#
# Elastic Constant Matrix: (Units=GPa)
#
#
# Indices 1 2 3 4 5 6 
#
# 1 61.9082 26.5062 46.8330 0.0000 15.3406 0.0000
# 2 26.5062 126.3215 48.7696 0.0000 10.8173 0.0000
# 3 46.8330 48.7696 181.9477 0.0000 17.0216 0.0000
# 4 0.0000 0.0000 0.0000 37.7791 0.0000 -2.0500
# 5 15.3406 10.8173 17.0216 0.0000 47.5481 0.0000
# 6 0.0000 0.0000 0.0000 -2.0500 0.0000 33.6461
#
#
#
# Elastic Compliance Matrix: (Units=1/GPa)
#
#
# Indices 1 2 3 4 5 6 
#
# 1 0.021806 -0.002418 -0.004509 0.000000 -0.004871 0.000000
# 2 -0.002418 0.009165 -0.001772 0.000000 -0.000671 0.000000
# 3 -0.004509 -0.001772 0.007199 0.000000 -0.000719 0.000000
# 4 0.000000 0.000000 0.000000 0.026557 0.000000 0.001618
# 5 -0.004871 -0.000671 -0.000719 0.000000 0.023013 0.000000
# 6 0.000000 0.000000 0.000000 0.001618 0.000000 0.029820
#
#
# Mechanical properties :
#
#
# Convention : Reuss Voigt Hill
#
# Bulk Modulus (GPa) = 48.13835 68.26612 58.20224
# Shear Modulus (GPa) = 35.24069 40.33257 37.78663
#
# Velocity S-wave (km/s) = 3.92488 4.19887 4.06419
# Velocity P-wave (km/s) = 6.44843 7.30400 6.88951
#
# Compressibility (1/GPa) = 0.02077346
#
# Stress axis : x y z
#
# Youngs Moduli (GPa) = 45.85842 109.11069 138.91064
#
# Poissons Ratio (x) = 0.26379 0.62637
# Poissons Ratio (y) = 0.11087 0.24609
# Poissons Ratio (z) = 0.20678 0.19330
#
# Static dielectric constant tensor:
#      x y z
#    x 1.981200 0.000000 0.052100 
#    y 0.000000 1.965870 0.000000 
#    z 0.052100 0.000000 1.932640 
# 
# From -- ./inp_files/46859.got.cif
#   From: 2010.05.17/outbox.cif.g08.bks.cpg/sg14_24_cif.got.tgz:46859.got - 2010.06.03 17:49:19.
