data_PCOD9247662
_publ_section_title
;
Structure prediction by ZEFSAII (Michael W. Deem and Ramdas Pophale) SiO2 
 PCOD9247662
Probable space group: P 21/C
;
_chemical_formula_sum "Si O2"
_cell_formula_units_Z 26
_cell_length_a 9.045577
_cell_length_b 7.472793
_cell_length_c 16.339454
_cell_angle_alpha 90.000000
_cell_angle_beta 103.621191
_cell_angle_gamma 90.000000
_cell_volume 1073.412667
_symmetry_space_group_name_H-M "P 21/C"
_symmetry_group_IT_number 14
_symmetry_cell_setting 'monoclinic'
loop_
_space_group_symop_operation_xyz
x,y,z
-x,1/2+y,1/2-z
-x,-y,-z
x,1/2-y,1/2+z
loop_
_atom_site_type_symbol
_atom_site_label
_atom_site_fract_x
_atom_site_fract_y
_atom_site_fract_z
Si Si1 0.435683 0.041328 0.079863
Si Si2 0.891375 0.380328 0.429215
Si Si3 0.810014 0.951700 0.631064
Si Si4 0.506377 0.086359 0.644715
Si Si5 0.000000 0.500000 0.000000
Si Si6 0.671652 0.405371 0.741593
Si Si7 0.037696 0.381497 0.268764
O O1 0.567272 0.992650 0.161475
O O2 0.278422 0.951393 0.081399
O O3 0.381241 0.798585 0.279533
O O4 0.500000 0.000000 0.000000
O O5 0.000000 0.500000 0.500000
O O6 0.950705 0.405834 0.343692
O O7 0.898226 0.177684 0.462139
O O8 0.858846 0.792616 0.699586
O O9 0.871197 0.927103 0.548529
O O10 0.630731 0.980206 0.609786
O O11 0.914059 0.116626 0.679559
O O12 0.421263 0.244347 0.586974
O O13 0.387640 0.970123 0.679006
O O14 0.842601 0.465619 0.745082
#
# Coordination Sequence:
#
# PCOD9247662 Si02
#       7
#     4   4   4   4   2   4   4
#     4  10  22  40  67  96 135 188 229 281 359 419
#     4  11  24  43  70 101 137 185 233 293 355 420
#     4  11  23  43  66 101 135 181 232 294 345 428
#     4  10  22  40  66  93 140 175 232 282 343 427
#     4  10  26  44  66 104 140 172 240 294 350 412
#     4  10  22  39  63  99 131 182 223 286 342 412
#     4  11  24  38  68  99 134 182 235 285 357 416
#
# _framework density 24.221813000000001
#
# number of rings (size 3 to 8) (size 9 to 14) (size 15 to 20)
#    0.923    0.615    0.000    4.615    6.462    1.231 
#    0.000    1.538    0.000    7.385    0.000    0.000 
#    0.000    0.000    0.000    0.000    0.000    0.000 
#
# Total GULP energy -144875.884644 kJ/mol
# GULP energy per Si atom -5572.149409 kJ/mol
# Density = 2.416668 g / cm^3
# Si number density = 24.221813 Si / 1000 Ang^3
#
#
#
# Elastic Constant Matrix: (Units=GPa)
#
#
# Indices 1 2 3 4 5 6 
#
# 1 126.7078 26.0712 24.4525 0.0000 10.7036 0.0000
# 2 26.0712 54.1076 -7.1038 0.0000 3.2672 0.0000
# 3 24.4525 -7.1038 49.6560 0.0000 5.8605 0.0000
# 4 0.0000 0.0000 0.0000 38.3714 0.0000 4.3662
# 5 10.7036 3.2672 5.8605 0.0000 26.7847 0.0000
# 6 0.0000 0.0000 0.0000 4.3662 0.0000 51.0666
#
#
#
# Elastic Compliance Matrix: (Units=1/GPa)
#
#
# Indices 1 2 3 4 5 6 
#
# 1 0.010308 -0.005570 -0.005612 0.000000 -0.002212 0.000000
# 2 -0.005570 0.022077 0.006114 0.000000 -0.001805 0.000000
# 3 -0.005612 0.006114 0.024226 0.000000 -0.003804 0.000000
# 4 0.000000 0.000000 0.000000 0.026317 0.000000 -0.002250
# 5 -0.002212 -0.001805 -0.003804 0.000000 0.039271 0.000000
# 6 0.000000 0.000000 0.000000 -0.002250 0.000000 0.019775
#
#
# Mechanical properties :
#
#
# Convention : Reuss Voigt Hill
#
# Bulk Modulus (GPa) = 21.51657 35.25680 28.38669
# Shear Modulus (GPa) = 29.83269 35.71464 32.77366
#
# Velocity S-wave (km/s) = 3.51329 3.84406 3.68239
# Velocity P-wave (km/s) = 5.03587 5.85575 5.46122
#
# Compressibility (1/GPa) = 0.04647580
#
# Stress axis : x y z
#
# Youngs Moduli (GPa) = 97.01075 45.29539 41.27839
#
# Poissons Ratio (x) = 0.25230 0.23165
# Poissons Ratio (y) = 0.54036 -0.25239
# Poissons Ratio (z) = 0.54442 -0.27695
#
# Static dielectric constant tensor:
#      x y z
#    x 1.921710 0.000000 0.051150 
#    y 0.000000 2.014710 0.000000 
#    z 0.051150 0.000000 1.930890 
# 
# From -- ./inp_files/54590.got.cif
#   From: 2010.05.17/outbox.cif.g08.bks.cpg/sg14_28_cif.got.tgz:54590.got - 2010.06.03 17:49:19.
