data_PCOD9247876
_publ_section_title
;
Structure prediction by ZEFSAII (Michael W. Deem and Ramdas Pophale) SiO2 
 PCOD9247876
Probable space group: P 21/C
;
_chemical_formula_sum "Si O2"
_cell_formula_units_Z 32
_cell_length_a 12.342564
_cell_length_b 23.347510
_cell_length_c 12.534008
_cell_angle_alpha 90.000000
_cell_angle_beta 24.235573
_cell_angle_gamma 90.000000
_cell_volume 1482.646864
_symmetry_space_group_name_H-M "P 21/C"
_symmetry_group_IT_number 14
_symmetry_cell_setting 'monoclinic'
loop_
_space_group_symop_operation_xyz
x,y,z
-x,1/2+y,1/2-z
-x,-y,-z
x,1/2-y,1/2+z
loop_
_atom_site_type_symbol
_atom_site_label
_atom_site_fract_x
_atom_site_fract_y
_atom_site_fract_z
Si Si1 0.013542 0.631101 0.966069
Si Si2 0.531692 0.671570 0.000076
Si Si3 0.870893 0.578838 0.420257
Si Si4 0.285220 0.302687 0.400569
Si Si5 0.426890 0.945019 0.497146
Si Si6 0.555290 0.935985 0.988089
Si Si7 0.942691 0.812583 0.312275
Si Si8 0.753839 0.231584 0.618093
O O1 0.273775 0.594356 0.759236
O O2 0.035972 0.689326 0.016543
O O3 0.035166 0.644815 0.820568
O O4 0.741758 0.599260 0.238595
O O5 0.660645 0.687540 0.771604
O O6 0.390414 0.611277 0.104569
O O7 0.742089 0.662003 0.905572
O O8 0.365382 0.727136 0.183904
O O9 0.913610 0.647863 0.382830
O O10 0.665621 0.566463 0.700435
O O11 0.726498 0.562535 0.441846
O O12 0.149103 0.548323 0.186644
O O13 0.196260 0.238496 0.498707
O O14 0.538452 0.307284 0.250797
O O15 0.500000 0.000000 0.500000
O O16 0.500000 0.000000 0.000000
O O17 0.151068 0.777413 0.054804
#
# Coordination Sequence:
#
# PCOD9247876 Si02
#       8
#     4   4   4   4   4   4   4   4
#     4  12  27  45  73 106 143 188 242 294 364 429
#     4  10  25  40  66 101 142 185 232 285 361 422
#     4  11  24  45  73 100 133 186 235 293 347 422
#     4  10  22  40  65 100 138 185 231 284 351 440
#     4  11  26  46  72 103 139 185 241 290 348 418
#     4  12  28  50  73 103 138 190 247 300 353 422
#     4  11  25  39  67 104 148 184 225 298 364 426
#     4  11  23  41  69 102 147 182 236 291 367 438
#
# _framework density 21.583022
#
# number of rings (size 3 to 8) (size 9 to 14) (size 15 to 20)
#    0.000    1.000    1.250    3.750   17.500    2.000 
#    0.000    0.000    0.000    0.000    0.000    0.000 
#    0.000    0.000    0.000    0.000    0.000    0.000 
#
# Total GULP energy -178958.982531 kJ/mol
# GULP energy per Si atom -5592.468204 kJ/mol
# Density = 2.153390 g / cm^3
# Si number density = 21.583022 Si / 1000 Ang^3
#
#
#
# Elastic Constant Matrix: (Units=GPa)
#
#
# Indices 1 2 3 4 5 6 
#
# 1 83.8903 47.9355 -12.6297 0.0000 7.5931 0.0000
# 2 47.9355 64.0948 8.6559 0.0000 -0.5435 0.0000
# 3 -12.6297 8.6559 50.9036 0.0000 -0.9498 0.0000
# 4 0.0000 0.0000 0.0000 21.4898 0.0000 -6.9183
# 5 7.5931 -0.5435 -0.9498 0.0000 34.1100 0.0000
# 6 0.0000 0.0000 0.0000 -6.9183 0.0000 31.7296
#
#
#
# Elastic Compliance Matrix: (Units=1/GPa)
#
#
# Indices 1 2 3 4 5 6 
#
# 1 0.025654 -0.020552 0.009752 0.000000 -0.005767 0.000000
# 2 -0.020552 0.032435 -0.010525 0.000000 0.004799 0.000000
# 3 0.009752 -0.010525 0.023823 0.000000 -0.001675 0.000000
# 4 0.000000 0.000000 0.000000 0.050047 0.000000 0.010912
# 5 -0.005767 0.004799 -0.001675 0.000000 0.030630 0.000000
# 6 0.000000 0.000000 0.000000 0.010912 0.000000 0.033896
#
#
# Mechanical properties :
#
#
# Convention : Reuss Voigt Hill
#
# Bulk Modulus (GPa) = 25.46998 31.86800 28.66899
# Shear Modulus (GPa) = 19.82376 27.79433 23.80904
#
# Velocity S-wave (km/s) = 3.03395 3.59247 3.32495
# Velocity P-wave (km/s) = 4.90914 5.65731 5.29645
#
# Compressibility (1/GPa) = 0.03926190
#
# Stress axis : x y z
#
# Youngs Moduli (GPa) = 38.97988 30.83114 41.97603
#
# Poissons Ratio (x) = 0.63365 -0.40936
# Poissons Ratio (y) = 0.80113 0.44180
# Poissons Ratio (z) = -0.38014 0.32450
#
# Static dielectric constant tensor:
#      x y z
#    x 1.778450 0.000000 -0.044740 
#    y 0.000000 1.784950 0.000000 
#    z -0.044740 0.000000 1.812880 
# 
# From -- ./inp_files/30816.got.cif
#   From: 2010.05.17/outbox.cif.g08.bks.cpg/sg14_16_cif.got.tgz:30816.got - 2010.06.03 17:49:19.
