data_PCOD9247861
_publ_section_title
;
Structure prediction by ZEFSAII (Michael W. Deem and Ramdas Pophale) SiO2 
 PCOD9247861
Probable space group: P 21/C
;
_chemical_formula_sum "Si O2"
_cell_formula_units_Z 30
_cell_length_a 11.470600
_cell_length_b 7.294776
_cell_length_c 28.239367
_cell_angle_alpha 90.000000
_cell_angle_beta 150.709773
_cell_angle_gamma 90.000000
_cell_volume 1156.030824
_symmetry_space_group_name_H-M "P 21/C"
_symmetry_group_IT_number 14
_symmetry_cell_setting 'monoclinic'
loop_
_space_group_symop_operation_xyz
x,y,z
-x,1/2+y,1/2-z
-x,-y,-z
x,1/2-y,1/2+z
loop_
_atom_site_type_symbol
_atom_site_label
_atom_site_fract_x
_atom_site_fract_y
_atom_site_fract_z
Si Si1 0.379949 0.746243 0.419782
Si Si2 0.889437 0.833441 0.777201
Si Si3 0.777752 0.789576 0.333311
Si Si4 0.832960 0.217170 0.790644
Si Si5 0.249419 0.324623 0.869756
Si Si6 0.210812 0.178653 0.008699
Si Si7 0.000000 0.000000 0.500000
Si Si8 0.606141 0.986365 0.843152
O O1 0.544678 0.742385 0.524697
O O2 0.544544 0.699872 0.433762
O O3 0.148932 0.623450 0.347713
O O4 0.292011 0.956196 0.382536
O O5 0.930573 0.718327 0.839383
O O6 0.751187 0.749171 0.683941
O O7 0.754960 0.015416 0.746429
O O8 0.874387 0.934701 0.404949
O O9 0.755647 0.602808 0.354254
O O10 0.514645 0.831563 0.219069
O O11 0.616182 0.349773 0.725816
O O12 0.999580 0.294121 0.807752
O O13 0.009499 0.186760 0.897410
O O14 0.152845 0.340947 0.025081
O O15 0.248079 0.003407 0.056603
#
# Coordination Sequence:
#
# PCOD9247861 Si02
#       8
#     4   4   4   4   4   4   2   4
#     4  10  23  40  65  97 129 176 222 255 336 402
#     4  12  24  40  63 100 133 174 214 279 331 398
#     4  11  25  43  67  94 127 171 226 268 336 394
#     4  11  23  42  63  96 138 167 218 277 327 391
#     4  10  22  40  64  92 129 175 216 265 321 397
#     4  10  22  41  70  94 131 172 216 277 325 384
#     4  10  22  46  66  92 124 176 218 274 328 394
#     4  11  22  43  65  94 123 171 220 271 324 391
#
# _framework density 25.950866000000001
#
# number of rings (size 3 to 8) (size 9 to 14) (size 15 to 20)
#    0.000    1.333    1.333    4.000    3.733    5.333 
#    2.400    2.000    0.000    0.000    0.000    0.000 
#    0.000    0.000    0.000    0.000    0.000    0.000 
#
# Total GULP energy -167635.034290 kJ/mol
# GULP energy per Si atom -5587.834476 kJ/mol
# Density = 2.589180 g / cm^3
# Si number density = 25.950866 Si / 1000 Ang^3
#
#
#
# Elastic Constant Matrix: (Units=GPa)
#
#
# Indices 1 2 3 4 5 6 
#
# 1 172.2081 27.9631 72.7748 0.0000 -45.4263 0.0000
# 2 27.9631 39.8274 11.9325 0.0000 -1.3490 0.0000
# 3 72.7748 11.9325 109.9030 0.0000 -32.4486 0.0000
# 4 0.0000 0.0000 0.0000 33.0045 0.0000 11.2657
# 5 -45.4263 -1.3490 -32.4486 0.0000 60.1420 0.0000
# 6 0.0000 0.0000 0.0000 11.2657 0.0000 33.3247
#
#
#
# Elastic Compliance Matrix: (Units=1/GPa)
#
#
# Indices 1 2 3 4 5 6 
#
# 1 0.009890 -0.005427 -0.004508 0.000000 0.004916 0.000000
# 2 -0.005427 0.028993 -0.000681 0.000000 -0.003816 0.000000
# 3 -0.004508 -0.000681 0.013261 0.000000 0.003734 0.000000
# 4 0.000000 0.000000 0.000000 0.034251 0.000000 -0.011579
# 5 0.004916 -0.003816 0.003734 0.000000 0.022270 0.000000
# 6 0.000000 0.000000 0.000000 -0.011579 0.000000 0.033922
#
#
# Mechanical properties :
#
#
# Convention : Reuss Voigt Hill
#
# Bulk Modulus (GPa) = 32.35019 60.80880 46.57949
# Shear Modulus (GPa) = 28.71532 39.24545 33.98039
#
# Velocity S-wave (km/s) = 3.33006 3.89305 3.62251
# Velocity P-wave (km/s) = 5.22290 6.60991 5.95691
#
# Compressibility (1/GPa) = 0.03091172
#
# Stress axis : x y z
#
# Youngs Moduli (GPa) = 101.11122 34.49077 75.41112
#
# Poissons Ratio (x) = 0.18717 0.33998
# Poissons Ratio (y) = 0.54870 0.05137
# Poissons Ratio (z) = 0.45584 0.02349
#
# Static dielectric constant tensor:
#      x y z
#    x 1.998470 0.000000 0.017130 
#    y 0.000000 2.095060 0.000000 
#    z 0.017130 0.000000 2.014410 
# 
# From -- ./inp_files/79981.got.cif
#   From: 2010.05.17/outbox.cif.g08.bks.cpg/sg14_40_cif.got.tgz:79981.got - 2010.06.03 17:49:19.
