data_PCOD9247265
_publ_section_title
;
Structure prediction by ZEFSAII (Michael W. Deem and Ramdas Pophale) SiO2 
 PCOD9247265
Probable space group: P 21/C
;
_chemical_formula_sum "Si O2"
_cell_formula_units_Z 26
_cell_length_a 5.263315
_cell_length_b 22.698280
_cell_length_c 11.059300
_cell_angle_alpha 90.000000
_cell_angle_beta 128.603216
_cell_angle_gamma 90.000000
_cell_volume 1032.525649
_symmetry_space_group_name_H-M "P 21/C"
_symmetry_group_IT_number 14
_symmetry_cell_setting 'monoclinic'
loop_
_space_group_symop_operation_xyz
x,y,z
-x,1/2+y,1/2-z
-x,-y,-z
x,1/2-y,1/2+z
loop_
_atom_site_type_symbol
_atom_site_label
_atom_site_fract_x
_atom_site_fract_y
_atom_site_fract_z
Si Si1 0.322762 0.857981 0.238735
Si Si2 0.851530 0.422590 0.981666
Si Si3 0.456834 0.321545 0.952800
Si Si4 0.605779 0.684011 0.569576
Si Si5 0.500000 0.000000 0.000000
Si Si6 0.475406 0.984027 0.269250
Si Si7 0.131739 0.607537 0.292493
O O1 0.576477 0.834922 0.414163
O O2 0.466547 0.847550 0.148471
O O3 0.255258 0.928046 0.237890
O O4 0.988125 0.823854 0.161582
O O5 0.769607 0.360623 0.015334
O O6 0.536307 0.466029 0.887717
O O7 0.901384 0.413494 0.854482
O O8 0.164427 0.453308 0.131114
O O9 0.480209 0.252394 0.943754
O O10 0.180447 0.350066 0.785909
O O11 0.431827 0.651475 0.406459
O O12 0.408922 0.007712 0.116546
O O13 0.791710 0.050996 0.102931
#
# Coordination Sequence:
#
# PCOD9247265 Si02
#       7
#     4   4   4   4   2   4   4
#     4  12  27  51  77 110 153 208 257 327 389 463
#     4  10  24  45  75 111 153 203 259 321 392 470
#     4  12  28  46  76 108 155 207 263 317 398 473
#     4  12  30  48  78 112 158 202 269 322 389 464
#     4  10  22  44  76 110 158 196 258 326 398 462
#     4  10  21  47  75 113 157 199 264 322 397 471
#     4  11  25  46  72 111 149 201 258 322 391 461
#
# _framework density 25.180971
#
# number of rings (size 3 to 8) (size 9 to 14) (size 15 to 20)
#    0.000    0.923    3.077    1.846    6.462    1.846 
#    0.000    3.077    0.000    0.000    0.000    0.000 
#    0.000    0.000    0.000    0.000    0.000    0.000 
#
# Total GULP energy -145051.361342 kJ/mol
# GULP energy per Si atom -5578.898513 kJ/mol
# Density = 2.512366 g / cm^3
# Si number density = 25.180971 Si / 1000 Ang^3
#
#
#
# Elastic Constant Matrix: (Units=GPa)
#
#
# Indices 1 2 3 4 5 6 
#
# 1 75.1882 12.4913 25.6366 0.0000 -7.3275 0.0000
# 2 12.4913 131.5045 15.6099 0.0000 2.1751 0.0000
# 3 25.6366 15.6099 80.7777 0.0000 12.5671 0.0000
# 4 0.0000 0.0000 0.0000 27.5369 0.0000 4.7761
# 5 -7.3275 2.1751 12.5671 0.0000 29.1819 0.0000
# 6 0.0000 0.0000 0.0000 4.7761 0.0000 35.9749
#
#
#
# Elastic Compliance Matrix: (Units=1/GPa)
#
#
# Indices 1 2 3 4 5 6 
#
# 1 0.016150 -0.000934 -0.005988 0.000000 0.006704 0.000000
# 2 -0.000934 0.007837 -0.001169 0.000000 -0.000315 0.000000
# 3 -0.005988 -0.001169 0.015784 0.000000 -0.008214 0.000000
# 4 0.000000 0.000000 0.000000 0.037171 0.000000 -0.004935
# 5 0.006704 -0.000315 -0.008214 0.000000 0.039512 0.000000
# 6 0.000000 0.000000 0.000000 -0.004935 0.000000 0.028452
#
#
# Mechanical properties :
#
#
# Convention : Reuss Voigt Hill
#
# Bulk Modulus (GPa) = 42.39298 43.88286 43.13792
# Shear Modulus (GPa) = 29.59435 34.12091 31.85763
#
# Velocity S-wave (km/s) = 3.43194 3.68506 3.56075
# Velocity P-wave (km/s) = 5.70755 5.96415 5.83726
#
# Compressibility (1/GPa) = 0.02358881
#
# Stress axis : x y z
#
# Youngs Moduli (GPa) = 61.91885 127.59970 63.35590
#
# Poissons Ratio (x) = 0.11920 0.37938
# Poissons Ratio (y) = 0.05784 0.07406
# Poissons Ratio (z) = 0.37077 0.14916
#
# Static dielectric constant tensor:
#      x y z
#    x 1.980340 0.000000 0.022990 
#    y 0.000000 2.030220 0.000000 
#    z 0.022990 0.000000 1.991850 
# 
# From -- ./inp_files/22156.got.cif
#   From: 2010.05.17/outbox.cif.g08.bks.cpg/sg14_12_cif.got.tgz:22156.got - 2010.06.03 17:49:19.
