data_PCOD9247506
_publ_section_title
;
Structure prediction by ZEFSAII (Michael W. Deem and Ramdas Pophale) SiO2 
 PCOD9247506
Probable space group: P 21/C
;
_chemical_formula_sum "Si O2"
_cell_formula_units_Z 32
_cell_length_a 22.662198
_cell_length_b 7.700959
_cell_length_c 14.961798
_cell_angle_alpha 90.000000
_cell_angle_beta 27.057050
_cell_angle_gamma 90.000000
_cell_volume 1187.750014
_symmetry_space_group_name_H-M "P 21/C"
_symmetry_group_IT_number 14
_symmetry_cell_setting 'monoclinic'
loop_
_space_group_symop_operation_xyz
x,y,z
-x,1/2+y,1/2-z
-x,-y,-z
x,1/2-y,1/2+z
loop_
_atom_site_type_symbol
_atom_site_label
_atom_site_fract_x
_atom_site_fract_y
_atom_site_fract_z
Si Si1 0.180146 0.588454 0.276040
Si Si2 0.425988 0.680142 0.029615
Si Si3 0.360395 0.419157 0.788366
Si Si4 0.554554 0.016284 0.189605
Si Si5 0.988354 0.645023 0.377090
Si Si6 0.786527 0.767358 0.870939
Si Si7 0.971345 0.001164 0.709812
Si Si8 0.296345 0.694600 0.374864
O O1 0.286604 0.720750 0.169986
O O2 0.103133 0.660095 0.295040
O O3 0.222593 0.399430 0.179719
O O4 0.091499 0.517664 0.476290
O O5 0.369832 0.594515 0.195288
O O6 0.538496 0.813878 0.909292
O O7 0.488219 0.575115 0.864002
O O8 0.455999 0.446470 0.744514
O O9 0.303799 0.603842 0.836129
O O10 0.248002 0.299477 0.981882
O O11 0.618708 0.183122 0.149671
O O12 0.673112 0.898008 0.997294
O O13 0.934921 0.842369 0.447142
O O14 0.019146 0.595275 0.233803
O O15 0.922913 0.867222 0.699114
O O16 0.837663 0.099530 0.921550
#
# Coordination Sequence:
#
# PCOD9247506 Si02
#       8
#     4   4   4   4   4   4   4   4
#     4  11  23  44  67  96 136 178 219 280 334 388
#     4  11  22  39  63  97 139 176 214 267 330 392
#     4  11  22  38  64 101 135 173 217 261 321 413
#     4  10  22  38  63  96 132 175 218 258 327 398
#     4  11  25  44  69  93 130 173 233 283 333 387
#     4  10  22  39  65  96 129 173 225 265 335 395
#     4  11  24  44  70  95 128 177 229 284 337 388
#     4  11  22  40  64  97 135 178 216 274 326 397
#
# _framework density 26.941697000000001
#
# number of rings (size 3 to 8) (size 9 to 14) (size 15 to 20)
#    0.000    1.250    2.500    3.750    3.500    0.500 
#    0.000    2.500    0.000    0.000    0.000    0.000 
#    0.000    0.000    0.000    0.000    0.000    0.000 
#
# Total GULP energy -178863.747743 kJ/mol
# GULP energy per Si atom -5589.492117 kJ/mol
# Density = 2.688038 g / cm^3
# Si number density = 26.941697 Si / 1000 Ang^3
#
#
#
# Elastic Constant Matrix: (Units=GPa)
#
#
# Indices 1 2 3 4 5 6 
#
# 1 109.0787 6.9908 1.1186 0.0000 -1.5628 0.0000
# 2 6.9908 108.7346 5.0046 0.0000 -5.4210 0.0000
# 3 1.1186 5.0046 47.8792 0.0000 1.8685 0.0000
# 4 0.0000 0.0000 0.0000 35.6947 0.0000 -2.0359
# 5 -1.5628 -5.4210 1.8685 0.0000 29.9696 0.0000
# 6 0.0000 0.0000 0.0000 -2.0359 0.0000 43.6057
#
#
#
# Elastic Compliance Matrix: (Units=1/GPa)
#
#
# Indices 1 2 3 4 5 6 
#
# 1 0.009211 -0.000565 -0.000171 0.000000 0.000389 0.000000
# 2 -0.000565 0.009367 -0.001033 0.000000 0.001729 0.000000
# 3 -0.000171 -0.001033 0.021057 0.000000 -0.001509 0.000000
# 4 0.000000 0.000000 0.000000 0.028090 0.000000 0.001312
# 5 0.000389 0.001729 -0.001509 0.000000 0.033794 0.000000
# 6 0.000000 0.000000 0.000000 0.001312 0.000000 0.022994
#
#
# Mechanical properties :
#
#
# Convention : Reuss Voigt Hill
#
# Bulk Modulus (GPa) = 27.70425 32.43563 30.06994
# Shear Modulus (GPa) = 35.69278 38.69257 37.19267
#
# Velocity S-wave (km/s) = 3.64375 3.79378 3.71952
# Velocity P-wave (km/s) = 5.29225 5.59068 5.44351
#
# Compressibility (1/GPa) = 0.03609555
#
# Stress axis : x y z
#
# Youngs Moduli (GPa) = 108.56321 106.76001 47.49065
#
# Poissons Ratio (x) = 0.06031 0.00814
# Poissons Ratio (y) = 0.06133 0.04907
# Poissons Ratio (z) = 0.01860 0.11032
#
# Static dielectric constant tensor:
#      x y z
#    x 2.045590 0.000000 -0.048570 
#    y 0.000000 2.203880 0.000000 
#    z -0.048570 0.000000 2.237230 
# 
# From -- ./inp_files/51238.got.cif
#   From: 2010.05.17/outbox.cif.g08.bks.cpg/sg14_26_cif.got.tgz:51238.got - 2010.06.03 17:49:19.
