data_PCOD9247923
_publ_section_title
;
Structure prediction by ZEFSAII (Michael W. Deem and Ramdas Pophale) SiO2 
 PCOD9247923
Probable space group: P 21/C
;
_chemical_formula_sum "Si O2"
_cell_formula_units_Z 26
_cell_length_a 15.824567
_cell_length_b 8.245790
_cell_length_c 13.753969
_cell_angle_alpha 90.000000
_cell_angle_beta 38.470859
_cell_angle_gamma 90.000000
_cell_volume 1116.513242
_symmetry_space_group_name_H-M "P 21/C"
_symmetry_group_IT_number 14
_symmetry_cell_setting 'monoclinic'
loop_
_space_group_symop_operation_xyz
x,y,z
-x,1/2+y,1/2-z
-x,-y,-z
x,1/2-y,1/2+z
loop_
_atom_site_type_symbol
_atom_site_label
_atom_site_fract_x
_atom_site_fract_y
_atom_site_fract_z
Si Si1 0.034835 0.629198 0.884391
Si Si2 0.681039 0.996845 0.294525
Si Si3 0.561735 0.671851 0.069462
Si Si4 0.467490 0.481801 0.641581
Si Si5 0.777521 0.516117 0.016587
Si Si6 0.000000 0.500000 0.500000
Si Si7 0.291950 0.738505 0.557964
O O1 0.026081 0.811577 0.934933
O O2 0.182537 0.614485 0.701368
O O3 0.000000 0.500000 0.000000
O O4 0.923360 0.592255 0.901750
O O5 0.624489 0.840481 0.403379
O O6 0.570566 0.055597 0.316229
O O7 0.679038 0.134522 0.381070
O O8 0.835680 0.980711 0.124159
O O9 0.682605 0.614720 0.028708
O O10 0.514825 0.847522 0.142295
O O11 0.500000 0.500000 0.500000
O O12 0.308710 0.473050 0.807103
O O13 0.565850 0.344419 0.594868
O O14 0.776507 0.337252 0.969377
#
# Coordination Sequence:
#
# PCOD9247923 Si02
#       7
#     4   4   4   4   4   2   4
#     4  11  26  49  74 106 146 201 258 307 382 464
#     4   9  20  41  66  99 138 185 232 296 369 443
#     4  10  22  40  66  97 141 180 233 298 366 436
#     4  12  23  40  71 104 136 192 243 297 373 442
#     4  11  26  45  67 106 145 185 247 308 378 441
#     4  10  24  42  76 100 140 192 250 302 366 450
#     4  10  23  46  66 103 147 184 242 311 371 453
#
# _framework density 23.286781000000001
#
# number of rings (size 3 to 8) (size 9 to 14) (size 15 to 20)
#    0.000    1.538    1.538    1.846    6.462    2.462 
#    8.308    0.000    0.000    0.000    0.000    0.000 
#    0.000    0.000    0.000    0.000    0.000    0.000 
#
# Total GULP energy -144805.054234 kJ/mol
# GULP energy per Si atom -5569.425163 kJ/mol
# Density = 2.323378 g / cm^3
# Si number density = 23.286781 Si / 1000 Ang^3
#
#
#
# Elastic Constant Matrix: (Units=GPa)
#
#
# Indices 1 2 3 4 5 6 
#
# 1 89.3474 3.6507 25.5563 0.0000 -15.9910 0.0000
# 2 3.6507 68.1873 15.8229 0.0000 -6.1357 0.0000
# 3 25.5563 15.8229 80.2344 0.0000 -18.0141 0.0000
# 4 0.0000 0.0000 0.0000 36.9744 0.0000 -6.5864
# 5 -15.9910 -6.1357 -18.0141 0.0000 44.4430 0.0000
# 6 0.0000 0.0000 0.0000 -6.5864 0.0000 30.9661
#
#
#
# Elastic Compliance Matrix: (Units=1/GPa)
#
#
# Indices 1 2 3 4 5 6 
#
# 1 0.012732 0.000401 -0.003403 0.000000 0.003257 0.000000
# 2 0.000401 0.015421 -0.002925 0.000000 0.001088 0.000000
# 3 -0.003403 -0.002925 0.015136 0.000000 0.004507 0.000000
# 4 0.000000 0.000000 0.000000 0.028111 0.000000 0.005979
# 5 0.003257 0.001088 0.004507 0.000000 0.025650 0.000000
# 6 0.000000 0.000000 0.000000 0.005979 0.000000 0.033565
#
#
# Mechanical properties :
#
#
# Convention : Reuss Voigt Hill
#
# Bulk Modulus (GPa) = 31.81127 36.42544 34.11836
# Shear Modulus (GPa) = 32.69116 35.32597 34.00857
#
# Velocity S-wave (km/s) = 3.75086 3.89909 3.82569
# Velocity P-wave (km/s) = 5.69640 5.99555 5.84789
#
# Compressibility (1/GPa) = 0.03143540
#
# Stress axis : x y z
#
# Youngs Moduli (GPa) = 78.54054 64.84853 66.06704
#
# Poissons Ratio (x) = -0.02601 0.22485
# Poissons Ratio (y) = -0.03151 0.19322
# Poissons Ratio (z) = 0.26730 0.18966
#
# Static dielectric constant tensor:
#      x y z
#    x 1.902100 0.000000 0.078080 
#    y 0.000000 1.935700 0.000000 
#    z 0.078080 0.000000 1.906110 
# 
# From -- ./inp_files/46384.got.cif
#   From: 2010.05.17/outbox.cif.g08.bks.cpg/sg14_24_cif.got.tgz:46384.got - 2010.06.03 17:49:19.
