data_PCOD9247722
_publ_section_title
;
Structure prediction by ZEFSAII (Michael W. Deem and Ramdas Pophale) SiO2 
 PCOD9247722
Probable space group: P 21/C
;
_chemical_formula_sum "Si O2"
_cell_formula_units_Z 20
_cell_length_a 6.195582
_cell_length_b 8.329969
_cell_length_c 15.887446
_cell_angle_alpha 90.000000
_cell_angle_beta 88.826396
_cell_angle_gamma 90.000000
_cell_volume 819.763294
_symmetry_space_group_name_H-M "P 21/C"
_symmetry_group_IT_number 14
_symmetry_cell_setting 'monoclinic'
loop_
_space_group_symop_operation_xyz
x,y,z
-x,1/2+y,1/2-z
-x,-y,-z
x,1/2-y,1/2+z
loop_
_atom_site_type_symbol
_atom_site_label
_atom_site_fract_x
_atom_site_fract_y
_atom_site_fract_z
Si Si1 0.822016 0.929175 0.938621
Si Si2 0.318432 0.490724 0.193367
Si Si3 0.087811 0.674145 0.847452
Si Si4 0.478148 0.671294 0.955836
Si Si5 0.404959 0.659109 0.684230
O O1 0.642814 0.811341 0.984148
O O2 0.942636 0.832178 0.862224
O O3 0.697341 0.073132 0.894401
O O4 0.000000 0.000000 0.000000
O O5 0.427670 0.351802 0.138472
O O6 0.385461 0.440220 0.286805
O O7 0.439959 0.653567 0.168216
O O8 0.072617 0.477738 0.164562
O O9 0.226788 0.683404 0.932704
O O10 0.227713 0.671017 0.761289
O O11 0.500000 0.500000 0.000000
#
# Coordination Sequence:
#
# PCOD9247722 Si02
#       5
#     4   4   4   4   4
#     4  11  26  43  66 102 138 177 231 283 342 416
#     4  10  22  39  67  91 129 173 226 278 339 406
#     4  10  22  42  66  92 130 179 222 274 344 405
#     4  10  24  43  63  95 133 174 220 275 343 411
#     4  11  22  42  64  98 129 172 229 285 333 414
#
# _framework density 24.397286999999999
#
# number of rings (size 3 to 8) (size 9 to 14) (size 15 to 20)
#    0.000    1.600    0.000    4.800    5.600    4.000 
#    3.600    0.000    0.000    0.000    0.000    0.000 
#    0.000    0.000    0.000    0.000    0.000    0.000 
#
# Total GULP energy -111448.808483 kJ/mol
# GULP energy per Si atom -5572.440424 kJ/mol
# Density = 2.434176 g / cm^3
# Si number density = 24.397287 Si / 1000 Ang^3
#
#
#
# Elastic Constant Matrix: (Units=GPa)
#
#
# Indices 1 2 3 4 5 6 
#
# 1 97.5035 53.6477 46.6541 0.0000 33.4435 0.0000
# 2 53.6477 126.1613 42.5718 0.0000 39.9452 0.0000
# 3 46.6541 42.5718 87.8471 0.0000 34.2957 0.0000
# 4 0.0000 0.0000 0.0000 37.8984 0.0000 1.8953
# 5 33.4435 39.9452 34.2957 0.0000 51.8194 0.0000
# 6 0.0000 0.0000 0.0000 1.8953 0.0000 44.9486
#
#
#
# Elastic Compliance Matrix: (Units=1/GPa)
#
#
# Indices 1 2 3 4 5 6 
#
# 1 0.016262 -0.003879 -0.005160 0.000000 -0.004090 0.000000
# 2 -0.003879 0.011869 -0.001480 0.000000 -0.005667 0.000000
# 3 -0.005160 -0.001480 0.017658 0.000000 -0.007216 0.000000
# 4 0.000000 0.000000 0.000000 0.026442 0.000000 -0.001115
# 5 -0.004090 -0.005667 -0.007216 0.000000 0.031082 0.000000
# 6 0.000000 0.000000 0.000000 -0.001115 0.000000 0.022295
#
#
# Mechanical properties :
#
#
# Convention : Reuss Voigt Hill
#
# Bulk Modulus (GPa) = 40.40022 66.36212 53.38117
# Shear Modulus (GPa) = 32.27983 38.17585 35.22784
#
# Velocity S-wave (km/s) = 3.64138 3.95999 3.80402
# Velocity P-wave (km/s) = 5.85447 6.94035 6.42040
#
# Compressibility (1/GPa) = 0.02475234
#
# Stress axis : x y z
#
# Youngs Moduli (GPa) = 61.49223 84.25077 56.63200
#
# Poissons Ratio (x) = 0.32681 0.29222
# Poissons Ratio (y) = 0.23853 0.08379
# Poissons Ratio (z) = 0.31730 0.12466
#
# Static dielectric constant tensor:
#      x y z
#    x 2.093420 0.000000 -0.013970 
#    y 0.000000 2.053860 0.000000 
#    z -0.013970 0.000000 2.044870 
# 
# From -- ./inp_files/52636.got.cif
#   From: 2010.05.17/outbox.cif.g08.bks.cpg/sg14_27_cif.got.tgz:52636.got - 2010.06.03 17:49:19.
