data_PCOD9247521
_publ_section_title
;
Structure prediction by ZEFSAII (Michael W. Deem and Ramdas Pophale) SiO2 
 PCOD9247521
Probable space group: P 21/C
;
_chemical_formula_sum "Si O2"
_cell_formula_units_Z 20
_cell_length_a 6.553503
_cell_length_b 9.486380
_cell_length_c 13.024718
_cell_angle_alpha 90.000000
_cell_angle_beta 69.147621
_cell_angle_gamma 90.000000
_cell_volume 756.696905
_symmetry_space_group_name_H-M "P 21/C"
_symmetry_group_IT_number 14
_symmetry_cell_setting 'monoclinic'
loop_
_space_group_symop_operation_xyz
x,y,z
-x,1/2+y,1/2-z
-x,-y,-z
x,1/2-y,1/2+z
loop_
_atom_site_type_symbol
_atom_site_label
_atom_site_fract_x
_atom_site_fract_y
_atom_site_fract_z
Si Si1 0.498497 0.843825 0.109238
Si Si2 0.642733 0.821993 0.406145
Si Si3 0.567903 0.366314 0.707900
Si Si4 0.151966 0.573996 0.055521
Si Si5 0.120133 0.636183 0.518736
O O1 0.420796 0.703807 0.183578
O O2 0.548098 0.967843 0.182530
O O3 0.679521 0.775380 0.000799
O O4 0.318699 0.903106 0.061262
O O5 0.627701 0.715364 0.314991
O O6 0.397916 0.888932 0.469374
O O7 0.807175 0.952106 0.367830
O O8 0.779241 0.315020 0.608001
O O9 0.037658 0.725090 0.092438
O O10 0.000000 0.500000 0.000000
O O11 0.000000 0.500000 0.500000
#
# Coordination Sequence:
#
# PCOD9247521 Si02
#       5
#     4   4   4   4   4
#     4  10  22  38  65  89 122 164 218 262 322 378
#     4   9  20  39  60  92 122 163 215 265 311 394
#     4  10  22  38  65  89 122 164 218 262 322 378
#     4   9  19  33  65  85 117 160 219 249 321 368
#     4  10  23  42  61  90 132 167 206 260 327 392
#
# _framework density 26.430661000000001
#
# number of rings (size 3 to 8) (size 9 to 14) (size 15 to 20)
#    0.000    2.800    0.000    2.400   16.800    0.000 
#    0.000   10.000    0.000    0.000    0.000    0.000 
#    0.000    0.000    0.000    0.000    0.000    0.000 
#
# Total GULP energy -111406.810381 kJ/mol
# GULP energy per Si atom -5570.340519 kJ/mol
# Density = 2.637050 g / cm^3
# Si number density = 26.430661 Si / 1000 Ang^3
#
#
#
# Elastic Constant Matrix: (Units=GPa)
#
#
# Indices 1 2 3 4 5 6 
#
# 1 57.5815 48.4250 17.5615 0.0000 14.8276 0.0000
# 2 48.4250 241.1556 34.7417 0.0000 22.9741 0.0000
# 3 17.5615 34.7417 95.1793 0.0000 3.3467 0.0000
# 4 0.0000 0.0000 0.0000 47.1640 0.0000 26.6452
# 5 14.8276 22.9741 3.3467 0.0000 28.8564 0.0000
# 6 0.0000 0.0000 0.0000 26.6452 0.0000 59.7605
#
#
#
# Elastic Compliance Matrix: (Units=1/GPa)
#
#
# Indices 1 2 3 4 5 6 
#
# 1 0.023416 -0.003452 -0.002745 0.000000 -0.008965 0.000000
# 2 -0.003452 0.005226 -0.001191 0.000000 -0.002248 0.000000
# 3 -0.002745 -0.001191 0.011411 0.000000 0.001036 0.000000
# 4 0.000000 0.000000 0.000000 0.028342 0.000000 -0.012637
# 5 -0.008965 -0.002248 0.001036 0.000000 0.040931 0.000000
# 6 0.000000 0.000000 0.000000 -0.012637 0.000000 0.022368
#
#
# Mechanical properties :
#
#
# Convention : Reuss Voigt Hill
#
# Bulk Modulus (GPa) = 39.56433 66.15254 52.85844
# Shear Modulus (GPa) = 32.27967 46.70205 39.49086
#
# Velocity S-wave (km/s) = 3.49850 4.20809 3.86959
# Velocity P-wave (km/s) = 5.59651 6.97809 6.32513
#
# Compressibility (1/GPa) = 0.02527529
#
# Stress axis : x y z
#
# Youngs Moduli (GPa) = 42.70598 191.35812 87.63133
#
# Poissons Ratio (x) = 0.66066 0.24055
# Poissons Ratio (y) = 0.14744 0.10441
# Poissons Ratio (z) = 0.11723 0.22799
#
# Static dielectric constant tensor:
#      x y z
#    x 2.278680 0.000000 0.015410 
#    y 0.000000 2.185890 0.000000 
#    z 0.015410 0.000000 2.054690 
# 
# From -- ./inp_files/38801.got.cif
#   From: 2010.05.17/outbox.cif.g08.bks.cpg/sg14_20_cif.got.tgz:38801.got - 2010.06.03 17:49:19.
