data_PCOD9247021
_publ_section_title
;
Structure prediction by ZEFSAII (Michael W. Deem and Ramdas Pophale) SiO2 
 PCOD9247021
Probable space group: P 21/C
;
_chemical_formula_sum "Si O2"
_cell_formula_units_Z 28
_cell_length_a 15.741095
_cell_length_b 11.294793
_cell_length_c 8.394555
_cell_angle_alpha 90.000000
_cell_angle_beta 55.998894
_cell_angle_gamma 90.000000
_cell_volume 1237.312652
_symmetry_space_group_name_H-M "P 21/C"
_symmetry_group_IT_number 14
_symmetry_cell_setting 'monoclinic'
loop_
_space_group_symop_operation_xyz
x,y,z
-x,1/2+y,1/2-z
-x,-y,-z
x,1/2-y,1/2+z
loop_
_atom_site_type_symbol
_atom_site_label
_atom_site_fract_x
_atom_site_fract_y
_atom_site_fract_z
Si Si1 0.697787 0.848225 0.205321
Si Si2 0.773368 0.469495 0.114465
Si Si3 0.207682 0.811866 0.868735
Si Si4 0.066798 0.944248 0.786625
Si Si5 0.615514 0.615449 0.146039
Si Si6 0.418693 0.560783 0.206218
Si Si7 0.864046 0.967872 0.852369
O O1 0.658786 0.720751 0.204973
O O2 0.669262 0.874004 0.416813
O O3 0.636971 0.946252 0.164113
O O4 0.811777 0.877024 0.032080
O O5 0.788358 0.328026 0.110003
O O6 0.656964 0.498024 0.187986
O O7 0.813590 0.531601 0.232091
O O8 0.844341 0.516929 0.895200
O O9 0.132868 0.840028 0.798680
O O10 0.325792 0.861090 0.731307
O O11 0.159558 0.899712 0.053701
O O12 0.982612 0.930507 0.735752
O O13 0.000000 0.000000 0.000000
O O14 0.493797 0.625391 0.249260
O O15 0.500000 0.500000 0.000000
#
# Coordination Sequence:
#
# PCOD9247021 Si02
#       7
#     4   4   4   4   4   4   4
#     4  10  22  44  61  96 129 176 226 262 338 393
#     4  12  23  40  67 104 132 170 225 281 337 397
#     4  10  22  42  68  99 135 173 224 276 332 403
#     4  10  21  43  67  90 134 175 215 271 336 397
#     4  11  23  41  67  92 135 175 217 280 328 398
#     4   9  20  40  67  93 133 175 219 268 330 403
#     4  10  22  42  64  96 133 170 223 274 327 407
#
# _framework density 22.629688999999999
#
# number of rings (size 3 to 8) (size 9 to 14) (size 15 to 20)
#    0.000    1.714    0.000    5.571    2.000    0.000 
#   20.571    3.571    0.000    0.000    0.000    0.000 
#    0.000    0.000    0.000    0.000    0.000    0.000 
#
# Total GULP energy -156017.859294 kJ/mol
# GULP energy per Si atom -5572.066403 kJ/mol
# Density = 2.257818 g / cm^3
# Si number density = 22.629689 Si / 1000 Ang^3
#
#
#
# Elastic Constant Matrix: (Units=GPa)
#
#
# Indices 1 2 3 4 5 6 
#
# 1 156.0940 62.2834 30.9928 0.0000 -16.8844 0.0000
# 2 62.2834 79.4402 6.0311 0.0000 5.0205 0.0000
# 3 30.9928 6.0311 54.9109 0.0000 4.2396 0.0000
# 4 0.0000 0.0000 0.0000 11.7095 0.0000 9.6321
# 5 -16.8844 5.0205 4.2396 0.0000 41.8767 0.0000
# 6 0.0000 0.0000 0.0000 9.6321 0.0000 18.2375
#
#
#
# Elastic Compliance Matrix: (Units=1/GPa)
#
#
# Indices 1 2 3 4 5 6 
#
# 1 0.012175 -0.009487 -0.006346 0.000000 0.006689 0.000000
# 2 -0.009487 0.020167 0.003650 0.000000 -0.006612 0.000000
# 3 -0.006346 0.003650 0.021794 0.000000 -0.005203 0.000000
# 4 0.000000 0.000000 0.000000 0.151004 0.000000 -0.079753
# 5 0.006689 -0.006612 -0.005203 0.000000 0.027896 0.000000
# 6 0.000000 0.000000 0.000000 -0.079753 0.000000 0.096953
#
#
# Mechanical properties :
#
#
# Convention : Reuss Voigt Hill
#
# Bulk Modulus (GPa) = 33.59096 54.33998 43.96547
# Shear Modulus (GPa) = 13.72572 27.10726 20.41649
#
# Velocity S-wave (km/s) = 2.46547 3.46477 3.00692
# Velocity P-wave (km/s) = 4.79382 6.33017 5.61479
#
# Compressibility (1/GPa) = 0.02976992
#
# Stress axis : x y z
#
# Youngs Moduli (GPa) = 82.13316 49.58662 45.88372
#
# Poissons Ratio (x) = 0.47041 0.29120
# Poissons Ratio (y) = 0.77918 -0.16748
# Poissons Ratio (z) = 0.52126 -0.18099
#
# Static dielectric constant tensor:
#      x y z
#    x 1.973390 0.000000 -0.034200 
#    y 0.000000 1.855300 0.000000 
#    z -0.034200 0.000000 1.948120 
# 
# From -- ./inp_files/15700.got.cif
#   From: 2010.05.17/outbox.cif.g08.bks.cpg/sg14_8_cif.got.tgz:15700.got - 2010.06.03 17:49:19.
