data_PCOD9247777
_publ_section_title
;
Structure prediction by ZEFSAII (Michael W. Deem and Ramdas Pophale) SiO2 
 PCOD9247777
Probable space group: P 21/C
;
_chemical_formula_sum "Si O2"
_cell_formula_units_Z 20
_cell_length_a 11.285453
_cell_length_b 9.221987
_cell_length_c 10.275519
_cell_angle_alpha 90.000000
_cell_angle_beta 102.104319
_cell_angle_gamma 90.000000
_cell_volume 1045.641560
_symmetry_space_group_name_H-M "P 21/C"
_symmetry_group_IT_number 14
_symmetry_cell_setting 'monoclinic'
loop_
_space_group_symop_operation_xyz
x,y,z
-x,1/2+y,1/2-z
-x,-y,-z
x,1/2-y,1/2+z
loop_
_atom_site_type_symbol
_atom_site_label
_atom_site_fract_x
_atom_site_fract_y
_atom_site_fract_z
Si Si1 0.344095 0.623665 0.535015
Si Si2 0.638557 0.462256 0.989452
Si Si3 0.208785 0.197833 0.336300
Si Si4 0.405225 0.430155 0.304454
Si Si5 0.877047 0.910245 0.956620
O O1 0.330404 0.792946 0.504978
O O2 0.386613 0.552033 0.409318
O O3 0.452907 0.606168 0.663516
O O4 0.230771 0.528652 0.554692
O O5 0.643743 0.518062 0.843367
O O6 0.500000 0.500000 0.000000
O O7 0.737484 0.549653 0.094361
O O8 0.328077 0.291319 0.328633
O O9 0.140499 0.291735 0.431747
O O10 0.135467 0.166604 0.187075
O O11 0.000000 0.000000 0.000000
#
# Coordination Sequence:
#
# PCOD9247777 Si02
#       5
#     4   4   4   4   4
#     4  10  24  39  65  96 137 175 219 278 334 396
#     4  12  23  35  67  99 136 171 218 270 348 400
#     4  11  23  46  70  96 131 179 221 282 328 396
#     4  10  22  40  61 100 136 168 221 279 338 396
#     4  11  26  49  69  95 138 180 229 269 326 396
#
# _framework density 19.127013999999999
#
# number of rings (size 3 to 8) (size 9 to 14) (size 15 to 20)
#    0.000    1.200    4.000    1.200    5.600    1.600 
#    3.600    2.000    0.000    0.000    0.000    0.000 
#    0.000    0.000    0.000    0.000    0.000    0.000 
#
# Total GULP energy -111743.742062 kJ/mol
# GULP energy per Si atom -5587.187103 kJ/mol
# Density = 1.908348 g / cm^3
# Si number density = 19.127014 Si / 1000 Ang^3
#
#
#
# Elastic Constant Matrix: (Units=GPa)
#
#
# Indices 1 2 3 4 5 6 
#
# 1 88.9091 36.7791 45.8947 0.0000 10.9210 0.0000
# 2 36.7791 149.9987 56.4156 0.0000 3.2848 0.0000
# 3 45.8947 56.4156 132.5163 0.0000 6.1957 0.0000
# 4 0.0000 0.0000 0.0000 30.1594 0.0000 12.9495
# 5 10.9210 3.2848 6.1957 0.0000 13.5269 0.0000
# 6 0.0000 0.0000 0.0000 12.9495 0.0000 16.9149
#
#
#
# Elastic Compliance Matrix: (Units=1/GPa)
#
#
# Indices 1 2 3 4 5 6 
#
# 1 0.015396 -0.002055 -0.003985 0.000000 -0.010106 0.000000
# 2 -0.002055 0.008214 -0.002830 0.000000 0.000961 0.000000
# 3 -0.003985 -0.002830 0.010166 0.000000 -0.000752 0.000000
# 4 0.000000 0.000000 0.000000 0.049393 0.000000 -0.037814
# 5 -0.010106 0.000961 -0.000752 0.000000 0.082197 0.000000
# 6 0.000000 0.000000 0.000000 -0.037814 0.000000 0.088068
#
#
# Mechanical properties :
#
#
# Convention : Reuss Voigt Hill
#
# Bulk Modulus (GPa) = 62.35815 72.17808 67.26812
# Shear Modulus (GPa) = 18.08194 27.60923 22.84559
#
# Velocity S-wave (km/s) = 3.07801 3.80342 3.45978
# Velocity P-wave (km/s) = 6.73091 7.55686 7.15581
#
# Compressibility (1/GPa) = 0.01603640
#
# Stress axis : x y z
#
# Youngs Moduli (GPa) = 64.95308 121.74356 98.36433
#
# Poissons Ratio (x) = 0.25018 0.39195
# Poissons Ratio (y) = 0.13348 0.27838
# Poissons Ratio (z) = 0.25882 0.34455
#
# Static dielectric constant tensor:
#      x y z
#    x 1.652930 0.000000 -0.013580 
#    y 0.000000 1.703450 0.000000 
#    z -0.013580 0.000000 1.667960 
# 
# From -- ./inp_files/11758.got.cif
#   From: 2010.05.17/outbox.cif.g08.bks.cpg/sg14_6_cif.got.tgz:11758.got - 2010.06.03 17:49:19.
