data_PCOD9247656
_publ_section_title
;
Structure prediction by ZEFSAII (Michael W. Deem and Ramdas Pophale) SiO2 
 PCOD9247656
Probable space group: P 21/C
;
_chemical_formula_sum "Si O2"
_cell_formula_units_Z 32
_cell_length_a 5.255888
_cell_length_b 23.668158
_cell_length_c 10.844672
_cell_angle_alpha 90.000000
_cell_angle_beta 95.192461
_cell_angle_gamma 90.000000
_cell_volume 1343.510635
_symmetry_space_group_name_H-M "P 21/C"
_symmetry_group_IT_number 14
_symmetry_cell_setting 'monoclinic'
loop_
_space_group_symop_operation_xyz
x,y,z
-x,1/2+y,1/2-z
-x,-y,-z
x,1/2-y,1/2+z
loop_
_atom_site_type_symbol
_atom_site_label
_atom_site_fract_x
_atom_site_fract_y
_atom_site_fract_z
Si Si1 0.293864 0.334644 0.911298
Si Si2 0.811276 0.946796 0.500942
Si Si3 0.520822 0.009709 0.702715
Si Si4 0.396907 0.120252 0.981657
Si Si5 0.397757 0.896939 0.767547
Si Si6 0.632483 0.256891 0.473463
Si Si7 0.896118 0.286847 0.730441
Si Si8 0.899606 0.446902 0.416135
O O1 0.515454 0.370872 0.857670
O O2 0.174200 0.295044 0.800209
O O3 0.108661 0.383203 0.958131
O O4 0.433456 0.291548 0.006775
O O5 0.631641 0.971278 0.599488
O O6 0.651740 0.943029 0.367416
O O7 0.000000 0.000000 0.500000
O O8 0.345013 0.963580 0.765357
O O9 0.763978 0.031055 0.786809
O O10 0.651940 0.083750 0.964711
O O11 0.140156 0.095266 0.910752
O O12 0.368517 0.111508 0.127234
O O13 0.476245 0.184408 0.958131
O O14 0.187689 0.852064 0.797394
O O15 0.839063 0.259885 0.594451
O O16 0.748481 0.241315 0.342855
O O17 0.000000 0.500000 0.500000
#
# Coordination Sequence:
#
# PCOD9247656 Si02
#       8
#     4   4   4   4   4   4   4   4
#     4  10  22  42  68  95 132 184 244 295 360 427
#     4  10  22  40  66  95 133 185 239 293 354 431
#     4  10  22  39  63  94 140 173 232 285 362 420
#     4  11  26  43  70 101 146 183 236 285 368 431
#     4   9  20  39  65  95 127 183 235 279 347 435
#     4  10  25  44  66 100 135 185 242 298 364 429
#     4  10  22  41  70  95 135 181 241 301 358 434
#     4  12  26  43  68 107 143 183 228 296 360 440
#
# _framework density 23.818196
#
# number of rings (size 3 to 8) (size 9 to 14) (size 15 to 20)
#    0.000    1.750    1.250    1.125    7.000    4.000 
#    0.000    0.000    0.000    0.000    0.000    0.000 
#    0.000    0.000    0.000    0.000    0.000    0.000 
#
# Total GULP energy -178319.299670 kJ/mol
# GULP energy per Si atom -5572.478115 kJ/mol
# Density = 2.376399 g / cm^3
# Si number density = 23.818196 Si / 1000 Ang^3
#
#
#
# Elastic Constant Matrix: (Units=GPa)
#
#
# Indices 1 2 3 4 5 6 
#
# 1 90.7173 44.1253 28.3535 0.0000 16.2912 0.0000
# 2 44.1253 116.2188 44.2286 0.0000 10.1389 0.0000
# 3 28.3535 44.2286 120.7556 0.0000 30.6368 0.0000
# 4 0.0000 0.0000 0.0000 30.3074 0.0000 6.9898
# 5 16.2912 10.1389 30.6368 0.0000 39.3902 0.0000
# 6 0.0000 0.0000 0.0000 6.9898 0.0000 24.2988
#
#
#
# Elastic Compliance Matrix: (Units=1/GPa)
#
#
# Indices 1 2 3 4 5 6 
#
# 1 0.014317 -0.004876 -0.000488 0.000000 -0.004287 0.000000
# 2 -0.004876 0.011662 -0.003584 0.000000 0.001802 0.000000
# 3 -0.000488 -0.003584 0.011740 0.000000 -0.008007 0.000000
# 4 0.000000 0.000000 0.000000 0.035340 0.000000 -0.010166
# 5 -0.004287 0.001802 -0.008007 0.000000 0.032923 0.000000
# 6 0.000000 0.000000 0.000000 -0.010166 0.000000 0.044079
#
#
# Mechanical properties :
#
#
# Convention : Reuss Voigt Hill
#
# Bulk Modulus (GPa) = 50.44603 62.34516 56.39559
# Shear Modulus (GPa) = 28.64247 32.86490 30.75369
#
# Velocity S-wave (km/s) = 3.47154 3.71863 3.59720
# Velocity P-wave (km/s) = 6.10691 6.68355 6.40173
#
# Compressibility (1/GPa) = 0.01982317
#
# Stress axis : x y z
#
# Youngs Moduli (GPa) = 69.84480 85.74494 85.18022
#
# Poissons Ratio (x) = 0.41811 0.04158
# Poissons Ratio (y) = 0.34058 0.30528
# Poissons Ratio (z) = 0.03410 0.30730
#
# Static dielectric constant tensor:
#      x y z
#    x 2.020690 0.000000 -0.112180 
#    y 0.000000 2.016080 0.000000 
#    z -0.112180 0.000000 2.124040 
# 
# From -- ./inp_files/22143.got.cif
#   From: 2010.05.17/outbox.cif.g08.bks.cpg/sg14_12_cif.got.tgz:22143.got - 2010.06.03 17:49:19.
