data_PCOD9247232
_publ_section_title
;
Structure prediction by ZEFSAII (Michael W. Deem and Ramdas Pophale) SiO2 
 PCOD9247232
Probable space group: P 21/C
;
_chemical_formula_sum "Si O2"
_cell_formula_units_Z 32
_cell_length_a 11.259593
_cell_length_b 19.506241
_cell_length_c 10.563413
_cell_angle_alpha 90.000000
_cell_angle_beta 143.106775
_cell_angle_gamma 90.000000
_cell_volume 1392.795792
_symmetry_space_group_name_H-M "P 21/C"
_symmetry_group_IT_number 14
_symmetry_cell_setting 'monoclinic'
loop_
_space_group_symop_operation_xyz
x,y,z
-x,1/2+y,1/2-z
-x,-y,-z
x,1/2-y,1/2+z
loop_
_atom_site_type_symbol
_atom_site_label
_atom_site_fract_x
_atom_site_fract_y
_atom_site_fract_z
Si Si1 0.454896 0.000086 0.270348
Si Si2 0.358073 0.166936 0.767723
Si Si3 0.386441 0.107837 0.418325
Si Si4 0.959363 0.666020 0.218386
Si Si5 0.292410 0.932076 0.911604
Si Si6 0.786072 0.409876 0.938900
Si Si7 0.126312 0.317685 0.319441
Si Si8 0.502657 0.694908 0.202477
O O1 0.354751 0.045104 0.293886
O O2 0.666117 0.035014 0.419167
O O3 0.499736 0.925423 0.365849
O O4 0.330151 0.996308 0.035136
O O5 0.491392 0.102293 0.915052
O O6 0.266686 0.196325 0.818585
O O7 0.488822 0.224111 0.806949
O O8 0.173304 0.153099 0.519718
O O9 0.520788 0.161355 0.455798
O O10 0.183480 0.141312 0.290828
O O11 0.150145 0.619823 0.364782
O O12 0.994976 0.747525 0.259351
O O13 0.207477 0.938528 0.698054
O O14 0.648143 0.341244 0.830419
O O15 0.990295 0.382322 0.169934
O O16 0.277184 0.326341 0.563660
#
# Coordination Sequence:
#
# PCOD9247232 Si02
#       8
#     4   4   4   4   4   4   4   4
#     4  10  24  44  65  92 134 173 222 264 319 384
#     4  11  21  40  64  96 134 164 211 270 328 382
#     4  10  21  46  63  91 129 171 215 267 314 381
#     4  11  23  41  67  96 131 164 220 265 327 389
#     4  12  23  41  65  96 126 177 217 265 323 383
#     4  11  23  43  64  96 130 170 220 266 318 390
#     4  11  22  42  65 100 130 164 216 268 329 389
#     4  10  22  41  66  92 130 170 206 267 333 380
#
# _framework density 22.975373000000001
#
# number of rings (size 3 to 8) (size 9 to 14) (size 15 to 20)
#    0.000    1.250    5.000    1.125    0.000    0.500 
#   13.500    1.250    0.000    0.000    0.000    0.000 
#    0.000    0.000    0.000    0.000    0.000    0.000 
#
# Total GULP energy -178859.134029 kJ/mol
# GULP energy per Si atom -5589.347938 kJ/mol
# Density = 2.292308 g / cm^3
# Si number density = 22.975373 Si / 1000 Ang^3
#
#
#
# Elastic Constant Matrix: (Units=GPa)
#
#
# Indices 1 2 3 4 5 6 
#
# 1 61.7965 -3.0896 8.6163 0.0000 -16.6871 0.0000
# 2 -3.0896 42.9003 26.4196 0.0000 -3.6208 0.0000
# 3 8.6163 26.4196 64.6854 0.0000 -9.5267 0.0000
# 4 0.0000 0.0000 0.0000 27.8809 0.0000 9.8782
# 5 -16.6871 -3.6208 -9.5267 0.0000 25.7774 0.0000
# 6 0.0000 0.0000 0.0000 9.8782 0.0000 38.9327
#
#
#
# Elastic Compliance Matrix: (Units=1/GPa)
#
#
# Indices 1 2 3 4 5 6 
#
# 1 0.020159 0.004042 -0.002465 0.000000 0.012707 0.000000
# 2 0.004042 0.031957 -0.013266 0.000000 0.002203 0.000000
# 3 -0.002465 -0.013266 0.021888 0.000000 0.004630 0.000000
# 4 0.000000 0.000000 0.000000 0.039410 0.000000 -0.009999
# 5 0.012707 0.002203 0.004630 0.000000 0.049040 0.000000
# 6 0.000000 0.000000 0.000000 -0.009999 0.000000 0.028222
#
#
# Mechanical properties :
#
#
# Convention : Reuss Voigt Hill
#
# Bulk Modulus (GPa) = 19.75250 25.91942 22.83596
# Shear Modulus (GPa) = 21.65164 27.68059 24.66611
#
# Velocity S-wave (km/s) = 3.07316 3.47478 3.28012
# Velocity P-wave (km/s) = 4.60525 5.23495 4.93016
#
# Compressibility (1/GPa) = 0.05062650
#
# Stress axis : x y z
#
# Youngs Moduli (GPa) = 49.60508 31.29227 45.68702
#
# Poissons Ratio (x) = -0.12649 0.11261
# Poissons Ratio (y) = -0.20052 0.60609
# Poissons Ratio (z) = 0.12227 0.41513
#
# Static dielectric constant tensor:
#      x y z
#    x 1.856170 0.000000 -0.019300 
#    y 0.000000 1.882790 0.000000 
#    z -0.019300 0.000000 1.835820 
# 
# From -- ./inp_files/30466.got.cif
#   From: 2010.05.17/outbox.cif.g08.bks.cpg/sg14_16_cif.got.tgz:30466.got - 2010.06.03 17:49:19.
