data_PCOD9247781
_publ_section_title
;
Structure prediction by ZEFSAII (Michael W. Deem and Ramdas Pophale) SiO2 
 PCOD9247781
Probable space group: P 21/C
;
_chemical_formula_sum "Si O2"
_cell_formula_units_Z 32
_cell_length_a 25.571776
_cell_length_b 9.214685
_cell_length_c 10.293978
_cell_angle_alpha 90.000000
_cell_angle_beta 145.730143
_cell_angle_gamma 90.000000
_cell_volume 1365.851514
_symmetry_space_group_name_H-M "P 21/C"
_symmetry_group_IT_number 14
_symmetry_cell_setting 'monoclinic'
loop_
_space_group_symop_operation_xyz
x,y,z
-x,1/2+y,1/2-z
-x,-y,-z
x,1/2-y,1/2+z
loop_
_atom_site_type_symbol
_atom_site_label
_atom_site_fract_x
_atom_site_fract_y
_atom_site_fract_z
Si Si1 0.899873 0.429989 0.940404
Si Si2 0.297371 0.921036 0.589845
Si Si3 0.101916 0.016069 0.269889
Si Si4 0.599153 0.670120 0.556684
Si Si5 0.295499 0.604389 0.555032
Si Si6 0.265441 0.070784 0.253282
Si Si7 0.092108 0.332443 0.270672
Si Si8 0.443440 0.380514 0.802663
O O1 0.798556 0.364323 0.716323
O O2 0.904466 0.552325 0.838458
O O3 0.910250 0.499960 0.101407
O O4 0.985310 0.321352 0.093765
O O5 0.340987 0.761854 0.662153
O O6 0.188233 0.914567 0.407623
O O7 0.353487 0.019100 0.806727
O O8 0.295965 0.005258 0.451019
O O9 0.132039 0.180989 0.303813
O O10 0.000000 0.000000 0.000000
O O11 0.673877 0.788148 0.657649
O O12 0.563000 0.742508 0.616155
O O13 0.529628 0.650913 0.291136
O O14 0.278657 0.546338 0.665917
O O15 0.345810 0.468079 0.591351
O O16 0.156992 0.112898 0.020741
O O17 0.500000 0.500000 0.000000
#
# Coordination Sequence:
#
# PCOD9247781 Si02
#       8
#     4   4   4   4   4   4   4   4
#     4  10  23  41  59  87 132 173 224 284 341 395
#     4  12  24  40  71 100 136 180 231 273 346 411
#     4  12  25  35  60  90 125 175 232 282 330 404
#     4  11  23  47  75 105 137 187 228 278 343 423
#     4  10  25  44  67  99 139 178 221 293 342 405
#     4  10  22  41  68  98 135 180 232 273 336 412
#     4  10  22  40  61  85 128 179 226 284 331 394
#     4  11  26  50  76 107 144 177 234 287 351 418
#
# _framework density 23.428609000000002
#
# number of rings (size 3 to 8) (size 9 to 14) (size 15 to 20)
#    0.000    1.250    2.500    2.250    7.000    1.000 
#    2.250    1.250    0.000    0.000    0.000    0.000 
#    0.000    0.000    0.000    0.000    0.000    0.000 
#
# Total GULP energy -178932.815333 kJ/mol
# GULP energy per Si atom -5591.650479 kJ/mol
# Density = 2.337528 g / cm^3
# Si number density = 23.428609 Si / 1000 Ang^3
#
#
#
# Elastic Constant Matrix: (Units=GPa)
#
#
# Indices 1 2 3 4 5 6 
#
# 1 42.5204 3.3413 23.2682 0.0000 -26.1913 0.0000
# 2 3.3413 89.6965 18.0953 0.0000 -12.9798 0.0000
# 3 23.2682 18.0953 97.8320 0.0000 -32.0425 0.0000
# 4 0.0000 0.0000 0.0000 33.3579 0.0000 -4.6404
# 5 -26.1913 -12.9798 -32.0425 0.0000 46.0891 0.0000
# 6 0.0000 0.0000 0.0000 -4.6404 0.0000 12.4979
#
#
#
# Elastic Compliance Matrix: (Units=1/GPa)
#
#
# Indices 1 2 3 4 5 6 
#
# 1 0.036977 0.002021 -0.002719 0.000000 0.019692 0.000000
# 2 0.002021 0.011882 -0.001562 0.000000 0.003409 0.000000
# 3 -0.002719 -0.001562 0.013605 0.000000 0.007474 0.000000
# 4 0.000000 0.000000 0.000000 0.031611 0.000000 0.011737
# 5 0.019692 0.003409 0.007474 0.000000 0.039043 0.000000
# 6 0.000000 0.000000 0.000000 0.011737 0.000000 0.084371
#
#
# Mechanical properties :
#
#
# Convention : Reuss Voigt Hill
#
# Bulk Modulus (GPa) = 17.25816 35.49538 26.37677
# Shear Modulus (GPa) = 20.71915 30.74525 25.73220
#
# Velocity S-wave (km/s) = 2.97703 3.62649 3.31769
# Velocity P-wave (km/s) = 4.38169 5.72002 5.09499
#
# Compressibility (1/GPa) = 0.05794359
#
# Stress axis : x y z
#
# Youngs Moduli (GPa) = 27.04410 84.16247 73.50281
#
# Poissons Ratio (x) = -0.17006 0.19983
# Poissons Ratio (y) = -0.05465 0.11480
# Poissons Ratio (z) = 0.07352 0.13145
#
# Static dielectric constant tensor:
#      x y z
#    x 1.881680 0.000000 0.054370 
#    y 0.000000 1.892260 0.000000 
#    z 0.054370 0.000000 1.937190 
# 
# From -- ./inp_files/36438.got.cif
#   From: 2010.05.17/outbox.cif.g08.bks.cpg/sg14_19_cif.got.tgz:36438.got - 2010.06.03 17:49:19.
