data_PCOD9247824
_publ_section_title
;
Structure prediction by ZEFSAII (Michael W. Deem and Ramdas Pophale) SiO2 
 PCOD9247824
Probable space group: P 21/C
;
_chemical_formula_sum "Si O2"
_cell_formula_units_Z 32
_cell_length_a 24.519188
_cell_length_b 11.686964
_cell_length_c 13.564855
_cell_angle_alpha 90.000000
_cell_angle_beta 160.011294
_cell_angle_gamma 90.000000
_cell_volume 1328.737998
_symmetry_space_group_name_H-M "P 21/C"
_symmetry_group_IT_number 14
_symmetry_cell_setting 'monoclinic'
loop_
_space_group_symop_operation_xyz
x,y,z
-x,1/2+y,1/2-z
-x,-y,-z
x,1/2-y,1/2+z
loop_
_atom_site_type_symbol
_atom_site_label
_atom_site_fract_x
_atom_site_fract_y
_atom_site_fract_z
Si Si1 0.659898 0.669825 0.148555
Si Si2 0.340718 0.848150 0.380908
Si Si3 0.996393 0.623485 0.386883
Si Si4 0.159652 0.868729 0.883395
Si Si5 0.674419 0.616334 0.551248
Si Si6 0.840825 0.634351 0.633342
Si Si7 0.663211 0.370783 0.515560
Si Si8 0.994755 0.875548 0.118858
O O1 0.676965 0.642940 0.292051
O O2 0.823704 0.622557 0.381061
O O3 0.664922 0.802658 0.128132
O O4 0.505229 0.626744 0.828442
O O5 0.502273 0.888925 0.706016
O O6 0.350495 0.713725 0.417429
O O7 0.182072 0.881778 0.172179
O O8 0.305167 0.877718 0.208170
O O9 0.927161 0.502065 0.226588
O O10 0.934684 0.752224 0.255369
O O11 0.973768 0.619846 0.465544
O O12 0.070829 0.751416 0.767836
O O13 0.097383 0.002329 0.774786
O O14 0.214496 0.842099 0.865117
O O15 0.798091 0.651981 0.675610
O O16 0.715884 0.489485 0.648852
#
# Coordination Sequence:
#
# PCOD9247824 Si02
#       8
#     4   4   4   4   4   4   4   4
#     4  11  22  39  63  90 122 161 205 249 305 359
#     4  11  22  39  63  90 122 161 205 249 305 359
#     4  11  23  40  61  89 126 164 199 248 307 364
#     4  11  23  41  66  93 120 159 207 255 300 359
#     4  10  22  40  63  90 123 160 204 253 302 360
#     4  11  23  41  66  93 120 159 207 255 300 359
#     4  10  22  40  63  90 123 160 204 253 302 360
#     4  11  23  40  61  89 126 164 199 248 307 364
#
# _framework density 24.083000999999999
#
# number of rings (size 3 to 8) (size 9 to 14) (size 15 to 20)
#    0.000    1.250    2.500    3.750    0.000    4.500 
#    0.000    0.000    0.000    4.500    0.000    0.000 
#    0.000    0.000    0.000    0.000    0.000    0.000 
#
# Total GULP energy -178470.567837 kJ/mol
# GULP energy per Si atom -5577.205245 kJ/mol
# Density = 2.402819 g / cm^3
# Si number density = 24.083001 Si / 1000 Ang^3
#
#
#
# Elastic Constant Matrix: (Units=GPa)
#
#
# Indices 1 2 3 4 5 6 
#
# 1 44.1665 15.0531 0.9195 0.0000 -7.7703 0.0000
# 2 15.0531 171.3910 23.7276 0.0000 7.9474 0.0000
# 3 0.9195 23.7276 67.9678 0.0000 -0.4789 0.0000
# 4 0.0000 0.0000 0.0000 -75.4460 0.0000 82.9724
# 5 -7.7703 7.9474 -0.4789 0.0000 40.9005 0.0000
# 6 0.0000 0.0000 0.0000 82.9724 0.0000 -68.1899
#
#
#
# Elastic Compliance Matrix: (Units=1/GPa)
#
#
# Indices 1 2 3 4 5 6 
#
# 1 0.024366 -0.002455 0.000563 0.000000 0.005113 0.000000
# 2 -0.002455 0.006439 -0.002227 0.000000 -0.001744 0.000000
# 3 0.000563 -0.002227 0.015488 0.000000 0.000721 0.000000
# 4 0.000000 0.000000 0.000000 0.039195 0.000000 0.047692
# 5 0.005113 -0.001744 0.000721 0.000000 0.025768 0.000000
# 6 0.000000 0.000000 0.000000 0.047692 0.000000 0.043366
#
#
# Mechanical properties :
#
#
# Convention : Reuss Voigt Hill
#
# Bulk Modulus (GPa) = 26.27717 40.32509 33.30113
# Shear Modulus (GPa) = 28.48268 -4.29208 12.09530
#
# Velocity S-wave (km/s) = 3.44275 -1.33644 2.24349
# Velocity P-wave (km/s) = 5.17090 3.79462 4.53527
#
# Compressibility (1/GPa) = 0.03805585
#
# Stress axis : x y z
#
# Youngs Moduli (GPa) = 41.04053 155.29344 64.56699
#
# Poissons Ratio (x) = 0.38127 -0.03638
# Poissons Ratio (y) = 0.10076 0.14380
# Poissons Ratio (z) = -0.02312 0.34585
#
# Static dielectric constant tensor:
#      x y z
#    x 1.870150 0.000000 0.010570 
#    y 0.000000 2.011400 0.000000 
#    z 0.010570 0.000000 1.965700 
# 
# From -- ./inp_files/52067.got.cif
#   From: 2010.05.17/outbox.cif.g08.bks.cpg/sg14_27_cif.got.tgz:52067.got - 2010.06.03 17:49:19.
