data_PCOD9247271
_publ_section_title
;
Structure prediction by ZEFSAII (Michael W. Deem and Ramdas Pophale) SiO2 
 PCOD9247271
Probable space group: P 21/C
;
_chemical_formula_sum "Si O2"
_cell_formula_units_Z 24
_cell_length_a 5.499511
_cell_length_b 22.599450
_cell_length_c 7.845105
_cell_angle_alpha 90.000000
_cell_angle_beta 86.507937
_cell_angle_gamma 90.000000
_cell_volume 973.225720
_symmetry_space_group_name_H-M "P 21/C"
_symmetry_group_IT_number 14
_symmetry_cell_setting 'monoclinic'
loop_
_space_group_symop_operation_xyz
x,y,z
-x,1/2+y,1/2-z
-x,-y,-z
x,1/2-y,1/2+z
loop_
_atom_site_type_symbol
_atom_site_label
_atom_site_fract_x
_atom_site_fract_y
_atom_site_fract_z
Si Si1 0.450297 0.149214 0.538621
Si Si2 0.855251 0.574200 0.166116
Si Si3 0.334592 0.764368 0.839348
Si Si4 0.164105 0.273500 0.281747
Si Si5 0.062818 0.635045 0.489962
Si Si6 0.799867 0.436996 0.183640
O O1 0.645862 0.201614 0.561488
O O2 0.212594 0.182357 0.621824
O O3 0.547870 0.096691 0.655824
O O4 0.375279 0.114778 0.372923
O O5 0.773978 0.507173 0.204593
O O6 0.991612 0.601084 0.322817
O O7 0.031221 0.572704 0.991729
O O8 0.299142 0.823258 0.950829
O O9 0.086264 0.759730 0.741568
O O10 0.588282 0.736317 0.225092
O O11 0.134761 0.315224 0.446118
O O12 0.095853 0.591867 0.648561
#
# Coordination Sequence:
#
# PCOD9247271 Si02
#       6
#     4   4   4   4   4   4
#     4  10  21  49  72 106 160 208 249 328 400 459
#     4  11  25  46  80 115 154 215 268 324 404 472
#     4  10  24  45  78 109 158 212 253 327 403 474
#     4  10  23  48  76 110 158 201 256 326 391 474
#     4  12  24  50  78 116 159 212 268 330 405 481
#     4  11  23  50  76 111 165 205 269 336 385 482
#
# _framework density 24.660263
#
# number of rings (size 3 to 8) (size 9 to 14) (size 15 to 20)
#    1.000    0.333    3.333    1.000    0.000    5.333 
#   18.000    0.833    0.000    0.000    0.000    0.000 
#    0.000    0.000    0.000    0.000    0.000    0.000 
#
# Total GULP energy -134224.040947 kJ/mol
# GULP energy per Si atom -5592.668373 kJ/mol
# Density = 2.460414 g / cm^3
# Si number density = 24.660263 Si / 1000 Ang^3
#
#
#
# Elastic Constant Matrix: (Units=GPa)
#
#
# Indices 1 2 3 4 5 6 
#
# 1 127.4075 40.6055 55.6001 0.0000 7.1625 0.0000
# 2 40.6055 172.1734 79.5814 0.0000 6.3724 0.0000
# 3 55.6001 79.5814 139.7021 0.0000 12.8793 0.0000
# 4 0.0000 0.0000 0.0000 41.2007 0.0000 2.1464
# 5 7.1625 6.3724 12.8793 0.0000 43.3149 0.0000
# 6 0.0000 0.0000 0.0000 2.1464 0.0000 28.6448
#
#
#
# Elastic Compliance Matrix: (Units=1/GPa)
#
#
# Indices 1 2 3 4 5 6 
#
# 1 0.009565 -0.000677 -0.003377 0.000000 -0.000478 0.000000
# 2 -0.000677 0.007933 -0.004269 0.000000 0.000214 0.000000
# 3 -0.003377 -0.004269 0.011130 0.000000 -0.002123 0.000000
# 4 0.000000 0.000000 0.000000 0.024367 0.000000 -0.001826
# 5 -0.000478 0.000214 -0.002123 0.000000 0.023765 0.000000
# 6 0.000000 0.000000 0.000000 -0.001826 0.000000 0.035047
#
#
# Mechanical properties :
#
#
# Convention : Reuss Voigt Hill
#
# Bulk Modulus (GPa) = 83.46523 87.87300 85.66912
# Shear Modulus (GPa) = 37.75047 40.19849 38.97448
#
# Velocity S-wave (km/s) = 3.91682 4.04182 3.97981
# Velocity P-wave (km/s) = 7.37393 7.58238 7.47888
#
# Compressibility (1/GPa) = 0.01198104
#
# Stress axis : x y z
#
# Youngs Moduli (GPa) = 104.54498 126.05111 89.84819
#
# Poissons Ratio (x) = 0.08537 0.30342
# Poissons Ratio (y) = 0.07081 0.38360
# Poissons Ratio (z) = 0.35305 0.53816
#
# Static dielectric constant tensor:
#      x y z
#    x 1.978220 0.000000 -0.031610 
#    y 0.000000 1.920350 0.000000 
#    z -0.031610 0.000000 2.062790 
# 
# From -- ./inp_files/6413.got.cif
#   From: 2010.05.17/outbox.cif.g08.bks.cpg/sg14_4_cif.got.tgz:6413.got - 2010.06.03 17:49:19.
