data_PCOD9247114
_publ_section_title
;
Structure prediction by ZEFSAII (Michael W. Deem and Ramdas Pophale) SiO2 
 PCOD9247114
Probable space group: P 21/C
;
_chemical_formula_sum "Si O2"
_cell_formula_units_Z 26
_cell_length_a 7.046471
_cell_length_b 13.615535
_cell_length_c 11.384381
_cell_angle_alpha 90.000000
_cell_angle_beta 89.853563
_cell_angle_gamma 90.000000
_cell_volume 1092.230710
_symmetry_space_group_name_H-M "P 21/C"
_symmetry_group_IT_number 14
_symmetry_cell_setting 'monoclinic'
loop_
_space_group_symop_operation_xyz
x,y,z
-x,1/2+y,1/2-z
-x,-y,-z
x,1/2-y,1/2+z
loop_
_atom_site_type_symbol
_atom_site_label
_atom_site_fract_x
_atom_site_fract_y
_atom_site_fract_z
Si Si1 0.073660 0.238701 0.482465
Si Si2 0.657876 0.761355 0.204049
Si Si3 0.378308 0.375695 0.590274
Si Si4 0.324664 0.686302 0.574787
Si Si5 0.500000 0.500000 0.000000
Si Si6 0.818354 0.933726 0.335882
Si Si7 0.237910 0.537911 0.770918
O O1 0.152315 0.214947 0.351708
O O2 0.195866 0.335560 0.518381
O O3 0.123204 0.151530 0.570616
O O4 0.854361 0.264128 0.483065
O O5 0.581939 0.714990 0.322476
O O6 0.498234 0.741656 0.106355
O O7 0.707662 0.874063 0.233678
O O8 0.565000 0.389067 0.511016
O O9 0.320371 0.460871 0.677542
O O10 0.261327 0.639592 0.698581
O O11 0.675512 0.496842 0.904048
O O12 0.351931 0.530979 0.891653
O O13 0.014143 0.978663 0.291556
#
# Coordination Sequence:
#
# PCOD9247114 Si02
#       7
#     4   4   4   4   2   4   4
#     4  10  23  42  69  99 134 183 233 288 341 426
#     4  10  21  44  65  95 138 179 232 284 340 422
#     4  10  25  41  65 104 136 178 232 287 350 420
#     4  11  23  42  72  98 135 186 227 290 351 410
#     4  12  26  44  68 100 142 186 224 290 354 418
#     4  11  24  43  69 100 140 186 234 282 354 418
#     4  12  25  44  68 104 141 185 230 292 351 419
#
# _framework density 23.804493999999998
#
# number of rings (size 3 to 8) (size 9 to 14) (size 15 to 20)
#    0.000    1.231    3.077    1.846    2.154    4.308 
#    0.000    0.000    0.000    0.000    0.000    0.000 
#    0.000    0.000    0.000    0.000    0.000    0.000 
#
# Total GULP energy -144831.987538 kJ/mol
# GULP energy per Si atom -5570.461059 kJ/mol
# Density = 2.375031 g / cm^3
# Si number density = 23.804494 Si / 1000 Ang^3
#
#
#
# Elastic Constant Matrix: (Units=GPa)
#
#
# Indices 1 2 3 4 5 6 
#
# 1 144.5847 -1.2379 19.5822 0.0000 -22.6314 0.0000
# 2 -1.2379 22.5603 2.2486 0.0000 -0.7404 0.0000
# 3 19.5822 2.2486 98.6673 0.0000 -17.4645 0.0000
# 4 0.0000 0.0000 0.0000 28.7958 0.0000 -8.4288
# 5 -22.6314 -0.7404 -17.4645 0.0000 46.4960 0.0000
# 6 0.0000 0.0000 0.0000 -8.4288 0.0000 18.9022
#
#
#
# Elastic Compliance Matrix: (Units=1/GPa)
#
#
# Indices 1 2 3 4 5 6 
#
# 1 0.007571 0.000617 -0.000924 0.000000 0.003348 0.000000
# 2 0.000617 0.044482 -0.001026 0.000000 0.000624 0.000000
# 3 -0.000924 -0.001026 0.010990 0.000000 0.003662 0.000000
# 4 0.000000 0.000000 0.000000 0.039941 0.000000 0.017810
# 5 0.003348 0.000624 0.003662 0.000000 0.024522 0.000000
# 6 0.000000 0.000000 0.000000 0.017810 0.000000 0.060846
#
#
# Mechanical properties :
#
#
# Convention : Reuss Voigt Hill
#
# Bulk Modulus (GPa) = 16.56233 34.11088 25.33660
# Shear Modulus (GPa) = 23.68066 35.18675 29.43370
#
# Velocity S-wave (km/s) = 3.15746 3.84885 3.52017
# Velocity P-wave (km/s) = 4.50172 5.84057 5.21430
#
# Compressibility (1/GPa) = 0.06037800
#
# Stress axis : x y z
#
# Youngs Moduli (GPa) = 132.08615 22.48085 90.99173
#
# Poissons Ratio (x) = -0.01388 0.08408
# Poissons Ratio (y) = -0.08155 0.09335
# Poissons Ratio (z) = 0.12206 0.02306
#
# Static dielectric constant tensor:
#      x y z
#    x 1.892160 0.000000 0.022710 
#    y 0.000000 2.056270 0.000000 
#    z 0.022710 0.000000 1.918540 
# 
# From -- ./inp_files/21267.got.cif
#   From: 2010.05.17/outbox.cif.g08.bks.cpg/sg14_11_cif.got.tgz:21267.got - 2010.06.03 17:49:19.
