data_PCOD9247134
_publ_section_title
;
Structure prediction by ZEFSAII (Michael W. Deem and Ramdas Pophale) SiO2 
 PCOD9247134
Probable space group: P 21/C
;
_chemical_formula_sum "Si O2"
_cell_formula_units_Z 24
_cell_length_a 19.016568
_cell_length_b 6.112914
_cell_length_c 15.313921
_cell_angle_alpha 90.000000
_cell_angle_beta 38.820816
_cell_angle_gamma 90.000000
_cell_volume 1115.979020
_symmetry_space_group_name_H-M "P 21/C"
_symmetry_group_IT_number 14
_symmetry_cell_setting 'monoclinic'
loop_
_space_group_symop_operation_xyz
x,y,z
-x,1/2+y,1/2-z
-x,-y,-z
x,1/2-y,1/2+z
loop_
_atom_site_type_symbol
_atom_site_label
_atom_site_fract_x
_atom_site_fract_y
_atom_site_fract_z
Si Si1 0.839411 0.430510 0.239808
Si Si2 0.019513 0.065077 0.079476
Si Si3 0.838581 0.665977 0.862713
Si Si4 0.560977 0.697484 0.388627
Si Si5 0.201280 0.153316 0.404213
Si Si6 0.653583 0.068937 0.431794
O O1 0.949188 0.290037 0.155405
O O2 0.820361 0.589046 0.341443
O O3 0.847676 0.561151 0.139851
O O4 0.736507 0.263779 0.321037
O O5 0.956466 0.903467 0.205051
O O6 0.152437 0.098462 0.957895
O O7 0.000000 0.000000 0.000000
O O8 0.730686 0.543902 0.928335
O O9 0.841102 0.584794 0.959784
O O10 0.500000 0.500000 0.500000
O O11 0.666109 0.622668 0.230003
O O12 0.463157 0.818270 0.430040
O O13 0.617681 0.879244 0.398048
#
# Coordination Sequence:
#
# PCOD9247134 Si02
#       6
#     4   4   4   4   4   4
#     4  11  22  46  67  94 140 182 219 289 348 404
#     4  11  24  43  69  95 137 178 230 284 350 416
#     4  11  25  43  63 102 137 176 235 281 336 425
#     4  11  21  44  73  95 132 181 228 286 345 413
#     4  12  24  42  69 101 131 187 226 281 354 403
#     4  10  21  44  67  94 134 177 227 279 343 407
#
# _framework density 21.505782
#
# number of rings (size 3 to 8) (size 9 to 14) (size 15 to 20)
#    0.000    1.000    5.000    1.500    2.333    0.000 
#   15.000    0.000    0.000    0.000    0.000    0.000 
#    0.000    0.000    0.000    0.000    0.000    0.000 
#
# Total GULP energy -133656.045127 kJ/mol
# GULP energy per Si atom -5569.001880 kJ/mol
# Density = 2.145683 g / cm^3
# Si number density = 21.505782 Si / 1000 Ang^3
#
#
#
# Elastic Constant Matrix: (Units=GPa)
#
#
# Indices 1 2 3 4 5 6 
#
# 1 65.1504 15.2433 22.5193 0.0000 -15.0231 0.0000
# 2 15.2433 75.9361 28.6359 0.0000 -11.1501 0.0000
# 3 22.5193 28.6359 112.8283 0.0000 -11.4532 0.0000
# 4 0.0000 0.0000 0.0000 27.0744 0.0000 -19.9990
# 5 -15.0231 -11.1501 -11.4532 0.0000 36.8097 0.0000
# 6 0.0000 0.0000 0.0000 -19.9990 0.0000 26.5610
#
#
#
# Elastic Compliance Matrix: (Units=1/GPa)
#
#
# Indices 1 2 3 4 5 6 
#
# 1 0.018032 -0.001778 -0.002536 0.000000 0.006032 0.000000
# 2 -0.001778 0.015154 -0.003200 0.000000 0.002869 0.000000
# 3 -0.002536 -0.003200 0.010303 0.000000 0.001202 0.000000
# 4 0.000000 0.000000 0.000000 0.083220 0.000000 0.062660
# 5 0.006032 0.002869 0.001202 0.000000 0.030872 0.000000
# 6 0.000000 0.000000 0.000000 0.062660 0.000000 0.084829
#
#
# Mechanical properties :
#
#
# Convention : Reuss Voigt Hill
#
# Bulk Modulus (GPa) = 35.13370 42.96796 39.05083
# Shear Modulus (GPa) = 18.73185 30.59011 24.66098
#
# Velocity S-wave (km/s) = 2.95450 3.77558 3.38999
# Velocity P-wave (km/s) = 5.29255 6.24738 5.78968
#
# Compressibility (1/GPa) = 0.02846270
#
# Stress axis : x y z
#
# Youngs Moduli (GPa) = 55.45568 65.98981 97.05699
#
# Poissons Ratio (x) = 0.11732 0.24609
# Poissons Ratio (y) = 0.09860 0.31058
# Poissons Ratio (z) = 0.14061 0.21117
#
# Static dielectric constant tensor:
#      x y z
#    x 1.788500 0.000000 -0.004180 
#    y 0.000000 2.129740 0.000000 
#    z -0.004180 0.000000 1.814680 
# 
# From -- ./inp_files/49602.got.cif
#   From: 2010.05.17/outbox.cif.g08.bks.cpg/sg14_25_cif.got.tgz:49602.got - 2010.06.03 17:49:19.
