data_PCOD9247806
_publ_section_title
;
Structure prediction by ZEFSAII (Michael W. Deem and Ramdas Pophale) SiO2 
 PCOD9247806
Probable space group: P 21/C
;
_chemical_formula_sum "Si O2"
_cell_formula_units_Z 32
_cell_length_a 29.993692
_cell_length_b 5.394985
_cell_length_c 10.214333
_cell_angle_alpha 90.000000
_cell_angle_beta 51.874897
_cell_angle_gamma 90.000000
_cell_volume 1300.228829
_symmetry_space_group_name_H-M "P 21/C"
_symmetry_group_IT_number 14
_symmetry_cell_setting 'monoclinic'
loop_
_space_group_symop_operation_xyz
x,y,z
-x,1/2+y,1/2-z
-x,-y,-z
x,1/2-y,1/2+z
loop_
_atom_site_type_symbol
_atom_site_label
_atom_site_fract_x
_atom_site_fract_y
_atom_site_fract_z
Si Si1 0.783811 0.372583 0.312766
Si Si2 0.923211 0.003113 0.294500
Si Si3 0.971766 0.205680 0.458342
Si Si4 0.532410 0.452626 0.215300
Si Si5 0.676908 0.395284 0.701747
Si Si6 0.815462 0.634882 0.844867
Si Si7 0.288783 0.395867 0.786397
Si Si8 0.438751 0.638776 0.107903
O O1 0.734056 0.361643 0.512903
O O2 0.827523 0.591919 0.268995
O O3 0.750934 0.474671 0.247819
O O4 0.812189 0.102122 0.254874
O O5 0.928269 0.151793 0.419862
O O6 0.860268 0.914461 0.378321
O O7 0.942051 0.124011 0.121556
O O8 0.973049 0.803436 0.220003
O O9 0.000000 0.000000 0.500000
O O10 0.515796 0.738759 0.224431
O O11 0.551793 0.388512 0.326430
O O12 0.574177 0.372809 0.023486
O O13 0.688946 0.619180 0.781761
O O14 0.619559 0.474682 0.728743
O O15 0.666439 0.111200 0.765380
O O16 0.752122 0.647604 0.016009
O O17 0.500000 0.500000 0.000000
#
# Coordination Sequence:
#
# PCOD9247806 Si02
#       8
#     4   4   4   4   4   4   4   4
#     4  10  22  44  63  95 129 165 219 275 336 386
#     4  11  25  42  69  99 134 186 225 279 333 400
#     4  11  24  45  64  99 143 178 226 271 337 402
#     4  10  22  40  62  89 129 162 209 264 309 375
#     4  10  23  40  63  94 125 170 209 270 328 395
#     4  10  24  40  68  99 123 172 224 274 324 389
#     4  10  22  43  65  92 129 163 219 269 337 384
#     4  10  23  43  64  98 128 171 216 262 322 396
#
# _framework density 24.611051
#
# number of rings (size 3 to 8) (size 9 to 14) (size 15 to 20)
#    0.000    1.750    1.250    1.125    5.250    4.000 
#    4.500    0.000    0.000    0.000    0.000    0.000 
#    0.000    0.000    0.000    0.000    0.000    0.000 
#
# Total GULP energy -178218.704187 kJ/mol
# GULP energy per Si atom -5569.334506 kJ/mol
# Density = 2.455504 g / cm^3
# Si number density = 24.611051 Si / 1000 Ang^3
#
#
#
# Elastic Constant Matrix: (Units=GPa)
#
#
# Indices 1 2 3 4 5 6 
#
# 1 80.2769 11.3213 8.4518 0.0000 -9.1974 0.0000
# 2 11.3213 44.8065 16.2923 0.0000 -7.3942 0.0000
# 3 8.4518 16.2923 47.2436 0.0000 -5.8663 0.0000
# 4 0.0000 0.0000 0.0000 20.9847 0.0000 4.7229
# 5 -9.1974 -7.3942 -5.8663 0.0000 39.8371 0.0000
# 6 0.0000 0.0000 0.0000 4.7229 0.0000 30.8924
#
#
#
# Elastic Compliance Matrix: (Units=1/GPa)
#
#
# Indices 1 2 3 4 5 6 
#
# 1 0.013212 -0.002504 -0.001201 0.000000 0.002409 0.000000
# 2 -0.002504 0.026482 -0.008298 0.000000 0.003115 0.000000
# 3 -0.001201 -0.008298 0.024465 0.000000 0.001785 0.000000
# 4 0.000000 0.000000 0.000000 0.049352 0.000000 -0.007545
# 5 0.002409 0.003115 0.001785 0.000000 0.026499 0.000000
# 6 0.000000 0.000000 0.000000 -0.007545 0.000000 0.033524
#
#
# Mechanical properties :
#
#
# Convention : Reuss Voigt Hill
#
# Bulk Modulus (GPa) = 24.90426 27.16196 26.03311
# Shear Modulus (GPa) = 23.70509 27.42696 25.56602
#
# Velocity S-wave (km/s) = 3.10690 3.34191 3.22654
# Velocity P-wave (km/s) = 4.79703 5.09427 4.94788
#
# Compressibility (1/GPa) = 0.04015378
#
# Stress axis : x y z
#
# Youngs Moduli (GPa) = 75.68607 37.76124 40.87479
#
# Poissons Ratio (x) = 0.09456 0.04909
# Poissons Ratio (y) = 0.18953 0.33917
# Poissons Ratio (z) = 0.09090 0.31333
#
# Static dielectric constant tensor:
#      x y z
#    x 2.572260 0.000000 0.379230 
#    y 0.000000 2.137220 0.000000 
#    z 0.379230 0.000000 2.377550 
# 
# From -- ./inp_files/36323.got.cif
#   From: 2010.05.17/outbox.cif.g08.bks.cpg/sg14_19_cif.got.tgz:36323.got - 2010.06.03 17:49:19.
