data_PCOD9247238
_publ_section_title
;
Structure prediction by ZEFSAII (Michael W. Deem and Ramdas Pophale) SiO2 
 PCOD9247238
Probable space group: P 21/C
;
_chemical_formula_sum "Si O2"
_cell_formula_units_Z 20
_cell_length_a 7.821558
_cell_length_b 12.862144
_cell_length_c 11.434532
_cell_angle_alpha 90.000000
_cell_angle_beta 130.129056
_cell_angle_gamma 90.000000
_cell_volume 879.541404
_symmetry_space_group_name_H-M "P 21/C"
_symmetry_group_IT_number 14
_symmetry_cell_setting 'monoclinic'
loop_
_space_group_symop_operation_xyz
x,y,z
-x,1/2+y,1/2-z
-x,-y,-z
x,1/2-y,1/2+z
loop_
_atom_site_type_symbol
_atom_site_label
_atom_site_fract_x
_atom_site_fract_y
_atom_site_fract_z
Si Si1 0.158396 0.560472 0.915286
Si Si2 0.310273 0.096207 0.657089
Si Si3 0.529144 0.569339 0.399739
Si Si4 0.345695 0.726663 0.167596
Si Si5 0.976141 0.402457 0.404045
O O1 0.910101 0.580076 0.860245
O O2 0.146986 0.570172 0.771545
O O3 0.238831 0.447835 0.998673
O O4 0.310476 0.649993 0.042666
O O5 0.426076 0.206793 0.727786
O O6 0.498592 0.014459 0.783148
O O7 0.500000 0.500000 0.500000
O O8 0.347744 0.655525 0.285443
O O9 0.767721 0.623014 0.513402
O O10 0.144803 0.807410 0.086822
O O11 0.000000 0.500000 0.500000
#
# Coordination Sequence:
#
# PCOD9247238 Si02
#       5
#     4   4   4   4   4
#     4  10  24  43  70  97 137 183 230 285 349 420
#     4  10  21  46  67  96 136 183 228 280 350 415
#     4  11  23  45  69  96 141 183 225 287 349 411
#     4  11  25  43  68 104 135 184 237 281 354 408
#     4  12  25  43  69 106 136 180 238 292 339 419
#
# _framework density 22.739122999999999
#
# number of rings (size 3 to 8) (size 9 to 14) (size 15 to 20)
#    0.000    1.200    4.000    1.200    2.800    0.800 
#    3.600    0.000    0.000    0.000    0.000    0.000 
#    0.000    0.000    0.000    0.000    0.000    0.000 
#
# Total GULP energy -111724.797356 kJ/mol
# GULP energy per Si atom -5586.239868 kJ/mol
# Density = 2.268737 g / cm^3
# Si number density = 22.739123 Si / 1000 Ang^3
#
#
#
# Elastic Constant Matrix: (Units=GPa)
#
#
# Indices 1 2 3 4 5 6 
#
# 1 43.4576 27.6222 27.1167 0.0000 8.0192 0.0000
# 2 27.6222 111.5506 68.2240 0.0000 0.6932 0.0000
# 3 27.1167 68.2240 152.2661 0.0000 -14.2244 0.0000
# 4 0.0000 0.0000 0.0000 53.2956 0.0000 14.2565
# 5 8.0192 0.6932 -14.2244 0.0000 40.8306 0.0000
# 6 0.0000 0.0000 0.0000 14.2565 0.0000 28.8159
#
#
#
# Elastic Compliance Matrix: (Units=1/GPa)
#
#
# Indices 1 2 3 4 5 6 
#
# 1 0.029856 -0.005088 -0.003697 0.000000 -0.007065 0.000000
# 2 -0.005088 0.013411 -0.005200 0.000000 -0.001040 0.000000
# 3 -0.003697 -0.005200 0.009956 0.000000 0.004283 0.000000
# 4 0.000000 0.000000 0.000000 0.021625 0.000000 -0.010699
# 5 -0.007065 -0.001040 0.004283 0.000000 0.027389 0.000000
# 6 0.000000 0.000000 0.000000 -0.010699 0.000000 0.039996
#
#
# Mechanical properties :
#
#
# Convention : Reuss Voigt Hill
#
# Bulk Modulus (GPa) = 39.60014 61.46669 50.53341
# Shear Modulus (GPa) = 27.99229 36.87585 32.43407
#
# Velocity S-wave (km/s) = 3.51239 4.03139 3.78081
# Velocity P-wave (km/s) = 5.82254 6.98280 6.42890
#
# Compressibility (1/GPa) = 0.02525244
#
# Stress axis : x y z
#
# Youngs Moduli (GPa) = 33.49466 74.56468 100.44251
#
# Poissons Ratio (x) = 0.37936 0.37137
# Poissons Ratio (y) = 0.17041 0.52231
# Poissons Ratio (z) = 0.12384 0.38774
#
# Static dielectric constant tensor:
#      x y z
#    x 1.896670 0.000000 0.033900 
#    y 0.000000 1.875880 0.000000 
#    z 0.033900 0.000000 1.872140 
# 
# From -- ./inp_files/24024.got.cif
#   From: 2010.05.17/outbox.cif.g08.bks.cpg/sg14_13_cif.got.tgz:24024.got - 2010.06.03 17:49:19.
