data_PCOD9247148
_publ_section_title
;
Structure prediction by ZEFSAII (Michael W. Deem and Ramdas Pophale) SiO2 
 PCOD9247148
Probable space group: P 21/C
;
_chemical_formula_sum "Si O2"
_cell_formula_units_Z 22
_cell_length_a 6.800847
_cell_length_b 24.385518
_cell_length_c 5.041472
_cell_angle_alpha 90.000000
_cell_angle_beta 105.368426
_cell_angle_gamma 90.000000
_cell_volume 806.191496
_symmetry_space_group_name_H-M "P 21/C"
_symmetry_group_IT_number 14
_symmetry_cell_setting 'monoclinic'
loop_
_space_group_symop_operation_xyz
x,y,z
-x,1/2+y,1/2-z
-x,-y,-z
x,1/2-y,1/2+z
loop_
_atom_site_type_symbol
_atom_site_label
_atom_site_fract_x
_atom_site_fract_y
_atom_site_fract_z
Si Si1 0.066760 0.126740 0.704021
Si Si2 0.401715 0.417526 0.960975
Si Si3 0.307300 0.829914 0.677303
Si Si4 0.236168 0.571527 0.537660
Si Si5 0.695246 0.781472 0.930238
Si Si6 0.500000 0.000000 0.000000
O O1 0.186938 0.100239 0.502808
O O2 0.224834 0.159798 0.943982
O O3 0.902417 0.172778 0.553859
O O4 0.935271 0.081062 0.810223
O O5 0.536478 0.363344 0.955738
O O6 0.406430 0.453924 0.703187
O O7 0.534719 0.444633 0.254072
O O8 0.256381 0.871118 0.898019
O O9 0.447829 0.782245 0.838922
O O10 0.255755 0.522315 0.341771
O O11 0.763893 0.736440 0.166323
#
# Coordination Sequence:
#
# PCOD9247148 Si02
#       6
#     4   4   4   4   4   2
#     4  11  25  44  76 104 146 204 245 303 389 446
#     4  10  21  44  69 102 152 194 244 307 365 444
#     4  10  24  45  71 101 145 197 238 302 384 437
#     4  10  22  42  70 103 147 193 245 307 365 451
#     4  12  28  48  76 111 149 193 254 322 380 461
#     4  10  22  40  72 110 150 194 254 306 360 448
#
# _framework density 27.288803000000001
#
# number of rings (size 3 to 8) (size 9 to 14) (size 15 to 20)
#    0.000    1.455    1.818    1.636    7.636    2.182 
#    0.000    9.091    0.000    0.000    0.000    0.000 
#    0.000    0.000    0.000    0.000    0.000    0.000 
#
# Total GULP energy -122868.460571 kJ/mol
# GULP energy per Si atom -5584.930026 kJ/mol
# Density = 2.722669 g / cm^3
# Si number density = 27.288803 Si / 1000 Ang^3
#
#
#
# Elastic Constant Matrix: (Units=GPa)
#
#
# Indices 1 2 3 4 5 6 
#
# 1 185.1854 34.1330 63.4187 0.0000 -28.4062 0.0000
# 2 34.1330 72.9109 38.1778 0.0000 -8.1789 0.0000
# 3 63.4187 38.1778 124.1708 0.0000 -13.5664 0.0000
# 4 0.0000 0.0000 0.0000 48.4763 0.0000 1.2975
# 5 -28.4062 -8.1789 -13.5664 0.0000 57.0466 0.0000
# 6 0.0000 0.0000 0.0000 1.2975 0.0000 38.7398
#
#
#
# Elastic Compliance Matrix: (Units=1/GPa)
#
#
# Indices 1 2 3 4 5 6 
#
# 1 0.007058 -0.001517 -0.002852 0.000000 0.002619 0.000000
# 2 -0.001517 0.016751 -0.004308 0.000000 0.000622 0.000000
# 3 -0.002852 -0.004308 0.010895 0.000000 0.000553 0.000000
# 4 0.000000 0.000000 0.000000 0.020647 0.000000 -0.000692
# 5 0.002619 0.000622 0.000553 0.000000 0.019054 0.000000
# 6 0.000000 0.000000 0.000000 -0.000692 0.000000 0.025836
#
#
# Mechanical properties :
#
#
# Convention : Reuss Voigt Hill
#
# Bulk Modulus (GPa) = 57.63566 72.63623 65.13594
# Shear Modulus (GPa) = 40.52563 45.28839 42.90701
#
# Velocity S-wave (km/s) = 3.85783 4.07823 3.96956
# Velocity P-wave (km/s) = 6.40393 6.98938 6.70305
#
# Compressibility (1/GPa) = 0.01735037
#
# Stress axis : x y z
#
# Youngs Moduli (GPa) = 141.68118 59.69865 91.78487
#
# Poissons Ratio (x) = 0.09056 0.26180
# Poissons Ratio (y) = 0.21492 0.39537
# Poissons Ratio (z) = 0.40412 0.25715
#
# Static dielectric constant tensor:
#      x y z
#    x 2.140180 0.000000 0.091290 
#    y 0.000000 2.201080 0.000000 
#    z 0.091290 0.000000 2.264620 
# 
# From -- ./inp_files/731.got.cif
#   From: 2010.05.17/outbox.cif.g08.bks.cpg/sg14_1_cif.got.tgz:731.got - 2010.06.03 17:49:19.
