data_PCOD9247499
_publ_section_title
;
Structure prediction by ZEFSAII (Michael W. Deem and Ramdas Pophale) SiO2 
 PCOD9247499
Probable space group: P 21/C
;
_chemical_formula_sum "Si O2"
_cell_formula_units_Z 24
_cell_length_a 8.281257
_cell_length_b 8.381120
_cell_length_c 23.245656
_cell_angle_alpha 90.000000
_cell_angle_beta 43.316868
_cell_angle_gamma 90.000000
_cell_volume 1106.840062
_symmetry_space_group_name_H-M "P 21/C"
_symmetry_group_IT_number 14
_symmetry_cell_setting 'monoclinic'
loop_
_space_group_symop_operation_xyz
x,y,z
-x,1/2+y,1/2-z
-x,-y,-z
x,1/2-y,1/2+z
loop_
_atom_site_type_symbol
_atom_site_label
_atom_site_fract_x
_atom_site_fract_y
_atom_site_fract_z
Si Si1 0.835799 0.881515 0.009124
Si Si2 0.722071 0.038250 0.557579
Si Si3 0.484415 0.146828 0.090806
Si Si4 0.241072 0.488827 0.764488
Si Si5 0.439894 0.301686 0.820199
Si Si6 0.198260 0.352385 0.074123
O O1 0.732166 0.777429 0.088046
O O2 0.627387 0.989185 0.036070
O O3 0.940157 0.774320 0.931225
O O4 0.000000 0.000000 0.000000
O O5 0.672689 0.225600 0.566739
O O6 0.531184 0.968220 0.652454
O O7 0.673697 0.957512 0.507991
O O8 0.000000 0.000000 0.500000
O O9 0.352085 0.244626 0.076030
O O10 0.306193 0.086224 0.186329
O O11 0.330762 0.363118 0.789063
O O12 0.370171 0.662106 0.737033
O O13 0.971479 0.531235 0.846777
#
# Coordination Sequence:
#
# PCOD9247499 Si02
#       6
#     4   4   4   4   4   4
#     4  10  23  41  69  95 119 173 225 270 317 382
#     4  11  21  42  69  94 124 171 228 267 313 388
#     4  11  24  43  63  97 137 171 209 270 339 384
#     4  11  24  40  63  98 133 172 216 266 334 386
#     4  10  22  38  63  92 127 165 220 277 308 381
#     4  11  24  42  65  96 133 167 217 269 328 390
#
# _framework density 21.683347999999999
#
# number of rings (size 3 to 8) (size 9 to 14) (size 15 to 20)
#    0.000    1.333    1.667    4.000    4.667    1.333 
#    3.000    1.667    0.000    0.000    0.000    0.000 
#    0.000    0.000    0.000    0.000    0.000    0.000 
#
# Total GULP energy -133785.094310 kJ/mol
# GULP energy per Si atom -5574.378930 kJ/mol
# Density = 2.163400 g / cm^3
# Si number density = 21.683348 Si / 1000 Ang^3
#
#
#
# Elastic Constant Matrix: (Units=GPa)
#
#
# Indices 1 2 3 4 5 6 
#
# 1 67.4663 14.8049 30.8384 0.0000 21.4372 0.0000
# 2 14.8049 91.5273 27.9887 0.0000 17.7771 0.0000
# 3 30.8384 27.9887 73.5253 0.0000 14.3431 0.0000
# 4 0.0000 0.0000 0.0000 32.1921 0.0000 17.3671
# 5 21.4372 17.7771 14.3431 0.0000 15.3455 0.0000
# 6 0.0000 0.0000 0.0000 17.3671 0.0000 40.3877
#
#
#
# Elastic Compliance Matrix: (Units=1/GPa)
#
#
# Indices 1 2 3 4 5 6 
#
# 1 0.029887 0.005246 -0.006362 0.000000 -0.041882 0.000000
# 2 0.005246 0.015459 -0.003867 0.000000 -0.021623 0.000000
# 3 -0.006362 -0.003867 0.018508 0.000000 -0.003932 0.000000
# 4 0.000000 0.000000 0.000000 0.040446 0.000000 -0.017392
# 5 -0.041882 -0.021623 -0.003932 0.000000 0.152398 0.000000
# 6 0.000000 0.000000 0.000000 -0.017392 0.000000 0.032239
#
#
# Mechanical properties :
#
#
# Convention : Reuss Voigt Hill
#
# Bulk Modulus (GPa) = 18.55699 42.19810 30.37755
# Shear Modulus (GPa) = 15.77948 28.17750 21.97849
#
# Velocity S-wave (km/s) = 2.70056 3.60877 3.18718
# Velocity P-wave (km/s) = 4.27794 6.07187 5.25207
#
# Compressibility (1/GPa) = 0.05388804
#
# Stress axis : x y z
#
# Youngs Moduli (GPa) = 33.45938 64.68544 54.02999
#
# Poissons Ratio (x) = -0.33932 0.34374
# Poissons Ratio (y) = -0.17552 0.20893
# Poissons Ratio (z) = 0.21287 0.25014
#
# Static dielectric constant tensor:
#      x y z
#    x 1.856830 0.000000 -0.003860 
#    y 0.000000 2.555560 0.000000 
#    z -0.003860 0.000000 1.789300 
# 
# From -- ./inp_files/64741.got.cif
#   From: 2010.05.17/outbox.cif.g08.bks.cpg/sg14_33_cif.got.tgz:64741.got - 2010.06.03 17:49:19.
