data_PCOD9247658
_publ_section_title
;
Structure prediction by ZEFSAII (Michael W. Deem and Ramdas Pophale) SiO2 
 PCOD9247658
Probable space group: P 21/C
;
_chemical_formula_sum "Si O2"
_cell_formula_units_Z 32
_cell_length_a 8.436969
_cell_length_b 10.455584
_cell_length_c 16.200593
_cell_angle_alpha 90.000000
_cell_angle_beta 84.657078
_cell_angle_gamma 90.000000
_cell_volume 1422.900841
_symmetry_space_group_name_H-M "P 21/C"
_symmetry_group_IT_number 14
_symmetry_cell_setting 'monoclinic'
loop_
_space_group_symop_operation_xyz
x,y,z
-x,1/2+y,1/2-z
-x,-y,-z
x,1/2-y,1/2+z
loop_
_atom_site_type_symbol
_atom_site_label
_atom_site_fract_x
_atom_site_fract_y
_atom_site_fract_z
Si Si1 0.071784 0.359810 0.997557
Si Si2 0.115319 0.775698 0.138279
Si Si3 0.295559 0.263777 0.716911
Si Si4 0.392978 0.620826 0.529907
Si Si5 0.651409 0.167698 0.150909
Si Si6 0.395028 0.162498 0.396176
Si Si7 0.987298 0.270348 0.184135
Si Si8 0.313875 0.526582 0.190836
O O1 0.037420 0.311658 0.090464
O O2 0.254649 0.377187 0.963035
O O3 0.000000 0.500000 0.000000
O O4 0.994790 0.265503 0.932968
O O5 0.249541 0.875871 0.102450
O O6 0.023811 0.829208 0.222368
O O7 0.197893 0.638586 0.161825
O O8 0.466775 0.292877 0.668315
O O9 0.325791 0.285463 0.812503
O O10 0.131092 0.332372 0.697460
O O11 0.261510 0.118649 0.688643
O O12 0.500000 0.500000 0.500000
O O13 0.314905 0.655337 0.446500
O O14 0.508921 0.727779 0.561214
O O15 0.796361 0.250869 0.179483
O O16 0.660683 0.047629 0.212291
O O17 0.519711 0.052544 0.363963
#
# Coordination Sequence:
#
# PCOD9247658 Si02
#       8
#     4   4   4   4   4   4   4   4
#     4  12  24  42  68 102 138 185 230 290 361 415
#     4  10  22  44  64 100 141 169 237 298 333 433
#     4  11  21  42  66  95 133 178 228 279 351 415
#     4  11  22  43  68  95 135 183 230 288 356 413
#     4  10  22  39  63  96 133 171 226 282 337 414
#     4  10  23  41  65  98 139 172 235 291 338 432
#     4  11  23  42  67  96 137 182 223 295 349 402
#     4   9  21  39  66  95 129 177 219 285 349 407
#
# _framework density 22.489270000000001
#
# number of rings (size 3 to 8) (size 9 to 14) (size 15 to 20)
#    0.000    1.500    2.500    3.000    1.750    0.000 
#    2.250    6.250    0.000    0.000    0.000    0.000 
#    0.000    0.000    0.000    0.000    0.000    0.000 
#
# Total GULP energy -178171.503253 kJ/mol
# GULP energy per Si atom -5567.859477 kJ/mol
# Density = 2.243808 g / cm^3
# Si number density = 22.489270 Si / 1000 Ang^3
#
#
#
# Elastic Constant Matrix: (Units=GPa)
#
#
# Indices 1 2 3 4 5 6 
#
# 1 115.0555 -1.4804 44.9525 0.0000 -21.8907 0.0000
# 2 -1.4804 26.0073 15.2059 0.0000 -5.7973 0.0000
# 3 44.9525 15.2059 155.6990 0.0000 -14.8530 0.0000
# 4 0.0000 0.0000 0.0000 4.4983 0.0000 -4.1534
# 5 -21.8907 -5.7973 -14.8530 0.0000 55.1848 0.0000
# 6 0.0000 0.0000 0.0000 -4.1534 0.0000 11.8725
#
#
#
# Elastic Compliance Matrix: (Units=1/GPa)
#
#
# Indices 1 2 3 4 5 6 
#
# 1 0.010625 0.003206 -0.003024 0.000000 0.003738 0.000000
# 2 0.003206 0.042340 -0.004634 0.000000 0.004473 0.000000
# 3 -0.003024 -0.004634 0.007787 0.000000 0.000409 0.000000
# 4 0.000000 0.000000 0.000000 0.328376 0.000000 0.114877
# 5 0.003738 0.004473 0.000409 0.000000 0.020184 0.000000
# 6 0.000000 0.000000 0.000000 0.114877 0.000000 0.124416
#
#
# Mechanical properties :
#
#
# Convention : Reuss Voigt Hill
#
# Bulk Modulus (GPa) = 19.28696 46.01309 32.65003
# Shear Modulus (GPa) = 8.92991 30.18338 19.55664
#
# Velocity S-wave (km/s) = 1.99483 3.66747 2.95210
# Velocity P-wave (km/s) = 3.72834 6.19986 5.11560
#
# Compressibility (1/GPa) = 0.05184850
#
# Stress axis : x y z
#
# Youngs Moduli (GPa) = 94.11359 23.61850 128.41201
#
# Poissons Ratio (x) = -0.07573 0.38835
# Poissons Ratio (y) = -0.30175 0.59506
# Poissons Ratio (z) = 0.28463 0.10945
#
# Static dielectric constant tensor:
#      x y z
#    x 2.036610 0.000000 -0.056890 
#    y 0.000000 1.857740 0.000000 
#    z -0.056890 0.000000 2.049520 
# 
# From -- ./inp_files/40319.got.cif
#   From: 2010.05.17/outbox.cif.g08.bks.cpg/sg14_21_cif.got.tgz:40319.got - 2010.06.03 17:49:19.
