data_PCOD9247325
_publ_section_title
;
Structure prediction by ZEFSAII (Michael W. Deem and Ramdas Pophale) SiO2 
 PCOD9247325
Probable space group: P 21/C
;
_chemical_formula_sum "Si O2"
_cell_formula_units_Z 30
_cell_length_a 16.377776
_cell_length_b 10.387083
_cell_length_c 24.950132
_cell_angle_alpha 90.000000
_cell_angle_beta 20.478475
_cell_angle_gamma 90.000000
_cell_volume 1484.943876
_symmetry_space_group_name_H-M "P 21/C"
_symmetry_group_IT_number 14
_symmetry_cell_setting 'monoclinic'
loop_
_space_group_symop_operation_xyz
x,y,z
-x,1/2+y,1/2-z
-x,-y,-z
x,1/2-y,1/2+z
loop_
_atom_site_type_symbol
_atom_site_label
_atom_site_fract_x
_atom_site_fract_y
_atom_site_fract_z
Si Si1 0.336884 0.584525 0.482410
Si Si2 0.500000 0.500000 0.500000
Si Si3 0.335186 0.320602 0.962465
Si Si4 0.689092 0.097351 0.712207
Si Si5 0.527326 0.704519 0.005784
Si Si6 0.900584 0.496184 0.973900
Si Si7 0.007776 0.298161 0.821381
Si Si8 0.037144 0.623217 0.269914
O O1 0.416613 0.572594 0.495130
O O2 0.538983 0.528194 0.321108
O O3 0.234742 0.722198 0.528875
O O4 0.110821 0.492924 0.615550
O O5 0.520289 0.358313 0.455900
O O6 0.523022 0.219101 0.824057
O O7 0.424635 0.359905 0.966162
O O8 0.277390 0.429744 0.955375
O O9 0.092014 0.248619 0.126371
O O10 0.774794 0.080297 0.598905
O O11 0.917006 0.093144 0.610118
O O12 0.307781 0.635334 0.115076
O O13 0.765009 0.708344 0.825044
O O14 0.036117 0.396386 0.852318
O O15 0.004659 0.378643 0.768136
#
# Coordination Sequence:
#
# PCOD9247325 Si02
#       8
#     4   2   4   4   4   4   4   4
#     4  11  23  39  63  92 128 164 209 265 320 372
#     4  12  18  36  62  88 122 164 212 246 308 390
#     4  10  22  39  66  91 122 163 211 264 319 374
#     4  10  23  45  67  90 115 178 211 266 312 378
#     4  11  22  35  61  92 126 166 199 257 320 386
#     4  11  25  42  68  91 125 163 231 257 311 387
#     4  11  24  36  62  96 123 165 207 267 311 375
#     4  10  22  36  59  92 127 162 200 255 327 383
#
# _framework density 20.202784000000001
#
# number of rings (size 3 to 8) (size 9 to 14) (size 15 to 20)
#    0.000    1.333    5.333    1.600    7.467    0.533 
#    0.000    0.000    0.000    2.400    0.000    0.000 
#    0.000    0.000    0.000    0.000    0.000    0.000 
#
# Total GULP energy -167098.296114 kJ/mol
# GULP energy per Si atom -5569.943204 kJ/mol
# Density = 2.015680 g / cm^3
# Si number density = 20.202784 Si / 1000 Ang^3
#
#
#
# Elastic Constant Matrix: (Units=GPa)
#
#
# Indices 1 2 3 4 5 6 
#
# 1 133.2806 23.9159 57.8909 0.0000 3.9513 0.0000
# 2 23.9159 23.9015 9.1240 0.0000 1.9941 0.0000
# 3 57.8909 9.1240 95.1474 0.0000 -12.4314 0.0000
# 4 0.0000 0.0000 0.0000 20.5009 0.0000 -4.8319
# 5 3.9513 1.9941 -12.4314 0.0000 9.5155 0.0000
# 6 0.0000 0.0000 0.0000 -4.8319 0.0000 23.0872
#
#
#
# Elastic Compliance Matrix: (Units=1/GPa)
#
#
# Indices 1 2 3 4 5 6 
#
# 1 0.013774 -0.008689 -0.009715 0.000000 -0.016590 0.000000
# 2 -0.008689 0.051480 -0.000709 0.000000 -0.008106 0.000000
# 3 -0.009715 -0.000709 0.020541 0.000000 0.031018 0.000000
# 4 0.000000 0.000000 0.000000 0.051309 0.000000 0.010739
# 5 -0.016590 -0.008106 0.031018 0.000000 0.154202 0.000000
# 6 0.000000 0.000000 0.000000 0.010739 0.000000 0.045562
#
#
# Mechanical properties :
#
#
# Convention : Reuss Voigt Hill
#
# Bulk Modulus (GPa) = 21.02194 48.24346 34.63270
# Shear Modulus (GPa) = 12.78936 21.38063 17.08499
#
# Velocity S-wave (km/s) = 2.51878 3.25668 2.91120
# Velocity P-wave (km/s) = 4.34592 6.17031 5.33666
#
# Compressibility (1/GPa) = 0.04756935
#
# Stress axis : x y z
#
# Youngs Moduli (GPa) = 72.60259 19.42507 48.68227
#
# Poissons Ratio (x) = 0.16879 0.47293
# Poissons Ratio (y) = 0.63087 0.03450
# Poissons Ratio (z) = 0.70531 0.01377
#
# Static dielectric constant tensor:
#      x y z
#    x 1.705850 0.000000 -0.029170 
#    y 0.000000 1.757030 0.000000 
#    z -0.029170 0.000000 1.814240 
# 
# From -- ./inp_files/77801.got.cif
#   From: 2010.05.17/outbox.cif.g08.bks.cpg/sg14_39_cif.got.tgz:77801.got - 2010.06.03 17:49:19.
