data_PCOD9247611
_publ_section_title
;
Structure prediction by ZEFSAII (Michael W. Deem and Ramdas Pophale) SiO2 
 PCOD9247611
Probable space group: P 21/C
;
_chemical_formula_sum "Si O2"
_cell_formula_units_Z 20
_cell_length_a 9.117773
_cell_length_b 8.664143
_cell_length_c 12.900116
_cell_angle_alpha 90.000000
_cell_angle_beta 106.728173
_cell_angle_gamma 90.000000
_cell_volume 975.953016
_symmetry_space_group_name_H-M "P 21/C"
_symmetry_group_IT_number 14
_symmetry_cell_setting 'monoclinic'
loop_
_space_group_symop_operation_xyz
x,y,z
-x,1/2+y,1/2-z
-x,-y,-z
x,1/2-y,1/2+z
loop_
_atom_site_type_symbol
_atom_site_label
_atom_site_fract_x
_atom_site_fract_y
_atom_site_fract_z
Si Si1 0.182196 0.501017 0.051579
Si Si2 0.571671 0.538838 0.624574
Si Si3 0.145064 0.317005 0.236928
Si Si4 0.371488 0.739352 0.215959
Si Si5 0.811588 0.472114 0.179763
O O1 0.213286 0.361109 0.137381
O O2 0.239387 0.652347 0.123688
O O3 0.248478 0.498828 0.949531
O O4 0.000000 0.500000 0.000000
O O5 0.500000 0.500000 0.500000
O O6 0.750645 0.586118 0.661216
O O7 0.555851 0.391950 0.696887
O O8 0.486836 0.683479 0.659267
O O9 0.155452 0.137696 0.263408
O O10 0.971279 0.377394 0.205996
O O11 0.302718 0.871248 0.275274
#
# Coordination Sequence:
#
# PCOD9247611 Si02
#       5
#     4   4   4   4   4
#     4   9  20  39  60  87 119 153 195 246 295 343
#     4  11  24  42  60  88 124 159 195 243 298 356
#     4  10  22  39  61  89 120 157 201 242 294 355
#     4  11  23  40  62  90 119 157 202 241 293 358
#     4  11  21  40  64  88 119 156 198 252 293 342
#
# _framework density 20.492789999999999
#
# number of rings (size 3 to 8) (size 9 to 14) (size 15 to 20)
#    0.000    1.600    0.000    6.000    0.000    6.400 
#    0.000   13.000    0.000    0.000    0.000    0.000 
#    0.000    0.000    0.000    0.000    0.000    0.000 
#
# Total GULP energy -111755.966820 kJ/mol
# GULP energy per Si atom -5587.798341 kJ/mol
# Density = 2.044615 g / cm^3
# Si number density = 20.492790 Si / 1000 Ang^3
#
#
#
# Elastic Constant Matrix: (Units=GPa)
#
#
# Indices 1 2 3 4 5 6 
#
# 1 25.4572 -9.3801 8.3363 0.0000 3.8255 0.0000
# 2 -9.3801 121.5588 43.0261 0.0000 -3.0349 0.0000
# 3 8.3363 43.0261 127.1862 0.0000 11.7010 0.0000
# 4 0.0000 0.0000 0.0000 19.4845 0.0000 -5.0777
# 5 3.8255 -3.0349 11.7010 0.0000 28.7574 0.0000
# 6 0.0000 0.0000 0.0000 -5.0777 0.0000 32.4714
#
#
#
# Elastic Compliance Matrix: (Units=1/GPa)
#
#
# Indices 1 2 3 4 5 6 
#
# 1 0.042860 0.004654 -0.004056 0.000000 -0.003560 0.000000
# 2 0.004654 0.010008 -0.003876 0.000000 0.002014 0.000000
# 3 -0.004056 -0.003876 0.009794 0.000000 -0.003855 0.000000
# 4 0.000000 0.000000 0.000000 0.053503 0.000000 0.008367
# 5 -0.003560 0.002014 -0.003855 0.000000 0.037028 0.000000
# 6 0.000000 0.000000 0.000000 0.008367 0.000000 0.032105
#
#
# Mechanical properties :
#
#
# Convention : Reuss Voigt Hill
#
# Bulk Modulus (GPa) = 17.82349 39.79630 28.80990
# Shear Modulus (GPa) = 23.74672 31.62399 27.68536
#
# Velocity S-wave (km/s) = 3.40778 3.93259 3.67956
# Velocity P-wave (km/s) = 4.91938 6.33105 5.66933
#
# Compressibility (1/GPa) = 0.05610574
#
# Stress axis : x y z
#
# Youngs Moduli (GPa) = 23.33193 99.92237 102.10179
#
# Poissons Ratio (x) = -0.46505 0.41414
# Poissons Ratio (y) = -0.10859 0.39574
# Poissons Ratio (z) = 0.09464 0.38729
#
# Static dielectric constant tensor:
#      x y z
#    x 1.747640 0.000000 -0.001930 
#    y 0.000000 1.686290 0.000000 
#    z -0.001930 0.000000 1.741590 
# 
# From -- ./inp_files/22978.got.cif
#   From: 2010.05.17/outbox.cif.g08.bks.cpg/sg14_12_cif.got.tgz:22978.got - 2010.06.03 17:49:19.
