data_PCOD9247567
_publ_section_title
;
Structure prediction by ZEFSAII (Michael W. Deem and Ramdas Pophale) SiO2 
 PCOD9247567
Probable space group: P 21/C
;
_chemical_formula_sum "Si O2"
_cell_formula_units_Z 28
_cell_length_a 28.194397
_cell_length_b 8.523094
_cell_length_c 8.940651
_cell_angle_alpha 90.000000
_cell_angle_beta 35.844331
_cell_angle_gamma 90.000000
_cell_volume 1258.111705
_symmetry_space_group_name_H-M "P 21/C"
_symmetry_group_IT_number 14
_symmetry_cell_setting 'monoclinic'
loop_
_space_group_symop_operation_xyz
x,y,z
-x,1/2+y,1/2-z
-x,-y,-z
x,1/2-y,1/2+z
loop_
_atom_site_type_symbol
_atom_site_label
_atom_site_fract_x
_atom_site_fract_y
_atom_site_fract_z
Si Si1 0.879932 0.421133 0.245063
Si Si2 0.421928 0.031740 0.397339
Si Si3 0.152320 0.926711 0.671523
Si Si4 0.956026 0.904453 0.834938
Si Si5 0.711545 0.948199 0.479330
Si Si6 0.176309 0.148609 0.330851
Si Si7 0.443169 0.306817 0.540313
O O1 0.853628 0.250757 0.365742
O O2 0.917263 0.517183 0.286421
O O3 0.814659 0.529671 0.329959
O O4 0.949715 0.391039 0.941117
O O5 0.333819 0.993709 0.553941
O O6 0.426422 0.128734 0.537795
O O7 0.453563 0.157453 0.190122
O O8 0.480422 0.883863 0.236356
O O9 0.222157 0.939968 0.618552
O O10 0.173735 0.049446 0.488077
O O11 0.069800 0.987799 0.960153
O O12 0.909009 0.740474 0.976673
O O13 0.756917 0.783963 0.333504
O O14 0.638548 0.907992 0.780856
#
# Coordination Sequence:
#
# PCOD9247567 Si02
#       7
#     4   4   4   4   4   4   4
#     4  11  23  38  57  87 116 152 198 253 298 341
#     4   9  19  37  63  88 119 150 191 236 280 344
#     4  11  22  37  61  85 119 150 200 250 290 345
#     4  10  22  39  58  82 118 154 199 244 300 359
#     4   9  20  39  59  82 117 157 188 234 286 357
#     4  11  22  38  61  82 113 162 198 235 300 354
#     4   9  19  38  62  89 118 152 192 236 280 345
#
# _framework density 22.255576000000001
#
# number of rings (size 3 to 8) (size 9 to 14) (size 15 to 20)
#    0.857    1.143    0.000    4.286    0.000    6.286 
#    0.000    7.143    0.000    0.000    0.000    0.000 
#    0.000    0.000    0.000    0.000    0.000    0.000 
#
# Total GULP energy -156366.684873 kJ/mol
# GULP energy per Si atom -5584.524460 kJ/mol
# Density = 2.220492 g / cm^3
# Si number density = 22.255576 Si / 1000 Ang^3
#
#
#
# Elastic Constant Matrix: (Units=GPa)
#
#
# Indices 1 2 3 4 5 6 
#
# 1 58.0941 14.5414 10.0097 0.0000 -4.6995 0.0000
# 2 14.5414 65.0733 -2.1878 0.0000 0.2329 0.0000
# 3 10.0097 -2.1878 43.6020 0.0000 -11.4064 0.0000
# 4 0.0000 0.0000 0.0000 29.3557 0.0000 9.2139
# 5 -4.6995 0.2329 -11.4064 0.0000 28.6266 0.0000
# 6 0.0000 0.0000 0.0000 9.2139 0.0000 15.2068
#
#
#
# Elastic Compliance Matrix: (Units=1/GPa)
#
#
# Indices 1 2 3 4 5 6 
#
# 1 0.019173 -0.004432 -0.004232 0.000000 0.001497 0.000000
# 2 -0.004432 0.016419 0.001804 0.000000 -0.000142 0.000000
# 3 -0.004232 0.001804 0.026582 0.000000 0.009882 0.000000
# 4 0.000000 0.000000 0.000000 0.042065 0.000000 -0.025487
# 5 0.001497 -0.000142 0.009882 0.000000 0.039117 0.000000
# 6 0.000000 0.000000 0.000000 -0.025487 0.000000 0.081203
#
#
# Mechanical properties :
#
#
# Convention : Reuss Voigt Hill
#
# Bulk Modulus (GPa) = 20.63834 23.49956 22.06895
# Shear Modulus (GPa) = 19.65168 24.26489 21.95829
#
# Velocity S-wave (km/s) = 2.97476 3.30553 3.14449
# Velocity P-wave (km/s) = 4.59264 5.01503 4.80848
#
# Compressibility (1/GPa) = 0.04845351
#
# Stress axis : x y z
#
# Youngs Moduli (GPa) = 52.15610 60.90558 37.61932
#
# Poissons Ratio (x) = 0.26994 0.15922
# Poissons Ratio (y) = 0.23116 -0.06787
# Poissons Ratio (z) = 0.22074 -0.10988
#
# Static dielectric constant tensor:
#      x y z
#    x 1.817450 0.000000 -0.004810 
#    y 0.000000 1.796570 0.000000 
#    z -0.004810 0.000000 1.878150 
# 
# From -- ./inp_files/19940.got.cif
#   From: 2010.05.17/outbox.cif.g08.bks.cpg/sg14_10_cif.got.tgz:19940.got - 2010.06.03 17:49:19.
