data_PCOD9247042
_publ_section_title
;
Structure prediction by ZEFSAII (Michael W. Deem and Ramdas Pophale) SiO2 
 PCOD9247042
Probable space group: P 21/C
;
_chemical_formula_sum "Si O2"
_cell_formula_units_Z 20
_cell_length_a 15.126790
_cell_length_b 9.944867
_cell_length_c 11.319934
_cell_angle_alpha 90.000000
_cell_angle_beta 153.534403
_cell_angle_gamma 90.000000
_cell_volume 758.915935
_symmetry_space_group_name_H-M "P 21/C"
_symmetry_group_IT_number 14
_symmetry_cell_setting 'monoclinic'
loop_
_space_group_symop_operation_xyz
x,y,z
-x,1/2+y,1/2-z
-x,-y,-z
x,1/2-y,1/2+z
loop_
_atom_site_type_symbol
_atom_site_label
_atom_site_fract_x
_atom_site_fract_y
_atom_site_fract_z
Si Si1 0.950500 0.712133 0.336196
Si Si2 0.684005 0.128179 0.846893
Si Si3 0.292803 0.343200 0.754538
Si Si4 0.288099 0.438776 0.136353
Si Si5 0.276978 0.482120 0.386900
O O1 0.917983 0.671380 0.433155
O O2 0.829196 0.851834 0.184832
O O3 0.172448 0.724304 0.554217
O O4 0.864616 0.591207 0.150798
O O5 0.454402 0.161307 0.553603
O O6 0.696759 0.981168 0.801812
O O7 0.753743 0.108845 0.064342
O O8 0.347392 0.214783 0.741842
O O9 0.210943 0.490228 0.171475
O O10 0.481419 0.522963 0.330488
#
# Coordination Sequence:
#
# PCOD9247042 Si02
#       5
#     4   4   4   4   4
#     4  11  22  42  64  98 131 172 224 278 335 404
#     4  11  22  41  68  96 130 177 223 279 333 404
#     4  10  22  43  65  93 131 177 223 273 340 400
#     4  10  21  43  68  94 140 179 220 286 342 400
#     4  10  22  43  64  98 138 176 222 281 340 406
#
# _framework density 26.353380999999999
#
# number of rings (size 3 to 8) (size 9 to 14) (size 15 to 20)
#    0.000    1.600    4.000    0.600    0.000    0.800 
#   18.000    2.000    0.000    0.000    0.000    0.000 
#    0.000    0.000    0.000    0.000    0.000    0.000 
#
# Total GULP energy -111882.445106 kJ/mol
# GULP energy per Si atom -5594.122255 kJ/mol
# Density = 2.629340 g / cm^3
# Si number density = 26.353381 Si / 1000 Ang^3
#
#
#
# Elastic Constant Matrix: (Units=GPa)
#
#
# Indices 1 2 3 4 5 6 
#
# 1 94.3216 32.3658 31.0104 0.0000 36.2830 0.0000
# 2 32.3658 107.8152 34.2035 0.0000 -2.8237 0.0000
# 3 31.0104 34.2035 83.5926 0.0000 5.8511 0.0000
# 4 0.0000 0.0000 0.0000 32.1678 0.0000 3.9541
# 5 36.2830 -2.8237 5.8511 0.0000 27.4782 0.0000
# 6 0.0000 0.0000 0.0000 3.9541 0.0000 50.5626
#
#
#
# Elastic Compliance Matrix: (Units=1/GPa)
#
#
# Indices 1 2 3 4 5 6 
#
# 1 0.030862 -0.008729 -0.005037 0.000000 -0.040575 0.000000
# 2 -0.008729 0.013243 -0.003129 0.000000 0.013554 0.000000
# 3 -0.005037 -0.003129 0.014891 0.000000 0.003159 0.000000
# 4 0.000000 0.000000 0.000000 0.031389 0.000000 -0.002455
# 5 -0.040575 0.013554 0.003159 0.000000 0.090689 0.000000
# 6 0.000000 0.000000 0.000000 -0.002455 0.000000 0.019969
#
#
# Mechanical properties :
#
#
# Convention : Reuss Voigt Hill
#
# Bulk Modulus (GPa) = 39.67506 53.43209 46.55358
# Shear Modulus (GPa) = 20.55623 34.58502 27.57062
#
# Velocity S-wave (km/s) = 2.79592 3.62658 3.23799
# Velocity P-wave (km/s) = 5.05080 6.15267 5.62876
#
# Compressibility (1/GPa) = 0.02520475
#
# Stress axis : x y z
#
# Youngs Moduli (GPa) = 32.40270 75.50984 67.15656
#
# Poissons Ratio (x) = 0.65915 0.33826
# Poissons Ratio (y) = 0.28285 0.21014
# Poissons Ratio (z) = 0.16321 0.23628
#
# Static dielectric constant tensor:
#      x y z
#    x 2.073810 0.000000 -0.023180 
#    y 0.000000 2.023470 0.000000 
#    z -0.023180 0.000000 2.101230 
# 
# From -- ./inp_files/28787.got.cif
#   From: 2010.05.17/outbox.cif.g08.bks.cpg/sg14_15_cif.got.tgz:28787.got - 2010.06.03 17:49:19.
