data_PCOD9247748
_publ_section_title
;
Structure prediction by ZEFSAII (Michael W. Deem and Ramdas Pophale) SiO2 
 PCOD9247748
Probable space group: P 21/C
;
_chemical_formula_sum "Si O2"
_cell_formula_units_Z 26
_cell_length_a 4.877376
_cell_length_b 12.050550
_cell_length_c 20.875644
_cell_angle_alpha 90.000000
_cell_angle_beta 114.471188
_cell_angle_gamma 90.000000
_cell_volume 1116.748446
_symmetry_space_group_name_H-M "P 21/C"
_symmetry_group_IT_number 14
_symmetry_cell_setting 'monoclinic'
loop_
_space_group_symop_operation_xyz
x,y,z
-x,1/2+y,1/2-z
-x,-y,-z
x,1/2-y,1/2+z
loop_
_atom_site_type_symbol
_atom_site_label
_atom_site_fract_x
_atom_site_fract_y
_atom_site_fract_z
Si Si1 0.796534 0.995671 0.892784
Si Si2 0.724711 0.690269 0.561154
Si Si3 0.500000 0.000000 0.000000
Si Si4 0.819340 0.558053 0.039668
Si Si5 0.930097 0.979799 0.699510
Si Si6 0.545957 0.871302 0.762747
Si Si7 0.299167 0.336639 0.295404
O O1 0.575592 0.082612 0.837593
O O2 0.114757 0.062628 0.930815
O O3 0.791140 0.898715 0.840754
O O4 0.632073 0.960379 0.940881
O O5 0.407080 0.636657 0.510981
O O6 0.812469 0.805399 0.536221
O O7 0.765303 0.713466 0.640492
O O8 0.916230 0.527746 0.121769
O O9 0.500000 0.500000 0.000000
O O10 0.000000 0.500000 0.000000
O O11 0.206744 0.900716 0.748801
O O12 0.631926 0.941428 0.707345
O O13 0.024971 0.097258 0.738303
O O14 0.578547 0.747819 0.743656
#
# Coordination Sequence:
#
# PCOD9247748 Si02
#       7
#     4   4   2   4   4   4   4
#     4  10  22  41  68 101 134 183 230 283 358 414
#     4  11  22  44  70  94 140 187 233 287 352 421
#     4  10  24  40  68 100 138 182 236 284 350 422
#     4  12  28  46  70 102 141 192 234 284 354 428
#     4  11  23  43  66 102 134 171 236 277 342 415
#     4  11  22  40  70 103 131 173 227 285 346 411
#     4  10  22  39  70  99 130 180 220 293 343 409
#
# _framework density 23.281877000000001
#
# number of rings (size 3 to 8) (size 9 to 14) (size 15 to 20)
#    0.000    1.231    3.077    2.308    4.308    1.231 
#    2.769    0.000    0.000    0.000    0.000    0.000 
#    0.000    0.000    0.000    0.000    0.000    0.000 
#
# Total GULP energy -144755.194221 kJ/mol
# GULP energy per Si atom -5567.507470 kJ/mol
# Density = 2.322889 g / cm^3
# Si number density = 23.281877 Si / 1000 Ang^3
#
#
#
# Elastic Constant Matrix: (Units=GPa)
#
#
# Indices 1 2 3 4 5 6 
#
# 1 88.7764 3.9946 25.7640 0.0000 -12.2343 0.0000
# 2 3.9946 92.6741 53.5168 0.0000 -10.6946 0.0000
# 3 25.7640 53.5168 120.5971 0.0000 -15.6459 0.0000
# 4 0.0000 0.0000 0.0000 40.5348 0.0000 -13.5026
# 5 -12.2343 -10.6946 -15.6459 0.0000 43.0224 0.0000
# 6 0.0000 0.0000 0.0000 -13.5026 0.0000 29.5457
#
#
#
# Elastic Compliance Matrix: (Units=1/GPa)
#
#
# Indices 1 2 3 4 5 6 
#
# 1 0.012445 0.001498 -0.002955 0.000000 0.002837 0.000000
# 2 0.001498 0.014761 -0.006653 0.000000 0.001676 0.000000
# 3 -0.002955 -0.006653 0.012124 0.000000 0.001915 0.000000
# 4 0.000000 0.000000 0.000000 0.029100 0.000000 0.013299
# 5 0.002837 0.001676 0.001915 0.000000 0.025163 0.000000
# 6 0.000000 0.000000 0.000000 0.013299 0.000000 0.039924
#
#
# Mechanical properties :
#
#
# Convention : Reuss Voigt Hill
#
# Bulk Modulus (GPa) = 43.27269 52.06650 47.66960
# Shear Modulus (GPa) = 31.75752 37.20539 34.48145
#
# Velocity S-wave (km/s) = 3.69730 4.00189 3.85261
# Velocity P-wave (km/s) = 6.07071 6.61555 6.34898
#
# Compressibility (1/GPa) = 0.02310926
#
# Stress axis : x y z
#
# Youngs Moduli (GPa) = 80.35053 67.74464 82.47897
#
# Poissons Ratio (x) = -0.10145 0.24376
# Poissons Ratio (y) = -0.12033 0.54874
# Poissons Ratio (z) = 0.23746 0.45071
#
# Static dielectric constant tensor:
#      x y z
#    x 2.208280 0.000000 0.428170 
#    y 0.000000 1.963630 0.000000 
#    z 0.428170 0.000000 2.340380 
# 
# From -- ./inp_files/60596.got.cif
#   From: 2010.05.17/outbox.cif.g08.bks.cpg/sg14_31_cif.got.tgz:60596.got - 2010.06.03 17:49:19.
