data_PCOD9247942
_publ_section_title
;
Structure prediction by ZEFSAII (Michael W. Deem and Ramdas Pophale) SiO2 
 PCOD9247942
Probable space group: P 21/C
;
_chemical_formula_sum "Si O2"
_cell_formula_units_Z 24
_cell_length_a 8.812799
_cell_length_b 6.250370
_cell_length_c 22.924787
_cell_angle_alpha 90.000000
_cell_angle_beta 124.060841
_cell_angle_gamma 90.000000
_cell_volume 1046.134915
_symmetry_space_group_name_H-M "P 21/C"
_symmetry_group_IT_number 14
_symmetry_cell_setting 'monoclinic'
loop_
_space_group_symop_operation_xyz
x,y,z
-x,1/2+y,1/2-z
-x,-y,-z
x,1/2-y,1/2+z
loop_
_atom_site_type_symbol
_atom_site_label
_atom_site_fract_x
_atom_site_fract_y
_atom_site_fract_z
Si Si1 0.554411 0.863100 0.184337
Si Si2 0.286679 0.165274 0.392107
Si Si3 0.320310 0.776349 0.471199
Si Si4 0.797167 0.397100 0.932729
Si Si5 0.299074 0.215516 0.161568
Si Si6 0.024155 0.403570 0.409611
O O1 0.696818 0.780375 0.166712
O O2 0.384317 0.708384 0.133726
O O3 0.625509 0.828096 0.264634
O O4 0.465414 0.099723 0.162791
O O5 0.466210 0.252831 0.466455
O O6 0.095121 0.233259 0.378442
O O7 0.303130 0.909601 0.407463
O O8 0.244156 0.922014 0.508116
O O9 0.193555 0.568429 0.450183
O O10 0.809299 0.619010 0.901935
O O11 0.956389 0.228360 0.951474
O O12 0.153362 0.035209 0.148377
#
# Coordination Sequence:
#
# PCOD9247942 Si02
#       6
#     4   4   4   4   4   4
#     4  10  22  42  66  89 122 169 220 262 319 381
#     4  10  23  41  62  96 128 167 210 263 322 386
#     4  10  22  42  66  91 133 171 209 258 320 389
#     4  10  22  40  67  94 125 169 217 261 312 382
#     4  11  22  42  65  91 123 169 218 270 314 386
#     4  11  23  39  60  99 131 164 210 263 324 381
#
# _framework density 22.941593000000001
#
# number of rings (size 3 to 8) (size 9 to 14) (size 15 to 20)
#    0.000    1.667    1.667    2.000    0.000   10.667 
#    6.000    0.000    0.000    0.000    0.000    0.000 
#    0.000    0.000    0.000    0.000    0.000    0.000 
#
# Total GULP energy -133991.431723 kJ/mol
# GULP energy per Si atom -5582.976322 kJ/mol
# Density = 2.288938 g / cm^3
# Si number density = 22.941593 Si / 1000 Ang^3
#
#
#
# Elastic Constant Matrix: (Units=GPa)
#
#
# Indices 1 2 3 4 5 6 
#
# 1 95.6276 30.5513 -3.7201 0.0000 -13.7173 0.0000
# 2 30.5513 66.2922 27.9254 0.0000 -9.2997 0.0000
# 3 -3.7201 27.9254 46.0911 0.0000 -5.6683 0.0000
# 4 0.0000 0.0000 0.0000 15.1435 0.0000 8.0439
# 5 -13.7173 -9.2997 -5.6683 0.0000 28.5816 0.0000
# 6 0.0000 0.0000 0.0000 8.0439 0.0000 51.5053
#
#
#
# Elastic Compliance Matrix: (Units=1/GPa)
#
#
# Indices 1 2 3 4 5 6 
#
# 1 0.014358 -0.008895 0.007216 0.000000 0.005428 0.000000
# 2 -0.008895 0.026284 -0.016519 0.000000 0.001007 0.000000
# 3 0.007216 -0.016519 0.032853 0.000000 0.004604 0.000000
# 4 0.000000 0.000000 0.000000 0.072009 0.000000 -0.011246
# 5 0.005428 0.001007 0.004604 0.000000 0.038833 0.000000
# 6 0.000000 0.000000 0.000000 -0.011246 0.000000 0.021172
#
#
# Mechanical properties :
#
#
# Convention : Reuss Voigt Hill
#
# Bulk Modulus (GPa) = 26.95513 35.28046 31.11780
# Shear Modulus (GPa) = 19.66390 29.26302 24.46346
#
# Velocity S-wave (km/s) = 2.93085 3.57535 3.26902
# Velocity P-wave (km/s) = 4.81956 5.69701 5.27656
#
# Compressibility (1/GPa) = 0.03709868
#
# Stress axis : x y z
#
# Youngs Moduli (GPa) = 69.64524 38.04578 30.43850
#
# Poissons Ratio (x) = 0.33844 -0.21964
# Poissons Ratio (y) = 0.61953 0.50281
# Poissons Ratio (z) = -0.50256 0.62848
#
# Static dielectric constant tensor:
#      x y z
#    x 1.876120 0.000000 -0.011420 
#    y 0.000000 1.895960 0.000000 
#    z -0.011420 0.000000 1.824880 
# 
# From -- ./inp_files/71588.got.cif
#   From: 2010.05.17/outbox.cif.g08.bks.cpg/sg14_36_cif.got.tgz:71588.got - 2010.06.03 17:49:19.
