data_PCOD9247337
_publ_section_title
;
Structure prediction by ZEFSAII (Michael W. Deem and Ramdas Pophale) SiO2 
 PCOD9247337
Probable space group: P 21/C
;
_chemical_formula_sum "Si O2"
_cell_formula_units_Z 28
_cell_length_a 14.740438
_cell_length_b 4.871017
_cell_length_c 24.821321
_cell_angle_alpha 90.000000
_cell_angle_beta 43.728161
_cell_angle_gamma 90.000000
_cell_volume 1231.919475
_symmetry_space_group_name_H-M "P 21/C"
_symmetry_group_IT_number 14
_symmetry_cell_setting 'monoclinic'
loop_
_space_group_symop_operation_xyz
x,y,z
-x,1/2+y,1/2-z
-x,-y,-z
x,1/2-y,1/2+z
loop_
_atom_site_type_symbol
_atom_site_label
_atom_site_fract_x
_atom_site_fract_y
_atom_site_fract_z
Si Si1 0.093828 0.523508 0.265809
Si Si2 0.429847 0.385018 0.919782
Si Si3 0.228374 0.351228 0.775338
Si Si4 0.678271 0.335559 0.372485
Si Si5 0.292084 0.602376 0.517501
Si Si6 0.537446 0.118237 0.765116
Si Si7 0.962027 0.035709 0.359117
O O1 0.192199 0.463937 0.275544
O O2 0.198954 0.625274 0.178177
O O3 0.970003 0.728896 0.215985
O O4 0.975869 0.728508 0.331624
O O5 0.543479 0.307148 0.913498
O O6 0.481488 0.286438 0.840054
O O7 0.398984 0.703186 0.942056
O O8 0.302686 0.195312 0.986414
O O9 0.283459 0.466952 0.693961
O O10 0.332054 0.451494 0.773945
O O11 0.081816 0.459306 0.850722
O O12 0.671776 0.446447 0.435450
O O13 0.162029 0.789431 0.569968
O O14 0.445117 0.867123 0.784828
#
# Coordination Sequence:
#
# PCOD9247337 Si02
#       7
#     4   4   4   4   4   4   4
#     4   9  19  35  59  84 119 160 209 254 291 339
#     4  11  26  40  59  90 131 157 207 257 312 382
#     4   8  21  38  63  91 127 152 215 268 299 353
#     4  10  22  36  62  89 129 169 209 248 311 344
#     4  12  24  38  60  88 133 177 202 232 303 394
#     4  11  24  41  71  93 114 151 210 275 332 364
#     4   9  20  36  58  86 124 170 203 245 299 351
#
# _framework density 22.728757000000002
#
# number of rings (size 3 to 8) (size 9 to 14) (size 15 to 20)
#    0.857    1.143    0.000    2.571   12.000    2.286 
#    0.000    0.000    0.000    5.143    0.000    0.000 
#    0.000    0.000    0.000    0.000    0.000    0.000 
#
# Total GULP energy -155960.544180 kJ/mol
# GULP energy per Si atom -5570.019435 kJ/mol
# Density = 2.267703 g / cm^3
# Si number density = 22.728757 Si / 1000 Ang^3
#
#
#
# Elastic Constant Matrix: (Units=GPa)
#
#
# Indices 1 2 3 4 5 6 
#
# 1 84.7247 7.0480 20.9822 0.0000 -5.3513 0.0000
# 2 7.0480 108.8015 3.6663 0.0000 -4.2538 0.0000
# 3 20.9822 3.6663 36.6961 0.0000 -10.6621 0.0000
# 4 0.0000 0.0000 0.0000 28.3933 0.0000 -7.7496
# 5 -5.3513 -4.2538 -10.6621 0.0000 24.3109 0.0000
# 6 0.0000 0.0000 0.0000 -7.7496 0.0000 23.1045
#
#
#
# Elastic Compliance Matrix: (Units=1/GPa)
#
#
# Indices 1 2 3 4 5 6 
#
# 1 0.013800 -0.000647 -0.007995 0.000000 -0.000582 0.000000
# 2 -0.000647 0.009293 -0.000146 0.000000 0.001420 0.000000
# 3 -0.007995 -0.000146 0.035892 0.000000 0.013956 0.000000
# 4 0.000000 0.000000 0.000000 0.038769 0.000000 0.013004
# 5 -0.000582 0.001420 0.013956 0.000000 0.047375 0.000000
# 6 0.000000 0.000000 0.000000 0.013004 0.000000 0.047643
#
#
# Mechanical properties :
#
#
# Convention : Reuss Voigt Hill
#
# Bulk Modulus (GPa) = 24.14959 32.62394 28.38676
# Shear Modulus (GPa) = 22.30637 28.39678 25.35157
#
# Velocity S-wave (km/s) = 3.13615 3.53849 3.34338
# Velocity P-wave (km/s) = 4.87464 5.57488 5.23648
#
# Compressibility (1/GPa) = 0.04140858
#
# Stress axis : x y z
#
# Youngs Moduli (GPa) = 72.46374 107.60327 27.86159
#
# Poissons Ratio (x) = 0.06965 0.22275
# Poissons Ratio (y) = 0.04690 0.00407
# Poissons Ratio (z) = 0.57935 0.01570
#
# Static dielectric constant tensor:
#      x y z
#    x 1.965090 0.000000 -0.033720 
#    y 0.000000 1.895780 0.000000 
#    z -0.033720 0.000000 1.858590 
# 
# From -- ./inp_files/73474.got.cif
#   From: 2010.05.17/outbox.cif.g08.bks.cpg/sg14_37_cif.got.tgz:73474.got - 2010.06.03 17:49:19.
