data_PCOD9247529
_publ_section_title
;
Structure prediction by ZEFSAII (Michael W. Deem and Ramdas Pophale) SiO2 
 PCOD9247529
Probable space group: P 21/C
;
_chemical_formula_sum "Si O2"
_cell_formula_units_Z 32
_cell_length_a 12.010038
_cell_length_b 16.667765
_cell_length_c 13.283166
_cell_angle_alpha 90.000000
_cell_angle_beta 27.563980
_cell_angle_gamma 90.000000
_cell_volume 1230.436715
_symmetry_space_group_name_H-M "P 21/C"
_symmetry_group_IT_number 14
_symmetry_cell_setting 'monoclinic'
loop_
_space_group_symop_operation_xyz
x,y,z
-x,1/2+y,1/2-z
-x,-y,-z
x,1/2-y,1/2+z
loop_
_atom_site_type_symbol
_atom_site_label
_atom_site_fract_x
_atom_site_fract_y
_atom_site_fract_z
Si Si1 0.298433 0.099617 0.756386
Si Si2 0.404232 0.799997 0.775182
Si Si3 0.441872 0.945926 0.947571
Si Si4 0.899469 0.043594 0.945583
Si Si5 0.122202 0.252052 0.002420
Si Si6 0.814950 0.460739 0.069959
Si Si7 0.359058 0.676075 0.661549
Si Si8 0.814619 0.158128 0.411296
O O1 0.583038 0.113673 0.546510
O O2 0.191003 0.037520 0.926788
O O3 0.200202 0.189473 0.854534
O O4 0.176333 0.063397 0.753021
O O5 0.254645 0.880900 0.888196
O O6 0.662515 0.798047 0.618304
O O7 0.444489 0.760282 0.633638
O O8 0.261002 0.733875 0.957971
O O9 0.179740 0.954485 0.107992
O O10 0.623176 0.968455 0.712984
O O11 0.468185 0.857131 0.971880
O O12 0.500000 0.000000 0.000000
O O13 0.925270 0.314302 0.124081
O O14 0.992147 0.195059 0.188288
O O15 0.630786 0.392171 0.261858
O O16 0.931221 0.410508 0.887677
O O17 0.000000 0.500000 0.000000
#
# Coordination Sequence:
#
# PCOD9247529 Si02
#       8
#     4   4   4   4   4   4   4   4
#     4  10  23  43  71  95 145 186 233 291 353 426
#     4  10  23  42  68  95 141 178 233 284 354 420
#     4  10  22  39  67  96 134 173 230 284 347 413
#     4  11  21  44  70 100 139 192 229 294 354 413
#     4  11  23  42  67 100 134 184 233 294 344 427
#     4  10  22  38  65  96 132 171 222 288 354 412
#     4  10  22  42  59  98 131 169 232 279 347 415
#     4  10  22  44  65  99 136 182 228 290 362 409
#
# _framework density 26.007026
#
# number of rings (size 3 to 8) (size 9 to 14) (size 15 to 20)
#    0.000    1.750    2.500    0.750    5.250    1.000 
#    4.500    3.750    0.000    0.000    0.000    0.000 
#    0.000    0.000    0.000    0.000    0.000    0.000 
#
# Total GULP energy -178813.014023 kJ/mol
# GULP energy per Si atom -5587.906688 kJ/mol
# Density = 2.594783 g / cm^3
# Si number density = 26.007026 Si / 1000 Ang^3
#
#
#
# Elastic Constant Matrix: (Units=GPa)
#
#
# Indices 1 2 3 4 5 6 
#
# 1 100.4905 13.2679 -7.2636 0.0000 -9.5087 0.0000
# 2 13.2679 120.6359 16.7316 0.0000 4.6860 0.0000
# 3 -7.2636 16.7316 24.1369 0.0000 3.5347 0.0000
# 4 0.0000 0.0000 0.0000 47.8285 0.0000 2.6801
# 5 -9.5087 4.6860 3.5347 0.0000 32.7155 0.0000
# 6 0.0000 0.0000 0.0000 2.6801 0.0000 42.6587
#
#
#
# Elastic Compliance Matrix: (Units=1/GPa)
#
#
# Indices 1 2 3 4 5 6 
#
# 1 0.010774 -0.001869 0.004105 0.000000 0.002956 0.000000
# 2 -0.001869 0.009508 -0.006985 0.000000 -0.001151 0.000000
# 3 0.004105 -0.006985 0.047945 0.000000 -0.002986 0.000000
# 4 0.000000 0.000000 0.000000 0.020982 0.000000 -0.001318
# 5 0.002956 -0.001151 -0.002986 0.000000 0.031913 0.000000
# 6 0.000000 0.000000 0.000000 -0.001318 0.000000 0.023525
#
#
# Mechanical properties :
#
#
# Convention : Reuss Voigt Hill
#
# Bulk Modulus (GPa) = 17.02716 32.30389 24.66552
# Shear Modulus (GPa) = 28.78148 39.47571 34.12860
#
# Velocity S-wave (km/s) = 3.33029 3.90023 3.62648
# Velocity P-wave (km/s) = 4.62051 5.72107 5.19999
#
# Compressibility (1/GPa) = 0.05872971
#
# Stress axis : x y z
#
# Youngs Moduli (GPa) = 92.81265 105.16913 20.85711
#
# Poissons Ratio (x) = 0.19658 -0.08562
# Poissons Ratio (y) = 0.17348 0.14569
# Poissons Ratio (z) = -0.38102 0.73463
#
# Static dielectric constant tensor:
#      x y z
#    x 2.112720 0.000000 0.050270 
#    y 0.000000 2.045720 0.000000 
#    z 0.050270 0.000000 2.142950 
# 
# From -- ./inp_files/45439.got.cif
#   From: 2010.05.17/outbox.cif.g08.bks.cpg/sg14_23_cif.got.tgz:45439.got - 2010.06.03 17:49:19.
