data_PCOD9247372
_publ_section_title
;
Structure prediction by ZEFSAII (Michael W. Deem and Ramdas Pophale) SiO2 
 PCOD9247372
Probable space group: P 21/C
;
_chemical_formula_sum "Si O2"
_cell_formula_units_Z 32
_cell_length_a 18.224239
_cell_length_b 13.703721
_cell_length_c 8.257757
_cell_angle_alpha 90.000000
_cell_angle_beta 136.013926
_cell_angle_gamma 90.000000
_cell_volume 1432.227301
_symmetry_space_group_name_H-M "P 21/C"
_symmetry_group_IT_number 14
_symmetry_cell_setting 'monoclinic'
loop_
_space_group_symop_operation_xyz
x,y,z
-x,1/2+y,1/2-z
-x,-y,-z
x,1/2-y,1/2+z
loop_
_atom_site_type_symbol
_atom_site_label
_atom_site_fract_x
_atom_site_fract_y
_atom_site_fract_z
Si Si1 0.766273 0.851496 0.419140
Si Si2 0.130747 0.702712 0.601960
Si Si3 0.987896 0.138468 0.797726
Si Si4 0.383452 0.540016 0.287539
Si Si5 0.226780 0.351362 0.690601
Si Si6 0.103462 0.015648 0.557916
Si Si7 0.286607 0.629919 0.440486
Si Si8 0.312210 0.938299 0.311826
O O1 0.793155 0.842752 0.649638
O O2 0.722204 0.747778 0.293086
O O3 0.859415 0.878268 0.439659
O O4 0.690918 0.945852 0.297660
O O5 0.035429 0.660807 0.554979
O O6 0.076087 0.775853 0.392265
O O7 0.219420 0.770062 0.833024
O O8 0.197069 0.612049 0.642599
O O9 0.926119 0.040372 0.654470
O O10 0.108443 0.136177 0.932802
O O11 0.500000 0.500000 0.500000
O O12 0.351002 0.618214 0.374560
O O13 0.366537 0.575023 0.074587
O O14 0.296525 0.446098 0.766756
O O15 0.198495 0.956155 0.791638
O O16 0.000000 0.000000 0.500000
O O17 0.353591 0.610191 0.710377
#
# Coordination Sequence:
#
# PCOD9247372 Si02
#       8
#     4   4   4   4   4   4   4   4
#     4  10  24  41  62  88 130 169 215 273 330 389
#     4  11  21  39  60  96 129 173 220 270 312 382
#     4  11  22  33  57  89 130 173 221 260 306 381
#     4  10  24  48  71  95 127 159 217 289 341 399
#     4  11  24  37  60  93 131 180 216 261 327 391
#     4  10  22  37  58  89 126 174 220 266 308 375
#     4  10  22  39  68  95 128 167 212 274 329 388
#     4  11  23  42  68  93 131 178 215 272 341 393
#
# _framework density 22.342822000000002
#
# number of rings (size 3 to 8) (size 9 to 14) (size 15 to 20)
#    0.000    1.500    1.250    4.500    8.750    4.500 
#    0.000    2.500    0.000    0.000    0.000    0.000 
#    0.000    0.000    0.000    0.000    0.000    0.000 
#
# Total GULP energy -178717.786869 kJ/mol
# GULP energy per Si atom -5584.930840 kJ/mol
# Density = 2.229197 g / cm^3
# Si number density = 22.342822 Si / 1000 Ang^3
#
#
#
# Elastic Constant Matrix: (Units=GPa)
#
#
# Indices 1 2 3 4 5 6 
#
# 1 50.7148 -0.0502 32.6365 0.0000 -15.7220 0.0000
# 2 -0.0502 54.1276 -3.3769 0.0000 -19.6219 0.0000
# 3 32.6365 -3.3769 72.2257 0.0000 -13.6335 0.0000
# 4 0.0000 0.0000 0.0000 20.6962 0.0000 -6.1235
# 5 -15.7220 -19.6219 -13.6335 0.0000 25.7197 0.0000
# 6 0.0000 0.0000 0.0000 -6.1235 0.0000 13.8181
#
#
#
# Elastic Compliance Matrix: (Units=1/GPa)
#
#
# Indices 1 2 3 4 5 6 
#
# 1 0.032566 0.006195 -0.010863 0.000000 0.018875 0.000000
# 2 0.006195 0.028774 0.003783 0.000000 0.027745 0.000000
# 3 -0.010863 0.003783 0.020248 0.000000 0.006979 0.000000
# 4 0.000000 0.000000 0.000000 0.055609 0.000000 0.024643
# 5 0.018875 0.027745 0.006979 0.000000 0.075285 0.000000
# 6 0.000000 0.000000 0.000000 0.024643 0.000000 0.083289
#
#
# Mechanical properties :
#
#
# Convention : Reuss Voigt Hill
#
# Bulk Modulus (GPa) = 12.52830 26.16520 19.34675
# Shear Modulus (GPa) = 15.42499 21.90405 18.66452
#
# Velocity S-wave (km/s) = 2.63035 3.13447 2.89341
# Velocity P-wave (km/s) = 3.85286 4.98358 4.45424
#
# Compressibility (1/GPa) = 0.07981932
#
# Stress axis : x y z
#
# Youngs Moduli (GPa) = 30.70645 34.75306 49.38645
#
# Poissons Ratio (x) = -0.21529 0.53649
# Poissons Ratio (y) = -0.19023 -0.18684
# Poissons Ratio (z) = 0.33357 -0.13148
#
# Static dielectric constant tensor:
#      x y z
#    x 1.856400 0.000000 -0.056770 
#    y 0.000000 1.818390 0.000000 
#    z -0.056770 0.000000 1.868900 
# 
# From -- ./inp_files/19032.got.cif
#   From: 2010.05.17/outbox.cif.g08.bks.cpg/sg14_10_cif.got.tgz:19032.got - 2010.06.03 17:49:19.
