data_PCOD9247440
_publ_section_title
;
Structure prediction by ZEFSAII (Michael W. Deem and Ramdas Pophale) SiO2 
 PCOD9247440
Probable space group: P 21/C
;
_chemical_formula_sum "Si O2"
_cell_formula_units_Z 20
_cell_length_a 5.102579
_cell_length_b 22.132061
_cell_length_c 5.873437
_cell_angle_alpha 90.000000
_cell_angle_beta 91.072190
_cell_angle_gamma 90.000000
_cell_volume 663.174570
_symmetry_space_group_name_H-M "P 21/C"
_symmetry_group_IT_number 14
_symmetry_cell_setting 'monoclinic'
loop_
_space_group_symop_operation_xyz
x,y,z
-x,1/2+y,1/2-z
-x,-y,-z
x,1/2-y,1/2+z
loop_
_atom_site_type_symbol
_atom_site_label
_atom_site_fract_x
_atom_site_fract_y
_atom_site_fract_z
Si Si1 0.198474 0.076666 0.974143
Si Si2 0.305736 0.978625 0.271870
Si Si3 0.271937 0.321566 0.179648
Si Si4 0.764220 0.376781 0.927602
Si Si5 0.874797 0.225429 0.138939
O O1 0.249951 0.049125 0.224576
O O2 0.419072 0.042876 0.825819
O O3 0.256200 0.146262 0.925051
O O4 0.918309 0.054222 0.882300
O O5 0.271755 0.947591 0.517540
O O6 0.528925 0.343291 0.055961
O O7 0.030814 0.354994 0.050251
O O8 0.172413 0.252876 0.164216
O O9 0.799006 0.344293 0.685458
O O10 0.776811 0.242679 0.880657
#
# Coordination Sequence:
#
# PCOD9247440 Si02
#       5
#     4   4   4   4   4
#     4   8  13  23  42  69 100 134 173 218 268 322
#     4   8  13  23  42  69 100 134 173 218 268 322
#     4   9  18  32  51  77 108 143 183 227 276 330
#     4   9  18  32  51  77 108 143 183 227 276 330
#     4  10  22  38  58  82 114 150 190 234 282 334
#
# _framework density 30.157969999999999
#
# number of rings (size 3 to 8) (size 9 to 14) (size 15 to 20)
#    0.000    3.200    0.000    0.000    0.000    6.400 
#    0.000    0.000    0.000    1.200    0.000    0.000 
#    0.000   72.000    0.000    0.000    0.000   17.200 
#
# Total GULP energy -111849.696155 kJ/mol
# GULP energy per Si atom -5592.484808 kJ/mol
# Density = 3.008933 g / cm^3
# Si number density = 30.157970 Si / 1000 Ang^3
#
#
#
# Elastic Constant Matrix: (Units=GPa)
#
#
# Indices 1 2 3 4 5 6 
#
# 1 169.5587 47.4528 79.0427 0.0000 -17.6206 0.0000
# 2 47.4528 164.7301 69.5467 0.0000 -7.0434 0.0000
# 3 79.0427 69.5467 155.8184 0.0000 -10.2768 0.0000
# 4 0.0000 0.0000 0.0000 51.3122 0.0000 -11.2556
# 5 -17.6206 -7.0434 -10.2768 0.0000 66.8981 0.0000
# 6 0.0000 0.0000 0.0000 -11.2556 0.0000 17.5482
#
#
#
# Elastic Compliance Matrix: (Units=1/GPa)
#
#
# Indices 1 2 3 4 5 6 
#
# 1 0.007930 -0.000695 -0.003616 0.000000 0.001460 0.000000
# 2 -0.000695 0.007546 -0.003006 0.000000 0.000150 0.000000
# 3 -0.003616 -0.003006 0.009607 0.000000 0.000207 0.000000
# 4 0.000000 0.000000 0.000000 0.022679 0.000000 0.014547
# 5 0.001460 0.000150 0.000207 0.000000 0.015380 0.000000
# 6 0.000000 0.000000 0.000000 0.014547 0.000000 0.066316
#
#
# Mechanical properties :
#
#
# Convention : Reuss Voigt Hill
#
# Bulk Modulus (GPa) = 95.69848 98.02132 96.85990
# Shear Modulus (GPa) = 33.88105 46.75603 40.31854
#
# Velocity S-wave (km/s) = 3.35543 3.94175 3.66035
# Velocity P-wave (km/s) = 6.84202 7.29998 7.07470
#
# Compressibility (1/GPa) = 0.01044949
#
# Stress axis : x y z
#
# Youngs Moduli (GPa) = 126.11060 132.51884 104.08995
#
# Poissons Ratio (x) = 0.09213 0.37638
# Poissons Ratio (y) = 0.08768 0.31284
# Poissons Ratio (z) = 0.45600 0.39829
#
# Static dielectric constant tensor:
#      x y z
#    x 2.363200 0.000000 -0.011930 
#    y 0.000000 2.553340 0.000000 
#    z -0.011930 0.000000 2.348520 
# 
# From -- ./inp_files/553.got.cif
#   From: 2010.05.17/outbox.cif.g08.bks.cpg/sg14_1_cif.got.tgz:553.got - 2010.06.03 17:49:19.
