data_PCOD9247391
_publ_section_title
;
Structure prediction by ZEFSAII (Michael W. Deem and Ramdas Pophale) SiO2 
 PCOD9247391
Probable space group: P 21/C
;
_chemical_formula_sum "Si O2"
_cell_formula_units_Z 32
_cell_length_a 7.235404
_cell_length_b 17.036778
_cell_length_c 20.755288
_cell_angle_alpha 90.000000
_cell_angle_beta 32.215789
_cell_angle_gamma 90.000000
_cell_volume 1363.940383
_symmetry_space_group_name_H-M "P 21/C"
_symmetry_group_IT_number 14
_symmetry_cell_setting 'monoclinic'
loop_
_space_group_symop_operation_xyz
x,y,z
-x,1/2+y,1/2-z
-x,-y,-z
x,1/2-y,1/2+z
loop_
_atom_site_type_symbol
_atom_site_label
_atom_site_fract_x
_atom_site_fract_y
_atom_site_fract_z
Si Si1 0.092540 0.684477 0.030363
Si Si2 0.302263 0.851975 0.328157
Si Si3 0.602019 0.247411 0.813978
Si Si4 0.875546 0.346781 0.430705
Si Si5 0.848454 0.405832 0.747089
Si Si6 0.348365 0.113924 0.981012
Si Si7 0.503760 0.542594 0.365874
Si Si8 0.770155 0.970481 0.645963
O O1 0.225147 0.754492 0.036422
O O2 0.687656 0.707782 0.142622
O O3 0.078727 0.593551 0.054444
O O4 0.248029 0.689279 0.912751
O O5 0.178475 0.803488 0.301968
O O6 0.715643 0.860716 0.195290
O O7 0.134052 0.938002 0.382426
O O8 0.788538 0.319047 0.794265
O O9 0.406109 0.189318 0.919708
O O10 0.687054 0.388597 0.427070
O O11 0.721892 0.385953 0.540239
O O12 0.498706 0.452348 0.832946
O O13 0.038090 0.386531 0.623290
O O14 0.119230 0.451110 0.711448
O O15 0.335566 0.037405 0.940768
O O16 0.562681 0.542496 0.273237
#
# Coordination Sequence:
#
# PCOD9247391 Si02
#       8
#     4   4   4   4   4   4   4   4
#     4  10  24  39  60  90 123 160 207 245 298 372
#     4  11  21  41  60  90 121 160 205 246 303 361
#     4  10  22  37  61  87 119 164 195 250 307 358
#     4  10  24  36  65  91 121 157 201 258 302 357
#     4  10  23  39  60  88 127 153 199 262 297 362
#     4  11  21  40  59  92 122 154 203 252 309 355
#     4  11  23  40  64  95 121 155 209 250 305 362
#     4  11  23  40  67  87 121 169 198 249 308 356
#
# _framework density 23.461435999999999
#
# number of rings (size 3 to 8) (size 9 to 14) (size 15 to 20)
#    0.000    1.500    1.250    4.125   10.500    2.000 
#    0.000    0.000    0.000    3.000    0.000    0.000 
#    0.000    0.000    0.000    0.000    0.000    0.000 
#
# Total GULP energy -178942.274343 kJ/mol
# GULP energy per Si atom -5591.946073 kJ/mol
# Density = 2.340804 g / cm^3
# Si number density = 23.461436 Si / 1000 Ang^3
#
#
#
# Elastic Constant Matrix: (Units=GPa)
#
#
# Indices 1 2 3 4 5 6 
#
# 1 44.6377 18.0708 11.5446 0.0000 4.9087 0.0000
# 2 18.0708 81.4096 2.1507 0.0000 8.5331 0.0000
# 3 11.5446 2.1507 51.3942 0.0000 19.0183 0.0000
# 4 0.0000 0.0000 0.0000 38.2033 0.0000 8.9481
# 5 4.9087 8.5331 19.0183 0.0000 19.5668 0.0000
# 6 0.0000 0.0000 0.0000 8.9481 0.0000 22.7707
#
#
#
# Elastic Compliance Matrix: (Units=1/GPa)
#
#
# Indices 1 2 3 4 5 6 
#
# 1 0.026213 -0.005889 -0.006494 0.000000 0.002305 0.000000
# 2 -0.005889 0.014388 0.003898 0.000000 -0.008586 0.000000
# 3 -0.006494 0.003898 0.032451 0.000000 -0.031612 0.000000
# 4 0.000000 0.000000 0.000000 0.028829 0.000000 -0.011329
# 5 0.002305 -0.008586 -0.031612 0.000000 0.084999 0.000000
# 6 0.000000 0.000000 0.000000 -0.011329 0.000000 0.048368
#
#
# Mechanical properties :
#
#
# Convention : Reuss Voigt Hill
#
# Bulk Modulus (GPa) = 17.83133 26.77484 22.30308
# Shear Modulus (GPa) = 18.45620 25.81986 22.13803
#
# Velocity S-wave (km/s) = 2.80779 3.32101 3.07513
# Velocity P-wave (km/s) = 4.25774 5.11298 4.70483
#
# Compressibility (1/GPa) = 0.05608108
#
# Stress axis : x y z
#
# Youngs Moduli (GPa) = 38.14943 69.50414 30.81554
#
# Poissons Ratio (x) = 0.40928 0.20013
# Poissons Ratio (y) = 0.22464 -0.12011
# Poissons Ratio (z) = 0.24776 -0.27091
#
# Static dielectric constant tensor:
#      x y z
#    x 1.875790 0.000000 -0.007370 
#    y 0.000000 1.954300 0.000000 
#    z -0.007370 0.000000 1.862120 
# 
# From -- ./inp_files/72472.got.cif
#   From: 2010.05.17/outbox.cif.g08.bks.cpg/sg14_37_cif.got.tgz:72472.got - 2010.06.03 17:49:19.
