data_PCOD9247380
_publ_section_title
;
Structure prediction by ZEFSAII (Michael W. Deem and Ramdas Pophale) SiO2 
 PCOD9247380
Probable space group: P 21/C
;
_chemical_formula_sum "Si O2"
_cell_formula_units_Z 28
_cell_length_a 16.685731
_cell_length_b 7.123332
_cell_length_c 23.467873
_cell_angle_alpha 90.000000
_cell_angle_beta 152.871315
_cell_angle_gamma 90.000000
_cell_volume 1271.914679
_symmetry_space_group_name_H-M "P 21/C"
_symmetry_group_IT_number 14
_symmetry_cell_setting 'monoclinic'
loop_
_space_group_symop_operation_xyz
x,y,z
-x,1/2+y,1/2-z
-x,-y,-z
x,1/2-y,1/2+z
loop_
_atom_site_type_symbol
_atom_site_label
_atom_site_fract_x
_atom_site_fract_y
_atom_site_fract_z
Si Si1 0.970622 0.494374 0.414010
Si Si2 0.580158 0.441518 0.150654
Si Si3 0.706527 0.052478 0.177971
Si Si4 0.967908 0.553722 0.045782
Si Si5 0.315383 0.916834 0.073144
Si Si6 0.592883 0.652788 0.842662
Si Si7 0.615932 0.219482 0.010359
O O1 0.771559 0.538363 0.271133
O O2 0.997397 0.273843 0.420310
O O3 0.000000 0.500000 0.500000
O O4 0.123316 0.608500 0.479377
O O5 0.613664 0.228332 0.151870
O O6 0.516311 0.437359 0.175311
O O7 0.436306 0.561195 0.024876
O O8 0.877388 0.972254 0.317625
O O9 0.563077 0.889170 0.086647
O O10 0.746980 0.144555 0.141924
O O11 0.000000 0.500000 0.000000
O O12 0.765492 0.533576 0.935365
O O13 0.468692 0.830396 0.209217
O O14 0.326639 0.843435 0.016170
O O15 0.352364 0.140721 0.100953
#
# Coordination Sequence:
#
# PCOD9247380 Si02
#       7
#     4   4   4   4   4   4   4
#     4  10  22  37  59  93 131 159 204 270 323 368
#     4  11  22  42  66  94 125 166 217 264 319 383
#     4  10  23  45  63  92 129 162 214 267 315 386
#     4  10  23  38  63  92 126 164 207 266 325 374
#     4  11  22  39  61  95 131 166 211 263 325 381
#     4  11  22  37  62  96 128 165 215 265 317 382
#     4  11  23  41  69  89 123 176 209 256 327 385
#
# _framework density 22.014054000000002
#
# number of rings (size 3 to 8) (size 9 to 14) (size 15 to 20)
#    0.000    1.429    2.857    2.143    6.000    1.143 
#    0.000    5.714    0.000    0.000    0.000    0.000 
#    0.000    0.000    0.000    0.000    0.000    0.000 
#
# Total GULP energy -156461.550054 kJ/mol
# GULP energy per Si atom -5587.912502 kJ/mol
# Density = 2.196395 g / cm^3
# Si number density = 22.014054 Si / 1000 Ang^3
#
#
#
# Elastic Constant Matrix: (Units=GPa)
#
#
# Indices 1 2 3 4 5 6 
#
# 1 142.6572 7.8210 45.1155 0.0000 -3.9741 0.0000
# 2 7.8210 71.3596 9.5235 0.0000 10.9781 0.0000
# 3 45.1155 9.5235 95.3101 0.0000 -0.9214 0.0000
# 4 0.0000 0.0000 0.0000 23.8208 0.0000 -10.2341
# 5 -3.9741 10.9781 -0.9214 0.0000 38.4866 0.0000
# 6 0.0000 0.0000 0.0000 -10.2341 0.0000 14.1502
#
#
#
# Elastic Compliance Matrix: (Units=1/GPa)
#
#
# Indices 1 2 3 4 5 6 
#
# 1 0.008285 -0.000534 -0.003860 0.000000 0.000915 0.000000
# 2 -0.000534 0.014910 -0.001279 0.000000 -0.004339 0.000000
# 3 -0.003860 -0.001279 0.012449 0.000000 0.000264 0.000000
# 4 0.000000 0.000000 0.000000 0.060905 0.000000 0.044050
# 5 0.000915 -0.004339 0.000264 0.000000 0.027322 0.000000
# 6 0.000000 0.000000 0.000000 0.044050 0.000000 0.102530
#
#
# Mechanical properties :
#
#
# Convention : Reuss Voigt Hill
#
# Bulk Modulus (GPa) = 41.15272 48.24965 44.70119
# Shear Modulus (GPa) = 20.33792 31.74930 26.04361
#
# Velocity S-wave (km/s) = 3.04281 3.80179 3.44327
# Velocity P-wave (km/s) = 5.57488 6.42158 6.01315
#
# Compressibility (1/GPa) = 0.02429973
#
# Stress axis : x y z
#
# Youngs Moduli (GPa) = 120.69726 67.06803 80.32504
#
# Poissons Ratio (x) = 0.03580 0.31003
# Poissons Ratio (y) = 0.06443 0.10275
# Poissons Ratio (z) = 0.46585 0.08579
#
# Static dielectric constant tensor:
#      x y z
#    x 1.780110 0.000000 0.006030 
#    y 0.000000 1.811800 0.000000 
#    z 0.006030 0.000000 1.812100 
# 
# From -- ./inp_files/68375.got.cif
#   From: 2010.05.17/outbox.cif.g08.bks.cpg/sg14_35_cif.got.tgz:68375.got - 2010.06.03 17:49:19.
