data_PCOD9247520
_publ_section_title
;
Structure prediction by ZEFSAII (Michael W. Deem and Ramdas Pophale) SiO2 
 PCOD9247520
Probable space group: P 21/C
;
_chemical_formula_sum "Si O2"
_cell_formula_units_Z 26
_cell_length_a 14.701633
_cell_length_b 12.278948
_cell_length_c 8.945706
_cell_angle_alpha 90.000000
_cell_angle_beta 39.762384
_cell_angle_gamma 90.000000
_cell_volume 1032.888212
_symmetry_space_group_name_H-M "P 21/C"
_symmetry_group_IT_number 14
_symmetry_cell_setting 'monoclinic'
loop_
_space_group_symop_operation_xyz
x,y,z
-x,1/2+y,1/2-z
-x,-y,-z
x,1/2-y,1/2+z
loop_
_atom_site_type_symbol
_atom_site_label
_atom_site_fract_x
_atom_site_fract_y
_atom_site_fract_z
Si Si1 0.873139 0.334610 0.449538
Si Si2 0.457171 0.602779 0.651049
Si Si3 0.000000 0.500000 0.500000
Si Si4 0.221226 0.372619 0.726146
Si Si5 0.352216 0.975733 0.603580
Si Si6 0.187143 0.628975 0.820143
Si Si7 0.131797 0.157059 0.996400
O O1 0.987043 0.421823 0.363828
O O2 0.730796 0.381240 0.707438
O O3 0.907829 0.215062 0.467842
O O4 0.839362 0.342600 0.318105
O O5 0.500000 0.500000 0.500000
O O6 0.609718 0.655893 0.487565
O O7 0.341673 0.658694 0.692525
O O8 0.386606 0.561334 0.893072
O O9 0.015301 0.608008 0.376679
O O10 0.183161 0.495944 0.828808
O O11 0.153538 0.279799 0.915714
O O12 0.179100 0.365971 0.604950
O O13 0.500000 0.000000 0.500000
O O14 0.235265 0.074259 0.763496
#
# Coordination Sequence:
#
# PCOD9247520 Si02
#       7
#     4   4   2   4   4   4   4
#     4  11  24  44  73  96 140 187 234 296 345 415
#     4  10  22  38  65 105 151 177 225 279 344 440
#     4  10  24  52  70 100 134 188 244 294 354 408
#     4  11  24  45  64 108 141 183 230 285 351 431
#     4  11  20  41  67  99 141 193 225 283 354 410
#     4  11  23  44  66 105 140 181 238 282 349 429
#     4  11  25  44  74  96 145 185 236 293 350 414
#
# _framework density 25.172132999999999
#
# number of rings (size 3 to 8) (size 9 to 14) (size 15 to 20)
#    0.000    1.231    4.615    1.846    6.462    2.462 
#    2.769    0.769    0.000    0.000    0.000    0.000 
#    0.000    0.000    0.000    0.000    0.000    0.000 
#
# Total GULP energy -144922.817518 kJ/mol
# GULP energy per Si atom -5573.954520 kJ/mol
# Density = 2.511484 g / cm^3
# Si number density = 25.172133 Si / 1000 Ang^3
#
#
#
# Elastic Constant Matrix: (Units=GPa)
#
#
# Indices 1 2 3 4 5 6 
#
# 1 149.0612 37.4741 35.0656 0.0000 41.7302 0.0000
# 2 37.4741 210.6539 55.9162 0.0000 27.1431 0.0000
# 3 35.0656 55.9162 64.2199 0.0000 26.7961 0.0000
# 4 0.0000 0.0000 0.0000 32.4081 0.0000 1.8312
# 5 41.7302 27.1431 26.7961 0.0000 50.1304 0.0000
# 6 0.0000 0.0000 0.0000 1.8312 0.0000 37.4966
#
#
#
# Elastic Compliance Matrix: (Units=1/GPa)
#
#
# Indices 1 2 3 4 5 6 
#
# 1 0.009013 -0.000239 -0.002106 0.000000 -0.006248 0.000000
# 2 -0.000239 0.006195 -0.005080 0.000000 -0.000440 0.000000
# 3 -0.002106 -0.005080 0.024795 0.000000 -0.008750 0.000000
# 4 0.000000 0.000000 0.000000 0.030942 0.000000 -0.001511
# 5 -0.006248 -0.000440 -0.008750 0.000000 0.030064 0.000000
# 6 0.000000 0.000000 0.000000 -0.001511 0.000000 0.026743
#
#
# Mechanical properties :
#
#
# Convention : Reuss Voigt Hill
#
# Bulk Modulus (GPa) = 39.75663 75.64964 57.70313
# Shear Modulus (GPa) = 33.11550 43.70563 38.41057
#
# Velocity S-wave (km/s) = 3.63100 4.17138 3.91054
# Velocity P-wave (km/s) = 5.77989 7.30197 6.58505
#
# Compressibility (1/GPa) = 0.02515304
#
# Stress axis : x y z
#
# Youngs Moduli (GPa) = 110.94679 161.42901 40.33009
#
# Poissons Ratio (x) = 0.03863 0.08495
# Poissons Ratio (y) = 0.02655 0.20486
# Poissons Ratio (z) = 0.23369 0.81998
#
# Static dielectric constant tensor:
#      x y z
#    x 1.922130 0.000000 -0.106850 
#    y 0.000000 1.952650 0.000000 
#    z -0.106850 0.000000 2.111730 
# 
# From -- ./inp_files/12478.got.cif
#   From: 2010.05.17/outbox.cif.g08.bks.cpg/sg14_7_cif.got.tgz:12478.got - 2010.06.03 17:49:19.
