data_PCOD9247311
_publ_section_title
;
Structure prediction by ZEFSAII (Michael W. Deem and Ramdas Pophale) SiO2 
 PCOD9247311
Probable space group: P 21/C
;
_chemical_formula_sum "Si O2"
_cell_formula_units_Z 32
_cell_length_a 9.139530
_cell_length_b 24.325791
_cell_length_c 11.920876
_cell_angle_alpha 90.000000
_cell_angle_beta 27.586088
_cell_angle_gamma 90.000000
_cell_volume 1227.314369
_symmetry_space_group_name_H-M "P 21/C"
_symmetry_group_IT_number 14
_symmetry_cell_setting 'monoclinic'
loop_
_space_group_symop_operation_xyz
x,y,z
-x,1/2+y,1/2-z
-x,-y,-z
x,1/2-y,1/2+z
loop_
_atom_site_type_symbol
_atom_site_label
_atom_site_fract_x
_atom_site_fract_y
_atom_site_fract_z
Si Si1 0.117159 0.244356 0.185332
Si Si2 0.803927 0.919520 0.582113
Si Si3 0.222180 0.748745 0.288497
Si Si4 0.200842 0.332912 0.324758
Si Si5 0.528702 0.473788 0.166981
Si Si6 0.877091 0.154591 0.478645
Si Si7 0.107303 0.589884 0.637697
Si Si8 0.061901 0.532260 0.309591
O O1 0.426517 0.255891 0.902959
O O2 0.812505 0.259964 0.320355
O O3 0.163984 0.284490 0.257522
O O4 0.112169 0.181078 0.227449
O O5 0.726518 0.983306 0.608363
O O6 0.047772 0.903143 0.514457
O O7 0.955225 0.896698 0.362530
O O8 0.469699 0.896044 0.858320
O O9 0.056991 0.689582 0.412749
O O10 0.087961 0.801151 0.444077
O O11 0.101013 0.384751 0.319706
O O12 0.536095 0.337762 0.155058
O O13 0.310318 0.516415 0.238652
O O14 0.256955 0.441908 0.422507
O O15 0.738861 0.443402 0.928887
O O16 0.069403 0.524521 0.652499
#
# Coordination Sequence:
#
# PCOD9247311 Si02
#       8
#     4   4   4   4   4   4   4   4
#     4  11  23  39  56  74 101 139 183 225 270 322
#     4  10  22  36  56  84 110 143 180 221 268 318
#     4  11  23  39  56  74 101 139 183 225 270 322
#     4  11  24  36  53  78 105 140 178 226 275 320
#     4   8  14  28  50  77 107 136 172 215 258 307
#     4  11  24  36  53  78 105 140 178 226 275 320
#     4  10  22  36  56  84 110 143 180 221 268 318
#     4   8  14  28  50  77 107 136 172 215 258 307
#
# _framework density 26.073188999999999
#
# number of rings (size 3 to 8) (size 9 to 14) (size 15 to 20)
#    0.000    2.000    2.500    0.750    7.000    0.000 
#    0.000    0.000    0.000    0.750    0.000    0.000 
#    0.000   21.000    0.000    0.000    0.000    3.000 
#
# Total GULP energy -178706.952126 kJ/mol
# GULP energy per Si atom -5584.592254 kJ/mol
# Density = 2.601384 g / cm^3
# Si number density = 26.073189 Si / 1000 Ang^3
#
#
#
# Elastic Constant Matrix: (Units=GPa)
#
#
# Indices 1 2 3 4 5 6 
#
# 1 139.6868 18.1902 47.9449 0.0000 3.4968 0.0000
# 2 18.1902 65.6537 29.8512 0.0000 14.0738 0.0000
# 3 47.9449 29.8512 163.1225 0.0000 11.5328 0.0000
# 4 0.0000 0.0000 0.0000 26.2595 0.0000 2.3198
# 5 3.4968 14.0738 11.5328 0.0000 28.6794 0.0000
# 6 0.0000 0.0000 0.0000 2.3198 0.0000 39.1043
#
#
#
# Elastic Compliance Matrix: (Units=1/GPa)
#
#
# Indices 1 2 3 4 5 6 
#
# 1 0.008065 -0.001373 -0.002159 0.000000 0.000558 0.000000
# 2 -0.001373 0.018397 -0.002405 0.000000 -0.007894 0.000000
# 3 -0.002159 -0.002405 0.007311 0.000000 -0.001496 0.000000
# 4 0.000000 0.000000 0.000000 0.038282 0.000000 -0.002271
# 5 0.000558 -0.007894 -0.001496 0.000000 0.039276 0.000000
# 6 0.000000 0.000000 0.000000 -0.002271 0.000000 0.025707
#
#
# Mechanical properties :
#
#
# Convention : Reuss Voigt Hill
#
# Bulk Modulus (GPa) = 45.66231 62.27062 53.96646
# Shear Modulus (GPa) = 32.00812 36.97376 34.49094
#
# Velocity S-wave (km/s) = 3.50755 3.76982 3.64105
# Velocity P-wave (km/s) = 5.82709 6.54856 6.19833
#
# Compressibility (1/GPa) = 0.02189990
#
# Stress axis : x y z
#
# Youngs Moduli (GPa) = 123.99962 54.35549 136.78468
#
# Poissons Ratio (x) = 0.07461 0.29527
# Poissons Ratio (y) = 0.17020 0.32899
# Poissons Ratio (z) = 0.26767 0.13074
#
# Static dielectric constant tensor:
#      x y z
#    x 2.057020 0.000000 0.074740 
#    y 0.000000 2.040290 0.000000 
#    z 0.074740 0.000000 2.203800 
# 
# From -- ./inp_files/27168.got.cif
#   From: 2010.05.17/outbox.cif.g08.bks.cpg/sg14_14_cif.got.tgz:27168.got - 2010.06.03 17:49:19.
