data_PCOD9247092
_publ_section_title
;
Structure prediction by ZEFSAII (Michael W. Deem and Ramdas Pophale) SiO2 
 PCOD9247092
Probable space group: P 21/C
;
_chemical_formula_sum "Si O2"
_cell_formula_units_Z 24
_cell_length_a 7.152550
_cell_length_b 17.266141
_cell_length_c 9.970551
_cell_angle_alpha 90.000000
_cell_angle_beta 79.431331
_cell_angle_gamma 90.000000
_cell_volume 1210.443926
_symmetry_space_group_name_H-M "P 21/C"
_symmetry_group_IT_number 14
_symmetry_cell_setting 'monoclinic'
loop_
_space_group_symop_operation_xyz
x,y,z
-x,1/2+y,1/2-z
-x,-y,-z
x,1/2-y,1/2+z
loop_
_atom_site_type_symbol
_atom_site_label
_atom_site_fract_x
_atom_site_fract_y
_atom_site_fract_z
Si Si1 0.352908 0.527755 0.318613
Si Si2 0.254615 0.594945 0.065621
Si Si3 0.555552 0.251738 0.865170
Si Si4 0.943398 0.547408 0.294765
Si Si5 0.611609 0.664813 0.369386
Si Si6 0.336009 0.912222 0.242239
O O1 0.382316 0.547400 0.156081
O O2 0.454244 0.595852 0.386800
O O3 0.457876 0.447123 0.325638
O O4 0.127177 0.532537 0.363333
O O5 0.299647 0.683291 0.100287
O O6 0.043432 0.569059 0.138762
O O7 0.302692 0.582919 0.905967
O O8 0.429911 0.288297 0.762263
O O9 0.669102 0.176752 0.798596
O O10 0.425179 0.222231 0.003717
O O11 0.810571 0.619610 0.349300
O O12 0.816073 0.470969 0.301282
#
# Coordination Sequence:
#
# PCOD9247092 Si02
#       6
#     4   4   4   4   4   4
#     4   8  20  37  62  87 119 157 200 254 294 359
#     4   9  19  39  59  88 127 154 201 254 296 358
#     4  11  22  40  64  87 127 165 200 251 313 363
#     4   9  21  39  62  92 120 161 206 255 296 362
#     4  10  21  44  58  86 126 163 198 254 309 358
#     4  11  19  38  65  89 119 167 205 244 307 363
#
# _framework density 19.827435999999999
#
# number of rings (size 3 to 8) (size 9 to 14) (size 15 to 20)
#    1.000    1.333    1.667    1.000    0.000    2.667 
#    9.000    1.667    0.000    0.000    0.000    0.000 
#    0.000    0.000    0.000    0.000    0.000    0.000 
#
# Total GULP energy -133792.772965 kJ/mol
# GULP energy per Si atom -5574.698874 kJ/mol
# Density = 1.978231 g / cm^3
# Si number density = 19.827436 Si / 1000 Ang^3
#
#
#
# Elastic Constant Matrix: (Units=GPa)
#
#
# Indices 1 2 3 4 5 6 
#
# 1 110.8922 50.7318 32.1183 0.0000 -14.5956 0.0000
# 2 50.7318 89.1072 6.9675 0.0000 -7.0235 0.0000
# 3 32.1183 6.9675 80.3993 0.0000 4.3281 0.0000
# 4 0.0000 0.0000 0.0000 29.7467 0.0000 -8.9572
# 5 -14.5956 -7.0235 4.3281 0.0000 18.5460 0.0000
# 6 0.0000 0.0000 0.0000 -8.9572 0.0000 10.7760
#
#
#
# Elastic Compliance Matrix: (Units=1/GPa)
#
#
# Indices 1 2 3 4 5 6 
#
# 1 0.015745 -0.007614 -0.006220 0.000000 0.010959 0.000000
# 2 -0.007614 0.015376 0.001740 0.000000 -0.000575 0.000000
# 3 -0.006220 0.001740 0.015191 0.000000 -0.007781 0.000000
# 4 0.000000 0.000000 0.000000 0.044840 0.000000 0.037272
# 5 0.010959 -0.000575 -0.007781 0.000000 0.064143 0.000000
# 6 0.000000 0.000000 0.000000 0.037272 0.000000 0.123780
#
#
# Mechanical properties :
#
#
# Convention : Reuss Voigt Hill
#
# Bulk Modulus (GPa) = 45.19976 51.11488 48.15732
# Shear Modulus (GPa) = 16.09590 24.51913 20.30751
#
# Velocity S-wave (km/s) = 2.85230 3.52038 3.20380
# Velocity P-wave (km/s) = 5.80461 6.50845 6.16658
#
# Compressibility (1/GPa) = 0.02212401
#
# Stress axis : x y z
#
# Youngs Moduli (GPa) = 63.51174 65.03655 65.82929
#
# Poissons Ratio (x) = 0.49519 0.40946
# Poissons Ratio (y) = 0.48358 -0.11455
# Poissons Ratio (z) = 0.39505 -0.11317
#
# Static dielectric constant tensor:
#      x y z
#    x 1.678480 0.000000 0.002150 
#    y 0.000000 1.672390 0.000000 
#    z 0.002150 0.000000 1.730220 
# 
# From -- ./inp_files/25643.got.cif
#   From: 2010.05.17/outbox.cif.g08.bks.cpg/sg14_13_cif.got.tgz:25643.got - 2010.06.03 17:49:19.
