data_PCOD9247442
_publ_section_title
;
Structure prediction by ZEFSAII (Michael W. Deem and Ramdas Pophale) SiO2 
 PCOD9247442
Probable space group: P 21/C
;
_chemical_formula_sum "Si O2"
_cell_formula_units_Z 30
_cell_length_a 8.054290
_cell_length_b 30.964113
_cell_length_c 5.377811
_cell_angle_alpha 90.000000
_cell_angle_beta 120.199848
_cell_angle_gamma 90.000000
_cell_volume 1159.161540
_symmetry_space_group_name_H-M "P 21/C"
_symmetry_group_IT_number 14
_symmetry_cell_setting 'monoclinic'
loop_
_space_group_symop_operation_xyz
x,y,z
-x,1/2+y,1/2-z
-x,-y,-z
x,1/2-y,1/2+z
loop_
_atom_site_type_symbol
_atom_site_label
_atom_site_fract_x
_atom_site_fract_y
_atom_site_fract_z
Si Si1 0.000000 0.500000 0.000000
Si Si2 0.931207 0.632979 0.178649
Si Si3 0.004262 0.577782 0.814236
Si Si4 0.350884 0.741096 0.416337
Si Si5 0.417999 0.594751 0.985380
Si Si6 0.768843 0.774802 0.712556
Si Si7 0.230944 0.044244 0.232818
Si Si8 0.391482 0.857120 0.975976
O O1 0.903589 0.450974 0.892752
O O2 0.840368 0.513363 0.108363
O O3 0.160111 0.640887 0.334358
O O4 0.840928 0.677418 0.203777
O O5 0.857041 0.593366 0.297513
O O6 0.893121 0.616256 0.866021
O O7 0.189604 0.589176 0.798352
O O8 0.864879 0.537612 0.615646
O O9 0.237616 0.751395 0.579363
O O10 0.534657 0.772648 0.545433
O O11 0.433879 0.693236 0.488925
O O12 0.478578 0.620193 0.783254
O O13 0.543939 0.551723 0.096530
O O14 0.450063 0.620539 0.264107
O O15 0.825046 0.743816 0.524084
#
# Coordination Sequence:
#
# PCOD9247442 Si02
#       8
#     2   4   4   4   4   4   4   4
#     4  10  24  46  70 110 146 178 230 286 358 416
#     4  10  24  42  68  96 138 183 238 284 354 409
#     4  10  23  48  69 106 143 182 231 293 343 428
#     4  10  22  38  58  88 131 175 219 293 341 403
#     4  11  26  42  74 104 134 186 237 278 346 416
#     4  10  24  37  59  95 130 176 230 288 336 413
#     4  11  24  43  75 100 139 190 224 292 344 426
#     4  11  24  44  65  98 139 179 235 296 339 416
#
# _framework density 25.880773000000001
#
# number of rings (size 3 to 8) (size 9 to 14) (size 15 to 20)
#    0.000    1.600    1.333    1.200   13.067    1.600 
#    0.000    1.333    0.000    0.000    0.000    0.000 
#    0.000    0.000    0.000    0.000    0.000    0.000 
#
# Total GULP energy -167331.142506 kJ/mol
# GULP energy per Si atom -5577.704750 kJ/mol
# Density = 2.582187 g / cm^3
# Si number density = 25.880773 Si / 1000 Ang^3
#
#
#
# Elastic Constant Matrix: (Units=GPa)
#
#
# Indices 1 2 3 4 5 6 
#
# 1 90.7659 1.0382 34.0514 0.0000 -10.8712 0.0000
# 2 1.0382 90.5964 -3.1167 0.0000 -9.9465 0.0000
# 3 34.0514 -3.1167 109.7282 0.0000 -22.1817 0.0000
# 4 0.0000 0.0000 0.0000 20.9777 0.0000 -16.2834
# 5 -10.8712 -9.9465 -22.1817 0.0000 35.7002 0.0000
# 6 0.0000 0.0000 0.0000 -16.2834 0.0000 37.6435
#
#
#
# Elastic Compliance Matrix: (Units=1/GPa)
#
#
# Indices 1 2 3 4 5 6 
#
# 1 0.012549 -0.000094 -0.003579 0.000000 0.001571 0.000000
# 2 -0.000094 0.011505 0.001142 0.000000 0.003886 0.000000
# 3 -0.003579 0.001142 0.011552 0.000000 0.006405 0.000000
# 4 0.000000 0.000000 0.000000 0.071767 0.000000 0.031044
# 5 0.001571 0.003886 0.006405 0.000000 0.033552 0.000000
# 6 0.000000 0.000000 0.000000 0.031044 0.000000 0.039994
#
#
# Mechanical properties :
#
#
# Convention : Reuss Voigt Hill
#
# Bulk Modulus (GPa) = 32.74248 39.44847 36.09548
# Shear Modulus (GPa) = 25.48889 36.13879 30.81384
#
# Velocity S-wave (km/s) = 3.14165 3.74084 3.45426
# Velocity P-wave (km/s) = 5.08318 5.82529 5.46684
#
# Compressibility (1/GPa) = 0.03054136
#
# Stress axis : x y z
#
# Youngs Moduli (GPa) = 79.68460 86.91902 86.56870
#
# Poissons Ratio (x) = 0.00821 0.30987
# Poissons Ratio (y) = 0.00753 -0.09883
# Poissons Ratio (z) = 0.28523 -0.09923
#
# Static dielectric constant tensor:
#      x y z
#    x 1.997780 0.000000 -0.070730 
#    y 0.000000 1.965990 0.000000 
#    z -0.070730 0.000000 1.302270 
# 
# From -- ./inp_files/2118.got.cif
#   From: 2010.05.17/outbox.cif.g08.bks.cpg/sg14_2_cif.got.tgz:2118.got - 2010.06.03 17:49:19.
