data_PCOD9247251
_publ_section_title
;
Structure prediction by ZEFSAII (Michael W. Deem and Ramdas Pophale) SiO2 
 PCOD9247251
Probable space group: P 21/C
;
_chemical_formula_sum "Si O2"
_cell_formula_units_Z 28
_cell_length_a 24.957448
_cell_length_b 7.359886
_cell_length_c 14.702201
_cell_angle_alpha 90.000000
_cell_angle_beta 151.276984
_cell_angle_gamma 90.000000
_cell_volume 1297.823182
_symmetry_space_group_name_H-M "P 21/C"
_symmetry_group_IT_number 14
_symmetry_cell_setting 'monoclinic'
loop_
_space_group_symop_operation_xyz
x,y,z
-x,1/2+y,1/2-z
-x,-y,-z
x,1/2-y,1/2+z
loop_
_atom_site_type_symbol
_atom_site_label
_atom_site_fract_x
_atom_site_fract_y
_atom_site_fract_z
Si Si1 0.939718 0.992902 0.313188
Si Si2 0.734520 0.708004 0.301235
Si Si3 0.981103 0.794569 0.212269
Si Si4 0.673647 0.379089 0.095856
Si Si5 0.446894 0.406830 0.832082
Si Si6 0.774122 0.380323 0.884818
Si Si7 0.296130 0.694142 0.540907
O O1 0.995419 0.130984 0.323091
O O2 0.956381 0.799691 0.285219
O O3 0.814204 0.068934 0.134448
O O4 0.000000 0.000000 0.500000
O O5 0.860688 0.632099 0.500836
O O6 0.682334 0.586080 0.143795
O O7 0.661167 0.687351 0.283976
O O8 0.741565 0.923205 0.298950
O O9 0.102497 0.888216 0.388588
O O10 0.761769 0.261714 0.284937
O O11 0.550067 0.306505 0.938796
O O12 0.697754 0.343891 0.027587
O O13 0.400016 0.557947 0.694138
O O14 0.500000 0.500000 0.000000
O O15 0.702413 0.293591 0.859397
#
# Coordination Sequence:
#
# PCOD9247251 Si02
#       7
#     4   4   4   4   4   4   4
#     4  11  23  42  70 102 142 187 233 293 359 433
#     4  11  22  43  71  96 136 189 233 282 361 424
#     4  11  21  42  69  99 143 182 233 294 358 418
#     4  11  25  46  67 101 144 178 239 293 355 416
#     4  10  21  46  70  92 139 184 229 298 344 415
#     4  11  23  43  71 100 137 189 226 294 359 419
#     4  11  23  45  69 101 143 181 233 298 351 414
#
# _framework density 21.574587999999999
#
# number of rings (size 3 to 8) (size 9 to 14) (size 15 to 20)
#    0.000    1.143    5.714    1.714    0.000    1.714 
#   10.286    2.143    0.000    0.000    0.000    0.000 
#    0.000    0.000    0.000    0.000    0.000    0.000 
#
# Total GULP energy -155880.742012 kJ/mol
# GULP energy per Si atom -5567.169358 kJ/mol
# Density = 2.152548 g / cm^3
# Si number density = 21.574588 Si / 1000 Ang^3
#
#
#
# Elastic Constant Matrix: (Units=GPa)
#
#
# Indices 1 2 3 4 5 6 
#
# 1 47.7155 1.3199 18.4144 0.0000 -9.6857 0.0000
# 2 1.3199 79.9519 23.9366 0.0000 -10.4721 0.0000
# 3 18.4144 23.9366 87.0225 0.0000 9.7780 0.0000
# 4 0.0000 0.0000 0.0000 21.2834 0.0000 -10.9090
# 5 -9.6857 -10.4721 9.7780 0.0000 47.9756 0.0000
# 6 0.0000 0.0000 0.0000 -10.9090 0.0000 20.2372
#
#
#
# Elastic Compliance Matrix: (Units=1/GPa)
#
#
# Indices 1 2 3 4 5 6 
#
# 1 0.024901 0.002518 -0.006743 0.000000 0.006951 0.000000
# 2 0.002518 0.014608 -0.005083 0.000000 0.004733 0.000000
# 3 -0.006743 -0.005083 0.014936 0.000000 -0.005515 0.000000
# 4 0.000000 0.000000 0.000000 0.064923 0.000000 0.034997
# 5 0.006951 0.004733 -0.005515 0.000000 0.024404 0.000000
# 6 0.000000 0.000000 0.000000 0.034997 0.000000 0.068280
#
#
# Mechanical properties :
#
#
# Convention : Reuss Voigt Hill
#
# Bulk Modulus (GPa) = 27.90979 33.55906 30.73442
# Shear Modulus (GPa) = 20.60924 29.30053 24.95489
#
# Velocity S-wave (km/s) = 3.09407 3.68924 3.40469
# Velocity P-wave (km/s) = 5.07237 5.80827 5.45275
#
# Compressibility (1/GPa) = 0.03582972
#
# Stress axis : x y z
#
# Youngs Moduli (GPa) = 40.15881 68.45789 66.95323
#
# Poissons Ratio (x) = -0.17239 0.45146
# Poissons Ratio (y) = -0.10113 0.34030
# Poissons Ratio (z) = 0.27079 0.34794
#
# Static dielectric constant tensor:
#      x y z
#    x 1.785430 0.000000 0.039330 
#    y 0.000000 1.963080 0.000000 
#    z 0.039330 0.000000 1.804290 
# 
# From -- ./inp_files/51146.got.cif
#   From: 2010.05.17/outbox.cif.g08.bks.cpg/sg14_26_cif.got.tgz:51146.got - 2010.06.03 17:49:19.
