data_PCOD9247998
_publ_section_title
;
Structure prediction by ZEFSAII (Michael W. Deem and Ramdas Pophale) SiO2 
 PCOD9247998
Probable space group: P 21/C
;
_chemical_formula_sum "Si O2"
_cell_formula_units_Z 22
_cell_length_a 5.918634
_cell_length_b 11.690936
_cell_length_c 13.177951
_cell_angle_alpha 90.000000
_cell_angle_beta 117.486503
_cell_angle_gamma 90.000000
_cell_volume 808.911150
_symmetry_space_group_name_H-M "P 21/C"
_symmetry_group_IT_number 14
_symmetry_cell_setting 'monoclinic'
loop_
_space_group_symop_operation_xyz
x,y,z
-x,1/2+y,1/2-z
-x,-y,-z
x,1/2-y,1/2+z
loop_
_atom_site_type_symbol
_atom_site_label
_atom_site_fract_x
_atom_site_fract_y
_atom_site_fract_z
Si Si1 0.952291 0.049368 0.817196
Si Si2 0.026420 0.163325 0.623891
Si Si3 0.431532 0.134837 0.195807
Si Si4 0.500000 0.000000 0.000000
Si Si5 0.010873 0.687557 0.113139
Si Si6 0.495971 0.216925 0.985578
O O1 0.002330 0.072058 0.707945
O O2 0.942623 0.174638 0.867476
O O3 0.705464 0.972314 0.782935
O O4 0.184372 0.981158 0.914192
O O5 0.259828 0.252854 0.683299
O O6 0.028229 0.133341 0.505628
O O7 0.753071 0.226246 0.571809
O O8 0.426601 0.131391 0.069908
O O9 0.725174 0.143170 0.287535
O O10 0.499055 0.890469 0.085899
O O11 0.715949 0.691685 0.089515
#
# Coordination Sequence:
#
# PCOD9247998 Si02
#       6
#     4   4   4   2   4   4
#     4  11  24  43  72 106 134 181 236 278 345 412
#     4  11  24  43  67  99 141 181 227 286 348 403
#     4  11  24  42  68 102 136 180 235 281 339 416
#     4  10  22  40  74  96 126 178 228 292 336 390
#     4  10  25  42  68  98 141 180 226 288 343 403
#     4  10  22  41  66 102 129 181 225 286 337 410
#
# _framework density 27.197056
#
# number of rings (size 3 to 8) (size 9 to 14) (size 15 to 20)
#    0.000    1.455    3.636    0.000    7.636    2.909 
#    0.000    0.909    0.000    0.000    0.000    0.000 
#    0.000    0.000    0.000    0.000    0.000    0.000 
#
# Total GULP energy -122680.527668 kJ/mol
# GULP energy per Si atom -5576.387621 kJ/mol
# Density = 2.713515 g / cm^3
# Si number density = 27.197056 Si / 1000 Ang^3
#
#
#
# Elastic Constant Matrix: (Units=GPa)
#
#
# Indices 1 2 3 4 5 6 
#
# 1 115.3939 63.0826 39.8114 0.0000 28.0894 0.0000
# 2 63.0826 99.4205 36.7125 0.0000 23.2988 0.0000
# 3 39.8114 36.7125 84.5463 0.0000 9.2330 0.0000
# 4 0.0000 0.0000 0.0000 46.8202 0.0000 8.2020
# 5 28.0894 23.2988 9.2330 0.0000 66.4249 0.0000
# 6 0.0000 0.0000 0.0000 8.2020 0.0000 63.5462
#
#
#
# Elastic Compliance Matrix: (Units=1/GPa)
#
#
# Indices 1 2 3 4 5 6 
#
# 1 0.014559 -0.007261 -0.003360 0.000000 -0.003143 0.000000
# 2 -0.007261 0.016476 -0.003493 0.000000 -0.002223 0.000000
# 3 -0.003360 -0.003493 0.014863 0.000000 0.000580 0.000000
# 4 0.000000 0.000000 0.000000 0.021852 0.000000 -0.002821
# 5 -0.003143 -0.002223 0.000580 0.000000 0.017083 0.000000
# 6 0.000000 0.000000 0.000000 -0.002821 0.000000 0.016101
#
#
# Mechanical properties :
#
#
# Convention : Reuss Voigt Hill
#
# Bulk Modulus (GPa) = 56.58550 64.28595 60.43572
# Shear Modulus (GPa) = 37.02291 46.00854 41.51573
#
# Velocity S-wave (km/s) = 3.69356 4.11746 3.91126
# Velocity P-wave (km/s) = 6.24826 6.80390 6.53199
#
# Compressibility (1/GPa) = 0.01767237
#
# Stress axis : x y z
#
# Youngs Moduli (GPa) = 68.68382 60.69442 67.28064
#
# Poissons Ratio (x) = 0.44069 0.22604
# Poissons Ratio (y) = 0.49870 0.23498
# Poissons Ratio (z) = 0.23076 0.21198
#
# Static dielectric constant tensor:
#      x y z
#    x 2.426010 0.000000 -0.083480 
#    y 0.000000 2.405410 0.000000 
#    z -0.083480 0.000000 2.167550 
# 
# From -- ./inp_files/37415.got.cif
#   From: 2010.05.17/outbox.cif.g08.bks.cpg/sg14_19_cif.got.tgz:37415.got - 2010.06.03 17:49:19.
