data_PCOD9247020
_publ_section_title
;
Structure prediction by ZEFSAII (Michael W. Deem and Ramdas Pophale) SiO2 
 PCOD9247020
Probable space group: P 21/C
;
_chemical_formula_sum "Si O2"
_cell_formula_units_Z 20
_cell_length_a 9.438092
_cell_length_b 11.458713
_cell_length_c 12.022019
_cell_angle_alpha 90.000000
_cell_angle_beta 143.381202
_cell_angle_gamma 90.000000
_cell_volume 775.531321
_symmetry_space_group_name_H-M "P 21/C"
_symmetry_group_IT_number 14
_symmetry_cell_setting 'monoclinic'
loop_
_space_group_symop_operation_xyz
x,y,z
-x,1/2+y,1/2-z
-x,-y,-z
x,1/2-y,1/2+z
loop_
_atom_site_type_symbol
_atom_site_label
_atom_site_fract_x
_atom_site_fract_y
_atom_site_fract_z
Si Si1 0.634076 0.946381 0.819711
Si Si2 0.205959 0.450236 0.969319
Si Si3 0.518626 0.731363 0.440698
Si Si4 0.115072 0.677411 0.551318
Si Si5 0.158874 0.112766 0.699281
O O1 0.540662 0.869652 0.861748
O O2 0.429212 0.962410 0.598070
O O3 0.724384 0.077337 0.901619
O O4 0.863681 0.879585 0.920325
O O5 0.284211 0.331846 0.959626
O O6 0.199055 0.426402 0.098131
O O7 0.952531 0.511750 0.792383
O O8 0.259912 0.784613 0.253658
O O9 0.602480 0.669779 0.604789
O O10 0.048816 0.790208 0.438863
#
# Coordination Sequence:
#
# PCOD9247020 Si02
#       5
#     4   4   4   4   4
#     4  10  21  43  67  89 135 176 218 278 329 389
#     4  10  23  45  66 100 137 173 225 276 334 397
#     4  11  23  42  68  98 130 180 220 270 339 395
#     4  10  22  44  63  96 133 172 226 277 325 398
#     4  11  23  42  69  98 137 173 224 276 330 404
#
# _framework density 25.788775000000001
#
# number of rings (size 3 to 8) (size 9 to 14) (size 15 to 20)
#    0.000    1.600    4.000    0.000    2.800    0.800 
#   10.800    3.000    0.000    0.000    0.000    0.000 
#    0.000    0.000    0.000    0.000    0.000    0.000 
#
# Total GULP energy -111904.350641 kJ/mol
# GULP energy per Si atom -5595.217532 kJ/mol
# Density = 2.573008 g / cm^3
# Si number density = 25.788775 Si / 1000 Ang^3
#
#
#
# Elastic Constant Matrix: (Units=GPa)
#
#
# Indices 1 2 3 4 5 6 
#
# 1 45.1353 13.0139 27.8982 0.0000 15.7621 0.0000
# 2 13.0139 84.0472 38.5872 0.0000 9.0995 0.0000
# 3 27.8982 38.5872 110.4346 0.0000 3.4226 0.0000
# 4 0.0000 0.0000 0.0000 36.0218 0.0000 9.9838
# 5 15.7621 9.0995 3.4226 0.0000 24.1335 0.0000
# 6 0.0000 0.0000 0.0000 9.9838 0.0000 13.7296
#
#
#
# Elastic Compliance Matrix: (Units=1/GPa)
#
#
# Indices 1 2 3 4 5 6 
#
# 1 0.034708 0.000835 -0.008384 0.000000 -0.021794 0.000000
# 2 0.000835 0.014734 -0.005193 0.000000 -0.005364 0.000000
# 3 -0.008384 -0.005193 0.012814 0.000000 0.005617 0.000000
# 4 0.000000 0.000000 0.000000 0.034768 0.000000 -0.025283
# 5 -0.021794 -0.005364 0.005617 0.000000 0.056897 0.000000
# 6 0.000000 0.000000 0.000000 -0.025283 0.000000 0.091220
#
#
# Mechanical properties :
#
#
# Convention : Reuss Voigt Hill
#
# Bulk Modulus (GPa) = 27.19544 44.29064 35.74304
# Shear Modulus (GPa) = 17.67521 25.45150 21.56335
#
# Velocity S-wave (km/s) = 2.62082 3.14494 2.89477
# Velocity P-wave (km/s) = 4.44147 5.51355 5.00629
#
# Compressibility (1/GPa) = 0.03677086
#
# Stress axis : x y z
#
# Youngs Moduli (GPa) = 28.81150 67.87195 78.04249
#
# Poissons Ratio (x) = -0.05665 0.65433
# Poissons Ratio (y) = -0.02405 0.40525
# Poissons Ratio (z) = 0.24156 0.35244
#
# Static dielectric constant tensor:
#      x y z
#    x 2.003770 0.000000 0.019310 
#    y 0.000000 2.056810 0.000000 
#    z 0.019310 0.000000 2.041630 
# 
# From -- ./inp_files/44680.got.cif
#   From: 2010.05.17/outbox.cif.g08.bks.cpg/sg14_23_cif.got.tgz:44680.got - 2010.06.03 17:49:19.
