data_PCOD9247157
_publ_section_title
;
Structure prediction by ZEFSAII (Michael W. Deem and Ramdas Pophale) SiO2 
 PCOD9247157
Probable space group: P 21/C
;
_chemical_formula_sum "Si O2"
_cell_formula_units_Z 28
_cell_length_a 8.120130
_cell_length_b 8.719003
_cell_length_c 26.409038
_cell_angle_alpha 90.000000
_cell_angle_beta 40.335694
_cell_angle_gamma 90.000000
_cell_volume 1210.220114
_symmetry_space_group_name_H-M "P 21/C"
_symmetry_group_IT_number 14
_symmetry_cell_setting 'monoclinic'
loop_
_space_group_symop_operation_xyz
x,y,z
-x,1/2+y,1/2-z
-x,-y,-z
x,1/2-y,1/2+z
loop_
_atom_site_type_symbol
_atom_site_label
_atom_site_fract_x
_atom_site_fract_y
_atom_site_fract_z
Si Si1 0.217882 0.304484 0.076384
Si Si2 0.419879 0.107536 0.694127
Si Si3 0.627846 0.439507 0.615046
Si Si4 0.953115 0.257226 0.345334
Si Si5 0.169043 0.509254 0.540350
Si Si6 0.720120 0.448502 0.224371
Si Si7 0.485859 0.449911 0.927583
O O1 0.408195 0.397798 0.068327
O O2 0.939246 0.323704 0.165288
O O3 0.267713 0.128704 0.052366
O O4 0.242776 0.392208 0.016156
O O5 0.532402 0.269777 0.650056
O O6 0.115174 0.131154 0.770506
O O7 0.520048 0.067471 0.726123
O O8 0.523855 0.988247 0.628840
O O9 0.654466 0.463230 0.549332
O O10 0.429055 0.554023 0.688096
O O11 0.899335 0.459901 0.578715
O O12 0.884333 0.344869 0.412581
O O13 0.137363 0.112275 0.312945
O O14 0.698108 0.181404 0.384190
#
# Coordination Sequence:
#
# PCOD9247157 Si02
#       7
#     4   4   4   4   4   4   4
#     4  10  23  45  69  94 132 184 222 276 333 402
#     4  11  22  43  70  98 133 179 220 283 333 404
#     4  10  23  39  66 107 129 165 223 288 335 390
#     4  10  24  44  67  99 137 179 219 287 331 412
#     4  11  22  42  68 100 134 169 220 283 342 383
#     4  10  21  44  70  97 132 175 233 276 336 394
#     4  10  25  45  65  99 136 180 232 259 341 418
#
# _framework density 23.136285999999998
#
# number of rings (size 3 to 8) (size 9 to 14) (size 15 to 20)
#    0.000    1.714    2.857    0.000    6.000    4.571 
#   10.286    0.000    0.000    0.000    0.000    0.000 
#    0.000    0.000    0.000    0.000    0.000    0.000 
#
# Total GULP energy -156738.228650 kJ/mol
# GULP energy per Si atom -5597.793880 kJ/mol
# Density = 2.308363 g / cm^3
# Si number density = 23.136286 Si / 1000 Ang^3
#
#
#
# Elastic Constant Matrix: (Units=GPa)
#
#
# Indices 1 2 3 4 5 6 
#
# 1 37.9798 11.4657 23.2385 0.0000 4.6313 0.0000
# 2 11.4657 46.7076 28.3109 0.0000 11.2340 0.0000
# 3 23.2385 28.3109 168.9829 0.0000 14.8757 0.0000
# 4 0.0000 0.0000 0.0000 5.7563 0.0000 6.7857
# 5 4.6313 11.2340 14.8757 0.0000 28.3149 0.0000
# 6 0.0000 0.0000 0.0000 6.7857 0.0000 19.4834
#
#
#
# Elastic Compliance Matrix: (Units=1/GPa)
#
#
# Indices 1 2 3 4 5 6 
#
# 1 0.029961 -0.005156 -0.003151 0.000000 -0.001199 0.000000
# 2 -0.005156 0.026440 -0.003011 0.000000 -0.008065 0.000000
# 3 -0.003151 -0.003011 0.007030 0.000000 -0.001984 0.000000
# 4 0.000000 0.000000 0.000000 0.294727 0.000000 -0.102648
# 5 -0.001199 -0.008065 -0.001984 0.000000 0.039755 0.000000
# 6 0.000000 0.000000 0.000000 -0.102648 0.000000 0.087076
#
#
# Mechanical properties :
#
#
# Convention : Reuss Voigt Hill
#
# Bulk Modulus (GPa) = 24.51268 42.18897 33.35082
# Shear Modulus (GPa) = 9.59282 23.42126 16.50704
#
# Velocity S-wave (km/s) = 2.03844 3.18515 2.67398
# Velocity P-wave (km/s) = 4.01973 5.63928 4.89692
#
# Compressibility (1/GPa) = 0.04079522
#
# Stress axis : x y z
#
# Youngs Moduli (GPa) = 33.37723 37.82121 142.24661
#
# Poissons Ratio (x) = 0.19502 0.44818
# Poissons Ratio (y) = 0.17211 0.42825
# Poissons Ratio (z) = 0.10516 0.11387
#
# Static dielectric constant tensor:
#      x y z
#    x 1.844740 0.000000 -0.026350 
#    y 0.000000 1.863050 0.000000 
#    z -0.026350 0.000000 1.884140 
# 
# From -- ./inp_files/76319.got.cif
#   From: 2010.05.17/outbox.cif.g08.bks.cpg/sg14_39_cif.got.tgz:76319.got - 2010.06.03 17:49:19.
