data_PCOD9247116
_publ_section_title
;
Structure prediction by ZEFSAII (Michael W. Deem and Ramdas Pophale) SiO2 
 PCOD9247116
Probable space group: P 21/C
;
_chemical_formula_sum "Si O2"
_cell_formula_units_Z 16
_cell_length_a 7.263316
_cell_length_b 13.651245
_cell_length_c 7.525750
_cell_angle_alpha 90.000000
_cell_angle_beta 123.361581
_cell_angle_gamma 90.000000
_cell_volume 623.241272
_symmetry_space_group_name_H-M "P 21/C"
_symmetry_group_IT_number 14
_symmetry_cell_setting 'monoclinic'
loop_
_space_group_symop_operation_xyz
x,y,z
-x,1/2+y,1/2-z
-x,-y,-z
x,1/2-y,1/2+z
loop_
_atom_site_type_symbol
_atom_site_label
_atom_site_fract_x
_atom_site_fract_y
_atom_site_fract_z
Si Si1 0.367253 0.596652 0.097128
Si Si2 0.358278 0.079035 0.810573
Si Si3 0.279012 0.794331 0.184917
Si Si4 0.869305 0.600663 0.456630
O O1 0.483541 0.837207 0.180930
O O2 0.305069 0.678505 0.210024
O O3 0.813456 0.883410 0.135821
O O4 0.292800 0.644527 0.874045
O O5 0.276915 0.009364 0.606432
O O6 0.366283 0.407367 0.763211
O O7 0.500000 0.000000 0.000000
O O8 0.038408 0.817896 0.978953
O O9 0.000000 0.500000 0.500000
#
# Coordination Sequence:
#
# PCOD9247116 Si02
#       4
#     4   4   4   4
#     4  11  25  44  70 102 140 174 232 282 332 408
#     4  10  21  44  66 100 137 172 223 282 326 408
#     4  12  25  45  69 102 139 180 224 283 339 398
#     4  11  24  45  73  95 137 182 222 276 348 397
#
# _framework density 25.672243000000002
#
# number of rings (size 3 to 8) (size 9 to 14) (size 15 to 20)
#    0.000    1.000    5.000    3.750    0.000    5.000 
#    0.000    0.000    0.000    0.000    0.000    0.000 
#    0.000    0.000    0.000    0.000    0.000    0.000 
#
# Total GULP energy -89599.943138 kJ/mol
# GULP energy per Si atom -5599.996446 kJ/mol
# Density = 2.561381 g / cm^3
# Si number density = 25.672243 Si / 1000 Ang^3
#
#
#
# Elastic Constant Matrix: (Units=GPa)
#
#
# Indices 1 2 3 4 5 6 
#
# 1 153.8489 19.3842 17.8053 0.0000 5.8855 0.0000
# 2 19.3842 78.6950 -17.5020 0.0000 5.1288 0.0000
# 3 17.8053 -17.5020 51.9767 0.0000 -6.1294 0.0000
# 4 0.0000 0.0000 0.0000 32.7425 0.0000 -3.2487
# 5 5.8855 5.1288 -6.1294 0.0000 56.5800 0.0000
# 6 0.0000 0.0000 0.0000 -3.2487 0.0000 38.6383
#
#
#
# Elastic Compliance Matrix: (Units=1/GPa)
#
#
# Indices 1 2 3 4 5 6 
#
# 1 0.007244 -0.002488 -0.003425 0.000000 -0.000899 0.000000
# 2 -0.002488 0.014622 0.005723 0.000000 -0.000447 0.000000
# 3 -0.003425 0.005723 0.022610 0.000000 0.002287 0.000000
# 4 0.000000 0.000000 0.000000 0.030798 0.000000 0.002590
# 5 -0.000899 -0.000447 0.002287 0.000000 0.018056 0.000000
# 6 0.000000 0.000000 0.000000 0.002590 0.000000 0.026099
#
#
# Mechanical properties :
#
#
# Convention : Reuss Voigt Hill
#
# Bulk Modulus (GPa) = 22.67769 35.98840 29.33305
# Shear Modulus (GPa) = 37.17289 43.24770 40.21030
#
# Velocity S-wave (km/s) = 3.80936 4.10885 3.96194
# Velocity P-wave (km/s) = 5.31046 6.04641 5.69035
#
# Compressibility (1/GPa) = 0.04409621
#
# Stress axis : x y z
#
# Youngs Moduli (GPa) = 138.04323 68.39030 44.22915
#
# Poissons Ratio (x) = 0.17012 0.15149
# Poissons Ratio (y) = 0.34339 -0.25313
# Poissons Ratio (z) = 0.47283 -0.39140
#
# Static dielectric constant tensor:
#      x y z
#    x 1.986620 0.000000 -0.072280 
#    y 0.000000 2.049880 0.000000 
#    z -0.072280 0.000000 2.186140 
# 
# From -- ./inp_files/8050.got.cif
#   From: 2010.05.17/outbox.cif.g08.bks.cpg/sg14_5_cif.got.tgz:8050.got - 2010.06.03 17:49:19.
