data_PCOD9247635
_publ_section_title
;
Structure prediction by ZEFSAII (Michael W. Deem and Ramdas Pophale) SiO2 
 PCOD9247635
Probable space group: P 21/C
;
_chemical_formula_sum "Si O2"
_cell_formula_units_Z 32
_cell_length_a 5.061490
_cell_length_b 33.449031
_cell_length_c 9.485218
_cell_angle_alpha 90.000000
_cell_angle_beta 67.771482
_cell_angle_gamma 90.000000
_cell_volume 1486.521690
_symmetry_space_group_name_H-M "P 21/C"
_symmetry_group_IT_number 14
_symmetry_cell_setting 'monoclinic'
loop_
_space_group_symop_operation_xyz
x,y,z
-x,1/2+y,1/2-z
-x,-y,-z
x,1/2-y,1/2+z
loop_
_atom_site_type_symbol
_atom_site_label
_atom_site_fract_x
_atom_site_fract_y
_atom_site_fract_z
Si Si1 0.666774 0.130205 0.335146
Si Si2 0.859605 0.246125 0.639213
Si Si3 0.896970 0.539207 0.885422
Si Si4 0.603847 0.324242 0.584035
Si Si5 0.249552 0.956359 0.592963
Si Si6 0.877561 0.627394 0.853773
Si Si7 0.531460 0.328966 0.267476
Si Si8 0.043103 0.204682 0.352899
O O1 0.683402 0.137777 0.163784
O O2 0.814105 0.087920 0.339272
O O3 0.349375 0.129097 0.470093
O O4 0.823277 0.168307 0.373530
O O5 0.822436 0.287936 0.565463
O O6 0.590858 0.216176 0.702550
O O7 0.080281 0.219808 0.504441
O O8 0.931749 0.258479 0.781939
O O9 0.894769 0.495946 0.811257
O O10 0.901064 0.580993 0.803380
O O11 0.591347 0.539318 0.028108
O O12 0.143815 0.541999 0.952264
O O13 0.526791 0.330103 0.437783
O O14 0.331205 0.308464 0.723579
O O15 0.740302 0.653000 0.755619
O O16 0.189277 0.644197 0.826239
#
# Coordination Sequence:
#
# PCOD9247635 Si02
#       8
#     4   4   4   4   4   4   4   4
#     4  10  22  39  62  92 121 166 205 259 307 376
#     4  11  24  40  58  89 115 164 206 259 309 362
#     4   9  18  34  58  97 124 158 196 260 304 368
#     4  11  27  40  59  88 125 164 212 258 311 372
#     4   9  18  33  61  92 130 154 202 252 313 355
#     4  11  23  40  66  91 126 159 211 252 318 366
#     4  12  26  42  63  90 124 167 204 263 308 372
#     4  11  24  40  61  85 123 160 210 256 312 367
#
# _framework density 21.526761
#
# number of rings (size 3 to 8) (size 9 to 14) (size 15 to 20)
#    0.000    1.500    2.500    2.250   10.500    0.000 
#    0.000    0.000    0.000    1.500    0.000    0.000 
#    0.000    0.000    0.000    0.000    0.000    0.000 
#
# Total GULP energy -178692.047285 kJ/mol
# GULP energy per Si atom -5584.126478 kJ/mol
# Density = 2.147776 g / cm^3
# Si number density = 21.526761 Si / 1000 Ang^3
#
#
#
# Elastic Constant Matrix: (Units=GPa)
#
#
# Indices 1 2 3 4 5 6 
#
# 1 48.8183 10.2553 -12.4260 0.0000 3.0209 0.0000
# 2 10.2553 134.0053 22.6079 0.0000 8.0640 0.0000
# 3 -12.4260 22.6079 70.1094 0.0000 15.3059 0.0000
# 4 0.0000 0.0000 0.0000 19.5832 0.0000 12.0943
# 5 3.0209 8.0640 15.3059 0.0000 29.5756 0.0000
# 6 0.0000 0.0000 0.0000 12.0943 0.0000 29.6991
#
#
#
# Elastic Compliance Matrix: (Units=1/GPa)
#
#
# Indices 1 2 3 4 5 6 
#
# 1 0.022777 -0.002448 0.005849 0.000000 -0.004686 0.000000
# 2 -0.002448 0.008178 -0.002975 0.000000 -0.000440 0.000000
# 3 0.005849 -0.002975 0.018278 0.000000 -0.009245 0.000000
# 4 0.000000 0.000000 0.000000 0.068222 0.000000 -0.027782
# 5 -0.004686 -0.000440 -0.009245 0.000000 0.039195 0.000000
# 6 0.000000 0.000000 0.000000 -0.027782 0.000000 0.044985
#
#
# Mechanical properties :
#
#
# Convention : Reuss Voigt Hill
#
# Bulk Modulus (GPa) = 19.96553 32.64526 26.30540
# Shear Modulus (GPa) = 22.99090 31.27129 27.13110
#
# Velocity S-wave (km/s) = 3.27160 3.81553 3.55398
# Velocity P-wave (km/s) = 4.85448 5.88293 5.39328
#
# Compressibility (1/GPa) = 0.05008632
#
# Stress axis : x y z
#
# Youngs Moduli (GPa) = 43.90350 122.27751 54.71090
#
# Poissons Ratio (x) = 0.29933 -0.32003
# Poissons Ratio (y) = 0.10747 0.16276
# Poissons Ratio (z) = -0.25681 0.36377
#
# Static dielectric constant tensor:
#      x y z
#    x 1.832620 0.000000 -0.008090 
#    y 0.000000 1.877760 0.000000 
#    z -0.008090 0.000000 1.793750 
# 
# From -- ./inp_files/6956.got.cif
#   From: 2010.05.17/outbox.cif.g08.bks.cpg/sg14_4_cif.got.tgz:6956.got - 2010.06.03 17:49:19.
