data_PCOD9247992
_publ_section_title
;
Structure prediction by ZEFSAII (Michael W. Deem and Ramdas Pophale) SiO2 
 PCOD9247992
Probable space group: P 21/C
;
_chemical_formula_sum "Si O2"
_cell_formula_units_Z 28
_cell_length_a 9.102686
_cell_length_b 9.407848
_cell_length_c 20.190193
_cell_angle_alpha 90.000000
_cell_angle_beta 133.572561
_cell_angle_gamma 90.000000
_cell_volume 1252.679400
_symmetry_space_group_name_H-M "P 21/C"
_symmetry_group_IT_number 14
_symmetry_cell_setting 'monoclinic'
loop_
_space_group_symop_operation_xyz
x,y,z
-x,1/2+y,1/2-z
-x,-y,-z
x,1/2-y,1/2+z
loop_
_atom_site_type_symbol
_atom_site_label
_atom_site_fract_x
_atom_site_fract_y
_atom_site_fract_z
Si Si1 0.397365 0.927359 0.531087
Si Si2 0.666395 0.120139 0.196704
Si Si3 0.628372 0.782685 0.319339
Si Si4 0.985192 0.161090 0.758552
Si Si5 0.952608 0.529015 0.869808
Si Si6 0.334354 0.008840 0.258034
Si Si7 0.435479 0.376676 0.427878
O O1 0.520546 0.964679 0.634611
O O2 0.412305 0.755963 0.526586
O O3 0.174224 0.991968 0.465850
O O4 0.500000 0.000000 0.500000
O O5 0.466170 0.212682 0.144676
O O6 0.832968 0.204499 0.205282
O O7 0.794830 0.096958 0.304192
O O8 0.590466 0.970588 0.146123
O O9 0.833093 0.870029 0.382533
O O10 0.674154 0.655860 0.283036
O O11 0.445297 0.892256 0.246272
O O12 0.011991 0.097377 0.693098
O O13 0.206000 0.189499 0.859734
O O14 0.869317 0.053372 0.772428
O O15 0.500000 0.500000 0.500000
#
# Coordination Sequence:
#
# PCOD9247992 Si02
#       7
#     4   4   4   4   4   4   4
#     4  12  25  43  69 107 137 174 231 295 352 395
#     4  10  22  45  64  97 137 185 225 278 341 418
#     4  11  24  43  66  96 134 179 222 273 345 418
#     4  10  22  40  73  94 130 178 234 278 344 398
#     4  11  22  40  69  96 132 176 225 279 345 409
#     4  11  24  44  70  95 134 184 224 287 337 420
#     4  11  25  40  69 106 137 173 235 297 338 400
#
# _framework density 22.352086
#
# number of rings (size 3 to 8) (size 9 to 14) (size 15 to 20)
#    0.000    1.143    2.857    3.429   10.000    0.571 
#    0.000    2.143    0.000    0.000    0.000    0.000 
#    0.000    0.000    0.000    0.000    0.000    0.000 
#
# Total GULP energy -156240.559647 kJ/mol
# GULP energy per Si atom -5580.019987 kJ/mol
# Density = 2.230121 g / cm^3
# Si number density = 22.352086 Si / 1000 Ang^3
#
#
#
# Elastic Constant Matrix: (Units=GPa)
#
#
# Indices 1 2 3 4 5 6 
#
# 1 94.6531 22.4938 -7.3029 0.0000 18.6659 0.0000
# 2 22.4938 93.0410 -2.3279 0.0000 -9.9933 0.0000
# 3 -7.3029 -2.3279 33.8074 0.0000 6.0724 0.0000
# 4 0.0000 0.0000 0.0000 28.9506 0.0000 1.1768
# 5 18.6659 -9.9933 6.0724 0.0000 22.8513 0.0000
# 6 0.0000 0.0000 0.0000 1.1768 0.0000 49.6028
#
#
#
# Elastic Compliance Matrix: (Units=1/GPa)
#
#
# Indices 1 2 3 4 5 6 
#
# 1 0.015613 -0.005420 0.006002 0.000000 -0.016719 0.000000
# 2 -0.005420 0.013160 -0.002199 0.000000 0.010767 0.000000
# 3 0.006002 -0.002199 0.033371 0.000000 -0.014732 0.000000
# 4 0.000000 0.000000 0.000000 0.034575 0.000000 -0.000820
# 5 -0.016719 0.010767 -0.014732 0.000000 0.066041 0.000000
# 6 0.000000 0.000000 0.000000 -0.000820 0.000000 0.020180
#
#
# Mechanical properties :
#
#
# Convention : Reuss Voigt Hill
#
# Bulk Modulus (GPa) = 16.97480 27.46973 22.22227
# Shear Modulus (GPa) = 24.29437 34.19019 29.24228
#
# Velocity S-wave (km/s) = 3.30039 3.91528 3.62091
# Velocity P-wave (km/s) = 4.70470 5.72324 5.23878
#
# Compressibility (1/GPa) = 0.05891086
#
# Stress axis : x y z
#
# Youngs Moduli (GPa) = 64.04875 75.98909 29.96639
#
# Poissons Ratio (x) = 0.41188 -0.17987
# Poissons Ratio (y) = 0.34716 0.06588
# Poissons Ratio (z) = -0.38445 0.16707
#
# Static dielectric constant tensor:
#      x y z
#    x 1.868740 0.000000 -0.010700 
#    y 0.000000 1.920970 0.000000 
#    z -0.010700 0.000000 1.859010 
# 
# From -- ./inp_files/65026.got.cif
#   From: 2010.05.17/outbox.cif.g08.bks.cpg/sg14_33_cif.got.tgz:65026.got - 2010.06.03 17:49:19.
