data_PCOD9247672
_publ_section_title
;
Structure prediction by ZEFSAII (Michael W. Deem and Ramdas Pophale) SiO2 
 PCOD9247672
Probable space group: P 21/C
;
_chemical_formula_sum "Si O2"
_cell_formula_units_Z 24
_cell_length_a 27.111143
_cell_length_b 5.904377
_cell_length_c 18.427779
_cell_angle_alpha 90.000000
_cell_angle_beta 23.270032
_cell_angle_gamma 90.000000
_cell_volume 1165.369182
_symmetry_space_group_name_H-M "P 21/C"
_symmetry_group_IT_number 14
_symmetry_cell_setting 'monoclinic'
loop_
_space_group_symop_operation_xyz
x,y,z
-x,1/2+y,1/2-z
-x,-y,-z
x,1/2-y,1/2+z
loop_
_atom_site_type_symbol
_atom_site_label
_atom_site_fract_x
_atom_site_fract_y
_atom_site_fract_z
Si Si1 0.833124 0.051413 0.156438
Si Si2 0.542798 0.998320 0.526328
Si Si3 0.001487 0.144026 0.338588
Si Si4 0.932753 0.242628 0.659425
Si Si5 0.453999 0.998098 0.145711
Si Si6 0.163906 0.491530 0.067840
O O1 0.692418 0.991128 0.329604
O O2 0.841602 0.207066 0.216483
O O3 0.898292 0.172141 0.000230
O O4 0.931835 0.853199 0.038605
O O5 0.497879 0.250341 0.615930
O O6 0.500000 0.000000 0.500000
O O7 0.498482 0.749836 0.616467
O O8 0.934773 0.013668 0.364205
O O9 0.133619 0.241092 0.135967
O O10 0.033887 0.010956 0.367039
O O11 0.874216 0.347659 0.813034
O O12 0.304442 0.985751 0.352565
O O13 0.500000 0.000000 0.000000
#
# Coordination Sequence:
#
# PCOD9247672 Si02
#       6
#     4   4   4   4   4   4
#     4  10  23  41  65  95 129 172 225 270 341 408
#     4  10  22  39  64  94 123 174 221 273 315 390
#     4  11  21  37  65  96 131 173 213 288 338 398
#     4  10  23  41  63  96 131 170 212 283 343 398
#     4  10  23  39  62  94 128 172 219 273 324 387
#     4  11  23  37  63  98 131 167 227 278 336 403
#
# _framework density 20.594332000000001
#
# number of rings (size 3 to 8) (size 9 to 14) (size 15 to 20)
#    0.000    1.667    1.667    2.500    9.333    0.000 
#    0.000    1.667    0.000    0.000    0.000    0.000 
#    0.000    0.000    0.000    0.000    0.000    0.000 
#
# Total GULP energy -133647.170098 kJ/mol
# GULP energy per Si atom -5568.632087 kJ/mol
# Density = 2.054746 g / cm^3
# Si number density = 20.594332 Si / 1000 Ang^3
#
#
#
# Elastic Constant Matrix: (Units=GPa)
#
#
# Indices 1 2 3 4 5 6 
#
# 1 68.4599 4.5635 31.0616 0.0000 -11.7562 0.0000
# 2 4.5635 109.5369 34.1957 0.0000 -7.8630 0.0000
# 3 31.0616 34.1957 151.6347 0.0000 -23.4091 0.0000
# 4 0.0000 0.0000 0.0000 20.2863 0.0000 3.6630
# 5 -11.7562 -7.8630 -23.4091 0.0000 30.1780 0.0000
# 6 0.0000 0.0000 0.0000 3.6630 0.0000 28.1745
#
#
#
# Elastic Compliance Matrix: (Units=1/GPa)
#
#
# Indices 1 2 3 4 5 6 
#
# 1 0.016618 0.000510 -0.002839 0.000000 0.004404 0.000000
# 2 0.000510 0.009861 -0.002160 0.000000 0.001093 0.000000
# 3 -0.002839 -0.002160 0.008413 0.000000 0.004857 0.000000
# 4 0.000000 0.000000 0.000000 0.050479 0.000000 -0.006563
# 5 0.004404 0.001093 0.004857 0.000000 0.038905 0.000000
# 6 0.000000 0.000000 0.000000 -0.006563 0.000000 0.036346
#
#
# Mechanical properties :
#
#
# Convention : Reuss Voigt Hill
#
# Bulk Modulus (GPa) = 38.58840 52.14145 45.36493
# Shear Modulus (GPa) = 28.05245 33.04849 30.55047
#
# Velocity S-wave (km/s) = 3.69473 4.01026 3.85572
# Velocity P-wave (km/s) = 6.08107 6.84224 6.47285
#
# Compressibility (1/GPa) = 0.02591452
#
# Stress axis : x y z
#
# Youngs Moduli (GPa) = 60.17725 101.41267 118.85974
#
# Poissons Ratio (x) = -0.05174 0.33746
# Poissons Ratio (y) = -0.03070 0.25668
# Poissons Ratio (z) = 0.17085 0.21900
#
# Static dielectric constant tensor:
#      x y z
#    x 1.726350 0.000000 0.038600 
#    y 0.000000 1.911620 0.000000 
#    z 0.038600 0.000000 1.680180 
# 
# From -- ./inp_files/67910.got.cif
#   From: 2010.05.17/outbox.cif.g08.bks.cpg/sg14_34_cif.got.tgz:67910.got - 2010.06.03 17:49:19.
