data_PCOD9247623
_publ_section_title
;
Structure prediction by ZEFSAII (Michael W. Deem and Ramdas Pophale) SiO2 
 PCOD9247623
Probable space group: P 21/C
;
_chemical_formula_sum "Si O2"
_cell_formula_units_Z 28
_cell_length_a 11.535234
_cell_length_b 19.890598
_cell_length_c 4.970779
_cell_angle_alpha 90.000000
_cell_angle_beta 64.473986
_cell_angle_gamma 90.000000
_cell_volume 1029.183574
_symmetry_space_group_name_H-M "P 21/C"
_symmetry_group_IT_number 14
_symmetry_cell_setting 'monoclinic'
loop_
_space_group_symop_operation_xyz
x,y,z
-x,1/2+y,1/2-z
-x,-y,-z
x,1/2-y,1/2+z
loop_
_atom_site_type_symbol
_atom_site_label
_atom_site_fract_x
_atom_site_fract_y
_atom_site_fract_z
Si Si1 0.250000 0.791492 0.509768
Si Si2 0.466487 0.202728 0.887769
Si Si3 0.603621 0.036304 0.089639
Si Si4 0.033513 0.202728 0.320743
Si Si5 0.384842 0.094521 0.581130
Si Si6 0.884842 0.905479 0.149187
Si Si7 0.103621 0.536304 0.703119
O O1 0.250000 0.723482 0.326493
O O2 0.385555 0.821285 0.291977
O O3 0.114445 0.821285 0.563087
O O4 0.444291 0.235469 0.199050
O O5 0.389430 0.141737 0.837519
O O6 0.518809 0.098186 0.286868
O O7 0.621462 0.981814 0.308627
O O8 0.500000 0.000000 0.000000
O O9 0.750000 0.050085 0.844540
O O10 0.055710 0.264531 0.087632
O O11 0.110570 0.141738 0.116378
O O12 0.250000 0.108346 0.567301
O O13 0.878538 0.981814 0.051551
O O14 0.018809 0.901814 0.175514
O O15 0.000000 0.500000 0.000000
#
# Coordination Sequence:
#
# PCOD9247623 Si02
#       7
#     4   4   4   4   4   4   4
#     4   8  16  34  54  80 124 160 208 256 304 372
#     4  10  22  39  61  94 130 173 215 267 328 397
#     4  10  22  42  66  94 125 169 219 276 334 389
#     4  10  22  39  61  94 130 173 215 267 328 397
#     4  10  23  41  63  92 130 168 216 271 327 398
#     4  10  23  41  63  92 130 168 216 271 327 398
#     4  10  22  42  66  94 125 169 219 276 334 389
#
# _framework density 27.206030999999999
#
# number of rings (size 3 to 8) (size 9 to 14) (size 15 to 20)
#    0.000    2.286    0.000    0.857    6.000    2.286 
#    0.000    0.000    0.000    0.000    0.000    0.000 
#    0.000    0.000    0.000    0.000    0.000    0.000 
#
# Total GULP energy -156456.435066 kJ/mol
# GULP energy per Si atom -5587.729824 kJ/mol
# Density = 2.714411 g / cm^3
# Si number density = 27.206031 Si / 1000 Ang^3
#
#
#
# Elastic Constant Matrix: (Units=GPa)
#
#
# Indices 1 2 3 4 5 6 
#
# 1 183.9407 30.6266 61.4242 0.0000 -51.7789 0.0000
# 2 30.6266 86.5571 22.2394 0.0000 -7.2636 0.0000
# 3 61.4242 22.2394 106.7073 0.0000 -15.1080 0.0000
# 4 0.0000 0.0000 0.0000 39.4643 0.0000 13.5947
# 5 -51.7789 -7.2636 -15.1080 0.0000 63.1219 0.0000
# 6 0.0000 0.0000 0.0000 13.5947 0.0000 23.7667
#
#
#
# Elastic Compliance Matrix: (Units=1/GPa)
#
#
# Indices 1 2 3 4 5 6 
#
# 1 0.008664 -0.001583 -0.003806 0.000000 0.006014 0.000000
# 2 -0.001583 0.012537 -0.001740 0.000000 -0.000272 0.000000
# 3 -0.003806 -0.001740 0.011856 0.000000 -0.000484 0.000000
# 4 0.000000 0.000000 0.000000 0.031558 0.000000 -0.018051
# 5 0.006014 -0.000272 -0.000484 0.000000 0.020628 0.000000
# 6 0.000000 0.000000 0.000000 -0.018051 0.000000 0.052401
#
#
# Mechanical properties :
#
#
# Convention : Reuss Voigt Hill
#
# Bulk Modulus (GPa) = 53.19335 67.30949 60.25142
# Shear Modulus (GPa) = 31.61158 42.79823 37.20490
#
# Velocity S-wave (km/s) = 3.41241 3.97055 3.70202
# Velocity P-wave (km/s) = 5.92626 6.76866 6.36142
#
# Compressibility (1/GPa) = 0.01879934
#
# Stress axis : x y z
#
# Youngs Moduli (GPa) = 115.42100 79.76078 84.34319
#
# Poissons Ratio (x) = 0.12627 0.32100
# Poissons Ratio (y) = 0.18272 0.14678
# Poissons Ratio (z) = 0.43927 0.13881
#
# Static dielectric constant tensor:
#      x y z
#    x 2.214380 0.000000 -0.020180 
#    y 0.000000 2.104560 0.000000 
#    z -0.020180 0.000000 2.191070 
# 
# From -- ./inp_files/2918.got.cif
#   From: 2010.05.17/outbox.cif.g08.bks.cpg/sg14_2_cif.got.tgz:2918.got - 2010.06.03 17:49:19.
