data_PCOD9247834
_publ_section_title
;
Structure prediction by ZEFSAII (Michael W. Deem and Ramdas Pophale) SiO2 
 PCOD9247834
Probable space group: P 21/C
;
_chemical_formula_sum "Si O2"
_cell_formula_units_Z 32
_cell_length_a 21.480296
_cell_length_b 8.291257
_cell_length_c 8.728132
_cell_angle_alpha 90.000000
_cell_angle_beta 117.448728
_cell_angle_gamma 90.000000
_cell_volume 1379.472217
_symmetry_space_group_name_H-M "P 21/C"
_symmetry_group_IT_number 14
_symmetry_cell_setting 'monoclinic'
loop_
_space_group_symop_operation_xyz
x,y,z
-x,1/2+y,1/2-z
-x,-y,-z
x,1/2-y,1/2+z
loop_
_atom_site_type_symbol
_atom_site_label
_atom_site_fract_x
_atom_site_fract_y
_atom_site_fract_z
Si Si1 0.950179 0.833141 0.801900
Si Si2 0.677069 0.529310 0.350478
Si Si3 0.790260 0.151376 0.824641
Si Si4 0.436116 0.043574 0.817954
Si Si5 0.705847 0.851295 0.214490
Si Si6 0.822239 0.470199 0.022063
Si Si7 0.919979 0.971906 0.097518
Si Si8 0.477310 0.411869 0.821543
O O1 0.928024 0.650692 0.745294
O O2 0.896188 0.951798 0.652738
O O3 0.945298 0.873945 0.975557
O O4 0.027930 0.876176 0.831842
O O5 0.715840 0.376231 0.322299
O O6 0.683833 0.666927 0.225212
O O7 0.712505 0.604068 0.543760
O O8 0.596166 0.501159 0.304561
O O9 0.792234 0.103768 0.648102
O O10 0.820497 0.327651 0.895048
O O11 0.842385 0.029609 0.972255
O O12 0.358909 0.041880 0.796256
O O13 0.452833 0.227678 0.791596
O O14 0.452624 0.927257 0.697869
O O15 0.500000 0.000000 0.000000
O O16 0.773330 0.893611 0.391543
O O17 0.500000 0.500000 0.000000
#
# Coordination Sequence:
#
# PCOD9247834 Si02
#       8
#     4   4   4   4   4   4   4   4
#     4  10  22  40  63  93 127 163 210 252 312 366
#     4  11  24  43  64  91 123 167 210 257 318 379
#     4  11  24  41  63  92 128 163 212 258 316 371
#     4  11  23  44  63  93 126 164 214 262 326 387
#     4  11  24  42  66  88 126 166 209 260 314 381
#     4  11  24  41  63  93 126 166 208 263 310 374
#     4  10  22  40  63  93 126 166 205 258 306 372
#     4  11  25  40  67  93 126 168 210 268 322 390
#
# _framework density 23.197278000000001
#
# number of rings (size 3 to 8) (size 9 to 14) (size 15 to 20)
#    0.000    1.250    1.250    3.750    7.000    6.500 
#    0.000    0.000    0.000    0.000    0.000    0.000 
#    0.000    0.000    0.000    0.000    0.000    0.000 
#
# Total GULP energy -178873.868173 kJ/mol
# GULP energy per Si atom -5589.808380 kJ/mol
# Density = 2.314448 g / cm^3
# Si number density = 23.197278 Si / 1000 Ang^3
#
#
#
# Elastic Constant Matrix: (Units=GPa)
#
#
# Indices 1 2 3 4 5 6 
#
# 1 47.8640 -7.1957 -2.4981 0.0000 6.7316 0.0000
# 2 -7.1957 34.9602 -19.5240 0.0000 1.8734 0.0000
# 3 -2.4981 -19.5240 65.3648 0.0000 10.3896 0.0000
# 4 0.0000 0.0000 0.0000 37.2806 0.0000 7.4368
# 5 6.7316 1.8734 10.3896 0.0000 24.5179 0.0000
# 6 0.0000 0.0000 0.0000 7.4368 0.0000 27.0204
#
#
#
# Elastic Compliance Matrix: (Units=1/GPa)
#
#
# Indices 1 2 3 4 5 6 
#
# 1 0.023622 0.007996 0.004738 0.000000 -0.009105 0.000000
# 2 0.007996 0.038363 0.013488 0.000000 -0.010842 0.000000
# 3 0.004738 0.013488 0.021315 0.000000 -0.011364 0.000000
# 4 0.000000 0.000000 0.000000 0.028382 0.000000 -0.007812
# 5 -0.009105 -0.010842 -0.011364 0.000000 0.048930 0.000000
# 6 0.000000 0.000000 0.000000 -0.007812 0.000000 0.039159
#
#
# Mechanical properties :
#
#
# Convention : Reuss Voigt Hill
#
# Bulk Modulus (GPa) = 7.36675 9.97261 8.66968
# Shear Modulus (GPa) = 25.96385 29.59089 27.77737
#
# Velocity S-wave (km/s) = 3.34917 3.57546 3.46416
# Velocity P-wave (km/s) = 4.25893 4.62099 4.44365
#
# Compressibility (1/GPa) = 0.13574506
#
# Stress axis : x y z
#
# Youngs Moduli (GPa) = 42.33261 26.06664 46.91578
#
# Poissons Ratio (x) = -0.20843 -0.22230
# Poissons Ratio (y) = -0.33850 -0.63279
# Poissons Ratio (z) = -0.20059 -0.35158
#
# Static dielectric constant tensor:
#      x y z
#    x 1.799210 0.000000 0.015200 
#    y 0.000000 1.882640 0.000000 
#    z 0.015200 0.000000 1.841400 
# 
# From -- ./inp_files/19371.got.cif
#   From: 2010.05.17/outbox.cif.g08.bks.cpg/sg14_10_cif.got.tgz:19371.got - 2010.06.03 17:49:19.
