data_PCOD9247053
_publ_section_title
;
Structure prediction by ZEFSAII (Michael W. Deem and Ramdas Pophale) SiO2 
 PCOD9247053
Probable space group: P 21/C
;
_chemical_formula_sum "Si O2"
_cell_formula_units_Z 26
_cell_length_a 16.259992
_cell_length_b 4.910296
_cell_length_c 23.340923
_cell_angle_alpha 90.000000
_cell_angle_beta 148.075803
_cell_angle_gamma 90.000000
_cell_volume 985.450612
_symmetry_space_group_name_H-M "P 21/C"
_symmetry_group_IT_number 14
_symmetry_cell_setting 'monoclinic'
loop_
_space_group_symop_operation_xyz
x,y,z
-x,1/2+y,1/2-z
-x,-y,-z
x,1/2-y,1/2+z
loop_
_atom_site_type_symbol
_atom_site_label
_atom_site_fract_x
_atom_site_fract_y
_atom_site_fract_z
Si Si1 0.500000 0.500000 0.000000
Si Si2 0.971641 0.838697 0.662170
Si Si3 0.809352 0.584782 0.258385
Si Si4 0.742526 0.414722 0.794766
Si Si5 0.616863 0.049067 0.896094
Si Si6 0.767669 0.941531 0.435291
Si Si7 0.238464 0.708907 0.405628
O O1 0.336685 0.450165 0.869330
O O2 0.409995 0.735522 0.983955
O O3 0.039040 0.532925 0.685046
O O4 0.122519 0.925410 0.790848
O O5 0.909757 0.932531 0.563171
O O6 0.839155 0.004971 0.620350
O O7 0.801550 0.880091 0.281074
O O8 0.779379 0.383322 0.294000
O O9 0.557474 0.465693 0.692579
O O10 0.811124 0.471389 0.897717
O O11 0.640454 0.352731 0.887104
O O12 0.688667 0.852909 0.890793
O O13 0.724388 0.023794 0.016610
#
# Coordination Sequence:
#
# PCOD9247053 Si02
#       7
#     2   4   4   4   4   4   4
#     4  10  22  46  70 106 134 184 232 298 342 416
#     4  10  24  42  67 101 139 185 224 286 352 423
#     4  11  26  44  69 102 141 180 230 284 352 408
#     4  12  24  43  68 102 137 183 230 286 339 417
#     4  11  22  41  68 101 134 182 228 293 341 409
#     4  11  24  41  69  98 141 179 232 280 350 413
#     4  10  21  43  69 101 138 182 235 289 350 418
#
# _framework density 26.383869000000001
#
# number of rings (size 3 to 8) (size 9 to 14) (size 15 to 20)
#    0.000    1.231    1.538    3.692    2.154    6.769 
#    0.000    0.000    0.000    0.000    0.000    0.000 
#    0.000    0.000    0.000    0.000    0.000    0.000 
#
# Total GULP energy -144970.103923 kJ/mol
# GULP energy per Si atom -5575.773228 kJ/mol
# Density = 2.632382 g / cm^3
# Si number density = 26.383869 Si / 1000 Ang^3
#
#
#
# Elastic Constant Matrix: (Units=GPa)
#
#
# Indices 1 2 3 4 5 6 
#
# 1 91.5660 -0.2809 62.8463 0.0000 3.3349 0.0000
# 2 -0.2809 37.5371 4.3463 0.0000 9.6532 0.0000
# 3 62.8463 4.3463 132.6941 0.0000 -9.1079 0.0000
# 4 0.0000 0.0000 0.0000 5.2650 0.0000 6.9125
# 5 3.3349 9.6532 -9.1079 0.0000 51.8098 0.0000
# 6 0.0000 0.0000 0.0000 6.9125 0.0000 53.7691
#
#
#
# Elastic Compliance Matrix: (Units=1/GPa)
#
#
# Indices 1 2 3 4 5 6 
#
# 1 0.016599 0.001791 -0.008114 0.000000 -0.002829 0.000000
# 2 0.001791 0.028394 -0.002176 0.000000 -0.005788 0.000000
# 3 -0.008114 -0.002176 0.011655 0.000000 0.002977 0.000000
# 4 0.000000 0.000000 0.000000 0.228502 0.000000 -0.029376
# 5 -0.002829 -0.005788 0.002977 0.000000 0.021085 0.000000
# 6 0.000000 0.000000 0.000000 -0.029376 0.000000 0.022375
#
#
# Mechanical properties :
#
#
# Convention : Reuss Voigt Hill
#
# Bulk Modulus (GPa) = 25.22059 43.95785 34.58922
# Shear Modulus (GPa) = 13.93440 35.16116 24.54778
#
# Velocity S-wave (km/s) = 2.30062 3.65454 3.05357
# Velocity P-wave (km/s) = 4.07885 5.87407 5.05676
#
# Compressibility (1/GPa) = 0.03965015
#
# Stress axis : x y z
#
# Youngs Moduli (GPa) = 60.24503 35.21857 85.80157
#
# Poissons Ratio (x) = -0.06308 0.69622
# Poissons Ratio (y) = -0.10791 0.18667
# Poissons Ratio (z) = 0.48885 0.07662
#
# Static dielectric constant tensor:
#      x y z
#    x 2.118870 0.000000 0.016380 
#    y 0.000000 2.185710 0.000000 
#    z 0.016380 0.000000 2.037640 
# 
# From -- ./inp_files/74091.got.cif
#   From: 2010.05.17/outbox.cif.g08.bks.cpg/sg14_38_cif.got.tgz:74091.got - 2010.06.03 17:49:19.
