data_PCOD9247584
_publ_section_title
;
Structure prediction by ZEFSAII (Michael W. Deem and Ramdas Pophale) SiO2 
 PCOD9247584
Probable space group: P 21/C
;
_chemical_formula_sum "Si O2"
_cell_formula_units_Z 24
_cell_length_a 10.509485
_cell_length_b 9.230760
_cell_length_c 23.404791
_cell_angle_alpha 90.000000
_cell_angle_beta 26.887450
_cell_angle_gamma 90.000000
_cell_volume 1026.814563
_symmetry_space_group_name_H-M "P 21/C"
_symmetry_group_IT_number 14
_symmetry_cell_setting 'monoclinic'
loop_
_space_group_symop_operation_xyz
x,y,z
-x,1/2+y,1/2-z
-x,-y,-z
x,1/2-y,1/2+z
loop_
_atom_site_type_symbol
_atom_site_label
_atom_site_fract_x
_atom_site_fract_y
_atom_site_fract_z
Si Si1 0.642099 0.656072 0.876542
Si Si2 0.184677 0.583125 0.879981
Si Si3 0.922240 0.665400 0.540982
Si Si4 0.720079 0.550394 0.724257
Si Si5 0.796464 0.332035 0.850597
Si Si6 0.684912 0.236836 0.772463
O O1 0.571926 0.614105 0.839579
O O2 0.768643 0.504473 0.850764
O O3 0.884654 0.776406 0.775353
O O4 0.386746 0.699870 0.019699
O O5 0.489171 0.519202 0.768330
O O6 0.140061 0.610506 0.830490
O O7 0.000000 0.500000 0.000000
O O8 0.165306 0.742546 0.914432
O O9 0.905430 0.669547 0.616939
O O10 0.631852 0.719803 0.626629
O O11 0.000000 0.500000 0.500000
O O12 0.828245 0.392505 0.699448
O O13 0.669052 0.245182 0.846883
#
# Coordination Sequence:
#
# PCOD9247584 Si02
#       6
#     4   4   4   4   4   4
#     4  10  24  44  67  94 134 174 232 280 332 395
#     4  11  22  37  63  91 124 164 207 260 327 394
#     4  11  22  38  61  91 124 165 209 261 325 395
#     4  10  22  39  59  92 127 164 211 267 326 384
#     4  10  24  45  68  96 129 181 227 279 336 396
#     4  10  22  39  62  91 127 167 209 262 333 390
#
# _framework density 23.373256000000001
#
# number of rings (size 3 to 8) (size 9 to 14) (size 15 to 20)
#    0.000    1.667    3.333    0.000    4.667    2.000 
#    3.000    0.000    0.000    0.000    0.000    0.000 
#    0.000    0.000    0.000    0.000    0.000    0.000 
#
# Total GULP energy -133687.660537 kJ/mol
# GULP energy per Si atom -5570.319189 kJ/mol
# Density = 2.332006 g / cm^3
# Si number density = 23.373256 Si / 1000 Ang^3
#
#
#
# Elastic Constant Matrix: (Units=GPa)
#
#
# Indices 1 2 3 4 5 6 
#
# 1 52.7504 -2.1721 9.1498 0.0000 27.3344 0.0000
# 2 -2.1721 44.0933 9.5049 0.0000 3.1276 0.0000
# 3 9.1498 9.5049 118.3148 0.0000 34.9226 0.0000
# 4 0.0000 0.0000 0.0000 54.0561 0.0000 6.7069
# 5 27.3344 3.1276 34.9226 0.0000 47.3303 0.0000
# 6 0.0000 0.0000 0.0000 6.7069 0.0000 24.6104
#
#
#
# Elastic Compliance Matrix: (Units=1/GPa)
#
#
# Indices 1 2 3 4 5 6 
#
# 1 0.028227 0.002034 0.003203 0.000000 -0.018799 0.000000
# 2 0.002034 0.023227 -0.001564 0.000000 -0.001555 0.000000
# 3 0.003203 -0.001564 0.011308 0.000000 -0.010090 0.000000
# 4 0.000000 0.000000 0.000000 0.019147 0.000000 -0.005218
# 5 -0.018799 -0.001555 -0.010090 0.000000 0.039533 0.000000
# 6 0.000000 0.000000 0.000000 -0.005218 0.000000 0.042055
#
#
# Mechanical properties :
#
#
# Convention : Reuss Voigt Hill
#
# Bulk Modulus (GPa) = 14.26415 27.56932 20.91673
# Shear Modulus (GPa) = 27.85184 38.44441 33.14812
#
# Velocity S-wave (km/s) = 3.45572 4.06002 3.76999
# Velocity P-wave (km/s) = 4.69453 5.81371 5.28384
#
# Compressibility (1/GPa) = 0.07010582
#
# Stress axis : x y z
#
# Youngs Moduli (GPa) = 35.42730 43.05363 88.43096
#
# Poissons Ratio (x) = -0.08755 -0.28321
# Poissons Ratio (y) = -0.07204 0.13832
# Poissons Ratio (z) = -0.11346 0.06734
#
# Static dielectric constant tensor:
#      x y z
#    x 1.916770 0.000000 0.039100 
#    y 0.000000 1.945070 0.000000 
#    z 0.039100 0.000000 2.087440 
# 
# From -- ./inp_files/73026.got.cif
#   From: 2010.05.17/outbox.cif.g08.bks.cpg/sg14_37_cif.got.tgz:73026.got - 2010.06.03 17:49:19.
