data_PCOD9247433
_publ_section_title
;
Structure prediction by ZEFSAII (Michael W. Deem and Ramdas Pophale) SiO2 
 PCOD9247433
Probable space group: P 21/C
;
_chemical_formula_sum "Si O2"
_cell_formula_units_Z 32
_cell_length_a 23.101170
_cell_length_b 15.166414
_cell_length_c 23.038513
_cell_angle_alpha 90.000000
_cell_angle_beta 12.146880
_cell_angle_gamma 90.000000
_cell_volume 1698.459906
_symmetry_space_group_name_H-M "P 21/C"
_symmetry_group_IT_number 14
_symmetry_cell_setting 'monoclinic'
loop_
_space_group_symop_operation_xyz
x,y,z
-x,1/2+y,1/2-z
-x,-y,-z
x,1/2-y,1/2+z
loop_
_atom_site_type_symbol
_atom_site_label
_atom_site_fract_x
_atom_site_fract_y
_atom_site_fract_z
Si Si1 0.126261 0.268906 0.202322
Si Si2 0.043572 0.787222 0.758442
Si Si3 0.249660 0.886130 0.121282
Si Si4 0.113565 0.025994 0.694298
Si Si5 0.644641 0.334518 0.234139
Si Si6 0.251870 0.932259 0.247609
Si Si7 0.737873 0.516661 0.085434
Si Si8 0.574938 0.909481 0.243719
O O1 0.094875 0.373915 0.232973
O O2 0.105143 0.236318 0.156245
O O3 0.888190 0.222413 0.470540
O O4 0.390362 0.229318 0.974472
O O5 0.139599 0.699105 0.696103
O O6 0.318370 0.845176 0.473766
O O7 0.812125 0.836388 0.024827
O O8 0.248098 0.877113 0.191882
O O9 0.042741 0.967297 0.310968
O O10 0.542340 0.912064 0.807513
O O11 0.237032 0.025976 0.507950
O O12 0.358522 0.974684 0.489199
O O13 0.810845 0.979408 0.987776
O O14 0.706067 0.370877 0.237943
O O15 0.620751 0.422145 0.218028
O O16 0.000000 0.000000 0.500000
O O17 0.500000 0.000000 0.000000
#
# Coordination Sequence:
#
# PCOD9247433 Si02
#       8
#     4   4   4   4   4   4   4   4
#     4  12  24  37  58  89 127 156 205 258 300 380
#     4  11  22  39  58  90 124 154 214 255 307 358
#     4  12  23  38  63  88 119 172 200 256 288 358
#     4  11  22  39  58  87 125 166 200 245 323 371
#     4  12  24  39  61  91 125 171 204 244 306 356
#     4  12  23  44  62  88 127 169 213 247 290 369
#     4  12  22  36  59  86 124 165 209 230 304 361
#     4  10  22  38  57  81 119 161 196 253 301 374
#
# _framework density 18.840596999999999
#
# number of rings (size 3 to 8) (size 9 to 14) (size 15 to 20)
#    0.000    0.500    3.750    6.750    1.750    0.000 
#    0.000    0.000    0.000    0.000    0.000   17.500 
#    0.000    0.000    0.000    0.000    0.000    0.000 
#
# Total GULP energy -178180.520410 kJ/mol
# GULP energy per Si atom -5568.141263 kJ/mol
# Density = 1.879771 g / cm^3
# Si number density = 18.840597 Si / 1000 Ang^3
#
#
#
# Elastic Constant Matrix: (Units=GPa)
#
#
# Indices 1 2 3 4 5 6 
#
# 1 63.6866 2.4696 16.5442 0.0000 4.8121 0.0000
# 2 2.4696 65.7756 18.0838 0.0000 2.6060 0.0000
# 3 16.5442 18.0838 168.7411 0.0000 2.8146 0.0000
# 4 0.0000 0.0000 0.0000 20.2732 0.0000 1.9810
# 5 4.8121 2.6060 2.8146 0.0000 21.3053 0.0000
# 6 0.0000 0.0000 0.0000 1.9810 0.0000 28.2348
#
#
#
# Elastic Compliance Matrix: (Units=1/GPa)
#
#
# Indices 1 2 3 4 5 6 
#
# 1 0.016368 -0.000053 -0.001541 0.000000 -0.003487 0.000000
# 2 -0.000053 0.015726 -0.001652 0.000000 -0.001693 0.000000
# 3 -0.001541 -0.001652 0.006259 0.000000 -0.000277 0.000000
# 4 0.000000 0.000000 0.000000 0.049667 0.000000 -0.003485
# 5 -0.003487 -0.001693 -0.000277 0.000000 0.047968 0.000000
# 6 0.000000 0.000000 0.000000 -0.003485 0.000000 0.035662
#
#
# Mechanical properties :
#
#
# Convention : Reuss Voigt Hill
#
# Bulk Modulus (GPa) = 31.38553 41.37762 36.38157
# Shear Modulus (GPa) = 26.48845 31.36970 28.92908
#
# Velocity S-wave (km/s) = 3.75363 4.08487 3.92275
# Velocity P-wave (km/s) = 5.95659 6.65266 6.31422
#
# Compressibility (1/GPa) = 0.03186182
#
# Stress axis : x y z
#
# Youngs Moduli (GPa) = 61.09593 63.58710 159.77050
#
# Poissons Ratio (x) = 0.00335 0.24620
# Poissons Ratio (y) = 0.00322 0.26394
# Poissons Ratio (z) = 0.09415 0.10504
#
# Static dielectric constant tensor:
#      x y z
#    x 1.628520 0.000000 -0.013730 
#    y 0.000000 1.684800 0.000000 
#    z -0.013730 0.000000 1.653790 
# 
# From -- ./inp_files/75013.got.cif
#   From: 2010.05.17/outbox.cif.g08.bks.cpg/sg14_38_cif.got.tgz:75013.got - 2010.06.03 17:49:19.
