data_PCOD9247946
_publ_section_title
;
Structure prediction by ZEFSAII (Michael W. Deem and Ramdas Pophale) SiO2 
 PCOD9247946
Probable space group: P 21/C
;
_chemical_formula_sum "Si O2"
_cell_formula_units_Z 28
_cell_length_a 17.927550
_cell_length_b 7.141502
_cell_length_c 10.534023
_cell_angle_alpha 90.000000
_cell_angle_beta 119.968310
_cell_angle_gamma 90.000000
_cell_volume 1168.352771
_symmetry_space_group_name_H-M "P 21/C"
_symmetry_group_IT_number 14
_symmetry_cell_setting 'monoclinic'
loop_
_space_group_symop_operation_xyz
x,y,z
-x,1/2+y,1/2-z
-x,-y,-z
x,1/2-y,1/2+z
loop_
_atom_site_type_symbol
_atom_site_label
_atom_site_fract_x
_atom_site_fract_y
_atom_site_fract_z
Si Si1 0.578646 0.547278 0.691196
Si Si2 0.126211 0.292837 0.390707
Si Si3 0.546435 0.309570 0.015062
Si Si4 0.155147 0.547908 0.062117
Si Si5 0.721645 0.535811 0.608093
Si Si6 0.973615 0.367401 0.592160
Si Si7 0.302835 0.655921 0.010880
O O1 0.505400 0.703407 0.643048
O O2 0.538732 0.349621 0.613987
O O3 0.642945 0.602726 0.629148
O O4 0.637400 0.485714 0.857759
O O5 0.219717 0.307379 0.406007
O O6 0.092564 0.502884 0.384909
O O7 0.055211 0.190078 0.245025
O O8 0.132685 0.169617 0.523591
O O9 0.647564 0.353105 0.081272
O O10 0.500000 0.500000 0.000000
O O11 0.214906 0.567021 0.236210
O O12 0.208641 0.604120 0.980424
O O13 0.073970 0.682547 0.997877
O O14 0.693737 0.384380 0.477696
O O15 0.000000 0.500000 0.500000
#
# Coordination Sequence:
#
# PCOD9247946 Si02
#       7
#     4   4   4   4   4   4   4
#     4   9  22  44  62  98 132 168 224 278 324 406
#     4  12  25  45  68 100 133 184 223 285 350 411
#     4  10  22  40  67  96 132 173 220 273 337 398
#     4  11  25  45  68 100 138 179 231 282 347 416
#     4  10  23  45  67  95 139 175 225 281 340 410
#     4  12  27  43  71 101 134 176 232 289 345 413
#     4  10  22  44  68  97 136 175 220 280 333 410
#
# _framework density 23.965367000000001
#
# number of rings (size 3 to 8) (size 9 to 14) (size 15 to 20)
#    0.000    1.429    2.857    0.857    8.000    1.143 
#    5.143    0.000    0.000    0.000    0.000    0.000 
#    0.000    0.000    0.000    0.000    0.000    0.000 
#
# Total GULP energy -156292.410439 kJ/mol
# GULP energy per Si atom -5581.871801 kJ/mol
# Density = 2.391082 g / cm^3
# Si number density = 23.965367 Si / 1000 Ang^3
#
#
#
# Elastic Constant Matrix: (Units=GPa)
#
#
# Indices 1 2 3 4 5 6 
#
# 1 92.8394 34.4962 14.9742 0.0000 3.4136 0.0000
# 2 34.4962 106.7040 16.6465 0.0000 -0.5449 0.0000
# 3 14.9742 16.6465 54.7637 0.0000 11.9361 0.0000
# 4 0.0000 0.0000 0.0000 27.9371 0.0000 9.2238
# 5 3.4136 -0.5449 11.9361 0.0000 27.0266 0.0000
# 6 0.0000 0.0000 0.0000 9.2238 0.0000 45.0302
#
#
#
# Elastic Compliance Matrix: (Units=1/GPa)
#
#
# Indices 1 2 3 4 5 6 
#
# 1 0.012524 -0.003719 -0.002139 0.000000 -0.000712 0.000000
# 2 -0.003719 0.011012 -0.002745 0.000000 0.001904 0.000000
# 3 -0.002139 -0.002745 0.021724 0.000000 -0.009379 0.000000
# 4 0.000000 0.000000 0.000000 0.038391 0.000000 -0.007864
# 5 -0.000712 0.001904 -0.009379 0.000000 0.041271 0.000000
# 6 0.000000 0.000000 0.000000 -0.007864 0.000000 0.023818
#
#
# Mechanical properties :
#
#
# Convention : Reuss Voigt Hill
#
# Bulk Modulus (GPa) = 35.64591 42.94899 39.29745
# Shear Modulus (GPa) = 28.52277 32.54480 30.53379
#
# Velocity S-wave (km/s) = 3.45362 3.68909 3.57330
# Velocity P-wave (km/s) = 5.55063 6.00883 5.78427
#
# Compressibility (1/GPa) = 0.02805371
#
# Stress axis : x y z
#
# Youngs Moduli (GPa) = 79.84477 90.80968 46.03207
#
# Poissons Ratio (x) = 0.33771 0.09846
# Poissons Ratio (y) = 0.29694 0.12638
# Poissons Ratio (z) = 0.17078 0.24932
#
# Static dielectric constant tensor:
#      x y z
#    x 1.995160 0.000000 -0.022180 
#    y 0.000000 1.908450 0.000000 
#    z -0.022180 0.000000 1.989460 
# 
# From -- ./inp_files/34792.got.cif
#   From: 2010.05.17/outbox.cif.g08.bks.cpg/sg14_18_cif.got.tgz:34792.got - 2010.06.03 17:49:19.
