data_PCOD9247975
_publ_section_title
;
Structure prediction by ZEFSAII (Michael W. Deem and Ramdas Pophale) SiO2 
 PCOD9247975
Probable space group: P 21/C
;
_chemical_formula_sum "Si O2"
_cell_formula_units_Z 28
_cell_length_a 15.155983
_cell_length_b 16.536131
_cell_length_c 9.298462
_cell_angle_alpha 90.000000
_cell_angle_beta 32.523288
_cell_angle_gamma 90.000000
_cell_volume 1252.917903
_symmetry_space_group_name_H-M "P 21/C"
_symmetry_group_IT_number 14
_symmetry_cell_setting 'monoclinic'
loop_
_space_group_symop_operation_xyz
x,y,z
-x,1/2+y,1/2-z
-x,-y,-z
x,1/2-y,1/2+z
loop_
_atom_site_type_symbol
_atom_site_label
_atom_site_fract_x
_atom_site_fract_y
_atom_site_fract_z
Si Si1 0.389014 0.210987 0.892048
Si Si2 0.172416 0.643933 0.100245
Si Si3 0.638134 0.853467 0.371086
Si Si4 0.249714 0.728625 0.701608
Si Si5 0.901843 0.523224 0.493422
Si Si6 0.504710 0.548829 0.642683
Si Si7 0.301697 0.580959 0.429928
O O1 0.309652 0.178960 0.855999
O O2 0.567490 0.241216 0.590861
O O3 0.403150 0.135556 0.981794
O O4 0.317746 0.287232 0.071353
O O5 0.140224 0.699769 0.284294
O O6 0.155509 0.546858 0.533976
O O7 0.018056 0.591302 0.263539
O O8 0.320108 0.580422 0.927976
O O9 0.733267 0.934855 0.270759
O O10 0.444144 0.873656 0.643418
O O11 0.232691 0.644250 0.640006
O O12 0.226427 0.705677 0.899520
O O13 0.000000 0.500000 0.500000
O O14 0.500000 0.500000 0.500000
O O15 0.600325 0.491810 0.624231
#
# Coordination Sequence:
#
# PCOD9247975 Si02
#       7
#     4   4   4   4   4   4   4
#     4  10  22  40  70 102 129 168 234 274 329 394
#     4  11  25  43  68  97 139 175 224 269 343 406
#     4  11  24  44  70  96 134 175 225 277 332 402
#     4  10  22  42  71  96 131 180 219 273 338 403
#     4  12  28  45  64  99 138 182 222 277 340 391
#     4  11  21  41  70 102 130 169 223 285 328 389
#     4  11  23  44  71  98 131 174 228 278 332 391
#
# _framework density 22.347832
#
# number of rings (size 3 to 8) (size 9 to 14) (size 15 to 20)
#    0.000    1.143    2.857    3.857    8.000    1.714 
#    0.000    0.000    0.000    0.000    0.000    0.000 
#    0.000    0.000    0.000    0.000    0.000    0.000 
#
# Total GULP energy -156484.618067 kJ/mol
# GULP energy per Si atom -5588.736360 kJ/mol
# Density = 2.229697 g / cm^3
# Si number density = 22.347832 Si / 1000 Ang^3
#
#
#
# Elastic Constant Matrix: (Units=GPa)
#
#
# Indices 1 2 3 4 5 6 
#
# 1 123.8594 33.1732 16.8553 0.0000 12.9879 0.0000
# 2 33.1732 87.0699 11.8240 0.0000 17.0035 0.0000
# 3 16.8553 11.8240 21.7643 0.0000 5.3200 0.0000
# 4 0.0000 0.0000 0.0000 31.5150 0.0000 16.4786
# 5 12.9879 17.0035 5.3200 0.0000 29.1874 0.0000
# 6 0.0000 0.0000 0.0000 16.4786 0.0000 54.8034
#
#
#
# Elastic Compliance Matrix: (Units=1/GPa)
#
#
# Indices 1 2 3 4 5 6 
#
# 1 0.009728 -0.002584 -0.005693 0.000000 -0.001785 0.000000
# 2 -0.002584 0.014291 -0.004196 0.000000 -0.006411 0.000000
# 3 -0.005693 -0.004196 0.053816 0.000000 -0.004832 0.000000
# 4 0.000000 0.000000 0.000000 0.037650 0.000000 -0.011321
# 5 -0.001785 -0.006411 -0.004832 0.000000 0.039671 0.000000
# 6 0.000000 0.000000 0.000000 -0.011321 0.000000 0.021651
#
#
# Mechanical properties :
#
#
# Convention : Reuss Voigt Hill
#
# Bulk Modulus (GPa) = 18.90752 39.59984 29.25368
# Shear Modulus (GPa) = 22.79106 34.49056 28.64081
#
# Velocity S-wave (km/s) = 3.19695 3.93281 3.58382
# Velocity P-wave (km/s) = 4.70173 6.19523 5.49942
#
# Compressibility (1/GPa) = 0.05288900
#
# Stress axis : x y z
#
# Youngs Moduli (GPa) = 102.79776 69.97214 18.58178
#
# Poissons Ratio (x) = 0.18084 0.10579
# Poissons Ratio (y) = 0.26568 0.07796
# Poissons Ratio (z) = 0.58525 0.29357
#
# Static dielectric constant tensor:
#      x y z
#    x 1.856080 0.000000 -0.001680 
#    y 0.000000 1.844150 0.000000 
#    z -0.001680 0.000000 1.858030 
# 
# From -- ./inp_files/16631.got.cif
#   From: 2010.05.17/outbox.cif.g08.bks.cpg/sg14_9_cif.got.tgz:16631.got - 2010.06.03 17:49:19.
