data_PCOD9247963
_publ_section_title
;
Structure prediction by ZEFSAII (Michael W. Deem and Ramdas Pophale) SiO2 
 PCOD9247963
Probable space group: P 21/C
;
_chemical_formula_sum "Si O2"
_cell_formula_units_Z 20
_cell_length_a 4.913576
_cell_length_b 19.010226
_cell_length_c 9.167648
_cell_angle_alpha 90.000000
_cell_angle_beta 60.046118
_cell_angle_gamma 90.000000
_cell_volume 741.950882
_symmetry_space_group_name_H-M "P 21/C"
_symmetry_group_IT_number 14
_symmetry_cell_setting 'monoclinic'
loop_
_space_group_symop_operation_xyz
x,y,z
-x,1/2+y,1/2-z
-x,-y,-z
x,1/2-y,1/2+z
loop_
_atom_site_type_symbol
_atom_site_label
_atom_site_fract_x
_atom_site_fract_y
_atom_site_fract_z
Si Si1 0.090133 0.459848 0.622378
Si Si2 0.096044 0.576236 0.035105
Si Si3 0.389218 0.597951 0.676048
Si Si4 0.157214 0.781196 0.055853
Si Si5 0.441748 0.307074 0.838182
O O1 0.278020 0.519572 0.660942
O O2 0.295120 0.396461 0.503099
O O3 0.000000 0.500000 0.500000
O O4 0.844812 0.431964 0.807308
O O5 0.793339 0.626455 0.094627
O O6 0.377842 0.600036 0.853129
O O7 0.000000 0.500000 0.000000
O O8 0.159844 0.656441 0.673464
O O9 0.347446 0.716810 0.081029
O O10 0.809547 0.755880 0.115385
O O11 0.336624 0.806678 0.863307
#
# Coordination Sequence:
#
# PCOD9247963 Si02
#       5
#     4   4   4   4   4
#     4  10  22  40  68  99 133 183 236 287 350 421
#     4  10  22  46  66  99 142 183 234 293 355 422
#     4  10  22  42  64  99 137 180 232 291 353 418
#     4  12  26  46  76 104 147 186 243 299 360 438
#     4  12  26  48  71 108 140 193 238 297 364 430
#
# _framework density 26.955964000000002
#
# number of rings (size 3 to 8) (size 9 to 14) (size 15 to 20)
#    0.000    1.200    2.000    3.600    2.800    2.400 
#    7.200    0.000    0.000    0.000    0.000    0.000 
#    0.000    0.000    0.000    0.000    0.000    0.000 
#
# Total GULP energy -112053.953536 kJ/mol
# GULP energy per Si atom -5602.697677 kJ/mol
# Density = 2.689461 g / cm^3
# Si number density = 26.955964 Si / 1000 Ang^3
#
#
#
# Elastic Constant Matrix: (Units=GPa)
#
#
# Indices 1 2 3 4 5 6 
#
# 1 86.2417 0.1682 33.1908 0.0000 4.9378 0.0000
# 2 0.1682 108.1963 35.9231 0.0000 -4.6919 0.0000
# 3 33.1908 35.9231 254.2317 0.0000 24.6282 0.0000
# 4 0.0000 0.0000 0.0000 46.1696 0.0000 5.7357
# 5 4.9378 -4.6919 24.6282 0.0000 35.9530 0.0000
# 6 0.0000 0.0000 0.0000 5.7357 0.0000 38.4610
#
#
#
# Elastic Compliance Matrix: (Units=1/GPa)
#
#
# Indices 1 2 3 4 5 6 
#
# 1 0.012247 0.000497 -0.001620 0.000000 -0.000507 0.000000
# 2 0.000497 0.009908 -0.001696 0.000000 0.002387 0.000000
# 3 -0.001620 -0.001696 0.004696 0.000000 -0.003216 0.000000
# 4 0.000000 0.000000 0.000000 0.022068 0.000000 -0.003291
# 5 -0.000507 0.002387 -0.003216 0.000000 0.030398 0.000000
# 6 0.000000 0.000000 0.000000 -0.003291 0.000000 0.026491
#
#
# Mechanical properties :
#
#
# Convention : Reuss Voigt Hill
#
# Bulk Modulus (GPa) = 47.14134 65.24821 56.19478
# Shear Modulus (GPa) = 42.18767 49.40920 45.79844
#
# Velocity S-wave (km/s) = 3.96037 4.28595 4.12638
# Velocity P-wave (km/s) = 6.19992 6.98216 6.60263
#
# Compressibility (1/GPa) = 0.02121280
#
# Stress axis : x y z
#
# Youngs Moduli (GPa) = 81.65373 100.92520 212.94332
#
# Poissons Ratio (x) = -0.05014 0.34495
# Poissons Ratio (y) = -0.04057 0.36118
# Poissons Ratio (z) = 0.13227 0.17118
#
# Static dielectric constant tensor:
#      x y z
#    x 2.151120 0.000000 -0.020490 
#    y 0.000000 2.139360 0.000000 
#    z -0.020490 0.000000 2.080620 
# 
# From -- ./inp_files/5837.got.cif
#   From: 2010.05.17/outbox.cif.g08.bks.cpg/sg14_3_cif.got.tgz:5837.got - 2010.06.03 17:49:19.
