data_PCOD9247361
_publ_section_title
;
Structure prediction by ZEFSAII (Michael W. Deem and Ramdas Pophale) SiO2 
 PCOD9247361
Probable space group: P 21/C
;
_chemical_formula_sum "Si O2"
_cell_formula_units_Z 28
_cell_length_a 20.770956
_cell_length_b 10.666152
_cell_length_c 4.864762
_cell_angle_alpha 90.000000
_cell_angle_beta 104.899024
_cell_angle_gamma 90.000000
_cell_volume 1041.535295
_symmetry_space_group_name_H-M "P 21/C"
_symmetry_group_IT_number 14
_symmetry_cell_setting 'monoclinic'
loop_
_space_group_symop_operation_xyz
x,y,z
-x,1/2+y,1/2-z
-x,-y,-z
x,1/2-y,1/2+z
loop_
_atom_site_type_symbol
_atom_site_label
_atom_site_fract_x
_atom_site_fract_y
_atom_site_fract_z
Si Si1 0.922272 0.834218 0.101437
Si Si2 0.577625 0.839188 0.251906
Si Si3 0.280124 0.164370 0.458332
Si Si4 0.299263 0.838882 0.947514
Si Si5 0.821373 0.000224 0.320659
Si Si6 0.560786 0.159494 0.749612
Si Si7 0.072108 0.667542 0.758905
O O1 0.916493 0.708252 0.280903
O O2 0.997473 0.883400 0.227037
O O3 0.866482 0.923394 0.158400
O O4 0.576970 0.713894 0.444452
O O5 0.648421 0.898924 0.400515
O O6 0.508968 0.906736 0.256218
O O7 0.277567 0.208751 0.142481
O O8 0.221474 0.083285 0.516367
O O9 0.297914 0.782906 0.641127
O O10 0.233419 0.919836 0.905655
O O11 0.369527 0.904936 0.098267
O O12 0.870421 0.082141 0.561441
O O13 0.560981 0.216197 0.446251
O O14 0.077205 0.705489 0.447180
#
# Coordination Sequence:
#
# PCOD9247361 Si02
#       7
#     4   4   4   4   4   4   4
#     4  10  23  42  62  86 114 145 186 230 271 326
#     4   8  14  28  50  72 100 141 182 223 271 317
#     4  10  22  37  54  82 115 146 186 231 275 329
#     4  10  22  37  54  82 115 146 186 231 275 329
#     4  12  23  38  61  86 114 152 182 224 283 334
#     4   8  14  28  50  72 100 141 182 223 271 317
#     4  10  23  42  62  86 114 145 186 230 271 326
#
# _framework density 26.883389000000001
#
# number of rings (size 3 to 8) (size 9 to 14) (size 15 to 20)
#    0.000    2.286    0.000    2.143    0.000    4.571 
#    0.000    5.000    0.000    0.000    0.000   20.000 
#    0.000    0.000    0.000    0.000    0.000    0.000 
#
# Total GULP energy -157045.455194 kJ/mol
# GULP energy per Si atom -5608.766257 kJ/mol
# Density = 2.682220 g / cm^3
# Si number density = 26.883389 Si / 1000 Ang^3
#
#
#
# Elastic Constant Matrix: (Units=GPa)
#
#
# Indices 1 2 3 4 5 6 
#
# 1 213.4235 58.3300 34.6047 0.0000 53.3198 0.0000
# 2 58.3300 53.9244 14.2800 0.0000 11.4066 0.0000
# 3 34.6047 14.2800 93.1413 0.0000 -1.0154 0.0000
# 4 0.0000 0.0000 0.0000 13.5820 0.0000 -68.2853
# 5 53.3198 11.4066 -1.0154 0.0000 52.0705 0.0000
# 6 0.0000 0.0000 0.0000 -68.2853 0.0000 -177.8743
#
#
#
# Elastic Compliance Matrix: (Units=1/GPa)
#
#
# Indices 1 2 3 4 5 6 
#
# 1 0.009023 -0.007542 -0.002279 0.000000 -0.007632 0.000000
# 2 -0.007542 0.026643 -0.001262 0.000000 0.001862 0.000000
# 3 -0.002279 -0.001262 0.011808 0.000000 0.002841 0.000000
# 4 0.000000 0.000000 0.000000 0.025128 0.000000 -0.009647
# 5 -0.007632 0.001862 0.002841 0.000000 0.026667 0.000000
# 6 0.000000 0.000000 0.000000 -0.009647 0.000000 -0.001919
#
#
# Mechanical properties :
#
#
# Convention : Reuss Voigt Hill
#
# Bulk Modulus (GPa) = 39.51565 63.87984 51.69775
# Shear Modulus (GPa) = 39.07656 -5.55941 16.75858
#
# Velocity S-wave (km/s) = 3.81669 -1.43960 2.49947
# Velocity P-wave (km/s) = 5.84411 4.58804 5.25375
#
# Compressibility (1/GPa) = 0.02530643
#
# Stress axis : x y z
#
# Youngs Moduli (GPa) = 110.82643 37.53263 84.69071
#
# Poissons Ratio (x) = 0.28309 0.19303
# Poissons Ratio (y) = 0.83590 0.10691
# Poissons Ratio (z) = 0.25259 0.04738
#
# Static dielectric constant tensor:
#      x y z
#    x 2.102980 0.000000 0.051120 
#    y 0.000000 2.105510 0.000000 
#    z 0.051120 0.000000 2.010630 
# 
# From -- ./inp_files/4349.got.cif
#   From: 2010.05.17/outbox.cif.g08.bks.cpg/sg14_3_cif.got.tgz:4349.got - 2010.06.03 17:49:19.
