data_PCOD9247925
_publ_section_title
;
Structure prediction by ZEFSAII (Michael W. Deem and Ramdas Pophale) SiO2 
 PCOD9247925
Probable space group: P 21/C
;
_chemical_formula_sum "Si O2"
_cell_formula_units_Z 30
_cell_length_a 9.845443
_cell_length_b 10.818010
_cell_length_c 14.603127
_cell_angle_alpha 90.000000
_cell_angle_beta 59.837941
_cell_angle_gamma 90.000000
_cell_volume 1344.768745
_symmetry_space_group_name_H-M "P 21/C"
_symmetry_group_IT_number 14
_symmetry_cell_setting 'monoclinic'
loop_
_space_group_symop_operation_xyz
x,y,z
-x,1/2+y,1/2-z
-x,-y,-z
x,1/2-y,1/2+z
loop_
_atom_site_type_symbol
_atom_site_label
_atom_site_fract_x
_atom_site_fract_y
_atom_site_fract_z
Si Si1 0.335217 0.428323 0.634906
Si Si2 0.736974 0.168853 0.316609
Si Si3 0.149275 0.060031 0.835200
Si Si4 0.000000 0.500000 0.000000
Si Si5 0.778925 0.450207 0.502409
Si Si6 0.956278 0.682822 0.183900
Si Si7 0.324428 0.890830 0.299508
Si Si8 0.418928 0.715230 0.944574
O O1 0.330990 0.500946 0.541325
O O2 0.153126 0.399336 0.715256
O O3 0.385719 0.509306 0.705151
O O4 0.431181 0.302601 0.596996
O O5 0.682714 0.262554 0.255627
O O6 0.620878 0.159731 0.442634
O O7 0.896076 0.226488 0.306275
O O8 0.784281 0.035511 0.261405
O O9 0.152171 0.203352 0.809888
O O10 0.962013 0.040122 0.914183
O O11 0.234739 0.028659 0.900948
O O12 0.988058 0.395842 0.921914
O O13 0.153705 0.563839 0.893447
O O14 0.722740 0.309800 0.535349
O O15 0.428311 0.877002 0.355898
#
# Coordination Sequence:
#
# PCOD9247925 Si02
#       8
#     4   4   4   2   4   4   4   4
#     4  11  25  43  68 100 138 182 229 277 357 421
#     4  12  23  41  69  97 135 176 233 286 343 411
#     4  11  23  40  67 102 136 171 236 297 335 407
#     4  10  22  40  66  98 132 174 234 284 338 408
#     4  11  21  39  66  99 132 176 230 282 345 406
#     4  11  23  42  66 101 135 180 230 288 347 411
#     4  11  23  42  71  99 135 182 227 288 345 415
#     4  12  24  44  67  99 138 185 225 279 353 433
#
# _framework density 22.308668000000001
#
# number of rings (size 3 to 8) (size 9 to 14) (size 15 to 20)
#    0.000    0.800    6.667    0.400    3.733    1.067 
#    0.000    0.667    0.000    0.000    0.000    0.000 
#    0.000    0.000    0.000    0.000    0.000    0.000 
#
# Total GULP energy -167195.764127 kJ/mol
# GULP energy per Si atom -5573.192138 kJ/mol
# Density = 2.225789 g / cm^3
# Si number density = 22.308668 Si / 1000 Ang^3
#
#
#
# Elastic Constant Matrix: (Units=GPa)
#
#
# Indices 1 2 3 4 5 6 
#
# 1 50.6023 -8.9397 25.1403 0.0000 -5.2706 0.0000
# 2 -8.9397 25.2946 26.4399 0.0000 5.2964 0.0000
# 3 25.1403 26.4399 141.1665 0.0000 9.4520 0.0000
# 4 0.0000 0.0000 0.0000 44.0909 0.0000 -7.6759
# 5 -5.2706 5.2964 9.4520 0.0000 20.4561 0.0000
# 6 0.0000 0.0000 0.0000 -7.6759 0.0000 30.6662
#
#
#
# Elastic Compliance Matrix: (Units=1/GPa)
#
#
# Indices 1 2 3 4 5 6 
#
# 1 0.027877 0.017549 -0.008697 0.000000 0.006657 0.000000
# 2 0.017549 0.061770 -0.014371 0.000000 -0.004831 0.000000
# 3 -0.008697 -0.014371 0.011584 0.000000 -0.003872 0.000000
# 4 0.000000 0.000000 0.000000 0.023714 0.000000 0.005936
# 5 0.006657 -0.004831 -0.003872 0.000000 0.053641 0.000000
# 6 0.000000 0.000000 0.000000 0.005936 0.000000 0.034095
#
#
# Mechanical properties :
#
#
# Convention : Reuss Voigt Hill
#
# Bulk Modulus (GPa) = 11.08747 33.59382 22.34065
# Shear Modulus (GPa) = 19.70198 30.67082 25.18640
#
# Velocity S-wave (km/s) = 2.97501 3.71190 3.36370
# Velocity P-wave (km/s) = 4.09656 5.78466 5.01219
#
# Compressibility (1/GPa) = 0.09019188
#
# Stress axis : x y z
#
# Youngs Moduli (GPa) = 35.87234 16.18916 86.32883
#
# Poissons Ratio (x) = -0.28411 0.75082
# Poissons Ratio (y) = -0.62953 1.24063
# Poissons Ratio (z) = 0.31199 0.23265
#
# Static dielectric constant tensor:
#      x y z
#    x 1.837400 0.000000 -0.018470 
#    y 0.000000 1.827100 0.000000 
#    z -0.018470 0.000000 1.819700 
# 
# From -- ./inp_files/29036.got.cif
#   From: 2010.05.17/outbox.cif.g08.bks.cpg/sg14_15_cif.got.tgz:29036.got - 2010.06.03 17:49:19.
