data_PCOD9247407
_publ_section_title
;
Structure prediction by ZEFSAII (Michael W. Deem and Ramdas Pophale) SiO2 
 PCOD9247407
Probable space group: P 21/C
;
_chemical_formula_sum "Si O2"
_cell_formula_units_Z 30
_cell_length_a 18.911153
_cell_length_b 8.865039
_cell_length_c 14.104172
_cell_angle_alpha 90.000000
_cell_angle_beta 148.737402
_cell_angle_gamma 90.000000
_cell_volume 1227.103404
_symmetry_space_group_name_H-M "P 21/C"
_symmetry_group_IT_number 14
_symmetry_cell_setting 'monoclinic'
loop_
_space_group_symop_operation_xyz
x,y,z
-x,1/2+y,1/2-z
-x,-y,-z
x,1/2-y,1/2+z
loop_
_atom_site_type_symbol
_atom_site_label
_atom_site_fract_x
_atom_site_fract_y
_atom_site_fract_z
Si Si1 0.798507 0.891054 0.256878
Si Si2 0.928772 0.429188 0.268600
Si Si3 0.754875 0.156564 0.075159
Si Si4 0.500000 0.500000 0.000000
Si Si5 0.668429 0.644228 0.999701
Si Si6 0.501805 0.653815 0.174277
Si Si7 0.798146 0.085392 0.907160
Si Si8 0.080379 0.596571 0.964851
O O1 0.727681 0.030787 0.121626
O O2 0.841732 0.948224 0.409281
O O3 0.940667 0.878108 0.361568
O O4 0.706481 0.747028 0.132938
O O5 0.880326 0.265121 0.247668
O O6 0.069049 0.490846 0.470645
O O7 0.803319 0.545852 0.135681
O O8 0.949892 0.412469 0.180400
O O9 0.626599 0.266841 0.924258
O O10 0.782498 0.086439 0.003828
O O11 0.492575 0.335587 0.931279
O O12 0.338516 0.527501 0.794548
O O13 0.542148 0.527201 0.872998
O O14 0.626607 0.764280 0.870107
O O15 0.826195 0.258115 0.913082
#
# Coordination Sequence:
#
# PCOD9247407 Si02
#       8
#     4   4   4   2   4   4   4   4
#     4  11  20  38  62  95 129 169 203 273 329 378
#     4  10  22  41  67 100 125 171 222 274 328 389
#     4  10  22  42  68  92 136 170 220 267 325 397
#     4  12  26  40  64  90 136 172 218 276 328 382
#     4  11  23  43  69  93 133 175 218 269 331 398
#     4  11  25  43  63  98 127 180 220 267 329 396
#     4  11  21  42  64  96 130 173 220 272 322 399
#     4  10  22  37  63  96 129 160 219 269 327 382
#
# _framework density 24.447818000000002
#
# number of rings (size 3 to 8) (size 9 to 14) (size 15 to 20)
#    0.000    1.333    2.667    3.200    0.000    1.067 
#    4.800    2.000    0.000    8.000    0.000    0.000 
#    0.000    0.000    0.000    0.000    0.000    0.000 
#
# Total GULP energy -167365.418493 kJ/mol
# GULP energy per Si atom -5578.847283 kJ/mol
# Density = 2.439217 g / cm^3
# Si number density = 24.447818 Si / 1000 Ang^3
#
#
#
# Elastic Constant Matrix: (Units=GPa)
#
#
# Indices 1 2 3 4 5 6 
#
# 1 46.7527 14.3853 12.1339 0.0000 2.7844 0.0000
# 2 14.3853 121.9788 62.9460 0.0000 10.7094 0.0000
# 3 12.1339 62.9460 138.8637 0.0000 26.5870 0.0000
# 4 0.0000 0.0000 0.0000 163.4895 0.0000 31.6699
# 5 2.7844 10.7094 26.5870 0.0000 26.8455 0.0000
# 6 0.0000 0.0000 0.0000 31.6699 0.0000 42.3837
#
#
#
# Elastic Compliance Matrix: (Units=1/GPa)
#
#
# Indices 1 2 3 4 5 6 
#
# 1 0.022306 -0.002130 -0.000868 0.000000 -0.000604 0.000000
# 2 -0.002130 0.010914 -0.004899 0.000000 0.000719 0.000000
# 3 -0.000868 -0.004899 0.011237 0.000000 -0.009085 0.000000
# 4 0.000000 0.000000 0.000000 0.007152 0.000000 -0.005344
# 5 -0.000604 0.000719 -0.009085 0.000000 0.046023 0.000000
# 6 0.000000 0.000000 0.000000 -0.005344 0.000000 0.027587
#
#
# Mechanical properties :
#
#
# Convention : Reuss Voigt Hill
#
# Bulk Modulus (GPa) = 34.88691 54.05841 44.47266
# Shear Modulus (GPa) = 33.20788 61.08573 47.14680
#
# Velocity S-wave (km/s) = 3.68953 5.00404 4.39620
# Velocity P-wave (km/s) = 5.69659 7.45298 6.63318
#
# Compressibility (1/GPa) = 0.02866404
#
# Stress axis : x y z
#
# Youngs Moduli (GPa) = 44.83171 91.62387 88.99092
#
# Poissons Ratio (x) = 0.19512 0.07725
# Poissons Ratio (y) = 0.09547 0.43595
# Poissons Ratio (z) = 0.03892 0.44885
#
# Static dielectric constant tensor:
#      x y z
#    x 1.582330 0.000000 0.031580 
#    y 0.000000 1.841620 0.000000 
#    z 0.031580 0.000000 1.963870 
# 
# From -- ./inp_files/50299.got.cif
#   From: 2010.05.17/outbox.cif.g08.bks.cpg/sg14_26_cif.got.tgz:50299.got - 2010.06.03 17:49:19.
