data_PCOD9247753
_publ_section_title
;
Structure prediction by ZEFSAII (Michael W. Deem and Ramdas Pophale) SiO2 
 PCOD9247753
Probable space group: P 21/C
;
_chemical_formula_sum "Si O2"
_cell_formula_units_Z 20
_cell_length_a 9.624137
_cell_length_b 7.762762
_cell_length_c 12.962993
_cell_angle_alpha 90.000000
_cell_angle_beta 55.699034
_cell_angle_gamma 90.000000
_cell_volume 800.037023
_symmetry_space_group_name_H-M "P 21/C"
_symmetry_group_IT_number 14
_symmetry_cell_setting 'monoclinic'
loop_
_space_group_symop_operation_xyz
x,y,z
-x,1/2+y,1/2-z
-x,-y,-z
x,1/2-y,1/2+z
loop_
_atom_site_type_symbol
_atom_site_label
_atom_site_fract_x
_atom_site_fract_y
_atom_site_fract_z
Si Si1 0.265308 0.064949 0.637397
Si Si2 0.033665 0.122314 0.266878
Si Si3 0.618331 0.086218 0.201422
Si Si4 0.069865 0.797080 0.384788
Si Si5 0.294381 0.227580 0.412945
O O1 0.137036 0.204925 0.742723
O O2 0.366904 0.989627 0.688538
O O3 0.339588 0.167597 0.510308
O O4 0.162635 0.909066 0.624816
O O5 0.108970 0.951291 0.287656
O O6 0.004679 0.139938 0.154777
O O7 0.673033 0.930734 0.106445
O O8 0.759614 0.234702 0.134850
O O9 0.427408 0.149360 0.276051
O O10 0.900954 0.830394 0.522262
#
# Coordination Sequence:
#
# PCOD9247753 Si02
#       5
#     4   4   4   4   4
#     4   9  18  37  61  86 117 152 188 241 290 333
#     4   7  14  31  58  88 112 143 192 225 276 352
#     4  11  22  39  60  84 118 153 192 241 288 344
#     4   9  18  37  61  86 117 152 188 241 290 333
#     4  10  22  40  58  88 118 150 198 236 282 352
#
# _framework density 24.998843999999998
#
# number of rings (size 3 to 8) (size 9 to 14) (size 15 to 20)
#    0.000    3.200    0.000    1.200    0.000    1.600 
#    0.000   42.000    0.000    0.000    0.000    0.000 
#    0.000    0.000    0.000    0.000    0.000    0.000 
#
# Total GULP energy -111375.577588 kJ/mol
# GULP energy per Si atom -5568.778879 kJ/mol
# Density = 2.494195 g / cm^3
# Si number density = 24.998844 Si / 1000 Ang^3
#
#
#
# Elastic Constant Matrix: (Units=GPa)
#
#
# Indices 1 2 3 4 5 6 
#
# 1 54.0958 27.5726 50.9972 0.0000 -22.3256 0.0000
# 2 27.5726 93.7914 62.2595 0.0000 -26.2019 0.0000
# 3 50.9972 62.2595 103.0082 0.0000 -16.0262 0.0000
# 4 0.0000 0.0000 0.0000 45.6113 0.0000 6.8178
# 5 -22.3256 -26.2019 -16.0262 0.0000 37.4340 0.0000
# 6 0.0000 0.0000 0.0000 6.8178 0.0000 41.7823
#
#
#
# Elastic Compliance Matrix: (Units=1/GPa)
#
#
# Indices 1 2 3 4 5 6 
#
# 1 0.048006 0.009981 -0.025989 0.000000 0.024491 0.000000
# 2 0.009981 0.022756 -0.016382 0.000000 0.014867 0.000000
# 3 -0.025989 -0.016382 0.030299 0.000000 -0.013995 0.000000
# 4 0.000000 0.000000 0.000000 0.022473 0.000000 -0.003667
# 5 0.024491 0.014867 -0.013995 0.000000 0.045734 0.000000
# 6 0.000000 0.000000 0.000000 -0.003667 0.000000 0.024532
#
#
# Mechanical properties :
#
#
# Convention : Reuss Voigt Hill
#
# Bulk Modulus (GPa) = 27.56341 59.17266 43.36803
# Shear Modulus (GPa) = 18.47239 32.30325 25.38782
#
# Velocity S-wave (km/s) = 2.72128 3.59860 3.19024
# Velocity P-wave (km/s) = 4.57423 6.40220 5.56380
#
# Compressibility (1/GPa) = 0.03627999
#
# Stress axis : x y z
#
# Youngs Moduli (GPa) = 20.83052 43.94508 33.00452
#
# Poissons Ratio (x) = -0.43861 0.85776
# Poissons Ratio (y) = -0.20791 0.54068
# Poissons Ratio (z) = 0.54137 0.71991
#
# Static dielectric constant tensor:
#      x y z
#    x 2.026370 0.000000 -0.010700 
#    y 0.000000 2.058560 0.000000 
#    z -0.010700 0.000000 2.085360 
# 
# From -- ./inp_files/56732.got.cif
#   From: 2010.05.17/outbox.cif.g08.bks.cpg/sg14_29_cif.got.tgz:56732.got - 2010.06.03 17:49:19.
