data_PCOD9247848
_publ_section_title
;
Structure prediction by ZEFSAII (Michael W. Deem and Ramdas Pophale) SiO2 
 PCOD9247848
Probable space group: P 21/C
;
_chemical_formula_sum "Si O2"
_cell_formula_units_Z 24
_cell_length_a 13.279026
_cell_length_b 9.276945
_cell_length_c 16.264866
_cell_angle_alpha 90.000000
_cell_angle_beta 26.240413
_cell_angle_gamma 90.000000
_cell_volume 885.890693
_symmetry_space_group_name_H-M "P 21/C"
_symmetry_group_IT_number 14
_symmetry_cell_setting 'monoclinic'
loop_
_space_group_symop_operation_xyz
x,y,z
-x,1/2+y,1/2-z
-x,-y,-z
x,1/2-y,1/2+z
loop_
_atom_site_type_symbol
_atom_site_label
_atom_site_fract_x
_atom_site_fract_y
_atom_site_fract_z
Si Si1 0.944042 0.352485 0.638785
Si Si2 0.497802 0.595013 0.348581
Si Si3 0.899001 0.041307 0.739119
Si Si4 0.247803 0.404354 0.116267
Si Si5 0.907423 0.722885 0.133425
Si Si6 0.456983 0.203142 0.833177
O O1 0.870124 0.202784 0.730866
O O2 0.765668 0.472848 0.802194
O O3 0.962871 0.321492 0.527399
O O4 0.207581 0.356001 0.481434
O O5 0.316852 0.526199 0.543930
O O6 0.650292 0.709993 0.286547
O O7 0.439308 0.690049 0.311346
O O8 0.598275 0.442789 0.242326
O O9 0.117522 0.022890 0.636437
O O10 0.931802 0.944507 0.636121
O O11 0.087668 0.289501 0.279730
O O12 0.426615 0.301723 0.937538
#
# Coordination Sequence:
#
# PCOD9247848 Si02
#       6
#     4   4   4   4   4   4
#     4  10  22  40  63  99 127 172 223 269 328 386
#     4  11  23  44  66  97 133 172 224 270 335 387
#     4  11  21  41  66  94 130 177 217 267 330 391
#     4  11  21  42  66  94 135 172 221 270 324 391
#     4  11  23  42  67  93 137 169 219 279 324 398
#     4  10  23  41  65  97 132 179 218 273 326 393
#
# _framework density 27.091380000000001
#
# number of rings (size 3 to 8) (size 9 to 14) (size 15 to 20)
#    0.000    1.333    3.333    2.500    2.333    0.000 
#    6.000    0.833    0.000    0.000    0.000    0.000 
#    0.000    0.000    0.000    0.000    0.000    0.000 
#
# Total GULP energy -133872.954133 kJ/mol
# GULP energy per Si atom -5578.039756 kJ/mol
# Density = 2.702972 g / cm^3
# Si number density = 27.091380 Si / 1000 Ang^3
#
#
#
# Elastic Constant Matrix: (Units=GPa)
#
#
# Indices 1 2 3 4 5 6 
#
# 1 92.2984 14.4349 56.3082 0.0000 27.9805 0.0000
# 2 14.4349 140.3243 61.6265 0.0000 5.1540 0.0000
# 3 56.3082 61.6265 178.7051 0.0000 24.9356 0.0000
# 4 0.0000 0.0000 0.0000 111.0512 0.0000 66.2598
# 5 27.9805 5.1540 24.9356 0.0000 30.8207 0.0000
# 6 0.0000 0.0000 0.0000 66.2598 0.0000 70.4266
#
#
#
# Elastic Compliance Matrix: (Units=1/GPa)
#
#
# Indices 1 2 3 4 5 6 
#
# 1 0.016752 0.000346 -0.003683 0.000000 -0.012286 0.000000
# 2 0.000346 0.008436 -0.003131 0.000000 0.000809 0.000000
# 3 -0.003683 -0.003131 0.008225 0.000000 -0.002787 0.000000
# 4 0.000000 0.000000 0.000000 0.020529 0.000000 -0.019314
# 5 -0.012286 0.000809 -0.002787 0.000000 0.045719 0.000000
# 6 0.000000 0.000000 0.000000 -0.019314 0.000000 0.032371
#
#
# Mechanical properties :
#
#
# Convention : Reuss Voigt Hill
#
# Bulk Modulus (GPa) = 48.83791 75.11856 61.97823
# Shear Modulus (GPa) = 32.93930 61.05691 46.99810
#
# Velocity S-wave (km/s) = 3.49070 4.75251 4.16961
# Velocity P-wave (km/s) = 5.85772 7.60941 6.79029
#
# Compressibility (1/GPa) = 0.02047590
#
# Stress axis : x y z
#
# Youngs Moduli (GPa) = 59.69464 118.53807 121.58135
#
# Poissons Ratio (x) = -0.04096 0.44781
# Poissons Ratio (y) = -0.02063 0.38066
# Poissons Ratio (z) = 0.21987 0.37113
#
# Static dielectric constant tensor:
#      x y z
#    x 2.163570 0.000000 -0.068570 
#    y 0.000000 2.156720 0.000000 
#    z -0.068570 0.000000 2.238450 
# 
# From -- ./inp_files/58877.got.cif
#   From: 2010.05.17/outbox.cif.g08.bks.cpg/sg14_30_cif.got.tgz:58877.got - 2010.06.03 17:49:19.
