data_PCOD9247972
_publ_section_title
;
Structure prediction by ZEFSAII (Michael W. Deem and Ramdas Pophale) SiO2 
 PCOD9247972
Probable space group: P 21/C
;
_chemical_formula_sum "Si O2"
_cell_formula_units_Z 28
_cell_length_a 16.104343
_cell_length_b 7.257483
_cell_length_c 23.662696
_cell_angle_alpha 90.000000
_cell_angle_beta 27.750042
_cell_angle_gamma 90.000000
_cell_volume 1287.716866
_symmetry_space_group_name_H-M "P 21/C"
_symmetry_group_IT_number 14
_symmetry_cell_setting 'monoclinic'
loop_
_space_group_symop_operation_xyz
x,y,z
-x,1/2+y,1/2-z
-x,-y,-z
x,1/2-y,1/2+z
loop_
_atom_site_type_symbol
_atom_site_label
_atom_site_fract_x
_atom_site_fract_y
_atom_site_fract_z
Si Si1 0.961042 0.052470 0.709893
Si Si2 0.496654 0.747684 0.168579
Si Si3 0.207048 0.381727 0.586162
Si Si4 0.169493 0.232381 0.372610
Si Si5 0.449247 0.639103 0.819167
Si Si6 0.882201 0.309785 0.135287
Si Si7 0.912862 0.315915 0.427845
O O1 0.898629 0.160978 0.691906
O O2 0.104157 0.187124 0.653061
O O3 0.810299 0.994497 0.845474
O O4 0.042183 0.861083 0.638149
O O5 0.593843 0.560934 0.129517
O O6 0.493147 0.872996 0.226493
O O7 0.294256 0.699691 0.274782
O O8 0.597832 0.840958 0.055831
O O9 0.111005 0.506347 0.596395
O O10 0.374228 0.286164 0.256606
O O11 0.058136 0.262165 0.497562
O O12 0.063500 0.329406 0.385197
O O13 0.153702 0.015471 0.367739
O O14 0.275821 0.765549 0.929847
#
# Coordination Sequence:
#
# PCOD9247972 Si02
#       7
#     4   4   4   4   4   4   4
#     4  11  24  43  69  96 134 183 235 279 339 406
#     4  12  25  40  67 100 140 182 228 283 349 407
#     4  12  24  44  70  96 134 185 234 278 343 406
#     4  10  22  40  69  99 138 178 222 283 352 409
#     4  12  24  42  65 106 143 177 227 285 347 419
#     4  10  22  41  64  99 137 173 229 284 345 405
#     4  11  23  44  71 101 137 178 229 288 341 407
#
# _framework density 21.74391
#
# number of rings (size 3 to 8) (size 9 to 14) (size 15 to 20)
#    0.000    0.857    4.286    3.429    4.000    1.143 
#    0.000    0.000    0.000    4.286    0.000    0.000 
#    0.000    0.000    0.000    0.000    0.000    0.000 
#
# Total GULP energy -156688.088470 kJ/mol
# GULP energy per Si atom -5596.003160 kJ/mol
# Density = 2.169442 g / cm^3
# Si number density = 21.743910 Si / 1000 Ang^3
#
#
#
# Elastic Constant Matrix: (Units=GPa)
#
#
# Indices 1 2 3 4 5 6 
#
# 1 75.3891 3.1875 32.5351 0.0000 0.7002 0.0000
# 2 3.1875 60.2927 2.9900 0.0000 4.1765 0.0000
# 3 32.5351 2.9900 96.9457 0.0000 16.1072 0.0000
# 4 0.0000 0.0000 0.0000 34.8084 0.0000 0.9100
# 5 0.7002 4.1765 16.1072 0.0000 42.6724 0.0000
# 6 0.0000 0.0000 0.0000 0.9100 0.0000 27.8649
#
#
#
# Elastic Compliance Matrix: (Units=1/GPa)
#
#
# Indices 1 2 3 4 5 6 
#
# 1 0.015673 -0.000685 -0.005556 0.000000 0.001907 0.000000
# 2 -0.000685 0.016735 -0.000017 0.000000 -0.001620 0.000000
# 3 -0.005556 -0.000017 0.012979 0.000000 -0.004806 0.000000
# 4 0.000000 0.000000 0.000000 0.028753 0.000000 -0.000939
# 5 0.001907 -0.001620 -0.004806 0.000000 0.025376 0.000000
# 6 0.000000 0.000000 0.000000 -0.000939 0.000000 0.035918
#
#
# Mechanical properties :
#
#
# Convention : Reuss Voigt Hill
#
# Bulk Modulus (GPa) = 30.42169 34.45029 32.43599
# Shear Modulus (GPa) = 31.46491 33.99678 32.73085
#
# Velocity S-wave (km/s) = 3.80816 3.95841 3.88401
# Velocity P-wave (km/s) = 5.77559 6.06383 5.92146
#
# Compressibility (1/GPa) = 0.03287129
#
# Stress axis : x y z
#
# Youngs Moduli (GPa) = 63.80228 59.75477 77.04986
#
# Poissons Ratio (x) = 0.04094 0.42807
# Poissons Ratio (y) = 0.04372 0.00131
# Poissons Ratio (z) = 0.35447 0.00101
#
# Static dielectric constant tensor:
#      x y z
#    x 1.774580 0.000000 0.001300 
#    y 0.000000 1.838640 0.000000 
#    z 0.001300 0.000000 1.786500 
# 
# From -- ./inp_files/68299.got.cif
#   From: 2010.05.17/outbox.cif.g08.bks.cpg/sg14_35_cif.got.tgz:68299.got - 2010.06.03 17:49:19.
