data_PCOD9247783
_publ_section_title
;
Structure prediction by ZEFSAII (Michael W. Deem and Ramdas Pophale) SiO2 
 PCOD9247783
Probable space group: P 21/C
;
_chemical_formula_sum "Si O2"
_cell_formula_units_Z 24
_cell_length_a 13.182980
_cell_length_b 9.128254
_cell_length_c 9.614639
_cell_angle_alpha 90.000000
_cell_angle_beta 102.116797
_cell_angle_gamma 90.000000
_cell_volume 1131.226486
_symmetry_space_group_name_H-M "P 21/C"
_symmetry_group_IT_number 14
_symmetry_cell_setting 'monoclinic'
loop_
_space_group_symop_operation_xyz
x,y,z
-x,1/2+y,1/2-z
-x,-y,-z
x,1/2-y,1/2+z
loop_
_atom_site_type_symbol
_atom_site_label
_atom_site_fract_x
_atom_site_fract_y
_atom_site_fract_z
Si Si1 0.217238 0.849162 0.821350
Si Si2 0.240294 0.313076 0.390829
Si Si3 0.553428 0.835703 0.659821
Si Si4 0.575214 0.331164 0.152225
Si Si5 0.097569 0.693096 0.565016
Si Si6 0.877942 0.855632 0.867972
O O1 0.318210 0.757572 0.807818
O O2 0.126322 0.812800 0.686774
O O3 0.238886 0.021234 0.834316
O O4 0.179244 0.801160 0.962584
O O5 0.349320 0.241137 0.385053
O O6 0.211655 0.320457 0.544866
O O7 0.153452 0.219731 0.284097
O O8 0.462192 0.838201 0.518308
O O9 0.510953 0.749421 0.779932
O O10 0.584365 0.001742 0.705329
O O11 0.108195 0.531152 0.636478
O O12 0.984603 0.703503 0.464283
#
# Coordination Sequence:
#
# PCOD9247783 Si02
#       6
#     4   4   4   4   4   4
#     4  11  23  38  60  89 119 155 197 241 292 348
#     4  11  23  38  60  89 119 155 197 241 292 348
#     4  11  24  41  62  88 118 154 196 242 293 349
#     4  11  24  41  62  88 118 154 196 242 293 349
#     4  10  22  40  61  87 120 157 197 242 291 344
#     4  10  22  40  61  87 120 157 197 242 291 344
#
# _framework density 21.215911999999999
#
# number of rings (size 3 to 8) (size 9 to 14) (size 15 to 20)
#    0.000    1.333    0.000    5.000    0.000   11.333 
#    0.000    0.000    0.000    0.000    0.000    0.000 
#    0.000    0.000    0.000    0.000    0.000    0.000 
#
# Total GULP energy -134345.650465 kJ/mol
# GULP energy per Si atom -5597.735436 kJ/mol
# Density = 2.116762 g / cm^3
# Si number density = 21.215912 Si / 1000 Ang^3
#
#
#
# Elastic Constant Matrix: (Units=GPa)
#
#
# Indices 1 2 3 4 5 6 
#
# 1 67.7781 15.2716 -13.5370 0.0000 -3.7936 0.0000
# 2 15.2716 54.0111 9.3477 0.0000 -18.0727 0.0000
# 3 -13.5370 9.3477 34.8460 0.0000 1.1721 0.0000
# 4 0.0000 0.0000 0.0000 25.9699 0.0000 2.1069
# 5 -3.7936 -18.0727 1.1721 0.0000 23.7778 0.0000
# 6 0.0000 0.0000 0.0000 2.1069 0.0000 25.9556
#
#
#
# Elastic Compliance Matrix: (Units=1/GPa)
#
#
# Indices 1 2 3 4 5 6 
#
# 1 0.018214 -0.007976 0.009337 0.000000 -0.003617 0.000000
# 2 -0.007976 0.030330 -0.011987 0.000000 0.022372 0.000000
# 3 0.009337 -0.011987 0.035856 0.000000 -0.009389 0.000000
# 4 0.000000 0.000000 0.000000 0.038761 0.000000 -0.003146
# 5 -0.003617 0.022372 -0.009389 0.000000 0.058946 0.000000
# 6 0.000000 0.000000 0.000000 -0.003146 0.000000 0.038783
#
#
# Mechanical properties :
#
#
# Convention : Reuss Voigt Hill
#
# Bulk Modulus (GPa) = 15.83599 19.86665 17.85132
# Shear Modulus (GPa) = 18.99754 24.84420 21.92087
#
# Velocity S-wave (km/s) = 2.99563 3.42573 3.21787
# Velocity P-wave (km/s) = 4.40971 5.00318 4.71579
#
# Compressibility (1/GPa) = 0.06314730
#
# Stress axis : x y z
#
# Youngs Moduli (GPa) = 54.90423 32.97031 27.88906
#
# Poissons Ratio (x) = 0.26297 -0.26040
# Poissons Ratio (y) = 0.43791 0.33432
# Poissons Ratio (z) = -0.51263 0.39523
#
# Static dielectric constant tensor:
#      x y z
#    x 1.767260 0.000000 0.011730 
#    y 0.000000 1.720970 0.000000 
#    z 0.011730 0.000000 1.740300 
# 
# From -- ./inp_files/15138.got.cif
#   From: 2010.05.17/outbox.cif.g08.bks.cpg/sg14_8_cif.got.tgz:15138.got - 2010.06.03 17:49:19.
