data_PCOD9247489
_publ_section_title
;
Structure prediction by ZEFSAII (Michael W. Deem and Ramdas Pophale) SiO2 
 PCOD9247489
Probable space group: P 21/C
;
_chemical_formula_sum "Si O2"
_cell_formula_units_Z 24
_cell_length_a 13.006220
_cell_length_b 19.103984
_cell_length_c 7.944076
_cell_angle_alpha 90.000000
_cell_angle_beta 152.731390
_cell_angle_gamma 90.000000
_cell_volume 904.353269
_symmetry_space_group_name_H-M "P 21/C"
_symmetry_group_IT_number 14
_symmetry_cell_setting 'monoclinic'
loop_
_space_group_symop_operation_xyz
x,y,z
-x,1/2+y,1/2-z
-x,-y,-z
x,1/2-y,1/2+z
loop_
_atom_site_type_symbol
_atom_site_label
_atom_site_fract_x
_atom_site_fract_y
_atom_site_fract_z
Si Si1 0.540878 0.184265 0.720112
Si Si2 0.755599 0.505093 0.306160
Si Si3 0.412515 0.069705 0.773999
Si Si4 0.932166 0.641867 0.637895
Si Si5 0.242724 0.642543 0.778791
Si Si6 0.679754 0.833167 0.064959
O O1 0.584937 0.123941 0.924517
O O2 0.308759 0.160120 0.294415
O O3 0.721039 0.190833 0.831740
O O4 0.461171 0.261034 0.658282
O O5 0.918149 0.558209 0.640806
O O6 0.850443 0.427970 0.437877
O O7 0.500000 0.500000 0.000000
O O8 0.731079 0.535988 0.083844
O O9 0.292894 0.128501 0.717869
O O10 0.500000 0.000000 0.000000
O O11 0.904890 0.674697 0.783273
O O12 0.107996 0.662382 0.750643
O O13 0.488452 0.618297 0.202813
#
# Coordination Sequence:
#
# PCOD9247489 Si02
#       6
#     4   4   4   4   4   4
#     4  10  23  40  62  85 124 167 206 252 314 373
#     4  11  18  39  62  89 117 163 202 250 310 371
#     4  11  19  35  65  87 120 160 204 258 307 363
#     4  10  22  38  63  85 119 161 204 251 302 378
#     4  11  21  39  63  87 117 162 208 246 309 374
#     4  11  22  40  60  91 124 158 203 261 317 361
#
# _framework density 26.538302999999999
#
# number of rings (size 3 to 8) (size 9 to 14) (size 15 to 20)
#    0.000    1.333    6.667    2.500    0.000    1.333 
#    0.000    4.167    0.000    0.000    0.000    0.000 
#    0.000    0.000    0.000    0.000    0.000    0.000 
#
# Total GULP energy -133792.186138 kJ/mol
# GULP energy per Si atom -5574.674422 kJ/mol
# Density = 2.647790 g / cm^3
# Si number density = 26.538303 Si / 1000 Ang^3
#
#
#
# Elastic Constant Matrix: (Units=GPa)
#
#
# Indices 1 2 3 4 5 6 
#
# 1 263.5206 65.6189 26.0458 0.0000 40.9426 0.0000
# 2 65.6189 141.3582 0.6586 0.0000 -4.4769 0.0000
# 3 26.0458 0.6586 34.1997 0.0000 17.8737 0.0000
# 4 0.0000 0.0000 0.0000 22.3487 0.0000 -9.8309
# 5 40.9426 -4.4769 17.8737 0.0000 40.4300 0.0000
# 6 0.0000 0.0000 0.0000 -9.8309 0.0000 46.6962
#
#
#
# Elastic Compliance Matrix: (Units=1/GPa)
#
#
# Indices 1 2 3 4 5 6 
#
# 1 0.005392 -0.002660 -0.001362 0.000000 -0.005153 0.000000
# 2 -0.002660 0.008425 -0.000041 0.000000 0.003645 0.000000
# 3 -0.001362 -0.000041 0.038441 0.000000 -0.015619 0.000000
# 4 0.000000 0.000000 0.000000 0.049312 0.000000 0.010382
# 5 -0.005153 0.003645 -0.015619 0.000000 0.037261 0.000000
# 6 0.000000 0.000000 0.000000 0.010382 0.000000 0.023601
#
#
# Mechanical properties :
#
#
# Convention : Reuss Voigt Hill
#
# Bulk Modulus (GPa) = 22.65981 69.30279 45.98130
# Shear Modulus (GPa) = 26.98755 45.01199 35.99977
#
# Velocity S-wave (km/s) = 3.19239 4.12286 3.68709
# Velocity P-wave (km/s) = 4.70591 6.98820 5.95737
#
# Compressibility (1/GPa) = 0.04413100
#
# Stress axis : x y z
#
# Youngs Moduli (GPa) = 185.44569 118.69929 26.01356
#
# Poissons Ratio (x) = 0.31574 0.03544
# Poissons Ratio (y) = 0.49329 0.00108
# Poissons Ratio (z) = 0.25266 0.00491
#
# Static dielectric constant tensor:
#      x y z
#    x 2.260150 0.000000 -0.040840 
#    y 0.000000 2.451020 0.000000 
#    z -0.040840 0.000000 2.199530 
# 
# From -- ./inp_files/14087.got.cif
#   From: 2010.05.17/outbox.cif.g08.bks.cpg/sg14_8_cif.got.tgz:14087.got - 2010.06.03 17:49:19.
