data_PCOD9247715
_publ_section_title
;
Structure prediction by ZEFSAII (Michael W. Deem and Ramdas Pophale) SiO2 
 PCOD9247715
Probable space group: P 21/C
;
_chemical_formula_sum "Si O2"
_cell_formula_units_Z 32
_cell_length_a 5.305974
_cell_length_b 13.189650
_cell_length_c 20.928040
_cell_angle_alpha 90.000000
_cell_angle_beta 79.161671
_cell_angle_gamma 90.000000
_cell_volume 1438.500214
_symmetry_space_group_name_H-M "P 21/C"
_symmetry_group_IT_number 14
_symmetry_cell_setting 'monoclinic'
loop_
_space_group_symop_operation_xyz
x,y,z
-x,1/2+y,1/2-z
-x,-y,-z
x,1/2-y,1/2+z
loop_
_atom_site_type_symbol
_atom_site_label
_atom_site_fract_x
_atom_site_fract_y
_atom_site_fract_z
Si Si1 0.636541 0.503113 0.831789
Si Si2 0.611628 0.278015 0.161350
Si Si3 0.843594 0.718870 0.026301
Si Si4 0.638003 0.855653 0.731503
Si Si5 0.976453 0.217648 0.849985
Si Si6 0.863588 0.809454 0.894213
Si Si7 0.682945 0.372096 0.939629
Si Si8 0.058895 0.006956 0.198691
O O1 0.496839 0.609358 0.833045
O O2 0.430275 0.414360 0.828999
O O3 0.739900 0.473658 0.896801
O O4 0.843356 0.492903 0.764829
O O5 0.570940 0.220495 0.230635
O O6 0.411402 0.219585 0.123591
O O7 0.911661 0.271316 0.132388
O O8 0.843583 0.775056 0.095288
O O9 0.606343 0.643894 0.024922
O O10 0.105858 0.652733 0.016807
O O11 0.842541 0.802803 0.971127
O O12 0.885899 0.785712 0.710131
O O13 0.692724 0.947328 0.777707
O O14 0.734770 0.279072 0.887552
O O15 0.922735 0.106005 0.828423
O O16 0.970524 0.913301 0.858025
#
# Coordination Sequence:
#
# PCOD9247715 Si02
#       8
#     4   4   4   4   4   4   4   4
#     4  12  22  39  68  95 132 164 215 264 334 387
#     4  11  26  41  67  98 128 170 209 271 325 379
#     4  10  22  44  68  85 136 171 217 265 310 371
#     4  11  22  39  62  96 136 162 211 268 326 385
#     4  10  22  39  66  96 127 171 212 260 324 379
#     4  11  25  47  62  97 133 170 217 269 313 376
#     4  10  22  41  67  94 123 174 213 267 309 382
#     4  11  23  38  65 100 128 172 208 265 330 392
#
# _framework density 22.245391000000001
#
# number of rings (size 3 to 8) (size 9 to 14) (size 15 to 20)
#    0.750    0.500    5.000    0.750    1.750    2.500 
#    0.000    4.375    0.000    0.000    0.000    0.000 
#    0.000    0.000    0.000    0.000    0.000    0.000 
#
# Total GULP energy -178555.394529 kJ/mol
# GULP energy per Si atom -5579.856079 kJ/mol
# Density = 2.219476 g / cm^3
# Si number density = 22.245391 Si / 1000 Ang^3
#
#
#
# Elastic Constant Matrix: (Units=GPa)
#
#
# Indices 1 2 3 4 5 6 
#
# 1 77.1818 -5.6470 1.9346 0.0000 -0.0320 0.0000
# 2 -5.6470 86.1889 9.4397 0.0000 4.1692 0.0000
# 3 1.9346 9.4397 40.7832 0.0000 5.9623 0.0000
# 4 0.0000 0.0000 0.0000 18.9503 0.0000 -2.9700
# 5 -0.0320 4.1692 5.9623 0.0000 17.3849 0.0000
# 6 0.0000 0.0000 0.0000 -2.9700 0.0000 22.1386
#
#
#
# Elastic Compliance Matrix: (Units=1/GPa)
#
#
# Indices 1 2 3 4 5 6 
#
# 1 0.013047 0.000944 -0.000850 0.000000 0.000089 0.000000
# 2 0.000944 0.012040 -0.002537 0.000000 -0.002016 0.000000
# 3 -0.000850 -0.002537 0.026381 0.000000 -0.008441 0.000000
# 4 0.000000 0.000000 0.000000 0.053903 0.000000 0.007231
# 5 0.000089 -0.002016 -0.008441 0.000000 0.060899 0.000000
# 6 0.000000 0.000000 0.000000 0.007231 0.000000 0.046140
#
#
# Mechanical properties :
#
#
# Convention : Reuss Voigt Hill
#
# Bulk Modulus (GPa) = 21.46812 23.95651 22.71231
# Shear Modulus (GPa) = 21.47543 24.92321 23.19932
#
# Velocity S-wave (km/s) = 3.11044 3.35083 3.23287
# Velocity P-wave (km/s) = 4.75093 5.07576 4.91603
#
# Compressibility (1/GPa) = 0.04658071
#
# Stress axis : x y z
#
# Youngs Moduli (GPa) = 76.64702 83.05932 37.90548
#
# Poissons Ratio (x) = -0.07838 0.03223
# Poissons Ratio (y) = -0.07233 0.09616
# Poissons Ratio (z) = 0.06518 0.21071
#
# Static dielectric constant tensor:
#      x y z
#    x 1.886150 0.000000 0.031370 
#    y 0.000000 1.767380 0.000000 
#    z 0.031370 0.000000 1.893170 
# 
# From -- ./inp_files/71234.got.cif
#   From: 2010.05.17/outbox.cif.g08.bks.cpg/sg14_36_cif.got.tgz:71234.got - 2010.06.03 17:49:19.
