data_PCOD9247135
_publ_section_title
;
Structure prediction by ZEFSAII (Michael W. Deem and Ramdas Pophale) SiO2 
 PCOD9247135
Probable space group: P 21/C
;
_chemical_formula_sum "Si O2"
_cell_formula_units_Z 24
_cell_length_a 11.798498
_cell_length_b 12.102270
_cell_length_c 14.509006
_cell_angle_alpha 90.000000
_cell_angle_beta 29.379497
_cell_angle_gamma 90.000000
_cell_volume 1016.369562
_symmetry_space_group_name_H-M "P 21/C"
_symmetry_group_IT_number 14
_symmetry_cell_setting 'monoclinic'
loop_
_space_group_symop_operation_xyz
x,y,z
-x,1/2+y,1/2-z
-x,-y,-z
x,1/2-y,1/2+z
loop_
_atom_site_type_symbol
_atom_site_label
_atom_site_fract_x
_atom_site_fract_y
_atom_site_fract_z
Si Si1 0.210905 0.876357 0.687327
Si Si2 0.877468 0.863747 0.667021
Si Si3 0.087929 0.453876 0.131394
Si Si4 0.249266 0.289181 0.537916
Si Si5 0.364835 0.847056 0.972495
Si Si6 0.277088 0.719430 0.326548
O O1 0.318709 0.770125 0.557735
O O2 0.295644 0.868843 0.731298
O O3 0.932908 0.861529 0.888214
O O4 0.234235 0.981331 0.605310
O O5 0.825726 0.804769 0.802760
O O6 0.625677 0.885697 0.804569
O O7 0.031998 0.780957 0.497857
O O8 0.039331 0.967599 0.579022
O O9 0.203969 0.335899 0.037179
O O10 0.827567 0.428600 0.350966
O O11 0.518813 0.308375 0.334646
O O12 0.312212 0.829234 0.902677
#
# Coordination Sequence:
#
# PCOD9247135 Si02
#       6
#     4   4   4   4   4   4
#     4  10  22  42  68  93 135 176 215 275 330 386
#     4  11  22  44  69  93 136 176 216 273 328 387
#     4  10  21  44  67  97 137 170 216 282 323 382
#     4  10  22  43  65  97 135 168 222 271 327 390
#     4  11  22  43  67  97 134 172 222 274 323 392
#     4  12  22  42  68  93 131 181 213 264 340 385
#
# _framework density 23.613458999999999
#
# number of rings (size 3 to 8) (size 9 to 14) (size 15 to 20)
#    0.000    1.333    6.667    1.500    0.000    1.333 
#    6.000    4.167    0.000    0.000    0.000    0.000 
#    0.000    0.000    0.000    0.000    0.000    0.000 
#
# Total GULP energy -134245.608238 kJ/mol
# GULP energy per Si atom -5593.567010 kJ/mol
# Density = 2.355971 g / cm^3
# Si number density = 23.613459 Si / 1000 Ang^3
#
#
#
# Elastic Constant Matrix: (Units=GPa)
#
#
# Indices 1 2 3 4 5 6 
#
# 1 127.0599 7.3962 25.7382 0.0000 7.1638 0.0000
# 2 7.3962 66.3872 1.7159 0.0000 6.4733 0.0000
# 3 25.7382 1.7159 90.9170 0.0000 -18.4921 0.0000
# 4 0.0000 0.0000 0.0000 17.2001 0.0000 -2.1190
# 5 7.1638 6.4733 -18.4921 0.0000 34.2042 0.0000
# 6 0.0000 0.0000 0.0000 -2.1190 0.0000 11.6608
#
#
#
# Elastic Compliance Matrix: (Units=1/GPa)
#
#
# Indices 1 2 3 4 5 6 
#
# 1 0.008737 -0.000557 -0.003161 0.000000 -0.003433 0.000000
# 2 -0.000557 0.015461 -0.000793 0.000000 -0.003238 0.000000
# 3 -0.003161 -0.000793 0.013566 0.000000 0.008146 0.000000
# 4 0.000000 0.000000 0.000000 0.059471 0.000000 0.010807
# 5 -0.003433 -0.003238 0.008146 0.000000 0.034972 0.000000
# 6 0.000000 0.000000 0.000000 0.010807 0.000000 0.087722
#
#
# Mechanical properties :
#
#
# Convention : Reuss Voigt Hill
#
# Bulk Modulus (GPa) = 34.79187 39.34051 37.06619
# Shear Modulus (GPa) = 20.96164 29.24725 25.10444
#
# Velocity S-wave (km/s) = 2.98266 3.52317 3.26412
# Velocity P-wave (km/s) = 5.16019 5.76599 5.47148
#
# Compressibility (1/GPa) = 0.02874235
#
# Stress axis : x y z
#
# Youngs Moduli (GPa) = 114.46036 64.67708 73.71459
#
# Poissons Ratio (x) = 0.03602 0.23302
# Poissons Ratio (y) = 0.06374 0.05844
# Poissons Ratio (z) = 0.36183 0.05127
#
# Static dielectric constant tensor:
#      x y z
#    x 1.905930 0.000000 -0.001670 
#    y 0.000000 1.904530 0.000000 
#    z -0.001670 0.000000 1.882900 
# 
# From -- ./inp_files/45009.got.cif
#   From: 2010.05.17/outbox.cif.g08.bks.cpg/sg14_23_cif.got.tgz:45009.got - 2010.06.03 17:49:19.
