data_PCOD9247491
_publ_section_title
;
Structure prediction by ZEFSAII (Michael W. Deem and Ramdas Pophale) SiO2 
 PCOD9247491
Probable space group: P 21/C
;
_chemical_formula_sum "Si O2"
_cell_formula_units_Z 22
_cell_length_a 12.509815
_cell_length_b 7.335564
_cell_length_c 9.338129
_cell_angle_alpha 90.000000
_cell_angle_beta 101.244504
_cell_angle_gamma 90.000000
_cell_volume 840.478272
_symmetry_space_group_name_H-M "P 21/C"
_symmetry_group_IT_number 14
_symmetry_cell_setting 'monoclinic'
loop_
_space_group_symop_operation_xyz
x,y,z
-x,1/2+y,1/2-z
-x,-y,-z
x,1/2-y,1/2+z
loop_
_atom_site_type_symbol
_atom_site_label
_atom_site_fract_x
_atom_site_fract_y
_atom_site_fract_z
Si Si1 0.286110 0.675544 0.557531
Si Si2 0.394000 0.094747 0.254018
Si Si3 0.500000 0.000000 0.000000
Si Si4 0.044370 0.721549 0.453218
Si Si5 0.318001 0.102946 0.523704
Si Si6 0.085809 0.120416 0.337360
O O1 0.312982 0.578970 0.717346
O O2 0.376174 0.580568 0.481584
O O3 0.163040 0.632303 0.480770
O O4 0.304539 0.892230 0.560784
O O5 0.493392 0.044083 0.175944
O O6 0.411906 0.137100 0.425944
O O7 0.340287 0.266736 0.161768
O O8 0.948338 0.636144 0.334873
O O9 0.998851 0.753501 0.598873
O O10 0.064788 0.920472 0.392382
O O11 0.208415 0.166387 0.413873
#
# Coordination Sequence:
#
# PCOD9247491 Si02
#       6
#     4   4   2   4   4   4
#     4   9  23  43  63  97 132 181 229 289 337 416
#     4  10  24  43  67 101 132 183 229 291 347 419
#     4   8  22  46  62 104 122 174 240 270 362 396
#     4  10  22  38  63  87 136 166 228 269 340 398
#     4  11  23  43  68  99 143 176 234 286 349 412
#     4  10  23  38  58 100 123 183 214 276 334 410
#
# _framework density 26.175574000000001
#
# number of rings (size 3 to 8) (size 9 to 14) (size 15 to 20)
#    1.091    1.091    0.000    1.091    7.636    4.364 
#    0.000    0.000    0.000    0.000    0.000    0.000 
#    0.000    0.000    0.000    0.000    0.000    0.000 
#
# Total GULP energy -122725.150633 kJ/mol
# GULP energy per Si atom -5578.415938 kJ/mol
# Density = 2.611600 g / cm^3
# Si number density = 26.175574 Si / 1000 Ang^3
#
#
#
# Elastic Constant Matrix: (Units=GPa)
#
#
# Indices 1 2 3 4 5 6 
#
# 1 153.0953 44.0284 19.9632 0.0000 11.1640 0.0000
# 2 44.0284 103.5958 46.8867 0.0000 3.5719 0.0000
# 3 19.9632 46.8867 96.9266 0.0000 -9.1291 0.0000
# 4 0.0000 0.0000 0.0000 39.1260 0.0000 -3.8666
# 5 11.1640 3.5719 -9.1291 0.0000 36.8023 0.0000
# 6 0.0000 0.0000 0.0000 -3.8666 0.0000 32.3483
#
#
#
# Elastic Compliance Matrix: (Units=1/GPa)
#
#
# Indices 1 2 3 4 5 6 
#
# 1 0.007591 -0.003019 -0.000299 0.000000 -0.002084 0.000000
# 2 -0.003019 0.013836 -0.006258 0.000000 -0.001979 0.000000
# 3 -0.000299 -0.006258 0.013794 0.000000 0.004120 0.000000
# 4 0.000000 0.000000 0.000000 0.025864 0.000000 0.003092
# 5 -0.002084 -0.001979 0.004120 0.000000 0.029019 0.000000
# 6 0.000000 0.000000 0.000000 0.003092 0.000000 0.031283
#
#
# Mechanical properties :
#
#
# Convention : Reuss Voigt Hill
#
# Bulk Modulus (GPa) = 62.23084 63.93048 63.08066
# Shear Modulus (GPa) = 34.27109 37.83794 36.05451
#
# Velocity S-wave (km/s) = 3.62232 3.80616 3.71537
# Velocity P-wave (km/s) = 6.42814 6.61759 6.52355
#
# Compressibility (1/GPa) = 0.01606920
#
# Stress axis : x y z
#
# Youngs Moduli (GPa) = 131.73351 72.27306 72.49570
#
# Poissons Ratio (x) = 0.21818 0.02171
# Poissons Ratio (y) = 0.39768 0.45367
# Poissons Ratio (z) = 0.03945 0.45227
#
# Static dielectric constant tensor:
#      x y z
#    x 2.399640 0.000000 0.342390 
#    y 0.000000 0.954590 0.000000 
#    z 0.342390 0.000000 2.264590 
# 
# From -- ./inp_files/14984.got.cif
#   From: 2010.05.17/outbox.cif.g08.bks.cpg/sg14_8_cif.got.tgz:14984.got - 2010.06.03 17:49:19.
