data_PCOD9247936
_publ_section_title
;
Structure prediction by ZEFSAII (Michael W. Deem and Ramdas Pophale) SiO2 
 PCOD9247936
Probable space group: P 21/C
;
_chemical_formula_sum "Si O2"
_cell_formula_units_Z 28
_cell_length_a 16.167314
_cell_length_b 10.492668
_cell_length_c 9.402326
_cell_angle_alpha 90.000000
_cell_angle_beta 123.760719
_cell_angle_gamma 90.000000
_cell_volume 1326.023412
_symmetry_space_group_name_H-M "P 21/C"
_symmetry_group_IT_number 14
_symmetry_cell_setting 'monoclinic'
loop_
_space_group_symop_operation_xyz
x,y,z
-x,1/2+y,1/2-z
-x,-y,-z
x,1/2-y,1/2+z
loop_
_atom_site_type_symbol
_atom_site_label
_atom_site_fract_x
_atom_site_fract_y
_atom_site_fract_z
Si Si1 0.486199 0.753090 0.289139
Si Si2 0.418554 0.399275 0.377095
Si Si3 0.789063 0.876645 0.257660
Si Si4 0.907273 0.565428 0.611335
Si Si5 0.212260 0.415270 0.771020
Si Si6 0.940123 0.859011 0.629688
Si Si7 0.406640 0.587269 0.953932
O O1 0.546982 0.844546 0.240683
O O2 0.566660 0.698311 0.477148
O O3 0.405361 0.815769 0.318096
O O4 0.434146 0.656256 0.128637
O O5 0.500000 0.500000 0.500000
O O6 0.306085 0.448668 0.271562
O O7 0.809288 0.913319 0.114904
O O8 0.763138 0.727906 0.258001
O O9 0.896648 0.891640 0.433464
O O10 0.868907 0.532673 0.417934
O O11 0.959233 0.706321 0.658175
O O12 0.972720 0.451298 0.736439
O O13 0.154623 0.391014 0.861801
O O14 0.307203 0.504914 0.869808
O O15 0.500000 0.500000 0.000000
#
# Coordination Sequence:
#
# PCOD9247936 Si02
#       7
#     4   4   4   4   4   4   4
#     4  10  24  40  58  92 132 164 208 260 314 372
#     4  11  24  38  62  91 127 164 209 253 309 374
#     4  10  23  37  66  93 121 162 215 255 311 382
#     4  10  22  42  65  93 123 161 215 268 322 383
#     4  10  22  40  67  89 119 171 208 253 318 384
#     4  10  22  42  65  93 123 161 215 268 322 383
#     4  11  23  41  65  89 134 166 212 262 319 381
#
# _framework density 21.115767000000002
#
# number of rings (size 3 to 8) (size 9 to 14) (size 15 to 20)
#    0.000    1.714    0.000    3.429   14.000    0.000 
#    2.571    0.000    0.000    0.000    0.000    0.000 
#    0.000    0.000    0.000    0.000    0.000    0.000 
#
# Total GULP energy -156291.521184 kJ/mol
# GULP energy per Si atom -5581.840042 kJ/mol
# Density = 2.106771 g / cm^3
# Si number density = 21.115767 Si / 1000 Ang^3
#
#
#
# Elastic Constant Matrix: (Units=GPa)
#
#
# Indices 1 2 3 4 5 6 
#
# 1 43.6195 17.5435 11.8314 0.0000 9.4228 0.0000
# 2 17.5435 60.1534 27.1138 0.0000 15.8329 0.0000
# 3 11.8314 27.1138 81.2431 0.0000 -8.8294 0.0000
# 4 0.0000 0.0000 0.0000 31.7066 0.0000 16.3131
# 5 9.4228 15.8329 -8.8294 0.0000 39.4266 0.0000
# 6 0.0000 0.0000 0.0000 16.3131 0.0000 13.5520
#
#
#
# Elastic Compliance Matrix: (Units=1/GPa)
#
#
# Indices 1 2 3 4 5 6 
#
# 1 0.026848 -0.005357 -0.002650 0.000000 -0.004859 0.000000
# 2 -0.005357 0.024914 -0.008695 0.000000 -0.010672 0.000000
# 3 -0.002650 -0.008695 0.016445 0.000000 0.007808 0.000000
# 4 0.000000 0.000000 0.000000 0.082851 0.000000 -0.099732
# 5 -0.004859 -0.010672 0.007808 0.000000 0.032559 0.000000
# 6 0.000000 0.000000 0.000000 -0.099732 0.000000 0.193841
#
#
# Mechanical properties :
#
#
# Convention : Reuss Voigt Hill
#
# Bulk Modulus (GPa) = 28.73176 33.11039 30.92107
# Shear Modulus (GPa) = 11.83532 25.50555 18.67044
#
# Velocity S-wave (km/s) = 2.37005 3.47924 2.97677
# Velocity P-wave (km/s) = 4.59629 5.64399 5.14687
#
# Compressibility (1/GPa) = 0.03480469
#
# Stress axis : x y z
#
# Youngs Moduli (GPa) = 37.24605 40.13745 60.80905
#
# Poissons Ratio (x) = 0.21500 0.16116
# Poissons Ratio (y) = 0.19952 0.52871
# Poissons Ratio (z) = 0.09871 0.34898
#
# Static dielectric constant tensor:
#      x y z
#    x 1.699110 0.000000 0.082540 
#    y 0.000000 1.869640 0.000000 
#    z 0.082540 0.000000 1.693890 
# 
# From -- ./inp_files/15899.got.cif
#   From: 2010.05.17/outbox.cif.g08.bks.cpg/sg14_8_cif.got.tgz:15899.got - 2010.06.03 17:49:19.
