data_PCOD9247733
_publ_section_title
;
Structure prediction by ZEFSAII (Michael W. Deem and Ramdas Pophale) SiO2 
 PCOD9247733
Probable space group: P 21/C
;
_chemical_formula_sum "Si O2"
_cell_formula_units_Z 32
_cell_length_a 9.307181
_cell_length_b 25.881625
_cell_length_c 13.070081
_cell_angle_alpha 90.000000
_cell_angle_beta 28.234628
_cell_angle_gamma 90.000000
_cell_volume 1489.448907
_symmetry_space_group_name_H-M "P 21/C"
_symmetry_group_IT_number 14
_symmetry_cell_setting 'monoclinic'
loop_
_space_group_symop_operation_xyz
x,y,z
-x,1/2+y,1/2-z
-x,-y,-z
x,1/2-y,1/2+z
loop_
_atom_site_type_symbol
_atom_site_label
_atom_site_fract_x
_atom_site_fract_y
_atom_site_fract_z
Si Si1 0.468639 0.904559 0.912872
Si Si2 0.708590 0.370153 0.914907
Si Si3 0.328915 0.742297 0.303893
Si Si4 0.485264 0.370936 0.839149
Si Si5 0.326508 0.224612 0.722774
Si Si6 0.157131 0.945909 0.488716
Si Si7 0.648014 0.814957 0.951274
Si Si8 0.069916 0.943309 0.323949
O O1 0.374232 0.888036 0.858259
O O2 0.809817 0.926217 0.695504
O O3 0.483984 0.855528 0.979203
O O4 0.261804 0.945932 0.100312
O O5 0.653546 0.390562 0.835094
O O6 0.703034 0.412293 0.008637
O O7 0.035960 0.341127 0.711755
O O8 0.439943 0.329701 0.108845
O O9 0.512547 0.691071 0.158243
O O10 0.408354 0.754724 0.370582
O O11 0.977586 0.726308 0.518291
O O12 0.429978 0.792306 0.176111
O O13 0.149593 0.394372 0.048639
O O14 0.277800 0.265084 0.663280
O O15 0.275418 0.939098 0.298070
O O16 0.135084 0.005898 0.531278
#
# Coordination Sequence:
#
# PCOD9247733 Si02
#       8
#     4   4   4   4   4   4   4   4
#     4  10  22  39  68  96 127 168 220 268 331 399
#     4  11  24  45  64  95 136 173 220 279 332 399
#     4  12  26  39  64  94 136 172 223 271 324 395
#     4  11  24  39  61  95 132 165 219 265 329 393
#     4  12  25  41  64  92 133 177 221 266 330 386
#     4   9  22  45  67  96 126 164 224 275 339 402
#     4  11  24  42  62  93 130 177 217 265 324 392
#     4  10  22  42  71  93 125 171 216 282 333 399
#
# _framework density 21.484456000000002
#
# number of rings (size 3 to 8) (size 9 to 14) (size 15 to 20)
#    0.000    1.250    3.750    1.125    5.250    0.500 
#    0.000    0.625    0.000    0.000    0.000    0.000 
#    0.000    0.000    0.000    0.000    0.000    0.000 
#
# Total GULP energy -178788.821832 kJ/mol
# GULP energy per Si atom -5587.150682 kJ/mol
# Density = 2.143556 g / cm^3
# Si number density = 21.484456 Si / 1000 Ang^3
#
#
#
# Elastic Constant Matrix: (Units=GPa)
#
#
# Indices 1 2 3 4 5 6 
#
# 1 102.1881 13.0960 32.7777 0.0000 17.1139 0.0000
# 2 13.0960 58.1858 11.6954 0.0000 -4.4728 0.0000
# 3 32.7777 11.6954 64.6057 0.0000 5.5832 0.0000
# 4 0.0000 0.0000 0.0000 20.8906 0.0000 11.0887
# 5 17.1139 -4.4728 5.5832 0.0000 25.4014 0.0000
# 6 0.0000 0.0000 0.0000 11.0887 0.0000 30.0662
#
#
#
# Elastic Compliance Matrix: (Units=1/GPa)
#
#
# Indices 1 2 3 4 5 6 
#
# 1 0.013256 -0.002490 -0.005571 0.000000 -0.008145 0.000000
# 2 -0.002490 0.018695 -0.002600 0.000000 0.005541 0.000000
# 3 -0.005571 -0.002600 0.018849 0.000000 -0.000848 0.000000
# 4 0.000000 0.000000 0.000000 0.059521 0.000000 -0.021952
# 5 -0.008145 0.005541 -0.000848 0.000000 0.046017 0.000000
# 6 0.000000 0.000000 0.000000 -0.021952 0.000000 0.041356
#
#
# Mechanical properties :
#
#
# Convention : Reuss Voigt Hill
#
# Bulk Modulus (GPa) = 33.92283 37.79088 35.85685
# Shear Modulus (GPa) = 21.84919 26.43232 24.14076
#
# Velocity S-wave (km/s) = 3.19247 3.51137 3.35571
# Velocity P-wave (km/s) = 5.42336 5.83675 5.63385
#
# Compressibility (1/GPa) = 0.02947867
#
# Stress axis : x y z
#
# Youngs Moduli (GPa) = 75.43795 53.48947 53.05389
#
# Poissons Ratio (x) = 0.13318 0.29555
# Poissons Ratio (y) = 0.18783 0.13794
# Poissons Ratio (z) = 0.42025 0.13907
#
# Static dielectric constant tensor:
#      x y z
#    x 1.783740 0.000000 0.034220 
#    y 0.000000 1.770500 0.000000 
#    z 0.034220 0.000000 1.848250 
# 
# From -- ./inp_files/27173.got.cif
#   From: 2010.05.17/outbox.cif.g08.bks.cpg/sg14_14_cif.got.tgz:27173.got - 2010.06.03 17:49:19.
