data_PCOD9247119
_publ_section_title
;
Structure prediction by ZEFSAII (Michael W. Deem and Ramdas Pophale) SiO2 
 PCOD9247119
Probable space group: P 21/C
;
_chemical_formula_sum "Si O2"
_cell_formula_units_Z 28
_cell_length_a 12.709620
_cell_length_b 9.941299
_cell_length_c 21.558297
_cell_angle_alpha 90.000000
_cell_angle_beta 25.933300
_cell_angle_gamma 90.000000
_cell_volume 1191.225533
_symmetry_space_group_name_H-M "P 21/C"
_symmetry_group_IT_number 14
_symmetry_cell_setting 'monoclinic'
loop_
_space_group_symop_operation_xyz
x,y,z
-x,1/2+y,1/2-z
-x,-y,-z
x,1/2-y,1/2+z
loop_
_atom_site_type_symbol
_atom_site_label
_atom_site_fract_x
_atom_site_fract_y
_atom_site_fract_z
Si Si1 0.258763 0.524592 0.207817
Si Si2 0.383191 0.807513 0.093164
Si Si3 0.909129 0.208217 0.872070
Si Si4 0.248971 0.348396 0.508832
Si Si5 0.372703 0.433720 0.886247
Si Si6 0.456952 0.601493 0.340633
Si Si7 0.901053 0.963724 0.681072
O O1 0.376158 0.644544 0.105093
O O2 0.436050 0.491252 0.170732
O O3 0.139402 0.390187 0.243356
O O4 0.021898 0.605877 0.355302
O O5 0.285999 0.830263 0.076242
O O6 0.643509 0.857705 0.978469
O O7 0.207490 0.900612 0.230160
O O8 0.984697 0.362980 0.829119
O O9 0.770094 0.180643 0.010722
O O10 0.303484 0.199822 0.459720
O O11 0.397634 0.446063 0.385799
O O12 0.487713 0.389066 0.760753
O O13 0.116905 0.507227 0.018524
O O14 0.695774 0.621513 0.254912
#
# Coordination Sequence:
#
# PCOD9247119 Si02
#       7
#     4   4   4   4   4   4   4
#     4  10  22  42  63  96 123 167 209 258 314 369
#     4  10  21  44  66  92 127 169 210 253 314 383
#     4  11  25  40  66  96 128 163 212 264 312 365
#     4   9  21  41  65  90 122 174 210 252 318 373
#     4  11  23  41  66  92 129 162 216 258 312 379
#     4  10  25  41  63  93 129 169 205 262 318 371
#     4  11  24  42  65  96 125 167 212 257 317 368
#
# _framework density 23.505205
#
# number of rings (size 3 to 8) (size 9 to 14) (size 15 to 20)
#    0.000    1.714    1.429    1.286    4.000    9.714 
#    0.000    2.143    0.000    0.000    0.000    0.000 
#    0.000    0.000    0.000    0.000    0.000    0.000 
#
# Total GULP energy -156321.061318 kJ/mol
# GULP energy per Si atom -5582.895047 kJ/mol
# Density = 2.345171 g / cm^3
# Si number density = 23.505205 Si / 1000 Ang^3
#
#
#
# Elastic Constant Matrix: (Units=GPa)
#
#
# Indices 1 2 3 4 5 6 
#
# 1 56.5791 -12.5923 20.0921 0.0000 -0.5374 0.0000
# 2 -12.5923 58.4131 -0.8367 0.0000 -1.6747 0.0000
# 3 20.0921 -0.8367 99.5929 0.0000 -1.3129 0.0000
# 4 0.0000 0.0000 0.0000 28.2991 0.0000 -11.6424
# 5 -0.5374 -1.6747 -1.3129 0.0000 30.3277 0.0000
# 6 0.0000 0.0000 0.0000 -11.6424 0.0000 21.5748
#
#
#
# Elastic Compliance Matrix: (Units=1/GPa)
#
#
# Indices 1 2 3 4 5 6 
#
# 1 0.020052 0.004277 -0.004004 0.000000 0.000418 0.000000
# 2 0.004277 0.018061 -0.000697 0.000000 0.001043 0.000000
# 3 -0.004004 -0.000697 0.010848 0.000000 0.000360 0.000000
# 4 0.000000 0.000000 0.000000 0.045420 0.000000 0.024510
# 5 0.000418 0.001043 0.000360 0.000000 0.033054 0.000000
# 6 0.000000 0.000000 0.000000 0.024510 0.000000 0.059577
#
#
# Mechanical properties :
#
#
# Convention : Reuss Voigt Hill
#
# Bulk Modulus (GPa) = 20.78435 25.32346 23.05390
# Shear Modulus (GPa) = 24.52209 29.90180 27.21194
#
# Velocity S-wave (km/s) = 3.23346 3.57057 3.40619
# Velocity P-wave (km/s) = 4.77514 5.27215 5.02979
#
# Compressibility (1/GPa) = 0.04811313
#
# Stress axis : x y z
#
# Youngs Moduli (GPa) = 49.86993 55.36658 92.18695
#
# Poissons Ratio (x) = -0.23682 0.36911
# Poissons Ratio (y) = -0.21331 0.06429
# Poissons Ratio (z) = 0.19967 0.03861
#
# Static dielectric constant tensor:
#      x y z
#    x 1.890670 0.000000 -0.021600 
#    y 0.000000 1.903080 0.000000 
#    z -0.021600 0.000000 1.911130 
# 
# From -- ./inp_files/35208.got.cif
#   From: 2010.05.17/outbox.cif.g08.bks.cpg/sg14_18_cif.got.tgz:35208.got - 2010.06.03 17:49:19.
