data_PCOD9247756
_publ_section_title
;
Structure prediction by ZEFSAII (Michael W. Deem and Ramdas Pophale) SiO2 
 PCOD9247756
Probable space group: P 21/C
;
_chemical_formula_sum "Si O2"
_cell_formula_units_Z 20
_cell_length_a 6.872884
_cell_length_b 9.805875
_cell_length_c 12.318684
_cell_angle_alpha 90.000000
_cell_angle_beta 113.596983
_cell_angle_gamma 90.000000
_cell_volume 760.794018
_symmetry_space_group_name_H-M "P 21/C"
_symmetry_group_IT_number 14
_symmetry_cell_setting 'monoclinic'
loop_
_space_group_symop_operation_xyz
x,y,z
-x,1/2+y,1/2-z
-x,-y,-z
x,1/2-y,1/2+z
loop_
_atom_site_type_symbol
_atom_site_label
_atom_site_fract_x
_atom_site_fract_y
_atom_site_fract_z
Si Si1 0.930298 0.960507 0.638942
Si Si2 0.782049 0.262377 0.012464
Si Si3 0.832594 0.888094 0.851533
Si Si4 0.673753 0.781730 0.137763
Si Si5 0.362691 0.579193 0.330023
O O1 0.878895 0.984579 0.757214
O O2 0.785303 0.826745 0.583054
O O3 0.178586 0.924666 0.697940
O O4 0.864129 0.086018 0.551021
O O5 0.688949 0.207670 0.107013
O O6 0.966091 0.150636 0.029204
O O7 0.570008 0.256611 0.894680
O O8 0.798184 0.745028 0.777482
O O9 0.605909 0.923440 0.848856
O O10 0.676082 0.939418 0.111399
#
# Coordination Sequence:
#
# PCOD9247756 Si02
#       5
#     4   4   4   4   4
#     4   9  20  39  61  83 117 156 198 243 293 347
#     4  11  21  40  62  88 121 155 199 247 296 353
#     4   9  23  36  60  88 118 157 196 243 294 351
#     4  10  22  40  59  91 119 154 203 243 296 354
#     4  11  20  40  61  84 125 159 194 245 299 351
#
# _framework density 26.288328
#
# number of rings (size 3 to 8) (size 9 to 14) (size 15 to 20)
#    1.200    0.800    2.000    1.200    2.800    0.800 
#    3.600    1.000    0.000    0.000    0.000    0.000 
#    0.000    0.000    0.000    0.000    0.000    0.000 
#
# Total GULP energy -111736.703013 kJ/mol
# GULP energy per Si atom -5586.835151 kJ/mol
# Density = 2.622849 g / cm^3
# Si number density = 26.288328 Si / 1000 Ang^3
#
#
#
# Elastic Constant Matrix: (Units=GPa)
#
#
# Indices 1 2 3 4 5 6 
#
# 1 161.4444 36.7556 33.1925 0.0000 34.7656 0.0000
# 2 36.7556 105.4337 11.4728 0.0000 8.6530 0.0000
# 3 33.1925 11.4728 63.5973 0.0000 28.1370 0.0000
# 4 0.0000 0.0000 0.0000 26.1184 0.0000 11.7013
# 5 34.7656 8.6530 28.1370 0.0000 51.3905 0.0000
# 6 0.0000 0.0000 0.0000 11.7013 0.0000 33.6057
#
#
#
# Elastic Compliance Matrix: (Units=1/GPa)
#
#
# Indices 1 2 3 4 5 6 
#
# 1 0.007959 -0.002234 -0.002026 0.000000 -0.003899 0.000000
# 2 -0.002234 0.010333 -0.000788 0.000000 0.000203 0.000000
# 3 -0.002026 -0.000788 0.021456 0.000000 -0.010244 0.000000
# 4 0.000000 0.000000 0.000000 0.045364 0.000000 -0.015795
# 5 -0.003899 0.000203 -0.010244 0.000000 0.027671 0.000000
# 6 0.000000 0.000000 0.000000 -0.015795 0.000000 0.035257
#
#
# Mechanical properties :
#
#
# Convention : Reuss Voigt Hill
#
# Bulk Modulus (GPa) = 33.72508 54.81303 44.26906
# Shear Modulus (GPa) = 29.75876 38.82655 34.29266
#
# Velocity S-wave (km/s) = 3.36819 3.84728 3.61568
# Velocity P-wave (km/s) = 5.28990 6.37428 5.85724
#
# Compressibility (1/GPa) = 0.02965152
#
# Stress axis : x y z
#
# Youngs Moduli (GPa) = 125.64714 96.78165 46.60776
#
# Poissons Ratio (x) = 0.21622 0.09442
# Poissons Ratio (y) = 0.28071 0.03671
# Poissons Ratio (z) = 0.25455 0.07624
#
# Static dielectric constant tensor:
#      x y z
#    x 2.054600 0.000000 -0.007470 
#    y 0.000000 2.023860 0.000000 
#    z -0.007470 0.000000 2.103430 
# 
# From -- ./inp_files/44689.got.cif
#   From: 2010.05.17/outbox.cif.g08.bks.cpg/sg14_23_cif.got.tgz:44689.got - 2010.06.03 17:49:19.
