data_PCOD9247259
_publ_section_title
;
Structure prediction by ZEFSAII (Michael W. Deem and Ramdas Pophale) SiO2 
 PCOD9247259
Probable space group: P 21/C
;
_chemical_formula_sum "Si O2"
_cell_formula_units_Z 20
_cell_length_a 11.998098
_cell_length_b 16.384288
_cell_length_c 8.566808
_cell_angle_alpha 90.000000
_cell_angle_beta 36.671196
_cell_angle_gamma 90.000000
_cell_volume 1005.761041
_symmetry_space_group_name_H-M "P 21/C"
_symmetry_group_IT_number 14
_symmetry_cell_setting 'monoclinic'
loop_
_space_group_symop_operation_xyz
x,y,z
-x,1/2+y,1/2-z
-x,-y,-z
x,1/2-y,1/2+z
loop_
_atom_site_type_symbol
_atom_site_label
_atom_site_fract_x
_atom_site_fract_y
_atom_site_fract_z
Si Si1 0.556574 0.880683 0.390518
Si Si2 0.201116 0.646538 0.460777
Si Si3 0.568532 0.442005 0.283682
Si Si4 0.650520 0.282171 0.385744
Si Si5 0.863464 0.547097 0.769895
O O1 0.567693 0.924398 0.210436
O O2 0.518505 0.783466 0.411480
O O3 0.719982 0.901027 0.325935
O O4 0.359706 0.907144 0.694042
O O5 0.184099 0.724589 0.365525
O O6 0.296547 0.678550 0.510239
O O7 0.005719 0.603765 0.706300
O O8 0.500000 0.500000 0.500000
O O9 0.611370 0.354059 0.309127
O O10 0.748504 0.485843 0.007462
O O11 0.000000 0.500000 0.500000
#
# Coordination Sequence:
#
# PCOD9247259 Si02
#       5
#     4   4   4   4   4
#     4  10  22  47  68  93 141 188 224 272 354 409
#     4  10  22  45  71  95 138 180 234 279 344 415
#     4  12  25  43  70 106 136 180 232 287 343 404
#     4  10  21  47  68  94 140 185 226 287 334 420
#     4  12  25  43  73 104 135 183 225 292 355 403
#
# _framework density 19.885439999999999
#
# number of rings (size 3 to 8) (size 9 to 14) (size 15 to 20)
#    1.200    0.000    4.000    1.800    2.800    0.800 
#   10.800    0.000    0.000    0.000    0.000    0.000 
#    0.000    0.000    0.000    0.000    0.000    0.000 
#
# Total GULP energy -111527.769591 kJ/mol
# GULP energy per Si atom -5576.388480 kJ/mol
# Density = 1.984018 g / cm^3
# Si number density = 19.885440 Si / 1000 Ang^3
#
#
#
# Elastic Constant Matrix: (Units=GPa)
#
#
# Indices 1 2 3 4 5 6 
#
# 1 104.8251 44.8399 43.0589 0.0000 0.0427 0.0000
# 2 44.8399 105.5370 37.8106 0.0000 -2.0438 0.0000
# 3 43.0589 37.8106 87.8545 0.0000 6.6478 0.0000
# 4 0.0000 0.0000 0.0000 34.0464 0.0000 5.2780
# 5 0.0427 -2.0438 6.6478 0.0000 35.4804 0.0000
# 6 0.0000 0.0000 0.0000 5.2780 0.0000 43.8013
#
#
#
# Elastic Compliance Matrix: (Units=1/GPa)
#
#
# Indices 1 2 3 4 5 6 
#
# 1 0.013179 -0.003847 -0.004854 0.000000 0.000672 0.000000
# 2 -0.003847 0.012413 -0.003562 0.000000 0.001387 0.000000
# 3 -0.004854 -0.003562 0.015530 0.000000 -0.003109 0.000000
# 4 0.000000 0.000000 0.000000 0.029931 0.000000 -0.003607
# 5 0.000672 0.001387 -0.003109 0.000000 0.028846 0.000000
# 6 0.000000 0.000000 0.000000 -0.003607 0.000000 0.023265
#
#
# Mechanical properties :
#
#
# Convention : Reuss Voigt Hill
#
# Bulk Modulus (GPa) = 60.25804 61.07060 60.66432
# Shear Modulus (GPa) = 32.63243 34.16611 33.39927
#
# Velocity S-wave (km/s) = 4.05535 4.14955 4.10272
# Velocity P-wave (km/s) = 7.23161 7.33050 7.28122
#
# Compressibility (1/GPa) = 0.01659529
#
# Stress axis : x y z
#
# Youngs Moduli (GPa) = 75.87725 80.56194 64.39263
#
# Poissons Ratio (x) = 0.30995 0.31259
# Poissons Ratio (y) = 0.29192 0.22934
# Poissons Ratio (z) = 0.36834 0.28692
#
# Static dielectric constant tensor:
#      x y z
#    x 1.704070 0.000000 0.020400 
#    y 0.000000 1.769100 0.000000 
#    z 0.020400 0.000000 1.702490 
# 
# From -- ./inp_files/13651.got.cif
#   From: 2010.05.17/outbox.cif.g08.bks.cpg/sg14_7_cif.got.tgz:13651.got - 2010.06.03 17:49:19.
