data_PCOD9247911
_publ_section_title
;
Structure prediction by ZEFSAII (Michael W. Deem and Ramdas Pophale) SiO2 
 PCOD9247911
Probable space group: P 21/C
;
_chemical_formula_sum "Si O2"
_cell_formula_units_Z 20
_cell_length_a 18.377556
_cell_length_b 7.892707
_cell_length_c 9.700745
_cell_angle_alpha 90.000000
_cell_angle_beta 39.355244
_cell_angle_gamma 90.000000
_cell_volume 892.267077
_symmetry_space_group_name_H-M "P 21/C"
_symmetry_group_IT_number 14
_symmetry_cell_setting 'monoclinic'
loop_
_space_group_symop_operation_xyz
x,y,z
-x,1/2+y,1/2-z
-x,-y,-z
x,1/2-y,1/2+z
loop_
_atom_site_type_symbol
_atom_site_label
_atom_site_fract_x
_atom_site_fract_y
_atom_site_fract_z
Si Si1 0.624125 0.060365 0.273480
Si Si2 0.121163 0.061250 0.440180
Si Si3 0.714869 0.205343 0.882846
Si Si4 0.172994 0.302156 0.588527
Si Si5 0.892944 0.451445 0.750970
O O1 0.676178 0.171239 0.320152
O O2 0.500000 0.000000 0.500000
O O3 0.714639 0.910860 0.107282
O O4 0.622953 0.172466 0.136254
O O5 0.122179 0.241574 0.516676
O O6 0.073520 0.945990 0.636072
O O7 0.245649 0.972791 0.239800
O O8 0.095378 0.099859 0.316943
O O9 0.827219 0.287244 0.792579
O O10 0.192432 0.115176 0.626447
O O11 0.000000 0.500000 0.500000
#
# Coordination Sequence:
#
# PCOD9247911 Si02
#       5
#     4   4   4   4   4
#     4  11  24  42  69  94 126 176 212 271 329 375
#     4   9  20  39  63  88 132 166 203 271 313 365
#     4  11  22  44  62  98 135 160 222 269 312 396
#     4   9  20  39  60  92 125 157 219 257 307 381
#     4  10  22  40  66  93 130 172 207 259 325 377
#
# _framework density 22.414814
#
# number of rings (size 3 to 8) (size 9 to 14) (size 15 to 20)
#    1.200    0.800    2.000    1.200    0.000    6.400 
#    0.000    5.000    0.000    0.000    0.000    0.000 
#    0.000    0.000    0.000    0.000    0.000    0.000 
#
# Total GULP energy -111347.240073 kJ/mol
# GULP energy per Si atom -5567.362004 kJ/mol
# Density = 2.236380 g / cm^3
# Si number density = 22.414814 Si / 1000 Ang^3
#
#
#
# Elastic Constant Matrix: (Units=GPa)
#
#
# Indices 1 2 3 4 5 6 
#
# 1 71.9813 19.4605 64.5207 0.0000 30.6390 0.0000
# 2 19.4605 84.1526 51.2321 0.0000 -4.8096 0.0000
# 3 64.5207 51.2321 218.6376 0.0000 26.1362 0.0000
# 4 0.0000 0.0000 0.0000 5.9600 0.0000 -72.6359
# 5 30.6390 -4.8096 26.1362 0.0000 32.0362 0.0000
# 6 0.0000 0.0000 0.0000 -72.6359 0.0000 -112.8482
#
#
#
# Elastic Compliance Matrix: (Units=1/GPa)
#
#
# Indices 1 2 3 4 5 6 
#
# 1 0.030987 -0.005928 -0.004550 0.000000 -0.026813 0.000000
# 2 -0.005928 0.015837 -0.003240 0.000000 0.010690 0.000000
# 3 -0.004550 -0.003240 0.006885 0.000000 -0.001752 0.000000
# 4 0.000000 0.000000 0.000000 0.018971 0.000000 -0.012211
# 5 -0.026813 0.010690 -0.001752 0.000000 0.059893 0.000000
# 6 0.000000 0.000000 0.000000 -0.012211 0.000000 -0.001002
#
#
# Mechanical properties :
#
#
# Convention : Reuss Voigt Hill
#
# Bulk Modulus (GPa) = 38.06092 71.68867 54.87480
# Shear Modulus (GPa) = 29.80383 1.00015 15.40199
#
# Velocity S-wave (km/s) = 3.65039 0.66871 2.62417
# Velocity P-wave (km/s) = 5.89782 5.71388 5.80658
#
# Compressibility (1/GPa) = 0.02627367
#
# Stress axis : x y z
#
# Youngs Moduli (GPa) = 32.27193 63.14202 145.24355
#
# Poissons Ratio (x) = 0.37432 0.66084
# Poissons Ratio (y) = 0.19132 0.47052
# Poissons Ratio (z) = 0.14683 0.20455
#
# Static dielectric constant tensor:
#      x y z
#    x 1.853220 0.000000 0.052200 
#    y 0.000000 1.851610 0.000000 
#    z 0.052200 0.000000 1.790060 
# 
# From -- ./inp_files/17434.got.cif
#   From: 2010.05.17/outbox.cif.g08.bks.cpg/sg14_9_cif.got.tgz:17434.got - 2010.06.03 17:49:19.
