data_PCOD9247620
_publ_section_title
;
Structure prediction by ZEFSAII (Michael W. Deem and Ramdas Pophale) SiO2 
 PCOD9247620
Probable space group: P 21/C
;
_chemical_formula_sum "Si O2"
_cell_formula_units_Z 32
_cell_length_a 8.971159
_cell_length_b 9.285242
_cell_length_c 22.538064
_cell_angle_alpha 90.000000
_cell_angle_beta 116.916365
_cell_angle_gamma 90.000000
_cell_volume 1674.024078
_symmetry_space_group_name_H-M "P 21/C"
_symmetry_group_IT_number 14
_symmetry_cell_setting 'monoclinic'
loop_
_space_group_symop_operation_xyz
x,y,z
-x,1/2+y,1/2-z
-x,-y,-z
x,1/2-y,1/2+z
loop_
_atom_site_type_symbol
_atom_site_label
_atom_site_fract_x
_atom_site_fract_y
_atom_site_fract_z
Si Si1 0.859909 0.553694 0.791075
Si Si2 0.331089 0.912073 0.470639
Si Si3 0.514647 0.013009 0.820804
Si Si4 0.981311 0.028853 0.426287
Si Si5 0.338121 0.694037 0.104385
Si Si6 0.357259 0.485784 0.784085
Si Si7 0.331918 0.725621 0.352953
Si Si8 0.987072 0.674116 0.250992
O O1 0.666078 0.553062 0.740236
O O2 0.896376 0.589223 0.866393
O O3 0.949167 0.660358 0.760583
O O4 0.943053 0.395345 0.797114
O O5 0.322558 0.827820 0.531186
O O6 0.339323 0.806255 0.416357
O O7 0.500000 0.000000 0.500000
O O8 0.173276 0.021240 0.439029
O O9 0.598323 0.149320 0.866476
O O10 0.620102 0.970302 0.782214
O O11 0.474343 0.886955 0.860212
O O12 0.842709 0.155280 0.400711
O O13 0.000000 0.000000 0.500000
O O14 0.480319 0.584245 0.154925
O O15 0.337935 0.649960 0.803277
O O16 0.188369 0.402610 0.769906
O O17 0.152754 0.644694 0.320050
#
# Coordination Sequence:
#
# PCOD9247620 Si02
#       8
#     4   4   4   4   4   4   4   4
#     4  11  21  38  62  92 129 162 209 266 323 374
#     4  11  22  42  67  93 121 171 225 262 304 391
#     4  11  25  38  62  97 130 164 204 270 328 382
#     4  10  22  39  61  93 125 167 215 263 311 381
#     4  11  23  39  64  94 127 167 213 262 318 379
#     4  12  21  39  62  94 125 164 213 258 323 391
#     4  11  24  42  62  93 131 169 211 266 326 378
#     4  11  22  36  61  93 125 163 207 265 321 379
#
# _framework density 19.115615999999999
#
# number of rings (size 3 to 8) (size 9 to 14) (size 15 to 20)
#    0.000    1.000    6.250    0.750    1.750    0.500 
#    0.000    1.250    0.000    1.500    0.000    0.000 
#    0.000    0.000    0.000    0.000    0.000    0.000 
#
# Total GULP energy -178209.337984 kJ/mol
# GULP energy per Si atom -5569.041812 kJ/mol
# Density = 1.907211 g / cm^3
# Si number density = 19.115616 Si / 1000 Ang^3
#
#
#
# Elastic Constant Matrix: (Units=GPa)
#
#
# Indices 1 2 3 4 5 6 
#
# 1 126.9747 48.7575 63.7718 0.0000 4.7407 0.0000
# 2 48.7575 78.0078 35.8649 0.0000 2.0815 0.0000
# 3 63.7718 35.8649 95.0664 0.0000 -1.2838 0.0000
# 4 0.0000 0.0000 0.0000 32.5693 0.0000 9.8167
# 5 4.7407 2.0815 -1.2838 0.0000 34.3377 0.0000
# 6 0.0000 0.0000 0.0000 9.8167 0.0000 25.5722
#
#
#
# Elastic Compliance Matrix: (Units=1/GPa)
#
#
# Indices 1 2 3 4 5 6 
#
# 1 0.013493 -0.005096 -0.007153 0.000000 -0.001821 0.000000
# 2 -0.005096 0.017480 -0.003182 0.000000 -0.000475 0.000000
# 3 -0.007153 -0.003182 0.016542 0.000000 0.001799 0.000000
# 4 0.000000 0.000000 0.000000 0.034721 0.000000 -0.013329
# 5 -0.001821 -0.000475 0.001799 0.000000 0.029470 0.000000
# 6 0.000000 0.000000 0.000000 -0.013329 0.000000 0.044222
#
#
# Mechanical properties :
#
#
# Convention : Reuss Voigt Hill
#
# Bulk Modulus (GPa) = 60.05335 66.31525 63.18430
# Shear Modulus (GPa) = 25.99509 28.60617 27.30063
#
# Velocity S-wave (km/s) = 3.69167 3.87264 3.78323
# Velocity P-wave (km/s) = 7.04665 7.40023 7.22560
#
# Compressibility (1/GPa) = 0.01665186
#
# Stress axis : x y z
#
# Youngs Moduli (GPa) = 74.11100 57.20689 60.45038
#
# Poissons Ratio (x) = 0.29154 0.43243
# Poissons Ratio (y) = 0.37769 0.19238
# Poissons Ratio (z) = 0.53015 0.18206
#
# Static dielectric constant tensor:
#      x y z
#    x 1.703330 0.000000 -0.040730 
#    y 0.000000 1.731840 0.000000 
#    z -0.040730 0.000000 1.726870 
# 
# From -- ./inp_files/72083.got.cif
#   From: 2010.05.17/outbox.cif.g08.bks.cpg/sg14_37_cif.got.tgz:72083.got - 2010.06.03 17:49:19.
