data_PCOD9247174
_publ_section_title
;
Structure prediction by ZEFSAII (Michael W. Deem and Ramdas Pophale) SiO2 
 PCOD9247174
Probable space group: P 21/C
;
_chemical_formula_sum "Si O2"
_cell_formula_units_Z 16
_cell_length_a 12.994652
_cell_length_b 4.998736
_cell_length_c 21.635716
_cell_angle_alpha 90.000000
_cell_angle_beta 156.318482
_cell_angle_gamma 90.000000
_cell_volume 564.477299
_symmetry_space_group_name_H-M "P 21/C"
_symmetry_group_IT_number 14
_symmetry_cell_setting 'monoclinic'
loop_
_space_group_symop_operation_xyz
x,y,z
-x,1/2+y,1/2-z
-x,-y,-z
x,1/2-y,1/2+z
loop_
_atom_site_type_symbol
_atom_site_label
_atom_site_fract_x
_atom_site_fract_y
_atom_site_fract_z
Si Si1 0.846074 0.269506 0.186038
Si Si2 0.444818 0.676980 0.587605
Si Si3 0.362908 0.305358 0.645894
Si Si4 0.962815 0.499983 0.876182
O O1 0.951525 0.567124 0.235574
O O2 0.842264 0.174873 0.254203
O O3 0.593223 0.224763 0.006034
O O4 0.393774 0.386891 0.590360
O O5 0.740447 0.711381 0.769196
O O6 0.215841 0.850361 0.490780
O O7 0.446090 0.573802 0.726559
O O8 0.074986 0.192893 0.490483
#
# Coordination Sequence:
#
# PCOD9247174 Si02
#       4
#     4   4   4   4
#     4  10  21  44  73 110 145 186 237 300 371 432
#     4  11  25  48  76 111 148 190 244 303 369 433
#     4  12  26  50  70 108 146 200 246 298 352 432
#     4  11  25  48  76 111 148 190 244 303 369 433
#
# _framework density 28.344805999999998
#
# number of rings (size 3 to 8) (size 9 to 14) (size 15 to 20)
#    0.000    1.000    5.000    0.750    0.000    4.000 
#    0.000    6.250    0.000    0.000    0.000    0.000 
#    0.000    0.000    0.000    0.000    0.000    0.000 
#
# Total GULP energy -89621.298188 kJ/mol
# GULP energy per Si atom -5601.331137 kJ/mol
# Density = 2.828029 g / cm^3
# Si number density = 28.344806 Si / 1000 Ang^3
#
#
#
# Elastic Constant Matrix: (Units=GPa)
#
#
# Indices 1 2 3 4 5 6 
#
# 1 60.8107 28.6668 26.8323 0.0000 6.8468 0.0000
# 2 28.6668 142.8935 57.4983 0.0000 5.2689 0.0000
# 3 26.8323 57.4983 178.8586 0.0000 -20.5843 0.0000
# 4 0.0000 0.0000 0.0000 49.4730 0.0000 -5.6155
# 5 6.8468 5.2689 -20.5843 0.0000 56.8437 0.0000
# 6 0.0000 0.0000 0.0000 -5.6155 0.0000 47.1328
#
#
#
# Elastic Compliance Matrix: (Units=1/GPa)
#
#
# Indices 1 2 3 4 5 6 
#
# 1 0.019102 -0.002803 -0.002295 0.000000 -0.002872 0.000000
# 2 -0.002803 0.008620 -0.002508 0.000000 -0.001370 0.000000
# 3 -0.002295 -0.002508 0.007096 0.000000 0.003079 0.000000
# 4 0.000000 0.000000 0.000000 0.020490 0.000000 0.002441
# 5 -0.002872 -0.001370 0.003079 0.000000 0.019180 0.000000
# 6 0.000000 0.000000 0.000000 0.002441 0.000000 0.021507
#
#
# Mechanical properties :
#
#
# Convention : Reuss Voigt Hill
#
# Bulk Modulus (GPa) = 51.00580 67.61752 59.31166
# Shear Modulus (GPa) = 42.46521 48.66092 45.56306
#
# Velocity S-wave (km/s) = 3.87481 4.14786 4.01366
# Velocity P-wave (km/s) = 6.16869 6.84447 6.51535
#
# Compressibility (1/GPa) = 0.01960561
#
# Stress axis : x y z
#
# Youngs Moduli (GPa) = 52.35100 116.00481 140.92392
#
# Poissons Ratio (x) = 0.32512 0.32345
# Poissons Ratio (y) = 0.14672 0.35349
# Poissons Ratio (z) = 0.12016 0.29099
#
# Static dielectric constant tensor:
#      x y z
#    x 2.298510 0.000000 -0.011320 
#    y 0.000000 2.178170 0.000000 
#    z -0.011320 0.000000 2.219060 
# 
# From -- ./inp_files/18430.got.cif
#   From: 2010.05.17/outbox.cif.g08.bks.cpg/sg14_10_cif.got.tgz:18430.got - 2010.06.03 17:49:19.
