data_PCOD9247320
_publ_section_title
;
Structure prediction by ZEFSAII (Michael W. Deem and Ramdas Pophale) SiO2 
 PCOD9247320
Probable space group: P 21/C
;
_chemical_formula_sum "Si O2"
_cell_formula_units_Z 30
_cell_length_a 22.198066
_cell_length_b 6.437554
_cell_length_c 23.507370
_cell_angle_alpha 90.000000
_cell_angle_beta 161.566499
_cell_angle_gamma 90.000000
_cell_volume 1062.202067
_symmetry_space_group_name_H-M "P 21/C"
_symmetry_group_IT_number 14
_symmetry_cell_setting 'monoclinic'
loop_
_space_group_symop_operation_xyz
x,y,z
-x,1/2+y,1/2-z
-x,-y,-z
x,1/2-y,1/2+z
loop_
_atom_site_type_symbol
_atom_site_label
_atom_site_fract_x
_atom_site_fract_y
_atom_site_fract_z
Si Si1 0.237637 0.093474 0.618639
Si Si2 0.360086 0.970480 0.074143
Si Si3 0.665783 0.762386 0.177771
Si Si4 0.060570 0.087422 0.729094
Si Si5 0.000000 0.000000 0.000000
Si Si6 0.649853 0.472827 0.309982
Si Si7 0.619154 0.192703 0.666821
Si Si8 0.233426 0.430790 0.942519
O O1 0.418964 0.055483 0.740612
O O2 0.300898 0.075310 0.741230
O O3 0.052861 0.985860 0.427285
O O4 0.209453 0.348347 0.587099
O O5 0.304013 0.889450 0.086353
O O6 0.236367 0.938548 0.905889
O O7 0.305931 0.215235 0.035915
O O8 0.558817 0.557771 0.108071
O O9 0.875174 0.674916 0.354663
O O10 0.545737 0.809964 0.014408
O O11 0.919948 0.046996 0.657143
O O12 0.137665 0.324508 0.801237
O O13 0.831221 0.174775 0.832540
O O14 0.643440 0.295635 0.256523
O O15 0.430399 0.554173 0.114637
#
# Coordination Sequence:
#
# PCOD9247320 Si02
#       8
#     4   4   4   4   2   4   4   4
#     4  11  20  37  64  85 125 162 208 254 326 363
#     4  10  22  36  58  87 127 159 203 255 304 390
#     4   8  17  32  52  86 116 153 200 261 309 365
#     4  10  22  39  54  90 117 170 205 256 299 380
#     4   8  14  32  50  82 120 138 200 264 298 350
#     4  11  19  39  60  91 124 165 199 262 316 378
#     4   8  17  32  54  85 120 146 206 259 313 352
#     4  10  23  37  57  86 128 159 212 248 308 372
#
# _framework density 28.243213000000001
#
# number of rings (size 3 to 8) (size 9 to 14) (size 15 to 20)
#    1.600    0.800    2.667    0.000    1.867    2.133 
#    2.400    0.000    0.000    1.600    0.000    0.000 
#    0.000    0.000    0.000    0.000    0.000    0.000 
#
# Total GULP energy -167022.103734 kJ/mol
# GULP energy per Si atom -5567.403458 kJ/mol
# Density = 2.817893 g / cm^3
# Si number density = 28.243213 Si / 1000 Ang^3
#
#
#
# Elastic Constant Matrix: (Units=GPa)
#
#
# Indices 1 2 3 4 5 6 
#
# 1 84.3341 21.1989 53.8858 0.0000 -38.7414 0.0000
# 2 21.1989 75.6268 48.6576 0.0000 -14.3841 0.0000
# 3 53.8858 48.6576 245.5090 0.0000 -50.4949 0.0000
# 4 0.0000 0.0000 0.0000 52.8140 0.0000 -9.8919
# 5 -38.7414 -14.3841 -50.4949 0.0000 49.6329 0.0000
# 6 0.0000 0.0000 0.0000 -9.8919 0.0000 40.4050
#
#
#
# Elastic Compliance Matrix: (Units=1/GPa)
#
#
# Indices 1 2 3 4 5 6 
#
# 1 0.019168 -0.002176 -0.001047 0.000000 0.013265 0.000000
# 2 -0.002176 0.015515 -0.002557 0.000000 0.000197 0.000000
# 3 -0.001047 -0.002557 0.005677 0.000000 0.004217 0.000000
# 4 0.000000 0.000000 0.000000 0.019844 0.000000 0.004858
# 5 0.013265 0.000197 0.004217 0.000000 0.034850 0.000000
# 6 0.000000 0.000000 0.000000 0.004858 0.000000 0.025939
#
#
# Mechanical properties :
#
#
# Convention : Reuss Voigt Hill
#
# Bulk Modulus (GPa) = 34.72292 72.55050 53.63671
# Shear Modulus (GPa) = 35.17333 47.35221 41.26277
#
# Velocity S-wave (km/s) = 3.53281 4.09906 3.82642
# Velocity P-wave (km/s) = 5.38163 6.93877 6.20921
#
# Compressibility (1/GPa) = 0.02879942
#
# Stress axis : x y z
#
# Youngs Moduli (GPa) = 52.17142 64.45260 176.14304
#
# Poissons Ratio (x) = 0.14024 0.18451
# Poissons Ratio (y) = 0.11352 0.45039
# Poissons Ratio (z) = 0.05465 0.16480
#
# Static dielectric constant tensor:
#      x y z
#    x 2.312940 0.000000 0.022630 
#    y 0.000000 2.410920 0.000000 
#    z 0.022630 0.000000 2.192710 
# 
# From -- ./inp_files/74890.got.cif
#   From: 2010.05.17/outbox.cif.g08.bks.cpg/sg14_38_cif.got.tgz:74890.got - 2010.06.03 17:49:19.
