data_PCOD9247112
_publ_section_title
;
Structure prediction by ZEFSAII (Michael W. Deem and Ramdas Pophale) SiO2 
 PCOD9247112
Probable space group: P 21/C
;
_chemical_formula_sum "Si O2"
_cell_formula_units_Z 28
_cell_length_a 13.312968
_cell_length_b 21.718470
_cell_length_c 8.741024
_cell_angle_alpha 90.000000
_cell_angle_beta 30.482535
_cell_angle_gamma 90.000000
_cell_volume 1282.066297
_symmetry_space_group_name_H-M "P 21/C"
_symmetry_group_IT_number 14
_symmetry_cell_setting 'monoclinic'
loop_
_space_group_symop_operation_xyz
x,y,z
-x,1/2+y,1/2-z
-x,-y,-z
x,1/2-y,1/2+z
loop_
_atom_site_type_symbol
_atom_site_label
_atom_site_fract_x
_atom_site_fract_y
_atom_site_fract_z
Si Si1 0.841909 0.240504 0.165074
Si Si2 0.956325 0.950020 0.183721
Si Si3 0.685203 0.536718 0.325676
Si Si4 0.582405 0.307177 0.730404
Si Si5 0.106072 0.135804 0.293889
Si Si6 0.764592 0.429957 0.430438
Si Si7 0.167239 0.156370 0.867651
O O1 0.644673 0.264661 0.507650
O O2 0.757283 0.209492 0.122137
O O3 0.002519 0.296486 0.937947
O O4 0.963038 0.192803 0.109246
O O5 0.839468 0.973195 0.485448
O O6 0.841807 0.895322 0.251111
O O7 0.158058 0.928567 0.998102
O O8 0.000000 0.000000 0.000000
O O9 0.500000 0.500000 0.500000
O O10 0.711725 0.608952 0.340237
O O11 0.719134 0.498400 0.436586
O O12 0.600267 0.377288 0.646437
O O13 0.362360 0.301991 0.086070
O O14 0.929412 0.093530 0.592797
O O15 0.165264 0.128653 0.040011
#
# Coordination Sequence:
#
# PCOD9247112 Si02
#       7
#     4   4   4   4   4   4   4
#     4  11  24  47  64  97 139 182 228 298 350 419
#     4  11  22  40  70  97 139 184 222 287 350 408
#     4  11  23  42  65 102 138 180 234 284 344 421
#     4  11  25  43  69  98 133 181 234 285 354 420
#     4  10  23  43  67  92 138 184 224 284 354 414
#     4  10  21  44  65  93 139 180 223 278 349 410
#     4  12  24  43  70 102 136 181 238 288 351 424
#
# _framework density 21.839744
#
# number of rings (size 3 to 8) (size 9 to 14) (size 15 to 20)
#    0.000    1.143    2.857    4.286    2.000    1.143 
#    7.714    2.857    0.000    0.000    0.000    0.000 
#    0.000    0.000    0.000    0.000    0.000    0.000 
#
# Total GULP energy -155962.309999 kJ/mol
# GULP energy per Si atom -5570.082500 kJ/mol
# Density = 2.179004 g / cm^3
# Si number density = 21.839744 Si / 1000 Ang^3
#
#
#
# Elastic Constant Matrix: (Units=GPa)
#
#
# Indices 1 2 3 4 5 6 
#
# 1 90.3952 38.7721 33.8293 0.0000 12.9695 0.0000
# 2 38.7721 79.1119 14.0315 0.0000 3.0739 0.0000
# 3 33.8293 14.0315 51.8804 0.0000 8.1649 0.0000
# 4 0.0000 0.0000 0.0000 18.1430 0.0000 -1.9644
# 5 12.9695 3.0739 8.1649 0.0000 33.6610 0.0000
# 6 0.0000 0.0000 0.0000 -1.9644 0.0000 33.1730
#
#
#
# Elastic Compliance Matrix: (Units=1/GPa)
#
#
# Indices 1 2 3 4 5 6 
#
# 1 0.018170 -0.007099 -0.009282 0.000000 -0.004101 0.000000
# 2 -0.007099 0.016055 0.000091 0.000000 0.001247 0.000000
# 3 -0.009282 0.000091 0.025724 0.000000 -0.002671 0.000000
# 4 0.000000 0.000000 0.000000 0.055473 0.000000 0.003285
# 5 -0.004101 0.001247 -0.002671 0.000000 0.031822 0.000000
# 6 0.000000 0.000000 0.000000 0.003285 0.000000 0.030340
#
#
# Mechanical properties :
#
#
# Convention : Reuss Voigt Hill
#
# Bulk Modulus (GPa) = 36.54087 43.85036 40.19561
# Shear Modulus (GPa) = 22.80112 25.97904 24.39008
#
# Velocity S-wave (km/s) = 3.23463 3.45270 3.34544
# Velocity P-wave (km/s) = 5.54240 6.00139 5.77645
#
# Compressibility (1/GPa) = 0.02736662
#
# Stress axis : x y z
#
# Youngs Moduli (GPa) = 55.03682 62.28575 38.87465
#
# Poissons Ratio (x) = 0.44217 0.36085
# Poissons Ratio (y) = 0.39071 -0.00352
# Poissons Ratio (z) = 0.51087 -0.00564
#
# Static dielectric constant tensor:
#      x y z
#    x 2.230850 0.000000 -0.048770 
#    y 0.000000 1.900970 0.000000 
#    z -0.048770 0.000000 1.820610 
# 
# From -- ./inp_files/16832.got.cif
#   From: 2010.05.17/outbox.cif.g08.bks.cpg/sg14_9_cif.got.tgz:16832.got - 2010.06.03 17:49:19.
