data_PCOD9247010
_publ_section_title
;
Structure prediction by ZEFSAII (Michael W. Deem and Ramdas Pophale) SiO2 
 PCOD9247010
Probable space group: P 21/C
;
_chemical_formula_sum "Si O2"
_cell_formula_units_Z 22
_cell_length_a 17.636600
_cell_length_b 5.121999
_cell_length_c 27.878616
_cell_angle_alpha 90.000000
_cell_angle_beta 18.829742
_cell_angle_gamma 90.000000
_cell_volume 812.832961
_symmetry_space_group_name_H-M "P 21/C"
_symmetry_group_IT_number 14
_symmetry_cell_setting 'monoclinic'
loop_
_space_group_symop_operation_xyz
x,y,z
-x,1/2+y,1/2-z
-x,-y,-z
x,1/2-y,1/2+z
loop_
_atom_site_type_symbol
_atom_site_label
_atom_site_fract_x
_atom_site_fract_y
_atom_site_fract_z
Si Si1 0.017273 0.530642 0.411866
Si Si2 0.756150 0.048548 0.595600
Si Si3 0.500000 0.500000 0.500000
Si Si4 0.990751 0.056304 0.288711
Si Si5 0.406918 0.879753 0.886026
Si Si6 0.484293 0.210074 0.413896
O O1 0.934860 0.289799 0.493682
O O2 0.289060 0.556134 0.239328
O O3 0.865450 0.472530 0.454866
O O4 0.909832 0.794629 0.496504
O O5 0.574010 0.031299 0.747746
O O6 0.610709 0.109440 0.633534
O O7 0.778677 0.555483 0.316972
O O8 0.481328 0.262863 0.472154
O O9 0.947687 0.328560 0.287231
O O10 0.749135 0.959088 0.456742
O O11 0.485321 0.002527 0.889135
#
# Coordination Sequence:
#
# PCOD9247010 Si02
#       6
#     4   4   2   4   4   4
#     4  10  22  42  66 102 141 183 237 298 355 432
#     4  10  21  43  66  96 147 183 237 298 348 430
#     4  10  24  50  70 108 142 186 244 306 346 448
#     4  10  24  48  74 100 139 188 238 302 366 423
#     4  10  21  44  67 100 141 191 232 292 358 425
#     4  11  24  44  71 107 140 193 240 299 370 429
#
# _framework density 27.065833000000001
#
# number of rings (size 3 to 8) (size 9 to 14) (size 15 to 20)
#    1.091    0.727    1.818    1.091    0.000    7.273 
#   22.909    0.000    0.000    0.000    0.000    0.000 
#    0.000    0.000    0.000    0.000    0.000    0.000 
#
# Total GULP energy -122636.640495 kJ/mol
# GULP energy per Si atom -5574.392750 kJ/mol
# Density = 2.700423 g / cm^3
# Si number density = 27.065833 Si / 1000 Ang^3
#
#
#
# Elastic Constant Matrix: (Units=GPa)
#
#
# Indices 1 2 3 4 5 6 
#
# 1 54.5261 0.2150 11.1798 0.0000 1.3346 0.0000
# 2 0.2150 123.0540 17.2829 0.0000 11.0144 0.0000
# 3 11.1798 17.2829 222.5616 0.0000 6.0910 0.0000
# 4 0.0000 0.0000 0.0000 21.9063 0.0000 13.0780
# 5 1.3346 11.0144 6.0910 0.0000 26.5504 0.0000
# 6 0.0000 0.0000 0.0000 13.0780 0.0000 15.0588
#
#
#
# Elastic Compliance Matrix: (Units=1/GPa)
#
#
# Indices 1 2 3 4 5 6 
#
# 1 0.018548 0.000168 -0.000923 0.000000 -0.000790 0.000000
# 2 0.000168 0.008512 -0.000576 0.000000 -0.003408 0.000000
# 3 -0.000923 -0.000576 0.004605 0.000000 -0.000771 0.000000
# 4 0.000000 0.000000 0.000000 0.094800 0.000000 -0.082330
# 5 -0.000790 -0.003408 -0.000771 0.000000 0.039294 0.000000
# 6 0.000000 0.000000 0.000000 -0.082330 0.000000 0.137907
#
#
# Mechanical properties :
#
#
# Convention : Reuss Voigt Hill
#
# Bulk Modulus (GPa) = 34.47962 50.83301 42.65632
# Shear Modulus (GPa) = 15.82292 37.46736 26.64514
#
# Velocity S-wave (km/s) = 2.42049 3.72466 3.14101
# Velocity P-wave (km/s) = 4.53636 6.10897 5.38043
#
# Compressibility (1/GPa) = 0.02900264
#
# Stress axis : x y z
#
# Youngs Moduli (GPa) = 53.91477 117.47924 217.13855
#
# Poissons Ratio (x) = -0.01973 0.20044
# Poissons Ratio (y) = -0.00906 0.12511
# Poissons Ratio (z) = 0.04977 0.06769
#
# Static dielectric constant tensor:
#      x y z
#    x 2.233790 0.000000 -0.085810 
#    y 0.000000 2.321730 0.000000 
#    z -0.085810 0.000000 2.062520 
# 
# From -- ./inp_files/80276.got.cif
#   From: 2010.05.17/outbox.cif.g08.bks.cpg/sg14_41_cif.got.tgz:80276.got - 2010.06.03 17:49:19.
