data_PCOD9247844
_publ_section_title
;
Structure prediction by ZEFSAII (Michael W. Deem and Ramdas Pophale) SiO2 
 PCOD9247844
Probable space group: P 21/C
;
_chemical_formula_sum "Si O2"
_cell_formula_units_Z 32
_cell_length_a 10.741225
_cell_length_b 9.533554
_cell_length_c 27.726047
_cell_angle_alpha 90.000000
_cell_angle_beta 147.462006
_cell_angle_gamma 90.000000
_cell_volume 1527.090750
_symmetry_space_group_name_H-M "P 21/C"
_symmetry_group_IT_number 14
_symmetry_cell_setting 'monoclinic'
loop_
_space_group_symop_operation_xyz
x,y,z
-x,1/2+y,1/2-z
-x,-y,-z
x,1/2-y,1/2+z
loop_
_atom_site_type_symbol
_atom_site_label
_atom_site_fract_x
_atom_site_fract_y
_atom_site_fract_z
Si Si1 0.744965 0.640003 0.203630
Si Si2 0.547976 0.842291 0.802046
Si Si3 0.768269 0.259694 0.634361
Si Si4 0.211601 0.654301 0.750606
Si Si5 0.951320 0.845497 0.004205
Si Si6 0.771141 0.700715 0.551391
Si Si7 0.476902 0.679683 0.684818
Si Si8 0.245500 0.039720 0.401533
O O1 0.660224 0.493877 0.199315
O O2 0.608423 0.774246 0.178968
O O3 0.739179 0.623401 0.143822
O O4 0.015741 0.643280 0.305111
O O5 0.331355 0.753780 0.750862
O O6 0.583483 0.782944 0.760061
O O7 0.514604 0.012234 0.798229
O O8 0.762915 0.790743 0.905067
O O9 0.763479 0.232785 0.690202
O O10 0.509244 0.305230 0.533558
O O11 0.858603 0.111283 0.642246
O O12 0.947127 0.631616 0.646856
O O13 0.836462 0.847612 0.019403
O O14 0.205914 0.780305 0.090831
O O15 0.000000 0.000000 0.000000
O O16 0.839476 0.863622 0.583127
O O17 0.500000 0.000000 0.500000
#
# Coordination Sequence:
#
# PCOD9247844 Si02
#       8
#     4   4   4   4   4   4   4   4
#     4  11  24  41  63 103 137 169 227 277 327 402
#     4  11  23  46  68  94 131 180 224 272 342 395
#     4  10  22  40  63  97 133 174 223 274 331 398
#     4  11  22  40  67  91 135 170 223 275 327 397
#     4  10  23  42  66  97 130 169 225 276 324 399
#     4  11  20  41  69  93 128 183 215 272 339 391
#     4  11  25  43  69  96 136 175 220 281 336 397
#     4   9  21  41  65  94 136 170 222 275 330 397
#
# _framework density 20.954879999999999
#
# number of rings (size 3 to 8) (size 9 to 14) (size 15 to 20)
#    0.000    1.500    3.750    0.750    3.500    0.500 
#    4.500    3.750    0.000    0.000    0.000    0.000 
#    0.000    0.000    0.000    0.000    0.000    0.000 
#
# Total GULP energy -178181.177832 kJ/mol
# GULP energy per Si atom -5568.161807 kJ/mol
# Density = 2.090719 g / cm^3
# Si number density = 20.954880 Si / 1000 Ang^3
#
#
#
# Elastic Constant Matrix: (Units=GPa)
#
#
# Indices 1 2 3 4 5 6 
#
# 1 -44.2950 94.9610 -3.1864 0.0000 37.0119 0.0000
# 2 94.9610 47.0867 21.6033 0.0000 -29.4139 0.0000
# 3 -3.1864 21.6033 96.5129 0.0000 6.3911 0.0000
# 4 0.0000 0.0000 0.0000 25.9434 0.0000 -3.0284
# 5 37.0119 -29.4139 6.3911 0.0000 18.1131 0.0000
# 6 0.0000 0.0000 0.0000 -3.0284 0.0000 35.0442
#
#
#
# Elastic Compliance Matrix: (Units=1/GPa)
#
#
# Indices 1 2 3 4 5 6 
#
# 1 0.000473 0.006589 -0.002154 0.000000 0.010493 0.000000
# 2 0.006589 0.005036 -0.000573 0.000000 -0.005084 0.000000
# 3 -0.002154 -0.000573 0.010432 0.000000 -0.000210 0.000000
# 4 0.000000 0.000000 0.000000 0.038938 0.000000 0.003365
# 5 0.010493 -0.005084 -0.000210 0.000000 0.025584 0.000000
# 6 0.000000 0.000000 0.000000 0.003365 0.000000 0.028826
#
#
# Mechanical properties :
#
#
# Convention : Reuss Voigt Hill
#
# Bulk Modulus (GPa) = 42.25597 36.22894 39.24246
# Shear Modulus (GPa) = 45.68095 14.88192 30.28143
#
# Velocity S-wave (km/s) = 4.67408 2.66783 3.80554
# Velocity P-wave (km/s) = 7.02412 5.17845 6.17068
#
# Compressibility (1/GPa) = 0.02366529
#
# Stress axis : x y z
#
# Youngs Moduli (GPa) = 2113.56854 198.57460 95.85572
#
# Poissons Ratio (x) = -1.30844 0.20649
# Poissons Ratio (y) = -13.92661 0.05493
# Poissons Ratio (z) = 4.55298 0.11379
#
# Static dielectric constant tensor:
#      x y z
#    x 1.778100 0.000000 0.021660 
#    y 0.000000 1.670660 0.000000 
#    z 0.021660 0.000000 1.800080 
# 
# From -- ./inp_files/80011.got.cif
#   From: 2010.05.17/outbox.cif.g08.bks.cpg/sg14_41_cif.got.tgz:80011.got - 2010.06.03 17:49:19.
