data_PCOD9247123
_publ_section_title
;
Structure prediction by ZEFSAII (Michael W. Deem and Ramdas Pophale) SiO2 
 PCOD9247123
Probable space group: P 21/C
;
_chemical_formula_sum "Si O2"
_cell_formula_units_Z 32
_cell_length_a 7.914822
_cell_length_b 14.032082
_cell_length_c 11.356362
_cell_angle_alpha 90.000000
_cell_angle_beta 91.267414
_cell_angle_gamma 90.000000
_cell_volume 1260.945253
_symmetry_space_group_name_H-M "P 21/C"
_symmetry_group_IT_number 14
_symmetry_cell_setting 'monoclinic'
loop_
_space_group_symop_operation_xyz
x,y,z
-x,1/2+y,1/2-z
-x,-y,-z
x,1/2-y,1/2+z
loop_
_atom_site_type_symbol
_atom_site_label
_atom_site_fract_x
_atom_site_fract_y
_atom_site_fract_z
Si Si1 0.789531 0.725048 0.692983
Si Si2 0.415269 0.409652 0.152720
Si Si3 0.254540 0.407510 0.519776
Si Si4 0.405182 0.405833 0.871512
Si Si5 0.375972 0.602249 0.434386
Si Si6 0.125873 0.655073 0.239277
Si Si7 0.293043 0.826671 0.187187
Si Si8 0.906370 0.499029 0.259577
O O1 0.738126 0.644905 0.786421
O O2 0.811931 0.675729 0.564861
O O3 0.633730 0.799472 0.673480
O O4 0.947597 0.788751 0.736398
O O5 0.447629 0.523566 0.174488
O O6 0.575535 0.352383 0.208949
O O7 0.413595 0.399757 0.012403
O O8 0.318208 0.492139 0.434906
O O9 0.427374 0.382519 0.593027
O O10 0.125615 0.451052 0.612577
O O11 0.239819 0.465710 0.829972
O O12 0.236117 0.658203 0.359497
O O13 0.366761 0.629745 0.570445
O O14 0.242700 0.718798 0.158146
O O15 0.075177 0.546755 0.213506
O O16 0.125381 0.888373 0.218036
#
# Coordination Sequence:
#
# PCOD9247123 Si02
#       8
#     4   4   4   4   4   4   4   4
#     4  11  24  40  68 103 129 182 234 278 337 427
#     4  10  21  44  66  93 133 178 227 280 342 407
#     4  10  22  43  74  99 130 170 240 288 341 401
#     4   9  22  39  66  92 132 174 217 283 337 397
#     4  10  23  43  67 101 131 174 225 300 341 393
#     4  11  26  37  63 100 136 179 209 277 351 410
#     4  10  22  42  64  94 135 170 228 282 344 396
#     4   9  22  43  66  95 133 176 222 284 340 406
#
# _framework density 25.377786
#
# number of rings (size 3 to 8) (size 9 to 14) (size 15 to 20)
#    0.000    2.000    1.250    0.000   10.500    2.000 
#    0.000    0.000    0.000    7.500    0.000    0.000 
#    0.000    0.000    0.000    0.000    0.000    0.000 
#
# Total GULP energy -178945.299053 kJ/mol
# GULP energy per Si atom -5592.040595 kJ/mol
# Density = 2.532003 g / cm^3
# Si number density = 25.377786 Si / 1000 Ang^3
#
#
#
# Elastic Constant Matrix: (Units=GPa)
#
#
# Indices 1 2 3 4 5 6 
#
# 1 87.3965 20.3184 10.2394 0.0000 26.1918 0.0000
# 2 20.3184 104.0834 21.1528 0.0000 9.9613 0.0000
# 3 10.2394 21.1528 98.4811 0.0000 22.7901 0.0000
# 4 0.0000 0.0000 0.0000 35.1116 0.0000 5.5268
# 5 26.1918 9.9613 22.7901 0.0000 27.0914 0.0000
# 6 0.0000 0.0000 0.0000 5.5268 0.0000 49.0149
#
#
#
# Elastic Compliance Matrix: (Units=1/GPa)
#
#
# Indices 1 2 3 4 5 6 
#
# 1 0.017033 -0.002180 0.002884 0.000000 -0.018092 0.000000
# 2 -0.002180 0.010445 -0.002006 0.000000 -0.000046 0.000000
# 3 0.002884 -0.002006 0.013361 0.000000 -0.013290 0.000000
# 4 0.000000 0.000000 0.000000 0.028995 0.000000 -0.003269
# 5 -0.018092 -0.000046 -0.013290 0.000000 0.065600 0.000000
# 6 0.000000 0.000000 0.000000 -0.003269 0.000000 0.020771
#
#
# Mechanical properties :
#
#
# Convention : Reuss Voigt Hill
#
# Bulk Modulus (GPa) = 26.15413 43.70915 34.93164
# Shear Modulus (GPa) = 29.14536 38.12696 33.63616
#
# Velocity S-wave (km/s) = 3.39257 3.88025 3.64458
# Velocity P-wave (km/s) = 5.06698 6.11031 5.61294
#
# Compressibility (1/GPa) = 0.03823488
#
# Stress axis : x y z
#
# Youngs Moduli (GPa) = 58.70989 95.73695 74.84556
#
# Poissons Ratio (x) = 0.20867 -0.21585
# Poissons Ratio (y) = 0.12797 0.15017
# Poissons Ratio (z) = -0.16932 0.19209
#
# Static dielectric constant tensor:
#      x y z
#    x 2.070640 0.000000 0.015500 
#    y 0.000000 2.057510 0.000000 
#    z 0.015500 0.000000 1.920990 
# 
# From -- ./inp_files/25570.got.cif
#   From: 2010.05.17/outbox.cif.g08.bks.cpg/sg14_13_cif.got.tgz:25570.got - 2010.06.03 17:49:19.
