data_PCOD9247508
_publ_section_title
;
Structure prediction by ZEFSAII (Michael W. Deem and Ramdas Pophale) SiO2 
 PCOD9247508
Probable space group: P 21/C
;
_chemical_formula_sum "Si O2"
_cell_formula_units_Z 24
_cell_length_a 18.072617
_cell_length_b 12.136896
_cell_length_c 13.601045
_cell_angle_alpha 90.000000
_cell_angle_beta 157.181789
_cell_angle_gamma 90.000000
_cell_volume 1156.960040
_symmetry_space_group_name_H-M "P 21/C"
_symmetry_group_IT_number 14
_symmetry_cell_setting 'monoclinic'
loop_
_space_group_symop_operation_xyz
x,y,z
-x,1/2+y,1/2-z
-x,-y,-z
x,1/2-y,1/2+z
loop_
_atom_site_type_symbol
_atom_site_label
_atom_site_fract_x
_atom_site_fract_y
_atom_site_fract_z
Si Si1 0.096786 0.438126 0.770184
Si Si2 0.275895 0.944484 0.316234
Si Si3 0.806711 0.052095 0.421228
Si Si4 0.836797 0.809279 0.128305
Si Si5 0.634303 0.831786 0.682538
Si Si6 0.379606 0.393095 0.456863
O O1 0.202538 0.532393 0.836095
O O2 0.197714 0.319688 0.894795
O O3 0.899747 0.420473 0.471266
O O4 0.082852 0.474668 0.865773
O O5 0.435816 0.852367 0.496994
O O6 0.349529 0.064247 0.370048
O O7 0.948391 0.154371 0.580714
O O8 0.748167 0.987043 0.251535
O O9 0.602444 0.079010 0.219869
O O10 0.693978 0.875807 0.023480
O O11 0.795885 0.833244 0.964066
O O12 0.645893 0.719256 0.636714
#
# Coordination Sequence:
#
# PCOD9247508 Si02
#       6
#     4   4   4   4   4   4
#     4  11  21  40  64  90 123 163 206 255 305 370
#     4  10  22  38  64  91 122 158 206 257 306 355
#     4  11  24  42  63  91 127 163 203 257 308 370
#     4  12  23  41  65  92 122 164 208 249 312 371
#     4  11  21  40  63  90 122 160 203 256 304 365
#     4  11  24  43  62  91 126 162 204 255 311 368
#
# _framework density 20.744019000000002
#
# number of rings (size 3 to 8) (size 9 to 14) (size 15 to 20)
#    0.000    1.000    5.000    2.500    0.000    0.000 
#    0.000    0.000    0.000    0.000    0.000    0.000 
#    0.000    0.000    0.000    0.000    0.000    0.000 
#
# Total GULP energy -134052.181219 kJ/mol
# GULP energy per Si atom -5585.507551 kJ/mol
# Density = 2.069680 g / cm^3
# Si number density = 20.744019 Si / 1000 Ang^3
#
#
#
# Elastic Constant Matrix: (Units=GPa)
#
#
# Indices 1 2 3 4 5 6 
#
# 1 28.7437 -1.7477 -0.3259 0.0000 -8.4219 0.0000
# 2 -1.7477 34.9771 -1.8057 0.0000 -10.9132 0.0000
# 3 -0.3259 -1.8057 47.7432 0.0000 -8.6609 0.0000
# 4 0.0000 0.0000 0.0000 18.6832 0.0000 -1.5231
# 5 -8.4219 -10.9132 -8.6609 0.0000 25.2701 0.0000
# 6 0.0000 0.0000 0.0000 -1.5231 0.0000 28.5218
#
#
#
# Elastic Compliance Matrix: (Units=1/GPa)
#
#
# Indices 1 2 3 4 5 6 
#
# 1 0.040690 0.007955 0.003905 0.000000 0.018335 0.000000
# 2 0.007955 0.035365 0.004951 0.000000 0.019621 0.000000
# 3 0.003905 0.004951 0.023227 0.000000 0.011400 0.000000
# 4 0.000000 0.000000 0.000000 0.053758 0.000000 0.002871
# 5 0.018335 0.019621 0.011400 0.000000 0.058064 0.000000
# 6 0.000000 0.000000 0.000000 0.002871 0.000000 0.035214
#
#
# Mechanical properties :
#
#
# Convention : Reuss Voigt Hill
#
# Bulk Modulus (GPa) = 7.52412 11.52281 9.52346
# Shear Modulus (GPa) = 19.45538 22.18457 20.81997
#
# Velocity S-wave (km/s) = 3.06580 3.27378 3.17150
# Velocity P-wave (km/s) = 4.02085 4.45612 4.24407
#
# Compressibility (1/GPa) = 0.13290598
#
# Stress axis : x y z
#
# Youngs Moduli (GPa) = 24.57586 28.27633 43.05254
#
# Poissons Ratio (x) = -0.22495 -0.16811
# Poissons Ratio (y) = -0.19551 -0.21317
# Poissons Ratio (z) = -0.09596 -0.14000
#
# Static dielectric constant tensor:
#      x y z
#    x 1.741020 0.000000 0.033100 
#    y 0.000000 1.727180 0.000000 
#    z 0.033100 0.000000 1.740000 
# 
# From -- ./inp_files/39381.got.cif
#   From: 2010.05.17/outbox.cif.g08.bks.cpg/sg14_20_cif.got.tgz:39381.got - 2010.06.03 17:49:19.
