data_PCOD9247654
_publ_section_title
;
Structure prediction by ZEFSAII (Michael W. Deem and Ramdas Pophale) SiO2 
 PCOD9247654
Probable space group: P 21/C
;
_chemical_formula_sum "Si O2"
_cell_formula_units_Z 24
_cell_length_a 7.260894
_cell_length_b 14.333223
_cell_length_c 9.144143
_cell_angle_alpha 90.000000
_cell_angle_beta 82.889303
_cell_angle_gamma 90.000000
_cell_volume 944.330085
_symmetry_space_group_name_H-M "P 21/C"
_symmetry_group_IT_number 14
_symmetry_cell_setting 'monoclinic'
loop_
_space_group_symop_operation_xyz
x,y,z
-x,1/2+y,1/2-z
-x,-y,-z
x,1/2-y,1/2+z
loop_
_atom_site_type_symbol
_atom_site_label
_atom_site_fract_x
_atom_site_fract_y
_atom_site_fract_z
Si Si1 0.592889 0.364141 0.739034
Si Si2 0.132324 0.936209 0.242415
Si Si3 0.547783 0.926593 0.199599
Si Si4 0.672101 0.186111 0.556670
Si Si5 0.883971 0.672265 0.540905
Si Si6 0.855312 0.858442 0.709846
O O1 0.638900 0.472764 0.713738
O O2 0.654784 0.292548 0.608103
O O3 0.369347 0.359325 0.773553
O O4 0.674219 0.327986 0.884645
O O5 0.342006 0.945502 0.157129
O O6 0.163406 0.862473 0.368638
O O7 0.001124 0.897916 0.130200
O O8 0.080674 0.035306 0.317249
O O9 0.504503 0.871665 0.356076
O O10 0.672038 0.860037 0.089646
O O11 0.913118 0.775298 0.599204
O O12 0.919628 0.665088 0.367208
#
# Coordination Sequence:
#
# PCOD9247654 Si02
#       6
#     4   4   4   4   4   4
#     4  11  21  39  67  94 126 171 212 260 321 376
#     4   9  24  43  62  96 131 163 216 266 312 379
#     4   9  23  40  68  91 128 170 208 264 317 378
#     4  10  22  39  63  94 128 165 212 262 314 377
#     4  12  24  44  65  99 125 172 216 259 327 381
#     4  11  24  40  69  93 133 167 214 271 312 385
#
# _framework density 25.414840000000002
#
# number of rings (size 3 to 8) (size 9 to 14) (size 15 to 20)
#    1.000    0.667    1.667    2.000    0.000    6.667 
#    0.000    1.667    0.000    0.000    0.000    0.000 
#    0.000    0.000    0.000    0.000    0.000    0.000 
#
# Total GULP energy -134549.396717 kJ/mol
# GULP energy per Si atom -5606.224863 kJ/mol
# Density = 2.535700 g / cm^3
# Si number density = 25.414840 Si / 1000 Ang^3
#
#
#
# Elastic Constant Matrix: (Units=GPa)
#
#
# Indices 1 2 3 4 5 6 
#
# 1 65.5579 31.8280 19.7919 0.0000 12.6817 0.0000
# 2 31.8280 187.1773 51.0490 0.0000 -19.7835 0.0000
# 3 19.7919 51.0490 125.3765 0.0000 5.1721 0.0000
# 4 0.0000 0.0000 0.0000 22.1775 0.0000 11.2991
# 5 12.6817 -19.7835 5.1721 0.0000 34.7390 0.0000
# 6 0.0000 0.0000 0.0000 11.2991 0.0000 18.6741
#
#
#
# Elastic Compliance Matrix: (Units=1/GPa)
#
#
# Indices 1 2 3 4 5 6 
#
# 1 0.019255 -0.003951 -0.001055 0.000000 -0.009122 0.000000
# 2 -0.003951 0.007367 -0.002625 0.000000 0.006029 0.000000
# 3 -0.001055 -0.002625 0.009314 0.000000 -0.002497 0.000000
# 4 0.000000 0.000000 0.000000 0.065186 0.000000 -0.039442
# 5 -0.009122 0.006029 -0.002497 0.000000 0.035921 0.000000
# 6 0.000000 0.000000 0.000000 -0.039442 0.000000 0.077415
#
#
# Mechanical properties :
#
#
# Convention : Reuss Voigt Hill
#
# Bulk Modulus (GPa) = 48.36516 64.82774 56.59645
# Shear Modulus (GPa) = 21.13185 33.48098 27.30641
#
# Velocity S-wave (km/s) = 2.88666 3.63351 3.28140
# Velocity P-wave (km/s) = 5.49382 6.57011 6.05592
#
# Compressibility (1/GPa) = 0.02067604
#
# Stress axis : x y z
#
# Youngs Moduli (GPa) = 51.93557 135.73430 107.36310
#
# Poissons Ratio (x) = 0.53623 0.11324
# Poissons Ratio (y) = 0.20517 0.28181
# Poissons Ratio (z) = 0.05478 0.35627
#
# Static dielectric constant tensor:
#      x y z
#    x 2.059140 0.000000 -0.011670 
#    y 0.000000 1.957000 0.000000 
#    z -0.011670 0.000000 1.906710 
# 
# From -- ./inp_files/25021.got.cif
#   From: 2010.05.17/outbox.cif.g08.bks.cpg/sg14_13_cif.got.tgz:25021.got - 2010.06.03 17:49:19.
