data_PCOD9247815
_publ_section_title
;
Structure prediction by ZEFSAII (Michael W. Deem and Ramdas Pophale) SiO2 
 PCOD9247815
Probable space group: P 21/C
;
_chemical_formula_sum "Si O2"
_cell_formula_units_Z 32
_cell_length_a 16.906847
_cell_length_b 5.105263
_cell_length_c 14.174441
_cell_angle_alpha 90.000000
_cell_angle_beta 82.637870
_cell_angle_gamma 90.000000
_cell_volume 1213.365247
_symmetry_space_group_name_H-M "P 21/C"
_symmetry_group_IT_number 14
_symmetry_cell_setting 'monoclinic'
loop_
_space_group_symop_operation_xyz
x,y,z
-x,1/2+y,1/2-z
-x,-y,-z
x,1/2-y,1/2+z
loop_
_atom_site_type_symbol
_atom_site_label
_atom_site_fract_x
_atom_site_fract_y
_atom_site_fract_z
Si Si1 0.823113 0.723339 0.394394
Si Si2 0.030056 0.631610 0.115578
Si Si3 0.546845 0.608136 0.355813
Si Si4 0.294185 0.826954 0.412692
Si Si5 0.604794 0.107465 0.246814
Si Si6 0.873201 0.344407 0.555297
Si Si7 0.656680 0.803535 0.994860
Si Si8 0.891558 0.118194 0.730889
O O1 0.895642 0.931651 0.376189
O O2 0.843268 0.570422 0.489111
O O3 0.730484 0.804643 0.419329
O O4 0.825841 0.534382 0.301307
O O5 0.047278 0.752061 0.010913
O O6 0.045017 0.839299 0.195671
O O7 0.940546 0.543880 0.145868
O O8 0.575753 0.315371 0.328822
O O9 0.457368 0.634976 0.331641
O O10 0.572046 0.688620 0.456520
O O11 0.596183 0.816480 0.285462
O O12 0.312206 0.701393 0.308315
O O13 0.200032 0.862937 0.440025
O O14 0.321151 0.599195 0.480593
O O15 0.340411 0.097141 0.420724
O O16 0.876448 0.374138 0.667977
#
# Coordination Sequence:
#
# PCOD9247815 Si02
#       8
#     4   4   4   4   4   4   4   4
#     4  10  23  41  59  89 125 155 210 264 305 387
#     4  11  21  42  59  87 123 153 212 261 310 383
#     4  10  22  40  64  92 127 168 203 261 313 363
#     4  11  23  41  62  93 126 163 212 258 311 387
#     4  10  22  40  62  95 128 160 216 254 303 386
#     4  10  24  40  60  87 124 160 205 263 321 367
#     4  11  23  41  64  90 129 167 204 263 321 362
#     4  11  23  39  63  89 115 167 207 257 325 376
#
# _framework density 26.37293
#
# number of rings (size 3 to 8) (size 9 to 14) (size 15 to 20)
#    0.000    1.500    2.500    1.875    1.750    3.500 
#    0.000    0.000    0.000    0.000    0.000    0.000 
#    0.000    0.000    0.000    0.000    0.000    0.000 
#
# Total GULP energy -178761.722073 kJ/mol
# GULP energy per Si atom -5586.303815 kJ/mol
# Density = 2.631290 g / cm^3
# Si number density = 26.372930 Si / 1000 Ang^3
#
#
#
# Elastic Constant Matrix: (Units=GPa)
#
#
# Indices 1 2 3 4 5 6 
#
# 1 57.8696 10.3930 9.8439 0.0000 -4.2092 0.0000
# 2 10.3930 63.3939 11.0261 0.0000 1.5223 0.0000
# 3 9.8439 11.0261 98.1636 0.0000 -3.4029 0.0000
# 4 0.0000 0.0000 0.0000 21.3288 0.0000 -5.3652
# 5 -4.2092 1.5223 -3.4029 0.0000 33.9980 0.0000
# 6 0.0000 0.0000 0.0000 -5.3652 0.0000 30.6036
#
#
#
# Elastic Compliance Matrix: (Units=1/GPa)
#
#
# Indices 1 2 3 4 5 6 
#
# 1 0.018187 -0.002786 -0.001433 0.000000 0.002233 0.000000
# 2 -0.002786 0.016543 -0.001622 0.000000 -0.001248 0.000000
# 3 -0.001433 -0.001622 0.010546 0.000000 0.000951 0.000000
# 4 0.000000 0.000000 0.000000 0.049048 0.000000 0.008599
# 5 0.002233 -0.001248 0.000951 0.000000 0.029841 0.000000
# 6 0.000000 0.000000 0.000000 0.008599 0.000000 0.034183
#
#
# Mechanical properties :
#
#
# Convention : Reuss Voigt Hill
#
# Bulk Modulus (GPa) = 29.76802 31.32814 30.54808
# Shear Modulus (GPa) = 27.58942 29.73035 28.65989
#
# Velocity S-wave (km/s) = 3.23790 3.36118 3.30011
# Velocity P-wave (km/s) = 5.02896 5.19308 5.11168
#
# Compressibility (1/GPa) = 0.03359310
#
# Stress axis : x y z
#
# Youngs Moduli (GPa) = 54.98493 60.44771 94.82282
#
# Poissons Ratio (x) = 0.16840 0.13592
# Poissons Ratio (y) = 0.15318 0.15381
# Poissons Ratio (z) = 0.07882 0.09805
#
# Static dielectric constant tensor:
#      x y z
#    x 2.048920 0.000000 -0.006650 
#    y 0.000000 2.139590 0.000000 
#    z -0.006650 0.000000 2.079600 
# 
# From -- ./inp_files/48172.got.cif
#   From: 2010.05.17/outbox.cif.g08.bks.cpg/sg14_25_cif.got.tgz:48172.got - 2010.06.03 17:49:19.
