data_PCOD9247763
_publ_section_title
;
Structure prediction by ZEFSAII (Michael W. Deem and Ramdas Pophale) SiO2 
 PCOD9247763
Probable space group: P 21/C
;
_chemical_formula_sum "Si O2"
_cell_formula_units_Z 24
_cell_length_a 13.556363
_cell_length_b 7.904133
_cell_length_c 9.178714
_cell_angle_alpha 90.000000
_cell_angle_beta 102.949109
_cell_angle_gamma 90.000000
_cell_volume 958.499909
_symmetry_space_group_name_H-M "P 21/C"
_symmetry_group_IT_number 14
_symmetry_cell_setting 'monoclinic'
loop_
_space_group_symop_operation_xyz
x,y,z
-x,1/2+y,1/2-z
-x,-y,-z
x,1/2-y,1/2+z
loop_
_atom_site_type_symbol
_atom_site_label
_atom_site_fract_x
_atom_site_fract_y
_atom_site_fract_z
Si Si1 0.554536 0.771888 0.055701
Si Si2 0.901411 0.119414 0.610627
Si Si3 0.436387 0.922869 0.267244
Si Si4 0.774628 0.904313 0.147605
Si Si5 0.101613 0.237594 0.546373
Si Si6 0.778102 0.255166 0.312257
O O1 0.496423 0.907426 0.136294
O O2 0.563203 0.606046 0.161310
O O3 0.667820 0.831856 0.058423
O O4 0.491293 0.702889 0.899135
O O5 0.810980 0.181959 0.477316
O O6 0.867752 0.139775 0.765073
O O7 0.997173 0.235315 0.601401
O O8 0.915524 0.925846 0.565868
O O9 0.322561 0.861607 0.208580
O O10 0.814059 0.803277 0.303461
O O11 0.762508 0.093325 0.202496
O O12 0.857435 0.882193 0.047133
#
# Coordination Sequence:
#
# PCOD9247763 Si02
#       6
#     4   4   4   4   4   4
#     4  11  24  41  61  86 117 153 193 238 289 344
#     4  10  22  40  60  85 119 155 192 237 287 340
#     4  11  24  41  61  86 117 153 193 238 289 344
#     4  11  23  38  60  89 117 151 195 238 286 343
#     4  10  22  40  60  85 119 155 192 237 287 340
#     4  11  23  38  60  89 117 151 195 238 286 343
#
# _framework density 25.039124999999999
#
# number of rings (size 3 to 8) (size 9 to 14) (size 15 to 20)
#    0.000    1.333    0.000    5.000    0.000   14.000 
#    0.000    0.000    0.000    0.000    0.000    0.000 
#    0.000    0.000    0.000    0.000    0.000    0.000 
#
# Total GULP energy -134613.887730 kJ/mol
# GULP energy per Si atom -5608.911989 kJ/mol
# Density = 2.498214 g / cm^3
# Si number density = 25.039125 Si / 1000 Ang^3
#
#
#
# Elastic Constant Matrix: (Units=GPa)
#
#
# Indices 1 2 3 4 5 6 
#
# 1 106.9933 20.8841 18.8052 0.0000 -7.8730 0.0000
# 2 20.8841 60.5935 20.5397 0.0000 -11.6475 0.0000
# 3 18.8052 20.5397 79.3716 0.0000 -18.5359 0.0000
# 4 0.0000 0.0000 0.0000 36.9077 0.0000 -14.7548
# 5 -7.8730 -11.6475 -18.5359 0.0000 27.4610 0.0000
# 6 0.0000 0.0000 0.0000 -14.7548 0.0000 22.4819
#
#
#
# Elastic Compliance Matrix: (Units=1/GPa)
#
#
# Indices 1 2 3 4 5 6 
#
# 1 0.010225 -0.002878 -0.001518 0.000000 0.000687 0.000000
# 2 -0.002878 0.019590 -0.003134 0.000000 0.005368 0.000000
# 3 -0.001518 -0.003134 0.015857 0.000000 0.008939 0.000000
# 4 0.000000 0.000000 0.000000 0.036732 0.000000 0.024107
# 5 0.000687 0.005368 0.008939 0.000000 0.044923 0.000000
# 6 0.000000 0.000000 0.000000 0.024107 0.000000 0.060302
#
#
# Mechanical properties :
#
#
# Convention : Reuss Voigt Hill
#
# Bulk Modulus (GPa) = 32.66539 40.82406 36.74473
# Shear Modulus (GPa) = 23.48611 29.81874 26.65242
#
# Velocity S-wave (km/s) = 3.06596 3.45466 3.26610
# Velocity P-wave (km/s) = 5.06039 5.67912 5.37866
#
# Compressibility (1/GPa) = 0.03061344
#
# Stress axis : x y z
#
# Youngs Moduli (GPa) = 97.79600 51.04773 63.06340
#
# Poissons Ratio (x) = 0.14691 0.09570
# Poissons Ratio (y) = 0.28144 0.19763
# Poissons Ratio (z) = 0.14841 0.15997
#
# Static dielectric constant tensor:
#      x y z
#    x 1.921260 0.000000 -0.008210 
#    y 0.000000 2.005510 0.000000 
#    z -0.008210 0.000000 1.955420 
# 
# From -- ./inp_files/15149.got.cif
#   From: 2010.05.17/outbox.cif.g08.bks.cpg/sg14_8_cif.got.tgz:15149.got - 2010.06.03 17:49:19.
