data_PCOD9247561
_publ_section_title
;
Structure prediction by ZEFSAII (Michael W. Deem and Ramdas Pophale) SiO2 
 PCOD9247561
Probable space group: P 21/C
;
_chemical_formula_sum "Si O2"
_cell_formula_units_Z 28
_cell_length_a 8.134526
_cell_length_b 12.707465
_cell_length_c 12.729894
_cell_angle_alpha 90.000000
_cell_angle_beta 114.116323
_cell_angle_gamma 90.000000
_cell_volume 1201.026214
_symmetry_space_group_name_H-M "P 21/C"
_symmetry_group_IT_number 14
_symmetry_cell_setting 'monoclinic'
loop_
_space_group_symop_operation_xyz
x,y,z
-x,1/2+y,1/2-z
-x,-y,-z
x,1/2-y,1/2+z
loop_
_atom_site_type_symbol
_atom_site_label
_atom_site_fract_x
_atom_site_fract_y
_atom_site_fract_z
Si Si1 0.123389 0.132237 0.798382
Si Si2 0.207616 0.919207 0.871431
Si Si3 0.770453 0.305551 0.105982
Si Si4 0.102572 0.128863 0.370732
Si Si5 0.492065 0.814006 0.837064
Si Si6 0.279983 0.376434 0.115818
Si Si7 0.509226 0.578454 0.119075
O O1 0.120406 0.247377 0.847573
O O2 0.261151 0.124377 0.736290
O O3 0.935117 0.125178 0.686003
O O4 0.161332 0.038010 0.890061
O O5 0.167222 0.810130 0.923012
O O6 0.417570 0.904085 0.895343
O O7 0.078513 0.908498 0.734345
O O8 0.670407 0.268870 0.186910
O O9 0.627554 0.359868 0.993333
O O10 0.106655 0.106010 0.496093
O O11 0.287766 0.079429 0.372216
O O12 0.660158 0.740662 0.903079
O O13 0.510345 0.860000 0.728079
O O14 0.424479 0.464762 0.120933
#
# Coordination Sequence:
#
# PCOD9247561 Si02
#       7
#     4   4   4   4   4   4   4
#     4  11  22  39  62  86 119 160 190 243 298 342
#     4   9  21  41  55  85 123 153 188 244 294 342
#     4   9  22  38  58  88 118 148 196 244 284 350
#     4  11  23  36  62  91 117 152 203 241 285 355
#     4  10  22  39  55  89 122 145 194 251 287 343
#     4  12  23  38  62  90 116 152 205 240 287 352
#     4  12  22  39  64  87 115 161 192 245 296 335
#
# _framework density 23.313395
#
# number of rings (size 3 to 8) (size 9 to 14) (size 15 to 20)
#    0.857    0.571    4.286    1.286    4.000    1.143 
#    0.000    4.286    0.000    2.571    0.000    0.000 
#    0.000    0.000    0.000    0.000    0.000    0.000 
#
# Total GULP energy -156050.158163 kJ/mol
# GULP energy per Si atom -5573.219934 kJ/mol
# Density = 2.326033 g / cm^3
# Si number density = 23.313395 Si / 1000 Ang^3
#
#
#
# Elastic Constant Matrix: (Units=GPa)
#
#
# Indices 1 2 3 4 5 6 
#
# 1 24.8161 10.9591 -0.2456 0.0000 7.0568 0.0000
# 2 10.9591 117.8645 18.5948 0.0000 -3.5499 0.0000
# 3 -0.2456 18.5948 49.5263 0.0000 9.1870 0.0000
# 4 0.0000 0.0000 0.0000 25.9310 0.0000 -1.0936
# 5 7.0568 -3.5499 9.1870 0.0000 22.6212 0.0000
# 6 0.0000 0.0000 0.0000 -1.0936 0.0000 40.5266
#
#
#
# Elastic Compliance Matrix: (Units=1/GPa)
#
#
# Indices 1 2 3 4 5 6 
#
# 1 0.048211 -0.005964 0.005885 0.000000 -0.018366 0.000000
# 2 -0.005964 0.009951 -0.004759 0.000000 0.005355 0.000000
# 3 0.005885 -0.004759 0.024318 0.000000 -0.012459 0.000000
# 4 0.000000 0.000000 0.000000 0.038608 0.000000 0.001042
# 5 -0.018366 0.005355 -0.012459 0.000000 0.055836 0.000000
# 6 0.000000 0.000000 0.000000 0.001042 0.000000 0.024703
#
#
# Mechanical properties :
#
#
# Convention : Reuss Voigt Hill
#
# Bulk Modulus (GPa) = 13.73546 27.86926 20.80236
# Shear Modulus (GPa) = 21.22496 28.67568 24.95032
#
# Velocity S-wave (km/s) = 3.02059 3.51095 3.27496
# Velocity P-wave (km/s) = 4.25085 5.33065 4.82108
#
# Compressibility (1/GPa) = 0.07280424
#
# Stress axis : x y z
#
# Youngs Moduli (GPa) = 20.74208 100.49275 41.12121
#
# Poissons Ratio (x) = 0.59937 -0.24201
# Poissons Ratio (y) = 0.12371 0.19570
# Poissons Ratio (z) = -0.12207 0.47825
#
# Static dielectric constant tensor:
#      x y z
#    x 1.910570 0.000000 0.002360 
#    y 0.000000 1.966700 0.000000 
#    z 0.002360 0.000000 1.841090 
# 
# From -- ./inp_files/40181.got.cif
#   From: 2010.05.17/outbox.cif.g08.bks.cpg/sg14_21_cif.got.tgz:40181.got - 2010.06.03 17:49:19.
