data_PCOD9247299
_publ_section_title
;
Structure prediction by ZEFSAII (Michael W. Deem and Ramdas Pophale) SiO2 
 PCOD9247299
Probable space group: P 21/C
;
_chemical_formula_sum "Si O2"
_cell_formula_units_Z 26
_cell_length_a 14.193563
_cell_length_b 10.463083
_cell_length_c 7.091270
_cell_angle_alpha 90.000000
_cell_angle_beta 98.707462
_cell_angle_gamma 90.000000
_cell_volume 1040.975362
_symmetry_space_group_name_H-M "P 21/C"
_symmetry_group_IT_number 14
_symmetry_cell_setting 'monoclinic'
loop_
_space_group_symop_operation_xyz
x,y,z
-x,1/2+y,1/2-z
-x,-y,-z
x,1/2-y,1/2+z
loop_
_atom_site_type_symbol
_atom_site_label
_atom_site_fract_x
_atom_site_fract_y
_atom_site_fract_z
Si Si1 0.436224 0.105251 0.226317
Si Si2 0.342909 0.137785 0.575973
Si Si3 0.161276 0.624965 0.326142
Si Si4 0.372577 0.576988 0.395818
Si Si5 0.000000 0.000000 0.000000
Si Si6 0.981065 0.744603 0.743471
Si Si7 0.866809 0.923889 0.499414
O O1 0.417673 0.094084 0.441235
O O2 0.366140 0.218214 0.138861
O O3 0.542038 0.144546 0.190870
O O4 0.411586 0.976188 0.105654
O O5 0.350179 0.048183 0.761209
O O6 0.236284 0.120272 0.465543
O O7 0.272654 0.648143 0.386670
O O8 0.113041 0.533958 0.466534
O O9 0.093441 0.746630 0.315101
O O10 0.143892 0.555488 0.116812
O O11 0.014824 0.147602 0.931474
O O12 0.945008 0.893495 0.688007
O O13 0.907352 0.672002 0.853994
#
# Coordination Sequence:
#
# PCOD9247299 Si02
#       7
#     4   4   4   4   2   4   4
#     4  11  22  40  67  95 130 167 219 283 331 395
#     4  11  21  40  67  96 125 172 225 275 333 395
#     4  10  22  41  62  90 134 168 219 274 328 394
#     4  10  24  43  63  97 132 171 222 274 341 403
#     4  10  22  36  60  90 124 172 212 254 326 386
#     4  11  20  40  59  92 128 170 214 273 317 399
#     4  10  22  35  65  92 124 167 221 269 325 393
#
# _framework density 24.976576999999999
#
# number of rings (size 3 to 8) (size 9 to 14) (size 15 to 20)
#    0.000    1.538    3.077    1.846    4.308    1.231 
#    2.769    1.538    0.000    0.000    0.000    0.000 
#    0.000    0.000    0.000    0.000    0.000    0.000 
#
# Total GULP energy -144801.047347 kJ/mol
# GULP energy per Si atom -5569.271052 kJ/mol
# Density = 2.491973 g / cm^3
# Si number density = 24.976577 Si / 1000 Ang^3
#
#
#
# Elastic Constant Matrix: (Units=GPa)
#
#
# Indices 1 2 3 4 5 6 
#
# 1 161.6525 -5.0531 12.0043 0.0000 -5.3187 0.0000
# 2 -5.0531 22.6535 -9.3687 0.0000 6.0977 0.0000
# 3 12.0043 -9.3687 44.9051 0.0000 -17.1136 0.0000
# 4 0.0000 0.0000 0.0000 13.8249 0.0000 2.7348
# 5 -5.3187 6.0977 -17.1136 0.0000 30.9143 0.0000
# 6 0.0000 0.0000 0.0000 2.7348 0.0000 18.5231
#
#
#
# Elastic Compliance Matrix: (Units=1/GPa)
#
#
# Indices 1 2 3 4 5 6 
#
# 1 0.006324 0.000765 -0.001488 0.000000 0.000114 0.000000
# 2 0.000765 0.049023 0.008097 0.000000 -0.005056 0.000000
# 3 -0.001488 0.008097 0.029974 0.000000 0.014740 0.000000
# 4 0.000000 0.000000 0.000000 0.074510 0.000000 -0.011001
# 5 0.000114 -0.005056 0.014740 0.000000 0.041524 0.000000
# 6 0.000000 0.000000 0.000000 -0.011001 0.000000 0.055611
#
#
# Mechanical properties :
#
#
# Convention : Reuss Voigt Hill
#
# Bulk Modulus (GPa) = 9.99318 24.93070 17.46194
# Shear Modulus (GPa) = 18.14393 28.09436 23.11914
#
# Velocity S-wave (km/s) = 2.69817 3.35748 3.04572
# Velocity P-wave (km/s) = 3.70359 5.00336 4.40171
#
# Compressibility (1/GPa) = 0.10006822
#
# Stress axis : x y z
#
# Youngs Moduli (GPa) = 158.12189 20.39850 33.36272
#
# Poissons Ratio (x) = -0.01560 0.04964
# Poissons Ratio (y) = -0.12093 -0.27012
# Poissons Ratio (z) = 0.23525 -0.16516
#
# Static dielectric constant tensor:
#      x y z
#    x 1.927010 0.000000 0.048650 
#    y 0.000000 1.830580 0.000000 
#    z 0.048650 0.000000 2.614280 
# 
# From -- ./inp_files/12458.got.cif
#   From: 2010.05.17/outbox.cif.g08.bks.cpg/sg14_7_cif.got.tgz:12458.got - 2010.06.03 17:49:19.
