data_PCOD9247840
_publ_section_title
;
Structure prediction by ZEFSAII (Michael W. Deem and Ramdas Pophale) SiO2 
 PCOD9247840
Probable space group: P 21/C
;
_chemical_formula_sum "Si O2"
_cell_formula_units_Z 32
_cell_length_a 10.758044
_cell_length_b 19.990954
_cell_length_c 11.623394
_cell_angle_alpha 90.000000
_cell_angle_beta 146.821460
_cell_angle_gamma 90.000000
_cell_volume 1367.997768
_symmetry_space_group_name_H-M "P 21/C"
_symmetry_group_IT_number 14
_symmetry_cell_setting 'monoclinic'
loop_
_space_group_symop_operation_xyz
x,y,z
-x,1/2+y,1/2-z
-x,-y,-z
x,1/2-y,1/2+z
loop_
_atom_site_type_symbol
_atom_site_label
_atom_site_fract_x
_atom_site_fract_y
_atom_site_fract_z
Si Si1 0.760678 0.853814 0.640531
Si Si2 0.257381 0.676843 0.141802
Si Si3 0.505635 0.666167 0.560397
Si Si4 0.073732 0.531718 0.937232
Si Si5 0.119647 0.208858 0.801934
Si Si6 0.302709 0.298534 0.663938
Si Si7 0.503502 0.472626 0.132479
Si Si8 0.797763 0.055583 0.057921
O O1 0.750587 0.779066 0.586341
O O2 0.733246 0.845529 0.755175
O O3 0.557279 0.895025 0.429283
O O4 0.990842 0.893195 0.788557
O O5 0.136397 0.606956 0.020037
O O6 0.089490 0.726424 0.943657
O O7 0.306953 0.687405 0.315104
O O8 0.490208 0.676725 0.252959
O O9 0.718629 0.656477 0.639004
O O10 0.609355 0.725884 0.719886
O O11 0.408939 0.600765 0.549582
O O12 0.876876 0.505889 0.698854
O O13 0.303359 0.504999 0.053758
O O14 0.000000 0.500000 0.000000
O O15 0.086209 0.193773 0.910203
O O16 0.729485 0.474895 0.382293
O O17 0.500000 0.500000 0.000000
#
# Coordination Sequence:
#
# PCOD9247840 Si02
#       8
#     4   4   4   4   4   4   4   4
#     4  10  23  41  63  96 129 166 223 263 325 405
#     4  11  23  41  65  93 132 167 217 278 334 390
#     4  10  22  40  63  95 128 167 218 263 330 395
#     4  11  25  44  67 101 128 172 234 278 329 401
#     4  10  23  39  66  98 129 169 215 272 329 396
#     4  10  22  40  63  95 132 171 214 268 330 400
#     4  11  26  45  67  95 135 177 225 275 331 400
#     4  11  24  42  70  91 132 175 216 274 339 383
#
# _framework density 23.391850000000002
#
# number of rings (size 3 to 8) (size 9 to 14) (size 15 to 20)
#    0.000    1.500    1.250    2.250    1.750   13.500 
#    0.000    0.000    0.000    0.000    0.000    0.000 
#    0.000    0.000    0.000    0.000    0.000    0.000 
#
# Total GULP energy -178519.576845 kJ/mol
# GULP energy per Si atom -5578.736776 kJ/mol
# Density = 2.333861 g / cm^3
# Si number density = 23.391850 Si / 1000 Ang^3
#
#
#
# Elastic Constant Matrix: (Units=GPa)
#
#
# Indices 1 2 3 4 5 6 
#
# 1 88.5645 12.1213 33.2642 0.0000 -22.3074 0.0000
# 2 12.1213 61.4609 0.2611 0.0000 -1.9706 0.0000
# 3 33.2642 0.2611 119.6869 0.0000 -38.3915 0.0000
# 4 0.0000 0.0000 0.0000 19.3833 0.0000 -3.5920
# 5 -22.3074 -1.9706 -38.3915 0.0000 39.4587 0.0000
# 6 0.0000 0.0000 0.0000 -3.5920 0.0000 26.6784
#
#
#
# Elastic Compliance Matrix: (Units=1/GPa)
#
#
# Indices 1 2 3 4 5 6 
#
# 1 0.013837 -0.002536 -0.001994 0.000000 0.005756 0.000000
# 2 -0.002536 0.016770 0.000693 0.000000 0.000079 0.000000
# 3 -0.001994 0.000693 0.012440 0.000000 0.011011 0.000000
# 4 0.000000 0.000000 0.000000 0.052911 0.000000 0.007124
# 5 0.005756 0.000079 0.011011 0.000000 0.039314 0.000000
# 6 0.000000 0.000000 0.000000 0.007124 0.000000 0.038443
#
#
# Mechanical properties :
#
#
# Convention : Reuss Voigt Hill
#
# Bulk Modulus (GPa) = 28.26920 40.11171 34.19046
# Shear Modulus (GPa) = 25.88284 32.04179 28.96232
#
# Velocity S-wave (km/s) = 3.33000 3.70508 3.52253
# Velocity P-wave (km/s) = 5.18619 5.95721 5.58502
#
# Compressibility (1/GPa) = 0.03537418
#
# Stress axis : x y z
#
# Youngs Moduli (GPa) = 72.27025 59.62954 80.38858
#
# Poissons Ratio (x) = 0.15121 0.16028
# Poissons Ratio (y) = 0.18327 -0.05574
# Poissons Ratio (z) = 0.14409 -0.04135
#
# Static dielectric constant tensor:
#      x y z
#    x 1.870110 0.000000 -0.009140 
#    y 0.000000 2.202770 0.000000 
#    z -0.009140 0.000000 2.065630 
# 
# From -- ./inp_files/30765.got.cif
#   From: 2010.05.17/outbox.cif.g08.bks.cpg/sg14_16_cif.got.tgz:30765.got - 2010.06.03 17:49:19.
