data_PCOD9247533
_publ_section_title
;
Structure prediction by ZEFSAII (Michael W. Deem and Ramdas Pophale) SiO2 
 PCOD9247533
Probable space group: P 21/C
;
_chemical_formula_sum "Si O2"
_cell_formula_units_Z 18
_cell_length_a 11.177401
_cell_length_b 7.944451
_cell_length_c 8.027623
_cell_angle_alpha 90.000000
_cell_angle_beta 87.754234
_cell_angle_gamma 90.000000
_cell_volume 712.291885
_symmetry_space_group_name_H-M "P 21/C"
_symmetry_group_IT_number 14
_symmetry_cell_setting 'monoclinic'
loop_
_space_group_symop_operation_xyz
x,y,z
-x,1/2+y,1/2-z
-x,-y,-z
x,1/2-y,1/2+z
loop_
_atom_site_type_symbol
_atom_site_label
_atom_site_fract_x
_atom_site_fract_y
_atom_site_fract_z
Si Si1 0.019715 0.622784 0.652685
Si Si2 0.476240 0.131784 0.855322
Si Si3 0.818835 0.343450 0.065805
Si Si4 0.768872 0.509783 0.752771
Si Si5 0.500000 0.000000 0.500000
O O1 0.890700 0.617635 0.744971
O O2 0.000000 0.500000 0.500000
O O3 0.072070 0.791988 0.567592
O O4 0.121447 0.568737 0.778551
O O5 0.337033 0.119485 0.812504
O O6 0.541396 0.082571 0.682528
O O7 0.505242 0.315303 0.914076
O O8 0.500000 0.000000 0.000000
O O9 0.775520 0.162117 0.140373
O O10 0.739823 0.455898 0.945525
#
# Coordination Sequence:
#
# PCOD9247533 Si02
#       5
#     4   4   4   4   2
#     4   9  18  36  59  96 141 185 236 297 366 440
#     4  12  28  51  81 113 156 200 263 329 394 462
#     4   9  19  37  63  96 147 188 244 307 361 465
#     4  10  22  38  66 104 137 200 246 304 387 450
#     4  12  28  54  80 112 154 200 258 338 392 458
#
# _framework density 25.270538999999999
#
# number of rings (size 3 to 8) (size 9 to 14) (size 15 to 20)
#    0.000    1.778    2.222    0.667    3.111    1.778 
#    8.000    0.000    0.000    0.000    0.000    0.000 
#    0.000    0.000    0.000    0.000    0.000    0.000 
#
# Total GULP energy -100291.259098 kJ/mol
# GULP energy per Si atom -5571.736617 kJ/mol
# Density = 2.521302 g / cm^3
# Si number density = 25.270539 Si / 1000 Ang^3
#
#
#
# Elastic Constant Matrix: (Units=GPa)
#
#
# Indices 1 2 3 4 5 6 
#
# 1 48.9525 9.8328 29.9555 0.0000 10.5910 0.0000
# 2 9.8328 133.2592 72.4851 0.0000 2.4936 0.0000
# 3 29.9555 72.4851 226.5404 0.0000 16.4958 0.0000
# 4 0.0000 0.0000 0.0000 61.1355 0.0000 9.8231
# 5 10.5910 2.4936 16.4958 0.0000 51.7403 0.0000
# 6 0.0000 0.0000 0.0000 9.8231 0.0000 21.7161
#
#
#
# Elastic Compliance Matrix: (Units=1/GPa)
#
#
# Indices 1 2 3 4 5 6 
#
# 1 0.022942 -0.000148 -0.002708 0.000000 -0.003826 0.000000
# 2 -0.000148 0.009099 -0.002930 0.000000 0.000526 0.000000
# 3 -0.002708 -0.002930 0.005794 0.000000 -0.001152 0.000000
# 4 0.000000 0.000000 0.000000 0.017639 0.000000 -0.007979
# 5 -0.003826 0.000526 -0.001152 0.000000 0.020452 0.000000
# 6 0.000000 0.000000 0.000000 -0.007979 0.000000 0.049658
#
#
# Mechanical properties :
#
#
# Convention : Reuss Voigt Hill
#
# Bulk Modulus (GPa) = 38.07667 70.36654 54.22160
# Shear Modulus (GPa) = 34.26751 46.68364 40.47557
#
# Velocity S-wave (km/s) = 3.68642 4.30275 4.00645
# Velocity P-wave (km/s) = 5.76367 7.25194 6.55021
#
# Compressibility (1/GPa) = 0.02626280
#
# Stress axis : x y z
#
# Youngs Moduli (GPa) = 43.58746 109.90141 172.60358
#
# Poissons Ratio (x) = 0.01632 0.46734
# Poissons Ratio (y) = 0.00647 0.50574
# Poissons Ratio (z) = 0.11802 0.32202
#
# Static dielectric constant tensor:
#      x y z
#    x 2.787020 0.000000 -0.052630 
#    y 0.000000 1.925500 0.000000 
#    z -0.052630 0.000000 2.012020 
# 
# From -- ./inp_files/11537.got.cif
#   From: 2010.05.17/outbox.cif.g08.bks.cpg/sg14_6_cif.got.tgz:11537.got - 2010.06.03 17:49:19.
