data_PCOD9247899
_publ_section_title
;
Structure prediction by ZEFSAII (Michael W. Deem and Ramdas Pophale) SiO2 
 PCOD9247899
Probable space group: P 21/C
;
_chemical_formula_sum "Si O2"
_cell_formula_units_Z 24
_cell_length_a 10.085413
_cell_length_b 9.922774
_cell_length_c 22.738212
_cell_angle_alpha 90.000000
_cell_angle_beta 155.328445
_cell_angle_gamma 90.000000
_cell_volume 949.843763
_symmetry_space_group_name_H-M "P 21/C"
_symmetry_group_IT_number 14
_symmetry_cell_setting 'monoclinic'
loop_
_space_group_symop_operation_xyz
x,y,z
-x,1/2+y,1/2-z
-x,-y,-z
x,1/2-y,1/2+z
loop_
_atom_site_type_symbol
_atom_site_label
_atom_site_fract_x
_atom_site_fract_y
_atom_site_fract_z
Si Si1 0.532669 0.152323 0.460442
Si Si2 0.979623 0.505514 0.788750
Si Si3 0.144746 0.359085 0.584277
Si Si4 0.528578 0.193042 0.131778
Si Si5 0.283423 0.897904 0.590740
Si Si6 0.159608 0.142717 0.865249
O O1 0.876761 0.141645 0.628422
O O2 0.568724 0.071196 0.414388
O O3 0.391451 0.300707 0.406715
O O4 0.284396 0.092752 0.409035
O O5 0.716520 0.443791 0.723508
O O6 0.884820 0.497531 0.681966
O O7 0.325257 0.275379 0.605814
O O8 0.416004 0.387949 0.743080
O O9 0.000000 0.500000 0.500000
O O10 0.865621 0.251004 0.484517
O O11 0.807452 0.294335 0.226827
O O12 0.308193 0.158685 0.988239
O O13 0.000000 0.000000 0.500000
#
# Coordination Sequence:
#
# PCOD9247899 Si02
#       6
#     4   4   4   4   4   4
#     4  10  24  41  68 101 138 172 230 291 354 418
#     4  10  22  40  65  99 130 172 222 289 350 405
#     4  12  29  48  73 107 144 198 244 295 356 435
#     4  11  24  41  67  94 136 174 231 280 349 416
#     4  12  28  48  76 104 148 197 242 297 357 432
#     4  11  22  40  68  98 129 175 219 291 349 404
#
# _framework density 25.267313999999999
#
# number of rings (size 3 to 8) (size 9 to 14) (size 15 to 20)
#    0.000    1.000    1.667    3.500    9.333    0.000 
#    0.000    0.000    0.000    0.000    0.000    0.000 
#    0.000    0.000    0.000    0.000    0.000    0.000 
#
# Total GULP energy -133710.736685 kJ/mol
# GULP energy per Si atom -5571.280695 kJ/mol
# Density = 2.520980 g / cm^3
# Si number density = 25.267314 Si / 1000 Ang^3
#
#
#
# Elastic Constant Matrix: (Units=GPa)
#
#
# Indices 1 2 3 4 5 6 
#
# 1 102.8472 0.9147 21.4888 0.0000 -3.1046 0.0000
# 2 0.9147 61.0733 35.4376 0.0000 3.5509 0.0000
# 3 21.4888 35.4376 155.6116 0.0000 -30.3558 0.0000
# 4 0.0000 0.0000 0.0000 35.0115 0.0000 6.0822
# 5 -3.1046 3.5509 -30.3558 0.0000 38.4423 0.0000
# 6 0.0000 0.0000 0.0000 6.0822 0.0000 30.0122
#
#
#
# Elastic Compliance Matrix: (Units=1/GPa)
#
#
# Indices 1 2 3 4 5 6 
#
# 1 0.010054 0.000877 -0.001709 0.000000 -0.000618 0.000000
# 2 0.000877 0.020223 -0.006002 0.000000 -0.006536 0.000000
# 3 -0.001709 -0.006002 0.009587 0.000000 0.007987 0.000000
# 4 0.000000 0.000000 0.000000 0.029604 0.000000 -0.006000
# 5 -0.000618 -0.006536 0.007987 0.000000 0.032873 0.000000
# 6 0.000000 0.000000 0.000000 -0.006000 0.000000 0.034536
#
#
# Mechanical properties :
#
#
# Convention : Reuss Voigt Hill
#
# Bulk Modulus (GPa) = 38.17246 48.35716 43.26481
# Shear Modulus (GPa) = 31.39201 38.13927 34.76564
#
# Velocity S-wave (km/s) = 3.52859 3.88935 3.71336
# Velocity P-wave (km/s) = 5.63396 6.27290 5.96199
#
# Compressibility (1/GPa) = 0.02619690
#
# Stress axis : x y z
#
# Youngs Moduli (GPa) = 99.46587 49.44851 104.30859
#
# Poissons Ratio (x) = -0.04336 0.17822
# Poissons Ratio (y) = -0.08721 0.62601
# Poissons Ratio (z) = 0.16995 0.29677
#
# Static dielectric constant tensor:
#      x y z
#    x 1.975760 0.000000 0.039960 
#    y 0.000000 2.337320 0.000000 
#    z 0.039960 0.000000 2.365690 
# 
# From -- ./inp_files/77234.got.cif
#   From: 2010.05.17/outbox.cif.g08.bks.cpg/sg14_39_cif.got.tgz:77234.got - 2010.06.03 17:49:19.
