data_PCOD9247738
_publ_section_title
;
Structure prediction by ZEFSAII (Michael W. Deem and Ramdas Pophale) SiO2 
 PCOD9247738
Probable space group: P 21/C
;
_chemical_formula_sum "Si O2"
_cell_formula_units_Z 20
_cell_length_a 20.582468
_cell_length_b 5.189762
_cell_length_c 14.670502
_cell_angle_alpha 90.000000
_cell_angle_beta 29.429700
_cell_angle_gamma 90.000000
_cell_volume 769.990743
_symmetry_space_group_name_H-M "P 21/C"
_symmetry_group_IT_number 14
_symmetry_cell_setting 'monoclinic'
loop_
_space_group_symop_operation_xyz
x,y,z
-x,1/2+y,1/2-z
-x,-y,-z
x,1/2-y,1/2+z
loop_
_atom_site_type_symbol
_atom_site_label
_atom_site_fract_x
_atom_site_fract_y
_atom_site_fract_z
Si Si1 0.539512 0.429562 0.797534
Si Si2 0.277716 0.262779 0.013615
Si Si3 0.198079 0.235465 0.803795
Si Si4 0.930739 0.914179 0.367411
Si Si5 0.627323 0.267775 0.373329
O O1 0.673364 0.482140 0.578712
O O2 0.569504 0.234756 0.842448
O O3 0.416264 0.370700 0.883041
O O4 0.487967 0.678601 0.917112
O O5 0.177111 0.278072 0.221101
O O6 0.211253 0.390845 0.007930
O O7 0.301482 0.470555 0.687827
O O8 0.265751 0.967418 0.751550
O O9 0.081566 0.315757 0.013866
O O10 0.017866 0.701149 0.208519
#
# Coordination Sequence:
#
# PCOD9247738 Si02
#       5
#     4   4   4   4   4
#     4  10  22  39  69 114 143 183 219 289 354 431
#     4  11  25  42  74 109 143 186 232 287 356 428
#     4  11  24  46  71 103 138 186 233 290 349 419
#     4  12  29  50  72  97 139 193 246 299 341 404
#     4  10  22  41  70 105 150 178 219 280 364 425
#
# _framework density 25.974337999999999
#
# number of rings (size 3 to 8) (size 9 to 14) (size 15 to 20)
#    0.000    1.200    2.000    2.400    2.800   12.000 
#    0.000    0.000    0.000    0.000    0.000    0.000 
#    0.000    0.000    0.000    0.000    0.000    0.000 
#
# Total GULP energy -112044.811633 kJ/mol
# GULP energy per Si atom -5602.240582 kJ/mol
# Density = 2.591522 g / cm^3
# Si number density = 25.974338 Si / 1000 Ang^3
#
#
#
# Elastic Constant Matrix: (Units=GPa)
#
#
# Indices 1 2 3 4 5 6 
#
# 1 90.4847 2.5406 11.6043 0.0000 8.0035 0.0000
# 2 2.5406 98.5823 -11.6553 0.0000 -15.8921 0.0000
# 3 11.6043 -11.6553 74.6282 0.0000 32.7542 0.0000
# 4 0.0000 0.0000 0.0000 54.0270 0.0000 -9.7599
# 5 8.0035 -15.8921 32.7542 0.0000 38.0215 0.0000
# 6 0.0000 0.0000 0.0000 -9.7599 0.0000 27.1038
#
#
#
# Elastic Compliance Matrix: (Units=1/GPa)
#
#
# Indices 1 2 3 4 5 6 
#
# 1 0.011367 -0.000703 -0.001123 0.000000 -0.001719 0.000000
# 2 -0.000703 0.010931 -0.000408 0.000000 0.005068 0.000000
# 3 -0.001123 -0.000408 0.021678 0.000000 -0.018609 0.000000
# 4 0.000000 0.000000 0.000000 0.019797 0.000000 0.007129
# 5 -0.001719 0.005068 -0.018609 0.000000 0.044812 0.000000
# 6 0.000000 0.000000 0.000000 0.007129 0.000000 0.039462
#
#
# Mechanical properties :
#
#
# Convention : Reuss Voigt Hill
#
# Bulk Modulus (GPa) = 25.31061 29.85273 27.58167
# Shear Modulus (GPa) = 30.17779 41.24416 35.71098
#
# Velocity S-wave (km/s) = 3.41226 3.98915 3.71193
# Velocity P-wave (km/s) = 5.02895 5.72152 5.38638
#
# Compressibility (1/GPa) = 0.03950912
#
# Stress axis : x y z
#
# Youngs Moduli (GPa) = 87.97087 91.48533 46.12947
#
# Poissons Ratio (x) = 0.06430 0.05179
# Poissons Ratio (y) = 0.06183 0.01882
# Poissons Ratio (z) = 0.09876 0.03733
#
# Static dielectric constant tensor:
#      x y z
#    x 1.990550 0.000000 0.046180 
#    y 0.000000 2.051720 0.000000 
#    z 0.046180 0.000000 2.116080 
# 
# From -- ./inp_files/49572.got.cif
#   From: 2010.05.17/outbox.cif.g08.bks.cpg/sg14_25_cif.got.tgz:49572.got - 2010.06.03 17:49:19.
