data_PCOD9247353
_publ_section_title
;
Structure prediction by ZEFSAII (Michael W. Deem and Ramdas Pophale) SiO2 
 PCOD9247353
Probable space group: P 21/C
;
_chemical_formula_sum "Si O2"
_cell_formula_units_Z 28
_cell_length_a 17.000428
_cell_length_b 11.589185
_cell_length_c 20.351948
_cell_angle_alpha 90.000000
_cell_angle_beta 160.188663
_cell_angle_gamma 90.000000
_cell_volume 1359.005348
_symmetry_space_group_name_H-M "P 21/C"
_symmetry_group_IT_number 14
_symmetry_cell_setting 'monoclinic'
loop_
_space_group_symop_operation_xyz
x,y,z
-x,1/2+y,1/2-z
-x,-y,-z
x,1/2-y,1/2+z
loop_
_atom_site_type_symbol
_atom_site_label
_atom_site_fract_x
_atom_site_fract_y
_atom_site_fract_z
Si Si1 0.327408 0.364096 0.189395
Si Si2 0.868311 0.500000 0.313423
Si Si3 0.000001 0.294330 0.500001
Si Si4 0.608352 0.000000 0.478242
Si Si5 0.772690 0.219564 0.529309
Si Si6 0.327409 0.864095 0.689395
Si Si7 0.772692 0.780437 0.529311
O O1 0.218432 0.289705 0.162979
O O2 0.593152 0.325927 0.387252
O O3 0.306196 0.500000 0.182988
O O4 0.189578 0.325045 0.015230
O O5 0.994055 0.616459 0.434551
O O6 0.632086 0.499999 0.171117
O O7 0.994058 0.383541 0.434554
O O8 0.807443 0.499999 0.189927
O O9 0.781568 0.210296 0.337021
O O10 0.639445 0.113443 0.459508
O O11 0.639448 0.886557 0.459511
O O12 0.810421 0.174955 0.484769
O O13 0.999999 0.250000 0.749999
O O14 0.593153 0.825926 0.887253
#
# Coordination Sequence:
#
# PCOD9247353 Si02
#       7
#     4   4   4   4   4   4   4
#     4  11  24  41  64  92 127 165 206 255 313 371
#     4  10  22  36  68  90 120 160 207 262 309 358
#     4  11  21  42  60  94 125 163 206 256 310 373
#     4  11  20  42  62  91 121 157 214 258 302 372
#     4  11  24  42  64  92 126 164 209 256 310 371
#     4  11  24  41  64  92 127 165 206 255 313 371
#     4  11  24  42  64  92 126 164 209 256 310 371
#
# _framework density 20.603304999999999
#
# number of rings (size 3 to 8) (size 9 to 14) (size 15 to 20)
#    0.000    1.143    4.286    2.143    2.000    0.000 
#    2.571    0.000    0.000    5.143    0.000    0.000 
#    0.000    0.000    0.000    0.000    0.000    0.000 
#
# Total GULP energy -156459.989935 kJ/mol
# GULP energy per Si atom -5587.856783 kJ/mol
# Density = 2.055641 g / cm^3
# Si number density = 20.603305 Si / 1000 Ang^3
#
#
#
# Elastic Constant Matrix: (Units=GPa)
#
#
# Indices 1 2 3 4 5 6 
#
# 1 36.9057 26.5334 -9.1308 0.0000 -5.5933 0.0000
# 2 26.5334 173.8047 29.5472 0.0000 4.7162 0.0000
# 3 -9.1308 29.5472 80.0730 0.0000 -12.3727 0.0000
# 4 0.0000 0.0000 0.0000 8.1299 0.0000 5.1093
# 5 -5.5933 4.7162 -12.3727 0.0000 30.7680 0.0000
# 6 0.0000 0.0000 0.0000 5.1093 0.0000 31.1249
#
#
#
# Elastic Compliance Matrix: (Units=1/GPa)
#
#
# Indices 1 2 3 4 5 6 
#
# 1 0.036103 -0.007260 0.008511 0.000000 0.011098 0.000000
# 2 -0.007260 0.007713 -0.004330 0.000000 -0.004243 0.000000
# 3 0.008511 -0.004330 0.016418 0.000000 0.008813 0.000000
# 4 0.000000 0.000000 0.000000 0.137153 0.000000 -0.022514
# 5 0.011098 -0.004243 0.008813 0.000000 0.038713 0.000000
# 6 0.000000 0.000000 0.000000 -0.022514 0.000000 0.035825
#
#
# Mechanical properties :
#
#
# Convention : Reuss Voigt Hill
#
# Bulk Modulus (GPa) = 18.49207 42.74256 30.61732
# Shear Modulus (GPa) = 16.88576 30.26012 23.57294
#
# Velocity S-wave (km/s) = 2.86591 3.83652 3.38617
# Velocity P-wave (km/s) = 4.46610 6.35734 5.49371
#
# Compressibility (1/GPa) = 0.05407723
#
# Stress axis : x y z
#
# Youngs Moduli (GPa) = 27.69864 129.65112 60.90697
#
# Poissons Ratio (x) = 0.94120 -0.51835
# Poissons Ratio (y) = 0.20108 0.26370
# Poissons Ratio (z) = -0.23573 0.56133
#
# Static dielectric constant tensor:
#      x y z
#    x 1.734790 0.000000 -0.002800 
#    y 0.000000 1.699920 0.000000 
#    z -0.002800 0.000000 1.756990 
# 
# From -- ./inp_files/69324.got.cif
#   From: 2010.05.17/outbox.cif.g08.bks.cpg/sg14_35_cif.got.tgz:69324.got - 2010.06.03 17:49:19.
