data_PCOD9247178
_publ_section_title
;
Structure prediction by ZEFSAII (Michael W. Deem and Ramdas Pophale) SiO2 
 PCOD9247178
Probable space group: P 21/C
;
_chemical_formula_sum "Si O2"
_cell_formula_units_Z 28
_cell_length_a 24.362533
_cell_length_b 9.492728
_cell_length_c 8.961653
_cell_angle_alpha 90.000000
_cell_angle_beta 139.251153
_cell_angle_gamma 90.000000
_cell_volume 1352.834989
_symmetry_space_group_name_H-M "P 21/C"
_symmetry_group_IT_number 14
_symmetry_cell_setting 'monoclinic'
loop_
_space_group_symop_operation_xyz
x,y,z
-x,1/2+y,1/2-z
-x,-y,-z
x,1/2-y,1/2+z
loop_
_atom_site_type_symbol
_atom_site_label
_atom_site_fract_x
_atom_site_fract_y
_atom_site_fract_z
Si Si1 0.500234 0.860267 0.103016
Si Si2 0.269522 0.935827 0.065444
Si Si3 0.255728 0.403214 0.109080
Si Si4 0.089082 0.432636 0.215325
Si Si5 0.846520 0.790655 0.870123
Si Si6 0.685323 0.311019 0.651727
Si Si7 0.604149 0.815777 0.605572
O O1 0.565460 0.874265 0.373795
O O2 0.531074 0.725558 0.070355
O O3 0.409802 0.829876 0.988036
O O4 0.500000 0.000000 0.000000
O O5 0.303861 0.844101 0.999416
O O6 0.172087 0.976316 0.846200
O O7 0.282758 0.842674 0.239191
O O8 0.325769 0.076647 0.189694
O O9 0.199256 0.320255 0.113987
O O10 0.261260 0.567073 0.155648
O O11 0.346635 0.331160 0.316718
O O12 0.221221 0.370056 0.873101
O O13 0.102417 0.391778 0.415364
O O14 0.096493 0.294296 0.127886
O O15 0.000000 0.500000 0.000000
#
# Coordination Sequence:
#
# PCOD9247178 Si02
#       7
#     4   4   4   4   4   4   4
#     4  12  28  42  68 102 137 183 241 295 339 408
#     4  12  28  45  72  96 144 185 228 290 359 423
#     4  11  20  42  73  96 130 186 237 268 338 429
#     4  11  25  46  73 108 139 177 236 291 351 422
#     4  10  21  44  74 102 133 184 233 276 347 429
#     4  12  27  43  64 103 142 179 231 292 354 401
#     4  12  25  45  71  94 137 188 239 281 346 421
#
# _framework density 20.697277
#
# number of rings (size 3 to 8) (size 9 to 14) (size 15 to 20)
#    0.000    0.571    5.714    2.571    6.000    2.286 
#    0.000    1.429    0.000    0.000    0.000    0.000 
#    0.000    0.000    0.000    0.000    0.000    0.000 
#
# Total GULP energy -156663.495207 kJ/mol
# GULP energy per Si atom -5595.124829 kJ/mol
# Density = 2.065017 g / cm^3
# Si number density = 20.697277 Si / 1000 Ang^3
#
#
#
# Elastic Constant Matrix: (Units=GPa)
#
#
# Indices 1 2 3 4 5 6 
#
# 1 67.8939 10.2592 53.0046 0.0000 -4.2815 0.0000
# 2 10.2592 47.6552 15.2428 0.0000 4.5080 0.0000
# 3 53.0046 15.2428 126.4788 0.0000 3.8596 0.0000
# 4 0.0000 0.0000 0.0000 43.7789 0.0000 -4.7918
# 5 -4.2815 4.5080 3.8596 0.0000 33.4297 0.0000
# 6 0.0000 0.0000 0.0000 -4.7918 0.0000 30.9380
#
#
#
# Elastic Compliance Matrix: (Units=1/GPa)
#
#
# Indices 1 2 3 4 5 6 
#
# 1 0.022639 -0.002291 -0.009342 0.000000 0.004287 0.000000
# 2 -0.002291 0.022293 -0.001632 0.000000 -0.003111 0.000000
# 3 -0.009342 -0.001632 0.012091 0.000000 -0.002372 0.000000
# 4 0.000000 0.000000 0.000000 0.023236 0.000000 0.003599
# 5 0.004287 -0.003111 -0.002372 0.000000 0.031156 0.000000
# 6 0.000000 0.000000 0.000000 0.003599 0.000000 0.032880
#
#
# Mechanical properties :
#
#
# Convention : Reuss Voigt Hill
#
# Bulk Modulus (GPa) = 32.79426 44.33792 38.56609
# Shear Modulus (GPa) = 27.62597 32.53074 30.07835
#
# Velocity S-wave (km/s) = 3.65740 3.96882 3.81629
# Velocity P-wave (km/s) = 5.80643 6.51695 6.17192
#
# Compressibility (1/GPa) = 0.03049314
#
# Stress axis : x y z
#
# Youngs Moduli (GPa) = 44.17198 44.85613 82.70887
#
# Poissons Ratio (x) = 0.10277 0.77268
# Poissons Ratio (y) = 0.10120 0.13495
# Poissons Ratio (z) = 0.41266 0.07319
#
# Static dielectric constant tensor:
#      x y z
#    x 1.753530 0.000000 -0.020030 
#    y 0.000000 1.745260 0.000000 
#    z -0.020030 0.000000 1.743420 
# 
# From -- ./inp_files/19753.got.cif
#   From: 2010.05.17/outbox.cif.g08.bks.cpg/sg14_10_cif.got.tgz:19753.got - 2010.06.03 17:49:19.
