data_PCOD9247709
_publ_section_title
;
Structure prediction by ZEFSAII (Michael W. Deem and Ramdas Pophale) SiO2 
 PCOD9247709
Probable space group: P 21/C
;
_chemical_formula_sum "Si O2"
_cell_formula_units_Z 24
_cell_length_a 16.654145
_cell_length_b 7.446732
_cell_length_c 13.862723
_cell_angle_alpha 90.000000
_cell_angle_beta 36.255368
_cell_angle_gamma 90.000000
_cell_volume 1016.733337
_symmetry_space_group_name_H-M "P 21/C"
_symmetry_group_IT_number 14
_symmetry_cell_setting 'monoclinic'
loop_
_space_group_symop_operation_xyz
x,y,z
-x,1/2+y,1/2-z
-x,-y,-z
x,1/2-y,1/2+z
loop_
_atom_site_type_symbol
_atom_site_label
_atom_site_fract_x
_atom_site_fract_y
_atom_site_fract_z
Si Si1 0.746022 0.744850 0.005936
Si Si2 0.028709 0.354631 0.829711
Si Si3 0.474597 0.837439 0.166669
Si Si4 0.646734 0.359405 0.405547
Si Si5 0.843425 0.852485 0.609010
Si Si6 0.216180 0.843786 0.557390
O O1 0.595456 0.750422 0.110282
O O2 0.764265 0.755354 0.103074
O O3 0.839375 0.890644 0.863026
O O4 0.956785 0.531728 0.942685
O O5 0.259954 0.493802 0.740764
O O6 0.914866 0.268850 0.871574
O O7 0.082089 0.255112 0.874619
O O8 0.431553 0.756284 0.104759
O O9 0.343031 0.837036 0.360793
O O10 0.536905 0.030990 0.075445
O O11 0.738060 0.240246 0.386667
O O12 0.808039 0.943425 0.409267
#
# Coordination Sequence:
#
# PCOD9247709 Si02
#       6
#     4   4   4   4   4   4
#     4  11  23  41  66  96 128 167 219 270 316 381
#     4  10  22  39  66  92 127 170 211 262 320 380
#     4  11  23  42  67  96 125 177 216 260 324 387
#     4  11  23  43  70  93 130 178 211 260 336 384
#     4  10  22  44  67  94 126 175 217 255 324 393
#     4  11  25  39  65  99 133 163 220 271 315 385
#
# _framework density 23.605008999999999
#
# number of rings (size 3 to 8) (size 9 to 14) (size 15 to 20)
#    0.000    1.333    5.000    1.000    9.333    0.667 
#    0.000    2.500    0.000    0.000    0.000    0.000 
#    0.000    0.000    0.000    0.000    0.000    0.000 
#
# Total GULP energy -134074.135646 kJ/mol
# GULP energy per Si atom -5586.422319 kJ/mol
# Density = 2.355128 g / cm^3
# Si number density = 23.605009 Si / 1000 Ang^3
#
#
#
# Elastic Constant Matrix: (Units=GPa)
#
#
# Indices 1 2 3 4 5 6 
#
# 1 269.3587 29.9874 37.2943 0.0000 -12.1763 0.0000
# 2 29.9874 19.7256 -2.6403 0.0000 1.7393 0.0000
# 3 37.2943 -2.6403 107.3441 0.0000 -9.1924 0.0000
# 4 0.0000 0.0000 0.0000 12.4870 0.0000 8.2465
# 5 -12.1763 1.7393 -9.1924 0.0000 41.5062 0.0000
# 6 0.0000 0.0000 0.0000 8.2465 0.0000 37.6788
#
#
#
# Elastic Compliance Matrix: (Units=1/GPa)
#
#
# Indices 1 2 3 4 5 6 
#
# 1 0.004887 -0.007786 -0.001772 0.000000 0.001367 0.000000
# 2 -0.007786 0.063416 0.003916 0.000000 -0.004074 0.000000
# 3 -0.001772 0.003916 0.010162 0.000000 0.001567 0.000000
# 4 0.000000 0.000000 0.000000 0.093614 0.000000 -0.020489
# 5 0.001367 -0.004074 0.001567 0.000000 0.025012 0.000000
# 6 0.000000 0.000000 0.000000 -0.020489 0.000000 0.031024
#
#
# Mechanical properties :
#
#
# Convention : Reuss Voigt Hill
#
# Bulk Modulus (GPa) = 14.88543 58.41234 36.64889
# Shear Modulus (GPa) = 19.09908 40.45353 29.77631
#
# Velocity S-wave (km/s) = 2.84757 4.14426 3.55553
# Velocity P-wave (km/s) = 4.13900 6.90647 5.69344
#
# Compressibility (1/GPa) = 0.06717977
#
# Stress axis : x y z
#
# Youngs Moduli (GPa) = 204.64345 15.76886 98.40572
#
# Poissons Ratio (x) = 0.12278 0.17439
# Poissons Ratio (y) = 1.59344 -0.38537
# Poissons Ratio (z) = 0.36266 -0.06175
#
# Static dielectric constant tensor:
#      x y z
#    x 1.963520 0.000000 -0.030760 
#    y 0.000000 1.964900 0.000000 
#    z -0.030760 0.000000 1.895290 
# 
# From -- ./inp_files/46804.got.cif
#   From: 2010.05.17/outbox.cif.g08.bks.cpg/sg14_24_cif.got.tgz:46804.got - 2010.06.03 17:49:19.
