data_PCOD9247438
_publ_section_title
;
Structure prediction by ZEFSAII (Michael W. Deem and Ramdas Pophale) SiO2 
 PCOD9247438
Probable space group: P 21/C
;
_chemical_formula_sum "Si O2"
_cell_formula_units_Z 32
_cell_length_a 16.750550
_cell_length_b 11.128609
_cell_length_c 15.103189
_cell_angle_alpha 90.000000
_cell_angle_beta 30.181996
_cell_angle_gamma 90.000000
_cell_volume 1415.432813
_symmetry_space_group_name_H-M "P 21/C"
_symmetry_group_IT_number 14
_symmetry_cell_setting 'monoclinic'
loop_
_space_group_symop_operation_xyz
x,y,z
-x,1/2+y,1/2-z
-x,-y,-z
x,1/2-y,1/2+z
loop_
_atom_site_type_symbol
_atom_site_label
_atom_site_fract_x
_atom_site_fract_y
_atom_site_fract_z
Si Si1 0.696327 0.896977 0.122004
Si Si2 0.914224 0.302279 0.939960
Si Si3 0.128478 0.536162 0.685027
Si Si4 0.529042 0.079738 0.056743
Si Si5 0.326190 0.275835 0.183361
Si Si6 0.787425 0.821954 0.402719
Si Si7 0.010837 0.135808 0.524363
Si Si8 0.649371 0.449234 0.115993
O O1 0.716778 0.881695 0.207257
O O2 0.511051 0.919386 0.281217
O O3 0.736137 0.775539 0.026588
O O4 0.803518 0.002412 0.976955
O O5 0.027102 0.417192 0.807595
O O6 0.027241 0.196649 0.798061
O O7 0.899499 0.295013 0.060522
O O8 0.748858 0.332995 0.051703
O O9 0.295161 0.554207 0.577238
O O10 0.029075 0.638920 0.833363
O O11 0.485539 0.214095 0.067979
O O12 0.408922 0.027939 0.244867
O O13 0.500000 0.000000 0.000000
O O14 0.313871 0.299232 0.090640
O O15 0.186444 0.180741 0.336664
O O16 0.758540 0.958395 0.458085
O O17 0.000000 0.000000 0.500000
#
# Coordination Sequence:
#
# PCOD9247438 Si02
#       8
#     4   4   4   4   4   4   4   4
#     4  10  22  38  57  93 124 163 210 254 307 386
#     4   9  18  35  57  89 120 153 211 258 306 378
#     4   9  18  31  53  85 116 146 195 251 308 348
#     4  11  18  31  59  90 116 156 205 267 305 346
#     4  11  21  37  60  89 127 159 208 255 307 376
#     4  10  22  40  61  90 125 167 203 261 317 368
#     4   9  16  30  57  89 112 152 203 261 312 343
#     4  11  21  38  62  89 128 167 203 258 324 367
#
# _framework density 22.607925000000002
#
# number of rings (size 3 to 8) (size 9 to 14) (size 15 to 20)
#    0.000    2.000    1.250    6.750    0.000    0.500 
#    2.250    0.000    0.000    3.000    0.000    0.000 
#    0.000    0.000    0.000    0.000    0.000    0.000 
#
# Total GULP energy -178478.141501 kJ/mol
# GULP energy per Si atom -5577.441922 kJ/mol
# Density = 2.255647 g / cm^3
# Si number density = 22.607925 Si / 1000 Ang^3
#
#
#
# Elastic Constant Matrix: (Units=GPa)
#
#
# Indices 1 2 3 4 5 6 
#
# 1 69.1531 24.4438 22.8266 0.0000 5.4273 0.0000
# 2 24.4438 42.9235 20.6219 0.0000 -2.8504 0.0000
# 3 22.8266 20.6219 60.1493 0.0000 1.3947 0.0000
# 4 0.0000 0.0000 0.0000 36.9612 0.0000 6.9527
# 5 5.4273 -2.8504 1.3947 0.0000 37.6531 0.0000
# 6 0.0000 0.0000 0.0000 6.9527 0.0000 22.4848
#
#
#
# Elastic Compliance Matrix: (Units=1/GPa)
#
#
# Indices 1 2 3 4 5 6 
#
# 1 0.019351 -0.009279 -0.004085 0.000000 -0.003340 0.000000
# 2 -0.009279 0.032572 -0.007741 0.000000 0.004090 0.000000
# 3 -0.004085 -0.007741 0.020847 0.000000 -0.000769 0.000000
# 4 0.000000 0.000000 0.000000 0.028726 0.000000 -0.008883
# 5 -0.003340 0.004090 -0.000769 0.000000 0.027378 0.000000
# 6 0.000000 0.000000 0.000000 -0.008883 0.000000 0.047221
#
#
# Mechanical properties :
#
#
# Convention : Reuss Voigt Hill
#
# Bulk Modulus (GPa) = 32.72159 34.22339 33.47249
# Shear Modulus (GPa) = 21.88262 26.37541 24.12901
#
# Velocity S-wave (km/s) = 3.11451 3.41932 3.27047
# Velocity P-wave (km/s) = 5.23818 5.54614 5.39436
#
# Compressibility (1/GPa) = 0.03056086
#
# Stress axis : x y z
#
# Youngs Moduli (GPa) = 51.67645 30.70125 47.96817
#
# Poissons Ratio (x) = 0.28488 0.19595
# Poissons Ratio (y) = 0.47952 0.37130
# Poissons Ratio (z) = 0.21109 0.23764
#
# Static dielectric constant tensor:
#      x y z
#    x 1.284170 0.000000 -0.415780 
#    y 0.000000 3.520300 0.000000 
#    z -0.415780 0.000000 1.585100 
# 
# From -- ./inp_files/48999.got.cif
#   From: 2010.05.17/outbox.cif.g08.bks.cpg/sg14_25_cif.got.tgz:48999.got - 2010.06.03 17:49:19.
