data_PCOD9247931
_publ_section_title
;
Structure prediction by ZEFSAII (Michael W. Deem and Ramdas Pophale) SiO2 
 PCOD9247931
Probable space group: P 21/C
;
_chemical_formula_sum "Si O2"
_cell_formula_units_Z 30
_cell_length_a 5.496010
_cell_length_b 11.843718
_cell_length_c 18.961192
_cell_angle_alpha 90.000000
_cell_angle_beta 97.370627
_cell_angle_gamma 90.000000
_cell_volume 1224.046033
_symmetry_space_group_name_H-M "P 21/C"
_symmetry_group_IT_number 14
_symmetry_cell_setting 'monoclinic'
loop_
_space_group_symop_operation_xyz
x,y,z
-x,1/2+y,1/2-z
-x,-y,-z
x,1/2-y,1/2+z
loop_
_atom_site_type_symbol
_atom_site_label
_atom_site_fract_x
_atom_site_fract_y
_atom_site_fract_z
Si Si1 0.586476 0.319509 0.879189
Si Si2 0.604454 0.296612 0.712456
Si Si3 0.500000 0.500000 0.500000
Si Si4 0.908307 0.949744 0.248737
Si Si5 0.569031 0.467899 0.187842
Si Si6 0.236151 0.127625 0.898814
Si Si7 0.901256 0.191016 0.004092
Si Si8 0.920673 0.718051 0.338465
O O1 0.632415 0.287033 0.798561
O O2 0.538187 0.453505 0.878081
O O3 0.339648 0.251435 0.889187
O O4 0.792193 0.275771 0.941065
O O5 0.849512 0.347163 0.687179
O O6 0.339766 0.341436 0.679540
O O7 0.589793 0.166729 0.680699
O O8 0.533939 0.545642 0.583103
O O9 0.313906 0.608453 0.479184
O O10 0.936003 0.913589 0.168933
O O11 0.902781 0.830430 0.291245
O O12 0.633923 0.990155 0.258610
O O13 0.153532 0.008214 0.286808
O O14 0.117727 0.121048 0.972365
O O15 0.018308 0.243637 0.078212
#
# Coordination Sequence:
#
# PCOD9247931 Si02
#       8
#     4   4   2   4   4   4   4   4
#     4  11  24  41  69 100 134 184 232 287 354 422
#     4  10  22  44  64  95 138 175 237 291 345 413
#     4  10  26  42  60  96 134 182 220 278 350 418
#     4  10  22  45  68  96 137 181 236 294 346 411
#     4  10  22  40  66  99 131 174 234 286 348 409
#     4  11  23  45  67  95 142 184 228 293 351 426
#     4  11  25  43  69  99 144 182 235 284 363 423
#     4  10  22  42  67  95 132 179 225 291 338 416
#
# _framework density 24.508880000000001
#
# number of rings (size 3 to 8) (size 9 to 14) (size 15 to 20)
#    0.000    1.600    2.667    2.000    7.467    2.133 
#    0.000    5.333    0.000    0.000    0.000    0.000 
#    0.000    0.000    0.000    0.000    0.000    0.000 
#
# Total GULP energy -167106.644420 kJ/mol
# GULP energy per Si atom -5570.221481 kJ/mol
# Density = 2.445310 g / cm^3
# Si number density = 24.508880 Si / 1000 Ang^3
#
#
#
# Elastic Constant Matrix: (Units=GPa)
#
#
# Indices 1 2 3 4 5 6 
#
# 1 137.7092 -6.5328 12.6286 0.0000 5.9183 0.0000
# 2 -6.5328 49.8820 -2.2483 0.0000 0.5231 0.0000
# 3 12.6286 -2.2483 122.3621 0.0000 15.1723 0.0000
# 4 0.0000 0.0000 0.0000 21.4681 0.0000 0.2052
# 5 5.9183 0.5231 15.1723 0.0000 33.3015 0.0000
# 6 0.0000 0.0000 0.0000 0.2052 0.0000 36.6105
#
#
#
# Elastic Compliance Matrix: (Units=1/GPa)
#
#
# Indices 1 2 3 4 5 6 
#
# 1 0.007409 0.000953 -0.000617 0.000000 -0.001051 0.000000
# 2 0.000953 0.020195 0.000353 0.000000 -0.000647 0.000000
# 3 -0.000617 0.000353 0.008722 0.000000 -0.003870 0.000000
# 4 0.000000 0.000000 0.000000 0.046583 0.000000 -0.000261
# 5 -0.001051 -0.000647 -0.003870 0.000000 0.031989 0.000000
# 6 0.000000 0.000000 0.000000 -0.000261 0.000000 0.027316
#
#
# Mechanical properties :
#
#
# Convention : Reuss Voigt Hill
#
# Bulk Modulus (GPa) = 26.52157 35.29425 30.90791
# Shear Modulus (GPa) = 32.59386 38.68307 35.63846
#
# Velocity S-wave (km/s) = 3.65071 3.97713 3.81741
# Velocity P-wave (km/s) = 5.34929 5.96003 5.66290
#
# Compressibility (1/GPa) = 0.03770516
#
# Stress axis : x y z
#
# Youngs Moduli (GPa) = 134.97775 49.51753 114.64649
#
# Poissons Ratio (x) = -0.04721 0.07072
# Poissons Ratio (y) = -0.12870 -0.04046
# Poissons Ratio (z) = 0.08326 -0.01748
#
# Static dielectric constant tensor:
#      x y z
#    x 2.536270 0.000000 0.052770 
#    y 0.000000 2.279360 0.000000 
#    z 0.052770 0.000000 1.912600 
# 
# From -- ./inp_files/53351.got.cif
#   From: 2010.05.17/outbox.cif.g08.bks.cpg/sg14_27_cif.got.tgz:53351.got - 2010.06.03 17:49:19.
