data_PCOD9247352
_publ_section_title
;
Structure prediction by ZEFSAII (Michael W. Deem and Ramdas Pophale) SiO2 
 PCOD9247352
Probable space group: P 21/C
;
_chemical_formula_sum "Si O2"
_cell_formula_units_Z 28
_cell_length_a 6.138439
_cell_length_b 24.871621
_cell_length_c 9.124181
_cell_angle_alpha 90.000000
_cell_angle_beta 96.024170
_cell_angle_gamma 90.000000
_cell_volume 1385.322800
_symmetry_space_group_name_H-M "P 21/C"
_symmetry_group_IT_number 14
_symmetry_cell_setting 'monoclinic'
loop_
_space_group_symop_operation_xyz
x,y,z
-x,1/2+y,1/2-z
-x,-y,-z
x,1/2-y,1/2+z
loop_
_atom_site_type_symbol
_atom_site_label
_atom_site_fract_x
_atom_site_fract_y
_atom_site_fract_z
Si Si1 0.494205 0.710526 0.608884
Si Si2 0.088017 0.938055 0.153426
Si Si3 0.189345 0.730177 0.326427
Si Si4 0.492629 0.014229 0.665625
Si Si5 0.765662 0.875702 0.302966
Si Si6 0.291169 0.973808 0.905787
Si Si7 0.114451 0.291568 0.955672
O O1 0.352025 0.700909 0.452056
O O2 0.339999 0.733453 0.728720
O O3 0.616645 0.659107 0.683295
O O4 0.682874 0.753866 0.579243
O O5 0.269268 0.970255 0.257463
O O6 0.994009 0.888018 0.235704
O O7 0.194880 0.927566 0.001861
O O8 0.889789 0.979382 0.113645
O O9 0.029170 0.762791 0.425952
O O10 0.036161 0.699110 0.198480
O O11 0.349524 0.067784 0.676064
O O12 0.500000 0.000000 0.500000
O O13 0.379109 0.966011 0.749119
O O14 0.799177 0.844429 0.456786
O O15 0.500000 0.000000 0.000000
#
# Coordination Sequence:
#
# PCOD9247352 Si02
#       7
#     4   4   4   4   4   4   4
#     4  11  21  40  63  93 130 171 212 265 312 394
#     4   9  19  36  66  84 116 157 205 253 313 374
#     4  10  22  36  68  86 127 180 206 258 329 371
#     4  10  22  39  66  89 124 162 211 269 330 377
#     4  11  23  36  67  91 125 166 218 259 321 390
#     4   8  16  36  63  86 112 154 198 251 305 369
#     4  11  21  40  63  92 128 170 213 263 317 389
#
# _framework density 20.211894999999998
#
# number of rings (size 3 to 8) (size 9 to 14) (size 15 to 20)
#    0.000    2.000    2.857    0.000    2.000    2.286 
#    0.000    0.000   81.714    0.000    0.000    0.000 
#    0.000    0.000    0.000    0.000    0.000    0.000 
#
# Total GULP energy -156115.330073 kJ/mol
# GULP energy per Si atom -5575.547503 kJ/mol
# Density = 2.016589 g / cm^3
# Si number density = 20.211895 Si / 1000 Ang^3
#
#
#
# Elastic Constant Matrix: (Units=GPa)
#
#
# Indices 1 2 3 4 5 6 
#
# 1 102.6190 23.8101 54.4124 0.0000 1.1494 0.0000
# 2 23.8101 38.1242 20.5320 0.0000 4.6628 0.0000
# 3 54.4124 20.5320 154.7449 0.0000 12.6957 0.0000
# 4 0.0000 0.0000 0.0000 28.3993 0.0000 -4.0173
# 5 1.1494 4.6628 12.6957 0.0000 44.5632 0.0000
# 6 0.0000 0.0000 0.0000 -4.0173 0.0000 26.5336
#
#
#
# Elastic Compliance Matrix: (Units=1/GPa)
#
#
# Indices 1 2 3 4 5 6 
#
# 1 0.013298 -0.006354 -0.003952 0.000000 0.001448 0.000000
# 2 -0.006354 0.031448 -0.001722 0.000000 -0.002636 0.000000
# 3 -0.003952 -0.001722 0.008250 0.000000 -0.002068 0.000000
# 4 0.000000 0.000000 0.000000 0.035983 0.000000 0.005448
# 5 0.001448 -0.002636 -0.002068 0.000000 0.023268 0.000000
# 6 0.000000 0.000000 0.000000 0.005448 0.000000 0.038513
#
#
# Mechanical properties :
#
#
# Convention : Reuss Voigt Hill
#
# Bulk Modulus (GPa) = 34.55352 54.77746 44.66549
# Shear Modulus (GPa) = 27.10576 33.01478 30.06027
#
# Velocity S-wave (km/s) = 3.66605 4.04596 3.86068
# Velocity P-wave (km/s) = 5.92053 6.99906 6.48226
#
# Compressibility (1/GPa) = 0.02894062
#
# Stress axis : x y z
#
# Youngs Moduli (GPa) = 75.19805 31.79823 121.21301
#
# Poissons Ratio (x) = 0.20205 0.47900
# Poissons Ratio (y) = 0.47782 0.20874
# Poissons Ratio (z) = 0.29716 0.05476
#
# Static dielectric constant tensor:
#      x y z
#    x 1.754880 0.000000 -0.025220 
#    y 0.000000 1.696100 0.000000 
#    z -0.025220 0.000000 1.745090 
# 
# From -- ./inp_files/6549.got.cif
#   From: 2010.05.17/outbox.cif.g08.bks.cpg/sg14_4_cif.got.tgz:6549.got - 2010.06.03 17:49:19.
