data_PCOD9247981
_publ_section_title
;
Structure prediction by ZEFSAII (Michael W. Deem and Ramdas Pophale) SiO2 
 PCOD9247981
Probable space group: P 21/C
;
_chemical_formula_sum "Si O2"
_cell_formula_units_Z 26
_cell_length_a 7.782006
_cell_length_b 8.253217
_cell_length_c 19.864071
_cell_angle_alpha 90.000000
_cell_angle_beta 127.232460
_cell_angle_gamma 90.000000
_cell_volume 1015.776850
_symmetry_space_group_name_H-M "P 21/C"
_symmetry_group_IT_number 14
_symmetry_cell_setting 'monoclinic'
loop_
_space_group_symop_operation_xyz
x,y,z
-x,1/2+y,1/2-z
-x,-y,-z
x,1/2-y,1/2+z
loop_
_atom_site_type_symbol
_atom_site_label
_atom_site_fract_x
_atom_site_fract_y
_atom_site_fract_z
Si Si1 0.000000 0.000000 0.500000
Si Si2 0.821994 0.861090 0.944670
Si Si3 0.786431 0.876562 0.080175
Si Si4 0.360461 0.107883 0.245738
Si Si5 0.115120 0.695106 0.320841
Si Si6 0.258494 0.028875 0.419465
Si Si7 0.262133 0.769806 0.215335
O O1 0.104847 0.030444 0.448560
O O2 0.934628 0.812562 0.463661
O O3 0.679530 0.889393 0.844658
O O4 0.688861 0.866045 0.982676
O O5 0.000000 0.000000 0.000000
O O6 0.722544 0.713538 0.104476
O O7 0.044701 0.847887 0.135983
O O8 0.774643 0.052830 0.109582
O O9 0.591890 0.192307 0.307730
O O10 0.141731 0.177613 0.225478
O O11 0.393961 0.922923 0.275002
O O12 0.181560 0.877786 0.356134
O O13 0.183737 0.664009 0.259722
O O14 0.500000 0.000000 0.500000
#
# Coordination Sequence:
#
# PCOD9247981 Si02
#       7
#     2   4   4   4   4   4   4
#     4  10  22  40  70  98 148 176 224 312 346 428
#     4  11  19  45  73 102 133 187 238 293 360 411
#     4  10  25  46  72 104 146 188 242 303 360 435
#     4  11  26  48  75 106 146 192 246 304 367 446
#     4  11  25  48  68 102 151 184 241 304 355 443
#     4  11  25  43  69 108 138 189 239 294 370 425
#     4  11  27  45  71 108 140 198 237 298 383 437
#
# _framework density 25.596170999999998
#
# number of rings (size 3 to 8) (size 9 to 14) (size 15 to 20)
#    0.000    1.231    4.615    0.000   10.769    0.615 
#    2.769    0.000    0.000    0.000    0.000    0.000 
#    0.000    0.000    0.000    0.000    0.000    0.000 
#
# Total GULP energy -144874.929144 kJ/mol
# GULP energy per Si atom -5572.112659 kJ/mol
# Density = 2.553791 g / cm^3
# Si number density = 25.596171 Si / 1000 Ang^3
#
#
#
# Elastic Constant Matrix: (Units=GPa)
#
#
# Indices 1 2 3 4 5 6 
#
# 1 119.0007 35.2009 22.3193 0.0000 5.0349 0.0000
# 2 35.2009 118.1444 3.1943 0.0000 -6.0850 0.0000
# 3 22.3193 3.1943 52.8939 0.0000 -28.3117 0.0000
# 4 0.0000 0.0000 0.0000 29.8845 0.0000 1.8865
# 5 5.0349 -6.0850 -28.3117 0.0000 51.7950 0.0000
# 6 0.0000 0.0000 0.0000 1.8865 0.0000 24.3504
#
#
#
# Elastic Compliance Matrix: (Units=1/GPa)
#
#
# Indices 1 2 3 4 5 6 
#
# 1 0.011019 -0.003367 -0.007395 0.000000 -0.005509 0.000000
# 2 -0.003367 0.009545 0.002290 0.000000 0.002700 0.000000
# 3 -0.007395 0.002290 0.031688 0.000000 0.018309 0.000000
# 4 0.000000 0.000000 0.000000 0.033627 0.000000 -0.002605
# 5 -0.005509 0.002700 0.018309 0.000000 0.030167 0.000000
# 6 0.000000 0.000000 0.000000 -0.002605 0.000000 0.041269
#
#
# Mechanical properties :
#
#
# Convention : Reuss Voigt Hill
#
# Bulk Modulus (GPa) = 28.32316 45.71865 37.02090
# Shear Modulus (GPa) = 26.87755 36.49428 31.68592
#
# Velocity S-wave (km/s) = 3.24398 3.78003 3.52222
# Velocity P-wave (km/s) = 5.01205 6.07880 5.57102
#
# Compressibility (1/GPa) = 0.03530680
#
# Stress axis : x y z
#
# Youngs Moduli (GPa) = 90.74925 104.77154 31.55775
#
# Poissons Ratio (x) = 0.35277 0.23338
# Poissons Ratio (y) = 0.30555 -0.07226
# Poissons Ratio (z) = 0.67111 -0.23989
#
# Static dielectric constant tensor:
#      x y z
#    x 2.034740 0.000000 -0.001070 
#    y 0.000000 2.138620 0.000000 
#    z -0.001070 0.000000 2.083740 
# 
# From -- ./inp_files/64891.got.cif
#   From: 2010.05.17/outbox.cif.g08.bks.cpg/sg14_33_cif.got.tgz:64891.got - 2010.06.03 17:49:19.
