data_PCOD9247059
_publ_section_title
;
Structure prediction by ZEFSAII (Michael W. Deem and Ramdas Pophale) SiO2 
 PCOD9247059
Probable space group: P 21/C
;
_chemical_formula_sum "Si O2"
_cell_formula_units_Z 32
_cell_length_a 14.299273
_cell_length_b 11.271774
_cell_length_c 18.327208
_cell_angle_alpha 90.000000
_cell_angle_beta 24.462123
_cell_angle_gamma 90.000000
_cell_volume 1223.204179
_symmetry_space_group_name_H-M "P 21/C"
_symmetry_group_IT_number 14
_symmetry_cell_setting 'monoclinic'
loop_
_space_group_symop_operation_xyz
x,y,z
-x,1/2+y,1/2-z
-x,-y,-z
x,1/2-y,1/2+z
loop_
_atom_site_type_symbol
_atom_site_label
_atom_site_fract_x
_atom_site_fract_y
_atom_site_fract_z
Si Si1 0.894945 0.741410 0.829833
Si Si2 0.455582 0.060749 0.918475
Si Si3 0.415989 0.854339 0.324278
Si Si4 0.311239 0.175306 0.267925
Si Si5 0.092814 0.687281 0.848501
Si Si6 0.155349 0.954313 0.797293
Si Si7 0.042389 0.691085 0.571123
Si Si8 0.354235 0.005791 0.500517
O O1 0.014957 0.705725 0.820087
O O2 0.054060 0.707571 0.649921
O O3 0.778197 0.869817 0.899647
O O4 0.694323 0.645034 0.967003
O O5 0.463169 0.074930 0.825173
O O6 0.665823 0.125890 0.810077
O O7 0.516293 0.922386 0.885228
O O8 0.570320 0.767633 0.262072
O O9 0.247879 0.769617 0.399249
O O10 0.297664 0.942466 0.465186
O O11 0.103962 0.123685 0.464428
O O12 0.187949 0.246320 0.291042
O O13 0.097457 0.826115 0.868420
O O14 0.380690 0.005114 0.673778
O O15 0.964750 0.053188 0.941770
O O16 0.222335 0.950604 0.663355
#
# Coordination Sequence:
#
# PCOD9247059 Si02
#       8
#     4   4   4   4   4   4   4   4
#     4  11  25  45  70 101 137 180 232 279 346 413
#     4  12  27  45  70 100 139 185 229 279 354 410
#     4  12  25  44  70  96 139 180 224 284 342 405
#     4  12  27  45  68 103 141 177 231 288 344 411
#     4  12  24  45  69 101 135 188 227 282 341 415
#     4  10  22  42  71  98 132 175 233 280 340 401
#     4  11  26  45  68 105 136 176 232 286 341 412
#     4  10  21  43  69  98 133 180 223 285 340 404
#
# _framework density 26.160799000000001
#
# number of rings (size 3 to 8) (size 9 to 14) (size 15 to 20)
#    0.000    0.750    5.000    1.875    3.500    2.000 
#    0.000    0.000    0.000    0.000    0.000    0.000 
#    0.000    0.000    0.000    0.000    0.000    0.000 
#
# Total GULP energy -179271.308725 kJ/mol
# GULP energy per Si atom -5602.228398 kJ/mol
# Density = 2.610126 g / cm^3
# Si number density = 26.160799 Si / 1000 Ang^3
#
#
#
# Elastic Constant Matrix: (Units=GPa)
#
#
# Indices 1 2 3 4 5 6 
#
# 1 114.7122 23.8127 27.0319 0.0000 2.5065 0.0000
# 2 23.8127 81.9971 15.6028 0.0000 -7.1618 0.0000
# 3 27.0319 15.6028 48.4136 0.0000 -8.1274 0.0000
# 4 0.0000 0.0000 0.0000 28.5933 0.0000 -4.4882
# 5 2.5065 -7.1618 -8.1274 0.0000 41.0512 0.0000
# 6 0.0000 0.0000 0.0000 -4.4882 0.0000 47.4154
#
#
#
# Elastic Compliance Matrix: (Units=1/GPa)
#
#
# Indices 1 2 3 4 5 6 
#
# 1 0.010520 -0.002189 -0.005524 0.000000 -0.002118 0.000000
# 2 -0.002189 0.013536 -0.002815 0.000000 0.001938 0.000000
# 3 -0.005524 -0.002815 0.025467 0.000000 0.004888 0.000000
# 4 0.000000 0.000000 0.000000 0.035501 0.000000 0.003360
# 5 -0.002118 0.001938 0.004888 0.000000 0.025795 0.000000
# 6 0.000000 0.000000 0.000000 0.003360 0.000000 0.021408
#
#
# Mechanical properties :
#
#
# Convention : Reuss Voigt Hill
#
# Bulk Modulus (GPa) = 35.12721 42.00199 38.56460
# Shear Modulus (GPa) = 30.71779 35.32369 33.02074
#
# Velocity S-wave (km/s) = 3.43037 3.67856 3.55663
# Velocity P-wave (km/s) = 5.39874 5.84231 5.62490
#
# Compressibility (1/GPa) = 0.02846796
#
# Stress axis : x y z
#
# Youngs Moduli (GPa) = 95.05853 73.87635 39.26579
#
# Poissons Ratio (x) = 0.16171 0.21690
# Poissons Ratio (y) = 0.20808 0.11053
# Poissons Ratio (z) = 0.52509 0.20796
#
# Static dielectric constant tensor:
#      x y z
#    x 2.073290 0.000000 -0.005710 
#    y 0.000000 2.045780 0.000000 
#    z -0.005710 0.000000 2.064840 
# 
# From -- ./inp_files/59476.got.cif
#   From: 2010.05.17/outbox.cif.g08.bks.cpg/sg14_30_cif.got.tgz:59476.got - 2010.06.03 17:49:19.
