data_PCOD9247964
_publ_section_title
;
Structure prediction by ZEFSAII (Michael W. Deem and Ramdas Pophale) SiO2 
 PCOD9247964
Probable space group: P 21/C
;
_chemical_formula_sum "Si O2"
_cell_formula_units_Z 32
_cell_length_a 8.891149
_cell_length_b 11.344567
_cell_length_c 13.396649
_cell_angle_alpha 90.000000
_cell_angle_beta 108.214693
_cell_angle_gamma 90.000000
_cell_volume 1283.560037
_symmetry_space_group_name_H-M "P 21/C"
_symmetry_group_IT_number 14
_symmetry_cell_setting 'monoclinic'
loop_
_space_group_symop_operation_xyz
x,y,z
-x,1/2+y,1/2-z
-x,-y,-z
x,1/2-y,1/2+z
loop_
_atom_site_type_symbol
_atom_site_label
_atom_site_fract_x
_atom_site_fract_y
_atom_site_fract_z
Si Si1 0.150232 0.516628 0.235531
Si Si2 0.567618 0.352408 0.928768
Si Si3 0.207553 0.720214 0.748931
Si Si4 0.080440 0.001603 0.124215
Si Si5 0.533730 0.898174 0.374214
Si Si6 0.930286 0.149112 0.572212
Si Si7 0.785345 0.713257 0.433188
Si Si8 0.592343 0.606912 0.577733
O O1 0.469919 0.536729 0.151292
O O2 0.300306 0.445724 0.311526
O O3 0.037818 0.526534 0.309919
O O4 0.036997 0.463348 0.125780
O O5 0.620023 0.325738 0.187235
O O6 0.463844 0.385682 0.004953
O O7 0.753206 0.367464 0.995060
O O8 0.794279 0.353991 0.783176
O O9 0.150046 0.625648 0.658419
O O10 0.479626 0.785783 0.094400
O O11 0.099263 0.708806 0.825387
O O12 0.208310 0.105407 0.142848
O O13 0.000000 0.000000 0.000000
O O14 0.680946 0.820577 0.371664
O O15 0.039410 0.231718 0.526950
O O16 0.712136 0.663245 0.520262
O O17 0.500000 0.500000 0.500000
#
# Coordination Sequence:
#
# PCOD9247964 Si02
#       8
#     4   4   4   4   4   4   4   4
#     4  11  22  43  71 106 137 192 246 302 376 427
#     4   9  20  41  67  99 140 191 233 282 380 438
#     4  10  22  44  68  95 147 186 242 303 367 430
#     4  11  23  41  70 104 139 189 244 302 360 437
#     4   9  20  41  66  94 139 188 230 299 359 439
#     4  10  22  40  68  99 145 181 234 310 356 443
#     4  11  22  41  67 100 142 176 249 294 361 436
#     4  11  23  42  75  99 141 196 246 297 368 459
#
# _framework density 24.930661000000001
#
# number of rings (size 3 to 8) (size 9 to 14) (size 15 to 20)
#    0.000    1.750    2.500    2.250    0.000    2.500 
#   13.500    1.250    2.750    0.000    0.000    0.000 
#    0.000    0.000    0.000    0.000    0.000    0.000 
#
# Total GULP energy -178992.920679 kJ/mol
# GULP energy per Si atom -5593.528771 kJ/mol
# Density = 2.487392 g / cm^3
# Si number density = 24.930661 Si / 1000 Ang^3
#
#
#
# Elastic Constant Matrix: (Units=GPa)
#
#
# Indices 1 2 3 4 5 6 
#
# 1 121.2391 92.1045 26.7695 0.0000 5.6128 0.0000
# 2 92.1045 218.1427 30.6112 0.0000 13.9869 0.0000
# 3 26.7695 30.6112 48.2884 0.0000 -17.1500 0.0000
# 4 0.0000 0.0000 0.0000 31.9536 0.0000 -1.0247
# 5 5.6128 13.9869 -17.1500 0.0000 30.4271 0.0000
# 6 0.0000 0.0000 0.0000 -1.0247 0.0000 52.5819
#
#
#
# Elastic Compliance Matrix: (Units=1/GPa)
#
#
# Indices 1 2 3 4 5 6 
#
# 1 0.013080 -0.004504 -0.005648 0.000000 -0.003526 0.000000
# 2 -0.004504 0.007320 -0.003805 0.000000 -0.004679 0.000000
# 3 -0.005648 -0.003805 0.034062 0.000000 0.021990 0.000000
# 4 0.000000 0.000000 0.000000 0.031315 0.000000 0.000610
# 5 -0.003526 -0.004679 0.021990 0.000000 0.048061 0.000000
# 6 0.000000 0.000000 0.000000 0.000610 0.000000 0.019030
#
#
# Mechanical properties :
#
#
# Convention : Reuss Voigt Hill
#
# Bulk Modulus (GPa) = 37.66842 76.29342 56.98092
# Shear Modulus (GPa) = 26.36692 38.87151 32.61922
#
# Velocity S-wave (km/s) = 3.25562 3.95294 3.62110
# Velocity P-wave (km/s) = 5.41056 7.17656 6.35520
#
# Compressibility (1/GPa) = 0.02654744
#
# Stress axis : x y z
#
# Youngs Moduli (GPa) = 76.45102 136.61623 29.35820
#
# Poissons Ratio (x) = 0.61533 0.16583
# Poissons Ratio (y) = 0.34434 0.11170
# Poissons Ratio (z) = 0.43182 0.51981
#
# Static dielectric constant tensor:
#      x y z
#    x 2.008470 0.000000 -0.039200 
#    y 0.000000 2.033620 0.000000 
#    z -0.039200 0.000000 2.014680 
# 
# From -- ./inp_files/40981.got.cif
#   From: 2010.05.17/outbox.cif.g08.bks.cpg/sg14_21_cif.got.tgz:40981.got - 2010.06.03 17:49:19.
