data_PCOD9247302
_publ_section_title
;
Structure prediction by ZEFSAII (Michael W. Deem and Ramdas Pophale) SiO2 
 PCOD9247302
Probable space group: P 21/C
;
_chemical_formula_sum "Si O2"
_cell_formula_units_Z 26
_cell_length_a 21.989034
_cell_length_b 7.995375
_cell_length_c 9.962121
_cell_angle_alpha 90.000000
_cell_angle_beta 31.810625
_cell_angle_gamma 90.000000
_cell_volume 923.210746
_symmetry_space_group_name_H-M "P 21/C"
_symmetry_group_IT_number 14
_symmetry_cell_setting 'monoclinic'
loop_
_space_group_symop_operation_xyz
x,y,z
-x,1/2+y,1/2-z
-x,-y,-z
x,1/2-y,1/2+z
loop_
_atom_site_type_symbol
_atom_site_label
_atom_site_fract_x
_atom_site_fract_y
_atom_site_fract_z
Si Si1 0.500000 0.500000 0.000000
Si Si2 0.468666 0.319113 0.354523
Si Si3 0.301400 0.919083 0.746235
Si Si4 0.021424 0.060586 0.743940
Si Si5 0.740794 0.849549 0.389841
Si Si6 0.976317 0.733597 0.011913
Si Si7 0.270377 0.957812 0.329723
O O1 0.494320 0.312454 0.924519
O O2 0.641930 0.490401 0.726911
O O3 0.380414 0.230080 0.418409
O O4 0.392969 0.475613 0.547986
O O5 0.573325 0.385811 0.065651
O O6 0.250032 0.737029 0.848706
O O7 0.227282 0.054065 0.807616
O O8 0.981481 0.084912 0.664660
O O9 0.162194 0.059112 0.473235
O O10 0.981859 0.211228 0.919375
O O11 0.998447 0.896160 0.874925
O O12 0.726825 0.001844 0.518876
O O13 0.837582 0.734366 0.272994
#
# Coordination Sequence:
#
# PCOD9247302 Si02
#       7
#     2   4   4   4   4   4   4
#     4  10  22  36  52  80 114 154 194 246 296 344
#     4  11  21  38  58  84 118 160 204 251 301 363
#     4  11  23  36  57  87 119 162 205 249 297 366
#     4  10  23  42  69  94 128 159 208 256 319 373
#     4  10  22  39  59  85 123 158 202 255 310 363
#     4  10  22  44  66  95 124 163 203 261 314 378
#     4  11  22  39  61  89 119 163 204 255 306 372
#
# _framework density 28.162582
#
# number of rings (size 3 to 8) (size 9 to 14) (size 15 to 20)
#    0.000    1.538    1.538    3.692    2.154    2.462 
#    0.000    1.538    0.000    0.000    0.000    0.000 
#    0.000    0.000    0.000    0.000    0.000    0.000 
#
# Total GULP energy -145059.890138 kJ/mol
# GULP energy per Si atom -5579.226544 kJ/mol
# Density = 2.809848 g / cm^3
# Si number density = 28.162582 Si / 1000 Ang^3
#
#
#
# Elastic Constant Matrix: (Units=GPa)
#
#
# Indices 1 2 3 4 5 6 
#
# 1 82.1339 -0.2722 9.7424 0.0000 6.5828 0.0000
# 2 -0.2722 92.6781 6.2520 0.0000 9.2410 0.0000
# 3 9.7424 6.2520 100.2493 0.0000 -0.1684 0.0000
# 4 0.0000 0.0000 0.0000 39.5753 0.0000 6.8437
# 5 6.5828 9.2410 -0.1684 0.0000 30.3439 0.0000
# 6 0.0000 0.0000 0.0000 6.8437 0.0000 44.1338
#
#
#
# Elastic Compliance Matrix: (Units=1/GPa)
#
#
# Indices 1 2 3 4 5 6 
#
# 1 0.012554 0.000406 -0.001250 0.000000 -0.002854 0.000000
# 2 0.000406 0.011190 -0.000743 0.000000 -0.003500 0.000000
# 3 -0.001250 -0.000743 0.010144 0.000000 0.000554 0.000000
# 4 0.000000 0.000000 0.000000 0.025965 0.000000 -0.004026
# 5 -0.002854 -0.003500 0.000554 0.000000 0.034644 0.000000
# 6 0.000000 0.000000 0.000000 -0.004026 0.000000 0.023283
#
#
# Mechanical properties :
#
#
# Convention : Reuss Voigt Hill
#
# Bulk Modulus (GPa) = 32.55968 34.05619 33.30794
# Shear Modulus (GPa) = 38.11224 40.09986 39.10605
#
# Velocity S-wave (km/s) = 3.68270 3.77751 3.73041
# Velocity P-wave (km/s) = 5.44697 5.58078 5.51428
#
# Compressibility (1/GPa) = 0.03071283
#
# Stress axis : x y z
#
# Youngs Moduli (GPa) = 79.65841 89.36262 98.58143
#
# Poissons Ratio (x) = -0.03626 0.12323
# Poissons Ratio (y) = -0.03232 0.07327
# Poissons Ratio (z) = 0.09958 0.06641
#
# Static dielectric constant tensor:
#      x y z
#    x 1.571930 0.000000 0.051550 
#    y 0.000000 2.120220 0.000000 
#    z 0.051550 0.000000 2.275120 
# 
# From -- ./inp_files/28146.got.cif
#   From: 2010.05.17/outbox.cif.g08.bks.cpg/sg14_15_cif.got.tgz:28146.got - 2010.06.03 17:49:19.
