data_PCOD9247484
_publ_section_title
;
Structure prediction by ZEFSAII (Michael W. Deem and Ramdas Pophale) SiO2 
 PCOD9247484
Probable space group: P 21/C
;
_chemical_formula_sum "Si O2"
_cell_formula_units_Z 24
_cell_length_a 9.000265
_cell_length_b 27.332174
_cell_length_c 5.013685
_cell_angle_alpha 90.000000
_cell_angle_beta 118.575905
_cell_angle_gamma 90.000000
_cell_volume 1083.108939
_symmetry_space_group_name_H-M "P 21/C"
_symmetry_group_IT_number 14
_symmetry_cell_setting 'monoclinic'
loop_
_space_group_symop_operation_xyz
x,y,z
-x,1/2+y,1/2-z
-x,-y,-z
x,1/2-y,1/2+z
loop_
_atom_site_type_symbol
_atom_site_label
_atom_site_fract_x
_atom_site_fract_y
_atom_site_fract_z
Si Si1 0.061871 0.052010 0.653490
Si Si2 0.480020 0.893440 0.322719
Si Si3 0.560138 0.952996 0.884145
Si Si4 0.948119 0.284738 0.958978
Si Si5 0.837004 0.643682 0.120203
Si Si6 0.860067 0.133127 0.727137
O O1 0.911586 0.078722 0.681102
O O2 0.236236 0.045446 0.964213
O O3 0.112306 0.091590 0.469937
O O4 0.000000 0.000000 0.500000
O O5 0.505033 0.909506 0.038958
O O6 0.643596 0.861024 0.537863
O O7 0.303452 0.868111 0.231224
O O8 0.488582 0.940205 0.531882
O O9 0.500000 0.000000 0.000000
O O10 0.922430 0.253819 0.671864
O O11 0.836365 0.331222 0.954810
O O12 0.126966 0.312595 0.057058
O O13 0.972249 0.650892 0.471833
#
# Coordination Sequence:
#
# PCOD9247484 Si02
#       6
#     4   4   4   4   4   4
#     4  10  22  38  62  95 134 177 223 263 320 383
#     4  11  25  41  63  93 130 170 219 267 320 384
#     4  11  23  40  58  92 133 174 225 273 310 372
#     4  11  23  43  73  99 127 165 213 271 333 394
#     4  10  23  44  65  95 130 174 213 267 327 386
#     4  11  23  42  70  92 132 175 215 267 331 381
#
# _framework density 22.158435000000001
#
# number of rings (size 3 to 8) (size 9 to 14) (size 15 to 20)
#    0.000    1.333    3.333    1.500    7.000    2.000 
#    0.000    1.667    0.000    0.000    0.000    0.000 
#    0.000    0.000    0.000    0.000    0.000    0.000 
#
# Total GULP energy -134005.753801 kJ/mol
# GULP energy per Si atom -5583.573075 kJ/mol
# Density = 2.210800 g / cm^3
# Si number density = 22.158435 Si / 1000 Ang^3
#
#
#
# Elastic Constant Matrix: (Units=GPa)
#
#
# Indices 1 2 3 4 5 6 
#
# 1 136.8052 3.1024 16.0343 0.0000 9.2418 0.0000
# 2 3.1024 49.1968 9.6860 0.0000 5.1693 0.0000
# 3 16.0343 9.6860 72.6347 0.0000 -14.3867 0.0000
# 4 0.0000 0.0000 0.0000 25.1146 0.0000 -11.3087
# 5 9.2418 5.1693 -14.3867 0.0000 24.6642 0.0000
# 6 0.0000 0.0000 0.0000 -11.3087 0.0000 16.7080
#
#
#
# Elastic Compliance Matrix: (Units=1/GPa)
#
#
# Indices 1 2 3 4 5 6 
#
# 1 0.007937 0.000534 -0.002753 0.000000 -0.004692 0.000000
# 2 0.000534 0.021965 -0.004521 0.000000 -0.007441 0.000000
# 3 -0.002753 -0.004521 0.017378 0.000000 0.012115 0.000000
# 4 0.000000 0.000000 0.000000 0.057272 0.000000 0.038764
# 5 -0.004692 -0.007441 0.012115 0.000000 0.050929 0.000000
# 6 0.000000 0.000000 0.000000 0.038764 0.000000 0.086089
#
#
# Mechanical properties :
#
#
# Convention : Reuss Voigt Hill
#
# Bulk Modulus (GPa) = 29.58456 35.14246 32.36351
# Shear Modulus (GPa) = 18.77476 28.61830 23.69653
#
# Velocity S-wave (km/s) = 2.91399 3.59769 3.27374
# Velocity P-wave (km/s) = 4.97013 5.75777 5.37838
#
# Compressibility (1/GPa) = 0.03380142
#
# Stress axis : x y z
#
# Youngs Moduli (GPa) = 125.99027 45.52759 57.54493
#
# Poissons Ratio (x) = -0.02433 0.15840
# Poissons Ratio (y) = -0.06733 0.26015
# Poissons Ratio (z) = 0.34681 0.20582
#
# Static dielectric constant tensor:
#      x y z
#    x 1.808130 0.000000 -0.018020 
#    y 0.000000 1.861030 0.000000 
#    z -0.018020 0.000000 1.891690 
# 
# From -- ./inp_files/1829.got.cif
#   From: 2010.05.17/outbox.cif.g08.bks.cpg/sg14_1_cif.got.tgz:1829.got - 2010.06.03 17:49:19.
