data_PCOD9247293
_publ_section_title
;
Structure prediction by ZEFSAII (Michael W. Deem and Ramdas Pophale) SiO2 
 PCOD9247293
Probable space group: P 21/C
;
_chemical_formula_sum "Si O2"
_cell_formula_units_Z 28
_cell_length_a 13.871865
_cell_length_b 5.288031
_cell_length_c 20.844058
_cell_angle_alpha 90.000000
_cell_angle_beta 134.727318
_cell_angle_gamma 90.000000
_cell_volume 1086.308579
_symmetry_space_group_name_H-M "P 21/C"
_symmetry_group_IT_number 14
_symmetry_cell_setting 'monoclinic'
loop_
_space_group_symop_operation_xyz
x,y,z
-x,1/2+y,1/2-z
-x,-y,-z
x,1/2-y,1/2+z
loop_
_atom_site_type_symbol
_atom_site_label
_atom_site_fract_x
_atom_site_fract_y
_atom_site_fract_z
Si Si1 0.261595 0.730746 0.474655
Si Si2 0.604749 0.748296 0.502263
Si Si3 0.198541 0.825475 0.708675
Si Si4 0.648369 0.536750 0.148138
Si Si5 0.416104 0.308035 0.258253
Si Si6 0.072397 0.523175 0.271401
Si Si7 0.731101 0.080617 0.882849
O O1 0.379742 0.518608 0.523965
O O2 0.168119 0.653228 0.371078
O O3 0.208544 0.661180 0.520660
O O4 0.313165 0.018501 0.492071
O O5 0.448722 0.830767 0.430081
O O6 0.656127 0.745718 0.599654
O O7 0.215450 0.595060 0.766387
O O8 0.112265 0.006756 0.714027
O O9 0.173775 0.699089 0.628075
O O10 0.341308 0.963094 0.759508
O O11 0.581247 0.603214 0.183985
O O12 0.571096 0.326272 0.307904
O O13 0.306565 0.209887 0.153833
O O14 0.042142 0.242592 0.283346
#
# Coordination Sequence:
#
# PCOD9247293 Si02
#       7
#     4   4   4   4   4   4   4
#     4  12  25  45  69 101 140 180 237 290 356 409
#     4  11  23  37  65 104 144 181 221 275 344 431
#     4  11  24  43  70  99 143 194 229 287 350 418
#     4  10  22  35  62 101 146 184 226 266 341 437
#     4  11  21  38  63 101 154 189 223 254 345 444
#     4  12  29  54  77  98 126 181 257 320 359 389
#     4  11  24  37  66 108 149 191 217 266 345 450
#
# _framework density 25.775366000000002
#
# number of rings (size 3 to 8) (size 9 to 14) (size 15 to 20)
#    0.000    0.857    4.286    2.571    8.000    1.143 
#    0.000    1.429    0.000    0.000    0.000    0.000 
#    0.000    0.000    0.000    0.000    0.000    0.000 
#
# Total GULP energy -156242.074882 kJ/mol
# GULP energy per Si atom -5580.074103 kJ/mol
# Density = 2.571670 g / cm^3
# Si number density = 25.775366 Si / 1000 Ang^3
#
#
#
# Elastic Constant Matrix: (Units=GPa)
#
#
# Indices 1 2 3 4 5 6 
#
# 1 108.5919 29.4298 27.1736 0.0000 -42.2165 0.0000
# 2 29.4298 106.6410 8.9619 0.0000 -12.2542 0.0000
# 3 27.1736 8.9619 80.3982 0.0000 -37.4778 0.0000
# 4 0.0000 0.0000 0.0000 26.7630 0.0000 -6.0316
# 5 -42.2165 -12.2542 -37.4778 0.0000 47.5378 0.0000
# 6 0.0000 0.0000 0.0000 -6.0316 0.0000 36.9853
#
#
#
# Elastic Compliance Matrix: (Units=1/GPa)
#
#
# Indices 1 2 3 4 5 6 
#
# 1 0.014909 -0.002660 0.001755 0.000000 0.013938 0.000000
# 2 -0.002660 0.010139 -0.000180 0.000000 0.000109 0.000000
# 3 0.001755 -0.000180 0.019873 0.000000 0.017179 0.000000
# 4 0.000000 0.000000 0.000000 0.038791 0.000000 0.006326
# 5 0.013938 0.000109 0.017179 0.000000 0.046986 0.000000
# 6 0.000000 0.000000 0.000000 0.006326 0.000000 0.028069
#
#
# Mechanical properties :
#
#
# Convention : Reuss Voigt Hill
#
# Bulk Modulus (GPa) = 23.39201 47.41796 35.40499
# Shear Modulus (GPa) = 28.54053 37.59492 33.06773
#
# Velocity S-wave (km/s) = 3.33119 3.82325 3.58567
# Velocity P-wave (km/s) = 4.88782 6.15843 5.55954
#
# Compressibility (1/GPa) = 0.04274964
#
# Stress axis : x y z
#
# Youngs Moduli (GPa) = 67.07255 98.62797 50.31852
#
# Poissons Ratio (x) = 0.26239 -0.08829
# Poissons Ratio (y) = 0.17844 0.00907
# Poissons Ratio (z) = -0.11768 0.01777
#
# Static dielectric constant tensor:
#      x y z
#    x 2.150910 0.000000 0.061450 
#    y 0.000000 2.160120 0.000000 
#    z 0.061450 0.000000 2.085580 
# 
# From -- ./inp_files/66536.got.cif
#   From: 2010.05.17/outbox.cif.g08.bks.cpg/sg14_34_cif.got.tgz:66536.got - 2010.06.03 17:49:19.
