data_PCOD9247515
_publ_section_title
;
Structure prediction by ZEFSAII (Michael W. Deem and Ramdas Pophale) SiO2 
 PCOD9247515
Probable space group: P 21/C
;
_chemical_formula_sum "Si O2"
_cell_formula_units_Z 24
_cell_length_a 11.767391
_cell_length_b 10.263297
_cell_length_c 12.012720
_cell_angle_alpha 90.000000
_cell_angle_beta 140.704659
_cell_angle_gamma 90.000000
_cell_volume 918.819555
_symmetry_space_group_name_H-M "P 21/C"
_symmetry_group_IT_number 14
_symmetry_cell_setting 'monoclinic'
loop_
_space_group_symop_operation_xyz
x,y,z
-x,1/2+y,1/2-z
-x,-y,-z
x,1/2-y,1/2+z
loop_
_atom_site_type_symbol
_atom_site_label
_atom_site_fract_x
_atom_site_fract_y
_atom_site_fract_z
Si Si1 0.087690 0.824720 0.055544
Si Si2 0.699147 0.427531 0.723640
Si Si3 0.306683 0.233337 0.784746
Si Si4 0.620608 0.800369 0.913683
Si Si5 0.018400 0.920062 0.232123
Si Si6 0.807613 0.344054 0.588488
O O1 0.219588 0.877519 0.060476
O O2 0.884217 0.806535 0.863544
O O3 0.150184 0.679369 0.135710
O O4 0.094863 0.918045 0.166080
O O5 0.740442 0.578755 0.748557
O O6 0.540663 0.400920 0.689195
O O7 0.659289 0.381605 0.565658
O O8 0.392369 0.253507 0.725134
O O9 0.390391 0.272593 0.971023
O O10 0.819595 0.859253 0.072711
O O11 0.139510 0.807571 0.377721
O O12 0.980651 0.063224 0.251764
#
# Coordination Sequence:
#
# PCOD9247515 Si02
#       6
#     4   4   4   4   4   4
#     4  10  22  39  64  99 129 173 223 280 330 400
#     4  11  24  39  70  95 131 182 226 276 339 412
#     4  11  23  46  67  95 136 180 227 274 347 403
#     4  11  24  42  67  97 132 178 222 285 337 403
#     4  10  22  38  64  94 128 177 221 275 332 400
#     4  11  20  40  66  94 131 171 230 269 334 399
#
# _framework density 26.120471999999999
#
# number of rings (size 3 to 8) (size 9 to 14) (size 15 to 20)
#    0.000    1.333    3.333    1.500    2.333    2.667 
#    0.000    2.500    0.000    0.000    0.000    0.000 
#    0.000    0.000    0.000    0.000    0.000    0.000 
#
# Total GULP energy -133857.759026 kJ/mol
# GULP energy per Si atom -5577.406626 kJ/mol
# Density = 2.606102 g / cm^3
# Si number density = 26.120472 Si / 1000 Ang^3
#
#
#
# Elastic Constant Matrix: (Units=GPa)
#
#
# Indices 1 2 3 4 5 6 
#
# 1 193.0732 32.2197 35.7618 0.0000 -62.8201 0.0000
# 2 32.2197 114.9665 34.5026 0.0000 -13.8673 0.0000
# 3 35.7618 34.5026 75.5284 0.0000 -35.2242 0.0000
# 4 0.0000 0.0000 0.0000 26.4870 0.0000 -8.1220
# 5 -62.8201 -13.8673 -35.2242 0.0000 53.5221 0.0000
# 6 0.0000 0.0000 0.0000 -8.1220 0.0000 48.0922
#
#
#
# Elastic Compliance Matrix: (Units=1/GPa)
#
#
# Indices 1 2 3 4 5 6 
#
# 1 0.008678 -0.001634 0.001717 0.000000 0.010892 0.000000
# 2 -0.001634 0.010401 -0.005216 0.000000 -0.002655 0.000000
# 3 0.001717 -0.005216 0.021815 0.000000 0.015021 0.000000
# 4 0.000000 0.000000 0.000000 0.039816 0.000000 0.006724
# 5 0.010892 -0.002655 0.015021 0.000000 0.040666 0.000000
# 6 0.000000 0.000000 0.000000 0.006724 0.000000 0.021929
#
#
# Mechanical properties :
#
#
# Convention : Reuss Voigt Hill
#
# Bulk Modulus (GPa) = 32.64871 65.39294 49.02083
# Shear Modulus (GPa) = 30.52847 44.35917 37.44382
#
# Velocity S-wave (km/s) = 3.42242 4.12546 3.79027
# Velocity P-wave (km/s) = 5.30506 6.91245 6.16140
#
# Compressibility (1/GPa) = 0.03062908
#
# Stress axis : x y z
#
# Youngs Moduli (GPa) = 115.23418 96.14290 45.83922
#
# Poissons Ratio (x) = 0.15705 -0.07872
# Poissons Ratio (y) = 0.18824 0.23912
# Poissons Ratio (z) = -0.19788 0.50152
#
# Static dielectric constant tensor:
#      x y z
#    x 2.068430 0.000000 -0.079290 
#    y 0.000000 2.095260 0.000000 
#    z -0.079290 0.000000 2.179610 
# 
# From -- ./inp_files/29177.got.cif
#   From: 2010.05.17/outbox.cif.g08.bks.cpg/sg14_15_cif.got.tgz:29177.got - 2010.06.03 17:49:19.
