data_PCOD9247478
_publ_section_title
;
Structure prediction by ZEFSAII (Michael W. Deem and Ramdas Pophale) SiO2 
 PCOD9247478
Probable space group: P 21/C
;
_chemical_formula_sum "Si O2"
_cell_formula_units_Z 28
_cell_length_a 7.225217
_cell_length_b 7.827225
_cell_length_c 30.423778
_cell_angle_alpha 90.000000
_cell_angle_beta 123.446771
_cell_angle_gamma 90.000000
_cell_volume 1435.638933
_symmetry_space_group_name_H-M "P 21/C"
_symmetry_group_IT_number 14
_symmetry_cell_setting 'monoclinic'
loop_
_space_group_symop_operation_xyz
x,y,z
-x,1/2+y,1/2-z
-x,-y,-z
x,1/2-y,1/2+z
loop_
_atom_site_type_symbol
_atom_site_label
_atom_site_fract_x
_atom_site_fract_y
_atom_site_fract_z
Si Si1 0.472445 0.107234 0.951420
Si Si2 0.328522 0.489397 0.610526
Si Si3 0.967902 0.194640 0.871127
Si Si4 0.186895 0.122582 0.578154
Si Si5 0.311838 0.403589 0.702114
Si Si6 0.295340 0.550141 0.003023
Si Si7 0.305928 0.016263 0.684209
O O1 0.652938 0.257565 0.975633
O O2 0.225163 0.183871 0.915988
O O3 0.519242 0.009868 0.911822
O O4 0.500000 0.000000 0.000000
O O5 0.177559 0.651974 0.603960
O O6 0.173723 0.326143 0.581092
O O7 0.439415 0.441147 0.672116
O O8 0.879899 0.368706 0.837961
O O9 0.892986 0.034810 0.830141
O O10 0.941289 0.046834 0.551670
O O11 0.275514 0.070418 0.542503
O O12 0.339217 0.049977 0.636750
O O13 0.475562 0.451008 0.762670
O O14 0.245803 0.204769 0.694592
O O15 0.500000 0.500000 0.000000
#
# Coordination Sequence:
#
# PCOD9247478 Si02
#       7
#     4   4   4   4   4   4   4
#     4  12  24  38  63  88 126 165 207 255 305 371
#     4   9  21  40  59  86 125 155 207 250 306 360
#     4  10  22  39  63  90 124 161 201 252 310 359
#     4  10  22  38  62  88 124 165 203 256 307 363
#     4   9  20  37  67  90 121 161 203 256 307 369
#     4  11  23  38  57  91 125 162 209 253 307 363
#     4  11  18  38  69  91 119 164 204 250 315 366
#
# _framework density 19.503511
#
# number of rings (size 3 to 8) (size 9 to 14) (size 15 to 20)
#    0.857    0.857    1.429    3.429    0.000    4.571 
#    2.571    0.000   12.571    0.000    0.000    0.000 
#    0.000    0.000    0.000    0.000    0.000    0.000 
#
# Total GULP energy -156006.503072 kJ/mol
# GULP energy per Si atom -5571.660824 kJ/mol
# Density = 1.945912 g / cm^3
# Si number density = 19.503511 Si / 1000 Ang^3
#
#
#
# Elastic Constant Matrix: (Units=GPa)
#
#
# Indices 1 2 3 4 5 6 
#
# 1 74.2246 6.5713 34.4229 0.0000 -1.2612 0.0000
# 2 6.5713 107.4836 33.0868 0.0000 1.3002 0.0000
# 3 34.4229 33.0868 112.3997 0.0000 5.4471 0.0000
# 4 0.0000 0.0000 0.0000 31.0013 0.0000 2.4265
# 5 -1.2612 1.3002 5.4471 0.0000 16.8417 0.0000
# 6 0.0000 0.0000 0.0000 2.4265 0.0000 25.1269
#
#
#
# Elastic Compliance Matrix: (Units=1/GPa)
#
#
# Indices 1 2 3 4 5 6 
#
# 1 0.015865 0.000587 -0.005168 0.000000 0.002814 0.000000
# 2 0.000587 0.010253 -0.003212 0.000000 0.000291 0.000000
# 3 -0.005168 -0.003212 0.011614 0.000000 -0.003895 0.000000
# 4 0.000000 0.000000 0.000000 0.032502 0.000000 -0.003139
# 5 0.002814 0.000291 -0.003895 0.000000 0.060825 0.000000
# 6 0.000000 0.000000 0.000000 -0.003139 0.000000 0.040101
#
#
# Mechanical properties :
#
#
# Convention : Reuss Voigt Hill
#
# Bulk Modulus (GPa) = 45.15504 49.14110 47.14807
# Shear Modulus (GPa) = 25.75616 29.26244 27.50930
#
# Velocity S-wave (km/s) = 3.63794 3.87766 3.75971
# Velocity P-wave (km/s) = 6.39129 6.73046 6.56307
#
# Compressibility (1/GPa) = 0.02214592
#
# Stress axis : x y z
#
# Youngs Moduli (GPa) = 63.03105 97.53140 86.10448
#
# Poissons Ratio (x) = -0.05724 0.44498
# Poissons Ratio (y) = -0.03699 0.27657
# Poissons Ratio (z) = 0.32574 0.31327
#
# Static dielectric constant tensor:
#      x y z
#    x 1.650150 0.000000 -0.038590 
#    y 0.000000 1.754330 0.000000 
#    z -0.038590 0.000000 1.700500 
# 
# From -- ./inp_files/78862.got.cif
#   From: 2010.05.17/outbox.cif.g08.bks.cpg/sg14_40_cif.got.tgz:78862.got - 2010.06.03 17:49:19.
