data_PCOD9247005
_publ_section_title
;
Structure prediction by ZEFSAII (Michael W. Deem and Ramdas Pophale) SiO2 
 PCOD9247005
Probable space group: P 21/C
;
_chemical_formula_sum "Si O2"
_cell_formula_units_Z 32
_cell_length_a 28.411025
_cell_length_b 9.173897
_cell_length_c 12.203270
_cell_angle_alpha 90.000000
_cell_angle_beta 153.012019
_cell_angle_gamma 90.000000
_cell_volume 1443.394022
_symmetry_space_group_name_H-M "P 21/C"
_symmetry_group_IT_number 14
_symmetry_cell_setting 'monoclinic'
loop_
_space_group_symop_operation_xyz
x,y,z
-x,1/2+y,1/2-z
-x,-y,-z
x,1/2-y,1/2+z
loop_
_atom_site_type_symbol
_atom_site_label
_atom_site_fract_x
_atom_site_fract_y
_atom_site_fract_z
Si Si1 0.249882 0.636495 0.285001
Si Si2 0.410541 0.070433 0.017395
Si Si3 0.719320 0.771480 0.429727
Si Si4 0.817709 0.038057 0.120996
Si Si5 0.119215 0.021791 0.123073
Si Si6 0.283081 0.555186 0.799992
Si Si7 0.917978 0.307509 0.254923
Si Si8 0.443067 0.175451 0.725684
O O1 0.340330 0.521643 0.453957
O O2 0.192744 0.590189 0.276568
O O3 0.299868 0.796077 0.400387
O O4 0.173176 0.647099 0.020159
O O5 0.478650 0.188189 0.225248
O O6 0.469079 0.945749 0.068543
O O7 0.331049 0.167816 0.784187
O O8 0.796763 0.634918 0.576589
O O9 0.787589 0.898716 0.622147
O O10 0.620795 0.754900 0.306500
O O11 0.911599 0.134712 0.266290
O O12 0.723991 0.085498 0.844043
O O13 0.167635 0.987351 0.105274
O O14 0.091875 0.887319 0.146818
O O15 0.022556 0.130647 0.919179
O O16 0.361245 0.426711 0.990146
#
# Coordination Sequence:
#
# PCOD9247005 Si02
#       8
#     4   4   4   4   4   4   4   4
#     4  11  22  42  66  94 135 174 230 275 339 391
#     4  12  23  43  64 100 128 180 221 280 339 400
#     4  11  23  43  66  95 137 175 219 277 339 399
#     4  11  22  42  65  99 132 174 228 275 335 386
#     4  10  21  43  66  94 135 178 220 266 338 405
#     4  10  22  42  66  93 134 180 214 281 335 400
#     4  10  22  42  67  97 131 176 220 274 331 402
#     4  11  24  41  66  96 134 171 223 274 339 406
#
# _framework density 22.169967
#
# number of rings (size 3 to 8) (size 9 to 14) (size 15 to 20)
#    0.000    1.250    5.000    1.125    0.000    0.500 
#    6.750    5.000    0.000    0.000    0.000    0.000 
#    0.000    0.000    0.000    0.000    0.000    0.000 
#
# Total GULP energy -178363.309190 kJ/mol
# GULP energy per Si atom -5573.853412 kJ/mol
# Density = 2.211951 g / cm^3
# Si number density = 22.169967 Si / 1000 Ang^3
#
#
#
# Elastic Constant Matrix: (Units=GPa)
#
#
# Indices 1 2 3 4 5 6 
#
# 1 53.5474 37.0754 10.0217 0.0000 11.7665 0.0000
# 2 37.0754 118.6405 14.6519 0.0000 4.7129 0.0000
# 3 10.0217 14.6519 23.0284 0.0000 7.2275 0.0000
# 4 0.0000 0.0000 0.0000 37.3604 0.0000 3.9872
# 5 11.7665 4.7129 7.2275 0.0000 27.0752 0.0000
# 6 0.0000 0.0000 0.0000 3.9872 0.0000 39.0023
#
#
#
# Elastic Compliance Matrix: (Units=1/GPa)
#
#
# Indices 1 2 3 4 5 6 
#
# 1 0.026602 -0.007461 -0.003939 0.000000 -0.009211 0.000000
# 2 -0.007461 0.011240 -0.004702 0.000000 0.002541 0.000000
# 3 -0.003939 -0.004702 0.051665 0.000000 -0.011261 0.000000
# 4 0.000000 0.000000 0.000000 0.027062 0.000000 -0.002767
# 5 -0.009211 0.002541 -0.011261 0.000000 0.043501 0.000000
# 6 0.000000 0.000000 0.000000 -0.002767 0.000000 0.025922
#
#
# Mechanical properties :
#
#
# Convention : Reuss Voigt Hill
#
# Bulk Modulus (GPa) = 17.45112 35.41271 26.43191
# Shear Modulus (GPa) = 21.07061 29.58539 25.32800
#
# Velocity S-wave (km/s) = 3.08622 3.65702 3.38368
# Velocity P-wave (km/s) = 4.53743 5.81719 5.21670
#
# Compressibility (1/GPa) = 0.05730292
#
# Stress axis : x y z
#
# Youngs Moduli (GPa) = 37.59116 88.96702 19.35540
#
# Poissons Ratio (x) = 0.66377 0.07624
# Poissons Ratio (y) = 0.28046 0.09101
# Poissons Ratio (z) = 0.14808 0.41834
#
# Static dielectric constant tensor:
#      x y z
#    x 1.860340 0.000000 0.004460 
#    y 0.000000 1.850580 0.000000 
#    z 0.004460 0.000000 1.815500 
# 
# From -- ./inp_files/36486.got.cif
#   From: 2010.05.17/outbox.cif.g08.bks.cpg/sg14_19_cif.got.tgz:36486.got - 2010.06.03 17:49:19.
