data_PCOD9247481
_publ_section_title
;
Structure prediction by ZEFSAII (Michael W. Deem and Ramdas Pophale) SiO2 
 PCOD9247481
Probable space group: P 21/C
;
_chemical_formula_sum "Si O2"
_cell_formula_units_Z 24
_cell_length_a 5.207556
_cell_length_b 22.303578
_cell_length_c 11.438772
_cell_angle_alpha 90.000000
_cell_angle_beta 126.795931
_cell_angle_gamma 90.000000
_cell_volume 1063.892646
_symmetry_space_group_name_H-M "P 21/C"
_symmetry_group_IT_number 14
_symmetry_cell_setting 'monoclinic'
loop_
_space_group_symop_operation_xyz
x,y,z
-x,1/2+y,1/2-z
-x,-y,-z
x,1/2-y,1/2+z
loop_
_atom_site_type_symbol
_atom_site_label
_atom_site_fract_x
_atom_site_fract_y
_atom_site_fract_z
Si Si1 0.885779 0.761052 0.015191
Si Si2 0.410675 0.970013 0.350896
Si Si3 0.735391 0.837518 0.180673
Si Si4 0.431036 0.842634 0.449396
Si Si5 0.357287 0.029641 0.844008
Si Si6 0.529028 0.711348 0.205115
O O1 0.566761 0.718828 0.933239
O O2 0.831815 0.788080 0.872088
O O3 0.881382 0.818961 0.095990
O O4 0.153950 0.714652 0.136616
O O5 0.518117 0.900652 0.398608
O O6 0.546034 0.992268 0.261532
O O7 0.025834 0.972549 0.244026
O O8 0.500000 0.000000 0.500000
O O9 0.554295 0.899694 0.130553
O O10 0.532704 0.778733 0.152390
O O11 0.044678 0.840830 0.348727
O O12 0.555591 0.840174 0.615821
O O13 0.500000 0.000000 0.000000
#
# Coordination Sequence:
#
# PCOD9247481 Si02
#       6
#     4   4   4   4   4   4
#     4  11  21  37  61  92 130 168 218 262 326 396
#     4  11  25  47  72  98 133 178 227 283 340 399
#     4  10  22  38  62  91 128 174 211 268 333 392
#     4  10  22  38  62  91 128 174 211 268 333 392
#     4  11  25  47  72  98 133 178 227 283 340 399
#     4  11  21  37  61  92 130 168 218 262 326 396
#
# _framework density 22.558667
#
# number of rings (size 3 to 8) (size 9 to 14) (size 15 to 20)
#    0.000    1.333    3.333    2.000    4.667    1.333 
#    6.000    0.000    0.000    0.000    0.000    0.000 
#    0.000    0.000    0.000    0.000    0.000    0.000 
#
# Total GULP energy -133626.346287 kJ/mol
# GULP energy per Si atom -5567.764429 kJ/mol
# Density = 2.250732 g / cm^3
# Si number density = 22.558667 Si / 1000 Ang^3
#
#
#
# Elastic Constant Matrix: (Units=GPa)
#
#
# Indices 1 2 3 4 5 6 
#
# 1 67.4987 0.6703 11.0197 0.0000 -17.3006 0.0000
# 2 0.6703 44.6589 14.1465 0.0000 -8.6664 0.0000
# 3 11.0197 14.1465 106.4550 0.0000 -20.1280 0.0000
# 4 0.0000 0.0000 0.0000 27.8175 0.0000 -8.2889
# 5 -17.3006 -8.6664 -20.1280 0.0000 37.6331 0.0000
# 6 0.0000 0.0000 0.0000 -8.2889 0.0000 20.0592
#
#
#
# Elastic Compliance Matrix: (Units=1/GPa)
#
#
# Indices 1 2 3 4 5 6 
#
# 1 0.016886 0.001412 -0.000452 0.000000 0.007846 0.000000
# 2 0.001412 0.024089 -0.002420 0.000000 0.004902 0.000000
# 3 -0.000452 -0.002420 0.010699 0.000000 0.004957 0.000000
# 4 0.000000 0.000000 0.000000 0.040996 0.000000 0.016941
# 5 0.007846 0.004902 0.004957 0.000000 0.033960 0.000000
# 6 0.000000 0.000000 0.000000 0.016941 0.000000 0.056853
#
#
# Mechanical properties :
#
#
# Convention : Reuss Voigt Hill
#
# Bulk Modulus (GPa) = 20.51122 30.03172 25.27147
# Shear Modulus (GPa) = 24.67251 29.95369 27.31310
#
# Velocity S-wave (km/s) = 3.31071 3.64787 3.48337
# Velocity P-wave (km/s) = 4.87099 5.57532 5.23501
#
# Compressibility (1/GPa) = 0.04875381
#
# Stress axis : x y z
#
# Youngs Moduli (GPa) = 59.22085 41.51312 93.46321
#
# Poissons Ratio (x) = -0.05863 0.04226
# Poissons Ratio (y) = -0.08364 0.22622
# Poissons Ratio (z) = 0.02677 0.10048
#
# Static dielectric constant tensor:
#      x y z
#    x 2.101940 0.000000 -0.042060 
#    y 0.000000 1.827330 0.000000 
#    z -0.042060 0.000000 1.919130 
# 
# From -- ./inp_files/22033.got.cif
#   From: 2010.05.17/outbox.cif.g08.bks.cpg/sg14_12_cif.got.tgz:22033.got - 2010.06.03 17:49:19.
