data_PCOD9247902
_publ_section_title
;
Structure prediction by ZEFSAII (Michael W. Deem and Ramdas Pophale) SiO2 
 PCOD9247902
Probable space group: P 21/C
;
_chemical_formula_sum "Si O2"
_cell_formula_units_Z 30
_cell_length_a 16.451739
_cell_length_b 14.345791
_cell_length_c 6.687863
_cell_angle_alpha 90.000000
_cell_angle_beta 43.928011
_cell_angle_gamma 90.000000
_cell_volume 1095.037989
_symmetry_space_group_name_H-M "P 21/C"
_symmetry_group_IT_number 14
_symmetry_cell_setting 'monoclinic'
loop_
_space_group_symop_operation_xyz
x,y,z
-x,1/2+y,1/2-z
-x,-y,-z
x,1/2-y,1/2+z
loop_
_atom_site_type_symbol
_atom_site_label
_atom_site_fract_x
_atom_site_fract_y
_atom_site_fract_z
Si Si1 0.500502 0.249853 0.081518
Si Si2 0.000000 0.500000 0.500000
Si Si3 0.357356 0.618113 0.919962
Si Si4 0.243128 0.048370 0.783490
Si Si5 0.892450 0.172894 0.013019
Si Si6 0.313416 0.253311 0.665118
Si Si7 0.826099 0.936351 0.684213
Si Si8 0.061640 0.621701 0.994312
O O1 0.574417 0.155464 0.895398
O O2 0.576512 0.341230 0.002468
O O3 0.467009 0.267054 0.890814
O O4 0.349305 0.256958 0.350551
O O5 0.119353 0.484311 0.419461
O O6 0.005511 0.613038 0.564352
O O7 0.337076 0.508145 0.984101
O O8 0.228895 0.664773 0.151749
O O9 0.243029 0.158377 0.771732
O O10 0.261084 0.028030 0.987627
O O11 0.865244 0.135954 0.838140
O O12 0.932646 0.279315 0.912727
O O13 0.242550 0.352894 0.800529
O O14 0.935308 0.898258 0.620970
O O15 0.889086 0.029696 0.471235
#
# Coordination Sequence:
#
# PCOD9247902 Si02
#       8
#     4   2   4   4   4   4   4   4
#     4  10  23  44  66 101 129 179 232 293 342 418
#     4  10  22  40  66 100 142 174 232 266 356 412
#     4  10  22  43  69  95 139 168 233 285 354 402
#     4  11  23  44  69 100 137 187 221 291 349 424
#     4  11  23  41  69 101 139 189 221 295 337 425
#     4  11  23  44  72  94 138 176 238 283 352 407
#     4  11  24  44  65 101 139 182 228 281 354 428
#     4  11  25  41  68 102 140 185 235 272 358 424
#
# _framework density 27.39631
#
# number of rings (size 3 to 8) (size 9 to 14) (size 15 to 20)
#    0.000    1.333    4.000    1.600    3.733    2.133 
#    0.000    0.000    0.000    0.000    0.000    0.000 
#    0.000    0.000    0.000    0.000    0.000    0.000 
#
# Total GULP energy -167288.808251 kJ/mol
# GULP energy per Si atom -5576.293608 kJ/mol
# Density = 2.733395 g / cm^3
# Si number density = 27.396310 Si / 1000 Ang^3
#
#
#
# Elastic Constant Matrix: (Units=GPa)
#
#
# Indices 1 2 3 4 5 6 
#
# 1 168.0017 66.0385 25.8387 0.0000 13.3650 0.0000
# 2 66.0385 207.0981 35.0206 0.0000 -6.0499 0.0000
# 3 25.8387 35.0206 109.4440 0.0000 9.1346 0.0000
# 4 0.0000 0.0000 0.0000 12.4120 0.0000 28.4104
# 5 13.3650 -6.0499 9.1346 0.0000 36.9452 0.0000
# 6 0.0000 0.0000 0.0000 28.4104 0.0000 41.7446
#
#
#
# Elastic Compliance Matrix: (Units=1/GPa)
#
#
# Indices 1 2 3 4 5 6 
#
# 1 0.007169 -0.002241 -0.000744 0.000000 -0.002776 0.000000
# 2 -0.002241 0.005864 -0.001527 0.000000 0.002149 0.000000
# 3 -0.000744 -0.001527 0.010006 0.000000 -0.002455 0.000000
# 4 0.000000 0.000000 0.000000 -0.144437 0.000000 0.098301
# 5 -0.002776 0.002149 -0.002455 0.000000 0.029030 0.000000
# 6 0.000000 0.000000 0.000000 0.098301 0.000000 -0.042946
#
#
# Mechanical properties :
#
#
# Convention : Reuss Voigt Hill
#
# Bulk Modulus (GPa) = 71.34727 82.03770 76.69249
# Shear Modulus (GPa) = -41.11184 42.06344 0.47580
#
# Velocity S-wave (km/s) = -3.87800 3.92263 0.41719
# Velocity P-wave (km/s) = 2.45913 7.10815 5.31851
#
# Compressibility (1/GPa) = 0.01401595
#
# Stress axis : x y z
#
# Youngs Moduli (GPa) = 139.49842 170.52533 99.93953
#
# Poissons Ratio (x) = 0.38219 0.07431
# Poissons Ratio (y) = 0.31265 0.15257
# Poissons Ratio (z) = 0.10372 0.26033
#
# Static dielectric constant tensor:
#      x y z
#    x 2.109110 0.000000 0.091780 
#    y 0.000000 2.079210 0.000000 
#    z 0.091780 0.000000 2.198230 
# 
# From -- ./inp_files/17986.got.cif
#   From: 2010.05.17/outbox.cif.g08.bks.cpg/sg14_9_cif.got.tgz:17986.got - 2010.06.03 17:49:19.
