data_PCOD9247102
_publ_section_title
;
Structure prediction by ZEFSAII (Michael W. Deem and Ramdas Pophale) SiO2 
 PCOD9247102
Probable space group: P 21/C
;
_chemical_formula_sum "Si O2"
_cell_formula_units_Z 28
_cell_length_a 11.073198
_cell_length_b 5.147372
_cell_length_c 20.871363
_cell_angle_alpha 90.000000
_cell_angle_beta 76.544758
_cell_angle_gamma 90.000000
_cell_volume 1156.970425
_symmetry_space_group_name_H-M "P 21/C"
_symmetry_group_IT_number 14
_symmetry_cell_setting 'monoclinic'
loop_
_space_group_symop_operation_xyz
x,y,z
-x,1/2+y,1/2-z
-x,-y,-z
x,1/2-y,1/2+z
loop_
_atom_site_type_symbol
_atom_site_label
_atom_site_fract_x
_atom_site_fract_y
_atom_site_fract_z
Si Si1 0.555418 0.600953 0.338768
Si Si2 0.021812 0.247298 0.954615
Si Si3 0.643295 0.341109 0.209653
Si Si4 0.416119 0.251136 0.024296
Si Si5 0.868307 0.031785 0.214504
Si Si6 0.977329 0.041672 0.332017
Si Si7 0.306077 0.236380 0.903953
O O1 0.647197 0.443647 0.281910
O O2 0.612106 0.724829 0.396178
O O3 0.430001 0.438250 0.374330
O O4 0.499032 0.795654 0.292718
O O5 0.939808 0.324715 0.903044
O O6 0.160707 0.181806 0.913532
O O7 0.000000 0.500000 0.000000
O O8 0.000000 0.000000 0.000000
O O9 0.735481 0.097091 0.201763
O O10 0.681909 0.516423 0.144365
O O11 0.500000 0.500000 0.000000
O O12 0.314080 0.269662 0.980877
O O13 0.500000 0.000000 0.000000
O O14 0.964364 0.250383 0.173302
O O15 0.874652 0.069556 0.290343
O O16 0.912793 0.736136 0.203566
#
# Coordination Sequence:
#
# PCOD9247102 Si02
#       7
#     4   4   4   4   4   4   4
#     4  11  24  40  67 102 138 171 231 272 342 410
#     4  12  27  43  68  97 129 176 233 276 329 403
#     4  12  22  39  68 103 130 180 219 279 337 408
#     4  10  22  41  65  95 132 180 220 268 331 402
#     4  10  22  38  71  93 133 172 214 273 341 396
#     4  10  21  44  63  97 128 173 219 275 335 391
#     4  11  24  44  68  94 135 183 218 283 336 397
#
# _framework density 24.201139000000001
#
# number of rings (size 3 to 8) (size 9 to 14) (size 15 to 20)
#    0.000    1.143    4.286    1.714    2.000    1.143 
#    0.000    2.857    0.000    0.000    0.000    0.000 
#    0.000    0.000    0.000    0.000    0.000    0.000 
#
# Total GULP energy -156092.909688 kJ/mol
# GULP energy per Si atom -5574.746775 kJ/mol
# Density = 2.414606 g / cm^3
# Si number density = 24.201139 Si / 1000 Ang^3
#
#
#
# Elastic Constant Matrix: (Units=GPa)
#
#
# Indices 1 2 3 4 5 6 
#
# 1 54.2568 -7.3218 16.7608 0.0000 14.9965 0.0000
# 2 -7.3218 86.6702 10.2675 0.0000 -15.7796 0.0000
# 3 16.7608 10.2675 136.5962 0.0000 30.6356 0.0000
# 4 0.0000 0.0000 0.0000 47.2229 0.0000 -7.6215
# 5 14.9965 -15.7796 30.6356 0.0000 52.9984 0.0000
# 6 0.0000 0.0000 0.0000 -7.6215 0.0000 32.4865
#
#
#
# Elastic Compliance Matrix: (Units=1/GPa)
#
#
# Indices 1 2 3 4 5 6 
#
# 1 0.020308 0.001076 -0.001558 0.000000 -0.004526 0.000000
# 2 0.001076 0.012746 -0.002152 0.000000 0.004734 0.000000
# 3 -0.001558 -0.002152 0.008868 0.000000 -0.005326 0.000000
# 4 0.000000 0.000000 0.000000 0.022010 0.000000 0.005164
# 5 -0.004526 0.004734 -0.005326 0.000000 0.024637 0.000000
# 6 0.000000 0.000000 0.000000 0.005164 0.000000 0.031993
#
#
# Mechanical properties :
#
#
# Convention : Reuss Voigt Hill
#
# Bulk Modulus (GPa) = 27.28121 35.21515 31.24818
# Shear Modulus (GPa) = 36.21927 43.72932 39.97430
#
# Velocity S-wave (km/s) = 3.87278 4.25539 4.06859
# Velocity P-wave (km/s) = 5.59420 6.22311 5.91702
#
# Compressibility (1/GPa) = 0.03665527
#
# Stress axis : x y z
#
# Youngs Moduli (GPa) = 49.24127 78.45734 112.76112
#
# Poissons Ratio (x) = -0.08444 0.17566
# Poissons Ratio (y) = -0.05299 0.24265
# Poissons Ratio (z) = 0.07671 0.16883
#
# Static dielectric constant tensor:
#      x y z
#    x 1.906670 0.000000 0.054860 
#    y 0.000000 2.098870 0.000000 
#    z 0.054860 0.000000 2.192590 
# 
# From -- ./inp_files/66261.got.cif
#   From: 2010.05.17/outbox.cif.g08.bks.cpg/sg14_34_cif.got.tgz:66261.got - 2010.06.03 17:49:19.
