data_PCOD9247087
_publ_section_title
;
Structure prediction by ZEFSAII (Michael W. Deem and Ramdas Pophale) SiO2 
 PCOD9247087
Probable space group: P 21/C
;
_chemical_formula_sum "Si O2"
_cell_formula_units_Z 24
_cell_length_a 7.787008
_cell_length_b 8.692600
_cell_length_c 15.682460
_cell_angle_alpha 90.000000
_cell_angle_beta 77.950532
_cell_angle_gamma 90.000000
_cell_volume 1038.147421
_symmetry_space_group_name_H-M "P 21/C"
_symmetry_group_IT_number 14
_symmetry_cell_setting 'monoclinic'
loop_
_space_group_symop_operation_xyz
x,y,z
-x,1/2+y,1/2-z
-x,-y,-z
x,1/2-y,1/2+z
loop_
_atom_site_type_symbol
_atom_site_label
_atom_site_fract_x
_atom_site_fract_y
_atom_site_fract_z
Si Si1 0.042391 0.233752 0.269321
Si Si2 0.212664 0.029692 0.656500
Si Si3 0.558765 0.172487 0.689963
Si Si4 0.898015 0.086929 0.936055
Si Si5 0.645950 0.533096 0.322662
Si Si6 0.809660 0.081381 0.516601
O O1 0.066718 0.335073 0.181747
O O2 0.208065 0.120758 0.249946
O O3 0.876637 0.123706 0.298396
O O4 0.029801 0.356685 0.347046
O O5 0.276475 0.008406 0.553659
O O6 0.375955 0.084621 0.693574
O O7 0.517114 0.347988 0.665718
O O8 0.699491 0.092820 0.613426
O O9 0.606735 0.129710 0.781980
O O10 0.741712 0.995158 0.903496
O O11 0.829150 0.244118 0.983417
O O12 0.000000 0.000000 0.000000
O O13 0.000000 0.000000 0.500000
#
# Coordination Sequence:
#
# PCOD9247087 Si02
#       6
#     4   4   4   4   4   4
#     4  10  21  43  73  97 138 185 243 289 358 434
#     4  10  22  41  69 101 137 184 232 294 353 425
#     4  11  26  44  69 104 144 184 239 295 363 430
#     4  11  26  44  71 106 139 188 247 294 361 432
#     4  11  26  46  71 105 142 195 237 298 365 433
#     4  11  26  44  71 102 141 187 239 297 357 429
#
# _framework density 23.118103000000001
#
# number of rings (size 3 to 8) (size 9 to 14) (size 15 to 20)
#    0.000    1.333    1.667    2.500    9.333    3.333 
#    3.000    0.000    0.000    0.000    0.000    0.000 
#    0.000    0.000    0.000    0.000    0.000    0.000 
#
# Total GULP energy -134009.752352 kJ/mol
# GULP energy per Si atom -5583.739681 kJ/mol
# Density = 2.306549 g / cm^3
# Si number density = 23.118103 Si / 1000 Ang^3
#
#
#
# Elastic Constant Matrix: (Units=GPa)
#
#
# Indices 1 2 3 4 5 6 
#
# 1 76.0735 33.2983 32.2620 0.0000 8.7613 0.0000
# 2 33.2983 107.6868 44.5194 0.0000 17.2785 0.0000
# 3 32.2620 44.5194 86.7461 0.0000 13.4804 0.0000
# 4 0.0000 0.0000 0.0000 42.3483 0.0000 -0.7909
# 5 8.7613 17.2785 13.4804 0.0000 47.4642 0.0000
# 6 0.0000 0.0000 0.0000 -0.7909 0.0000 35.0081
#
#
#
# Elastic Compliance Matrix: (Units=1/GPa)
#
#
# Indices 1 2 3 4 5 6 
#
# 1 0.016473 -0.003173 -0.004399 0.000000 -0.000636 0.000000
# 2 -0.003173 0.012736 -0.004945 0.000000 -0.002646 0.000000
# 3 -0.004399 -0.004945 0.016002 0.000000 -0.001933 0.000000
# 4 0.000000 0.000000 0.000000 0.023624 0.000000 0.000534
# 5 -0.000636 -0.002646 -0.001933 0.000000 0.022698 0.000000
# 6 0.000000 0.000000 0.000000 0.000534 0.000000 0.028577
#
#
# Mechanical properties :
#
#
# Convention : Reuss Voigt Hill
#
# Bulk Modulus (GPa) = 49.56163 54.51842 52.04002
# Shear Modulus (GPa) = 32.92277 35.65923 34.29100
#
# Velocity S-wave (km/s) = 3.77783 3.93170 3.85554
# Velocity P-wave (km/s) = 6.36509 6.65168 6.50996
#
# Compressibility (1/GPa) = 0.02017690
#
# Stress axis : x y z
#
# Youngs Moduli (GPa) = 60.70557 78.51567 62.49088
#
# Poissons Ratio (x) = 0.24912 0.27491
# Poissons Ratio (y) = 0.19261 0.30903
# Poissons Ratio (z) = 0.26706 0.38828
#
# Static dielectric constant tensor:
#      x y z
#    x 1.944120 0.000000 0.018440 
#    y 0.000000 1.910390 0.000000 
#    z 0.018440 0.000000 1.916260 
# 
# From -- ./inp_files/38914.got.cif
#   From: 2010.05.17/outbox.cif.g08.bks.cpg/sg14_20_cif.got.tgz:38914.got - 2010.06.03 17:49:19.
