data_PCOD9247468
_publ_section_title
;
Structure prediction by ZEFSAII (Michael W. Deem and Ramdas Pophale) SiO2 
 PCOD9247468
Probable space group: P 21/C
;
_chemical_formula_sum "Si O2"
_cell_formula_units_Z 24
_cell_length_a 10.229363
_cell_length_b 5.013251
_cell_length_c 24.638257
_cell_angle_alpha 90.000000
_cell_angle_beta 128.247463
_cell_angle_gamma 90.000000
_cell_volume 992.288916
_symmetry_space_group_name_H-M "P 21/C"
_symmetry_group_IT_number 14
_symmetry_cell_setting 'monoclinic'
loop_
_space_group_symop_operation_xyz
x,y,z
-x,1/2+y,1/2-z
-x,-y,-z
x,1/2-y,1/2+z
loop_
_atom_site_type_symbol
_atom_site_label
_atom_site_fract_x
_atom_site_fract_y
_atom_site_fract_z
Si Si1 0.502792 0.312239 0.178961
Si Si2 0.308932 0.689631 0.660854
Si Si3 0.735544 0.391115 0.523360
Si Si4 0.619763 0.531094 0.611417
Si Si5 0.945188 0.606790 0.078160
Si Si6 0.925040 0.886949 0.703053
O O1 0.636593 0.285331 0.262071
O O2 0.433108 0.610286 0.161609
O O3 0.349808 0.112549 0.154996
O O4 0.576967 0.192320 0.143850
O O5 0.122588 0.789296 0.603791
O O6 0.706105 0.399383 0.580726
O O7 0.554357 0.342204 0.452596
O O8 0.803491 0.681547 0.525910
O O9 0.875421 0.179276 0.543351
O O10 0.744931 0.754534 0.665221
O O11 0.956533 0.599605 0.146840
O O12 0.046911 0.670554 0.762025
#
# Coordination Sequence:
#
# PCOD9247468 Si02
#       6
#     4   4   4   4   4   4
#     4  10  22  38  61  86 118 159 194 246 303 351
#     4  10  22  39  59  87 119 156 199 244 298 356
#     4  10  24  40  64  88 118 164 196 246 298 346
#     4  10  23  42  62  90 124 154 203 243 296 363
#     4  11  22  41  60  86 124 156 200 248 293 350
#     4  11  23  36  61  94 119 153 194 250 310 351
#
# _framework density 24.186506000000001
#
# number of rings (size 3 to 8) (size 9 to 14) (size 15 to 20)
#    0.000    1.667    0.000    4.000    0.000   16.667 
#    0.000    5.000    0.000    0.000    0.000    0.000 
#    0.000    0.000    0.000    0.000    0.000    0.000 
#
# Total GULP energy -134549.533581 kJ/mol
# GULP energy per Si atom -5606.230566 kJ/mol
# Density = 2.413146 g / cm^3
# Si number density = 24.186506 Si / 1000 Ang^3
#
#
#
# Elastic Constant Matrix: (Units=GPa)
#
#
# Indices 1 2 3 4 5 6 
#
# 1 51.0004 -14.4429 20.4971 0.0000 10.4351 0.0000
# 2 -14.4429 69.4007 7.1167 0.0000 -9.2439 0.0000
# 3 20.4971 7.1167 76.8086 0.0000 22.4188 0.0000
# 4 0.0000 0.0000 0.0000 29.3500 0.0000 7.9330
# 5 10.4351 -9.2439 22.4188 0.0000 36.6637 0.0000
# 6 0.0000 0.0000 0.0000 7.9330 0.0000 27.5919
#
#
#
# Elastic Compliance Matrix: (Units=1/GPa)
#
#
# Indices 1 2 3 4 5 6 
#
# 1 0.024076 0.005476 -0.006494 0.000000 -0.001501 0.000000
# 2 0.005476 0.016753 -0.004615 0.000000 0.005487 0.000000
# 3 -0.006494 -0.004615 0.018235 0.000000 -0.010465 0.000000
# 4 0.000000 0.000000 0.000000 0.036942 0.000000 -0.010621
# 5 -0.001501 0.005487 -0.010465 0.000000 0.035485 0.000000
# 6 0.000000 0.000000 0.000000 -0.010621 0.000000 0.039296
#
#
# Mechanical properties :
#
#
# Convention : Reuss Voigt Hill
#
# Bulk Modulus (GPa) = 20.92184 24.83907 22.88046
# Shear Modulus (GPa) = 25.25439 30.99035 28.12237
#
# Velocity S-wave (km/s) = 3.23484 3.58342 3.41358
# Velocity P-wave (km/s) = 4.75618 5.23577 5.00173
#
# Compressibility (1/GPa) = 0.04779693
#
# Stress axis : x y z
#
# Youngs Moduli (GPa) = 41.53573 59.69099 54.84063
#
# Poissons Ratio (x) = -0.32689 0.35615
# Poissons Ratio (y) = -0.22747 0.25311
# Poissons Ratio (z) = 0.26974 0.27549
#
# Static dielectric constant tensor:
#      x y z
#    x 1.930850 0.000000 -0.008420 
#    y 0.000000 1.860170 0.000000 
#    z -0.008420 0.000000 1.914590 
# 
# From -- ./inp_files/79797.got.cif
#   From: 2010.05.17/outbox.cif.g08.bks.cpg/sg14_40_cif.got.tgz:79797.got - 2010.06.03 17:49:19.
