data_PCOD9247169
_publ_section_title
;
Structure prediction by ZEFSAII (Michael W. Deem and Ramdas Pophale) SiO2 
 PCOD9247169
Probable space group: P 21/C
;
_chemical_formula_sum "Si O2"
_cell_formula_units_Z 32
_cell_length_a 15.934674
_cell_length_b 8.643950
_cell_length_c 10.976658
_cell_angle_alpha 90.000000
_cell_angle_beta 75.785622
_cell_angle_gamma 90.000000
_cell_volume 1465.619728
_symmetry_space_group_name_H-M "P 21/C"
_symmetry_group_IT_number 14
_symmetry_cell_setting 'monoclinic'
loop_
_space_group_symop_operation_xyz
x,y,z
-x,1/2+y,1/2-z
-x,-y,-z
x,1/2-y,1/2+z
loop_
_atom_site_type_symbol
_atom_site_label
_atom_site_fract_x
_atom_site_fract_y
_atom_site_fract_z
Si Si1 0.865779 0.057132 0.491868
Si Si2 0.541832 0.584300 0.603445
Si Si3 0.136080 0.879295 0.896183
Si Si4 0.540228 0.420937 0.865153
Si Si5 0.266416 0.024099 0.037207
Si Si6 0.270728 0.681244 0.135805
Si Si7 0.974475 0.584828 0.734333
Si Si8 0.124810 0.098114 0.257663
O O1 0.897784 0.227089 0.522974
O O2 0.774359 0.091240 0.459672
O O3 0.930057 0.980920 0.372756
O O4 0.857902 0.946858 0.610145
O O5 0.500000 0.500000 0.500000
O O6 0.525762 0.502017 0.739552
O O7 0.501133 0.752316 0.626877
O O8 0.644838 0.592710 0.543306
O O9 0.199577 0.818213 0.767412
O O10 0.061855 0.980885 0.862171
O O11 0.197440 0.985982 0.956561
O O12 0.642699 0.400295 0.850396
O O13 0.500000 0.500000 0.000000
O O14 0.213974 0.124545 0.154448
O O15 0.288548 0.856915 0.088733
O O16 0.939673 0.757514 0.731601
O O17 0.075458 0.549485 0.714974
#
# Coordination Sequence:
#
# PCOD9247169 Si02
#       8
#     4   4   4   4   4   4   4   4
#     4  10  23  44  71  98 136 183 234 290 343 423
#     4  12  26  47  75 111 148 187 244 301 365 440
#     4  10  21  44  72  98 135 182 238 282 349 423
#     4  12  27  48  74 109 146 194 237 303 367 439
#     4  11  24  43  73 102 140 186 234 293 353 423
#     4  10  21  44  75 102 135 190 234 279 362 430
#     4  11  27  44  68 102 143 183 239 290 356 415
#     4  12  26  45  68 103 141 187 237 296 355 415
#
# _framework density 21.833765
#
# number of rings (size 3 to 8) (size 9 to 14) (size 15 to 20)
#    0.000    1.000    3.750    1.875    5.250    3.500 
#    2.250    0.000    0.000    0.000    0.000    0.000 
#    0.000    0.000    0.000    0.000    0.000    0.000 
#
# Total GULP energy -179200.334543 kJ/mol
# GULP energy per Si atom -5600.010454 kJ/mol
# Density = 2.178407 g / cm^3
# Si number density = 21.833765 Si / 1000 Ang^3
#
#
#
# Elastic Constant Matrix: (Units=GPa)
#
#
# Indices 1 2 3 4 5 6 
#
# 1 90.1282 42.9483 64.1780 0.0000 3.0308 0.0000
# 2 42.9483 105.9394 67.9132 0.0000 4.9817 0.0000
# 3 64.1780 67.9132 145.8649 0.0000 9.3471 0.0000
# 4 0.0000 0.0000 0.0000 35.7527 0.0000 5.4705
# 5 3.0308 4.9817 9.3471 0.0000 39.7665 0.0000
# 6 0.0000 0.0000 0.0000 5.4705 0.0000 32.8681
#
#
#
# Elastic Compliance Matrix: (Units=1/GPa)
#
#
# Indices 1 2 3 4 5 6 
#
# 1 0.016791 -0.002957 -0.006044 0.000000 0.000511 0.000000
# 2 -0.002957 0.013978 -0.005187 0.000000 -0.000306 0.000000
# 3 -0.006044 -0.005187 0.012040 0.000000 -0.001720 0.000000
# 4 0.000000 0.000000 0.000000 0.028701 0.000000 -0.004777
# 5 0.000511 -0.000306 -0.001720 0.000000 0.025550 0.000000
# 6 0.000000 0.000000 0.000000 -0.004777 0.000000 0.031220
#
#
# Mechanical properties :
#
#
# Convention : Reuss Voigt Hill
#
# Bulk Modulus (GPa) = 69.28560 76.89016 73.08788
# Shear Modulus (GPa) = 30.96622 32.80367 31.88494
#
# Velocity S-wave (km/s) = 3.77008 3.88032 3.82560
# Velocity P-wave (km/s) = 7.12415 7.44100 7.28430
#
# Compressibility (1/GPa) = 0.01443301
#
# Stress axis : x y z
#
# Youngs Moduli (GPa) = 59.55708 71.54174 83.05501
#
# Poissons Ratio (x) = 0.21152 0.50196
# Poissons Ratio (y) = 0.17609 0.43084
# Poissons Ratio (z) = 0.35995 0.37112
#
# Static dielectric constant tensor:
#      x y z
#    x 1.769920 0.000000 0.017550 
#    y 0.000000 1.788190 0.000000 
#    z 0.017550 0.000000 1.837970 
# 
# From -- ./inp_files/31781.got.cif
#   From: 2010.05.17/outbox.cif.g08.bks.cpg/sg14_16_cif.got.tgz:31781.got - 2010.06.03 17:49:19.
