data_PCOD9247613
_publ_section_title
;
Structure prediction by ZEFSAII (Michael W. Deem and Ramdas Pophale) SiO2 
 PCOD9247613
Probable space group: P 21/C
;
_chemical_formula_sum "Si O2"
_cell_formula_units_Z 16
_cell_length_a 11.130489
_cell_length_b 5.131848
_cell_length_c 10.703717
_cell_angle_alpha 90.000000
_cell_angle_beta 119.036304
_cell_angle_gamma 90.000000
_cell_volume 534.551137
_symmetry_space_group_name_H-M "P 21/C"
_symmetry_group_IT_number 14
_symmetry_cell_setting 'monoclinic'
loop_
_space_group_symop_operation_xyz
x,y,z
-x,1/2+y,1/2-z
-x,-y,-z
x,1/2-y,1/2+z
loop_
_atom_site_type_symbol
_atom_site_label
_atom_site_fract_x
_atom_site_fract_y
_atom_site_fract_z
Si Si1 0.181572 0.665031 0.706708
Si Si2 0.876975 0.494372 0.584897
Si Si3 0.331897 0.416379 0.070956
Si Si4 0.577860 0.748024 0.622918
O O1 0.166204 0.893377 0.800769
O O2 0.176212 0.698844 0.553114
O O3 0.311911 0.488506 0.804090
O O4 0.041069 0.502079 0.659903
O O5 0.817650 0.780809 0.521834
O O6 0.425586 0.655281 0.073394
O O7 0.369001 0.420207 0.235460
O O8 0.408446 0.195499 0.017879
#
# Coordination Sequence:
#
# PCOD9247613 Si02
#       4
#     4   4   4   4
#     4  10  22  39  61  89 122 158 199 246 299 351
#     4  10  22  40  61  90 123 157 200 247 296 356
#     4  10  23  40  61  87 121 157 201 247 297 354
#     4  10  23  40  61  90 120 157 200 246 300 355
#
# _framework density 29.931654000000002
#
# number of rings (size 3 to 8) (size 9 to 14) (size 15 to 20)
#    0.000    2.000    0.000    1.500    0.000   15.000 
#    0.000    0.000    0.000    0.000    0.000    0.000 
#    0.000    0.000    0.000    0.000    0.000    0.000 
#
# Total GULP energy -89489.883971 kJ/mol
# GULP energy per Si atom -5593.117748 kJ/mol
# Density = 2.986353 g / cm^3
# Si number density = 29.931654 Si / 1000 Ang^3
#
#
#
# Elastic Constant Matrix: (Units=GPa)
#
#
# Indices 1 2 3 4 5 6 
#
# 1 142.1379 -3.6770 29.0229 0.0000 -2.2489 0.0000
# 2 -3.6770 115.7365 30.4284 0.0000 23.2308 0.0000
# 3 29.0229 30.4284 205.5950 0.0000 5.9373 0.0000
# 4 0.0000 0.0000 0.0000 67.8773 0.0000 -3.6466
# 5 -2.2489 23.2308 5.9373 0.0000 68.0562 0.0000
# 6 0.0000 0.0000 0.0000 -3.6466 0.0000 36.9224
#
#
#
# Elastic Compliance Matrix: (Units=1/GPa)
#
#
# Indices 1 2 3 4 5 6 
#
# 1 0.007276 0.000487 -0.001104 0.000000 0.000170 0.000000
# 2 0.000487 0.009660 -0.001407 0.000000 -0.003158 0.000000
# 3 -0.001104 -0.001407 0.005228 0.000000 -0.000012 0.000000
# 4 0.000000 0.000000 0.000000 0.014811 0.000000 0.001463
# 5 0.000170 -0.003158 -0.000012 0.000000 0.015779 0.000000
# 6 0.000000 0.000000 0.000000 0.001463 0.000000 0.027228
#
#
# Mechanical properties :
#
#
# Convention : Reuss Voigt Hill
#
# Bulk Modulus (GPa) = 55.19966 63.89087 59.54527
# Shear Modulus (GPa) = 55.51284 61.75086 58.63185
#
# Velocity S-wave (km/s) = 4.31124 4.54702 4.43070
# Velocity P-wave (km/s) = 6.57756 6.99708 6.79056
#
# Compressibility (1/GPa) = 0.01811605
#
# Stress axis : x y z
#
# Youngs Moduli (GPa) = 137.43462 103.52244 191.26195
#
# Poissons Ratio (x) = -0.05044 0.21119
# Poissons Ratio (y) = -0.06697 0.26915
# Poissons Ratio (z) = 0.15175 0.14568
#
# Static dielectric constant tensor:
#      x y z
#    x 2.383030 0.000000 -0.104220 
#    y 0.000000 2.589170 0.000000 
#    z -0.104220 0.000000 2.420240 
# 
# From -- ./inp_files/11439.got.cif
#   From: 2010.05.17/outbox.cif.g08.bks.cpg/sg14_6_cif.got.tgz:11439.got - 2010.06.03 17:49:19.
