data_PCOD9247723
_publ_section_title
;
Structure prediction by ZEFSAII (Michael W. Deem and Ramdas Pophale) SiO2 
 PCOD9247723
Probable space group: P 21/C
;
_chemical_formula_sum "Si O2"
_cell_formula_units_Z 24
_cell_length_a 14.051622
_cell_length_b 8.888565
_cell_length_c 10.021251
_cell_angle_alpha 90.000000
_cell_angle_beta 80.326003
_cell_angle_gamma 90.000000
_cell_volume 1233.843225
_symmetry_space_group_name_H-M "P 21/C"
_symmetry_group_IT_number 14
_symmetry_cell_setting 'monoclinic'
loop_
_space_group_symop_operation_xyz
x,y,z
-x,1/2+y,1/2-z
-x,-y,-z
x,1/2-y,1/2+z
loop_
_atom_site_type_symbol
_atom_site_label
_atom_site_fract_x
_atom_site_fract_y
_atom_site_fract_z
Si Si1 0.252352 0.702894 0.914234
Si Si2 0.066449 0.917369 0.593224
Si Si3 0.231051 0.562489 0.637620
Si Si4 0.563759 0.922649 0.870715
Si Si5 0.980839 0.064867 0.858105
Si Si6 0.529439 0.103833 0.613699
O O1 0.172376 0.598013 0.003551
O O2 0.236833 0.862479 0.989752
O O3 0.240188 0.684305 0.757362
O O4 0.360583 0.658645 0.925973
O O5 0.031101 0.745657 0.629561
O O6 0.000000 0.000000 0.500000
O O7 0.058965 0.009665 0.732403
O O8 0.322569 0.454775 0.635231
O O9 0.122434 0.501433 0.670802
O O10 0.538934 0.748210 0.865824
O O11 0.528763 0.005512 0.746238
O O12 0.500000 0.000000 0.000000
O O13 0.000000 0.000000 0.000000
O O14 0.500000 0.000000 0.500000
#
# Coordination Sequence:
#
# PCOD9247723 Si02
#       6
#     4   4   4   4   4   4
#     4  10  22  39  67  91 131 174 216 268 328 400
#     4  11  22  44  65  93 131 170 220 268 325 393
#     4  10  22  40  66  95 128 175 221 264 334 392
#     4  11  22  42  66  94 133 169 221 274 320 403
#     4  11  24  42  66  96 130 172 219 272 332 388
#     4  11  24  43  64  97 129 174 222 270 335 385
#
# _framework density 19.451418
#
# number of rings (size 3 to 8) (size 9 to 14) (size 15 to 20)
#    0.000    1.333    3.333    2.000    9.333    0.000 
#    6.000    0.000    0.000    0.000    0.000    0.000 
#    0.000    0.000    0.000    0.000    0.000    0.000 
#
# Total GULP energy -133998.794214 kJ/mol
# GULP energy per Si atom -5583.283092 kJ/mol
# Density = 1.940715 g / cm^3
# Si number density = 19.451418 Si / 1000 Ang^3
#
#
#
# Elastic Constant Matrix: (Units=GPa)
#
#
# Indices 1 2 3 4 5 6 
#
# 1 92.5645 31.3315 26.6089 0.0000 11.5042 0.0000
# 2 31.3315 94.3394 26.4253 0.0000 -6.2637 0.0000
# 3 26.6089 26.4253 84.5956 0.0000 -3.4451 0.0000
# 4 0.0000 0.0000 0.0000 36.7890 0.0000 -4.8699
# 5 11.5042 -6.2637 -3.4451 0.0000 26.5043 0.0000
# 6 0.0000 0.0000 0.0000 -4.8699 0.0000 26.5333
#
#
#
# Elastic Compliance Matrix: (Units=1/GPa)
#
#
# Indices 1 2 3 4 5 6 
#
# 1 0.014176 -0.004249 -0.003441 0.000000 -0.007604 0.000000
# 2 -0.004249 0.013029 -0.002547 0.000000 0.004592 0.000000
# 3 -0.003441 -0.002547 0.013808 0.000000 0.002687 0.000000
# 4 0.000000 0.000000 0.000000 0.027859 0.000000 0.005113
# 5 -0.007604 0.004592 0.002687 0.000000 0.042465 0.000000
# 6 0.000000 0.000000 0.000000 0.005113 0.000000 0.038627
#
#
# Mechanical properties :
#
#
# Convention : Reuss Voigt Hill
#
# Bulk Modulus (GPa) = 48.68575 48.91452 48.80014
# Shear Modulus (GPa) = 28.20324 30.44092 29.32208
#
# Velocity S-wave (km/s) = 3.81193 3.96026 3.88680
# Velocity P-wave (km/s) = 6.66769 6.79067 6.72946
#
# Compressibility (1/GPa) = 0.02053989
#
# Stress axis : x y z
#
# Youngs Moduli (GPa) = 70.54252 76.74963 72.42037
#
# Poissons Ratio (x) = 0.32611 0.24922
# Poissons Ratio (y) = 0.29973 0.18442
# Poissons Ratio (z) = 0.24276 0.19544
#
# Static dielectric constant tensor:
#      x y z
#    x 1.731000 0.000000 -0.050150 
#    y 0.000000 1.676600 0.000000 
#    z -0.050150 0.000000 1.714430 
# 
# From -- ./inp_files/15026.got.cif
#   From: 2010.05.17/outbox.cif.g08.bks.cpg/sg14_8_cif.got.tgz:15026.got - 2010.06.03 17:49:19.
