data_PCOD9247865
_publ_section_title
;
Structure prediction by ZEFSAII (Michael W. Deem and Ramdas Pophale) SiO2 
 PCOD9247865
Probable space group: P 21/C
;
_chemical_formula_sum "Si O2"
_cell_formula_units_Z 20
_cell_length_a 5.331941
_cell_length_b 32.707258
_cell_length_c 4.906797
_cell_angle_alpha 90.000000
_cell_angle_beta 98.242334
_cell_angle_gamma 90.000000
_cell_volume 846.872873
_symmetry_space_group_name_H-M "P 21/C"
_symmetry_group_IT_number 14
_symmetry_cell_setting 'monoclinic'
loop_
_space_group_symop_operation_xyz
x,y,z
-x,1/2+y,1/2-z
-x,-y,-z
x,1/2-y,1/2+z
loop_
_atom_site_type_symbol
_atom_site_label
_atom_site_fract_x
_atom_site_fract_y
_atom_site_fract_z
Si Si1 0.555813 0.829030 0.480100
Si Si2 0.828027 0.043086 0.146501
Si Si3 0.150887 0.456523 0.194427
Si Si4 0.540194 0.885397 0.975357
Si Si5 0.937688 0.222451 0.430784
O O1 0.467993 0.852894 0.196125
O O2 0.804125 0.801834 0.463509
O O3 0.315649 0.803112 0.546701
O O4 0.636488 0.860453 0.731282
O O5 0.080206 0.047277 0.369827
O O6 0.713991 0.999974 0.230820
O O7 0.675724 0.084266 0.166728
O O8 0.897028 0.039693 0.839903
O O9 0.280400 0.416987 0.337318
O O10 0.936150 0.262669 0.619691
#
# Coordination Sequence:
#
# PCOD9247865 Si02
#       5
#     4   4   4   4   4
#     4  12  28  43  77 110 139 184 227 292 357 419
#     4  10  22  40  64  93 136 193 240 284 342 405
#     4  10  22  40  64  93 136 193 240 284 342 405
#     4  12  25  41  66 104 147 176 237 296 352 399
#     4  12  26  52  76 104 141 180 229 280 352 444
#
# _framework density 23.616294
#
# number of rings (size 3 to 8) (size 9 to 14) (size 15 to 20)
#    0.000    0.800    0.000    6.600    8.400    0.000 
#    0.000    8.000    0.000    0.000    0.000    0.000 
#    0.000    0.000    0.000    0.000    0.000    0.000 
#
# Total GULP energy -111929.134875 kJ/mol
# GULP energy per Si atom -5596.456744 kJ/mol
# Density = 2.356254 g / cm^3
# Si number density = 23.616294 Si / 1000 Ang^3
#
#
#
# Elastic Constant Matrix: (Units=GPa)
#
#
# Indices 1 2 3 4 5 6 
#
# 1 102.3661 52.3341 1.8425 0.0000 5.3375 0.0000
# 2 52.3341 113.3559 14.8923 0.0000 0.7710 0.0000
# 3 1.8425 14.8923 80.0919 0.0000 -3.2861 0.0000
# 4 0.0000 0.0000 0.0000 47.5274 0.0000 -2.1283
# 5 5.3375 0.7710 -3.2861 0.0000 33.2694 0.0000
# 6 0.0000 0.0000 0.0000 -2.1283 0.0000 36.7577
#
#
#
# Elastic Compliance Matrix: (Units=1/GPa)
#
#
# Indices 1 2 3 4 5 6 
#
# 1 0.012954 -0.006067 0.000754 0.000000 -0.001863 0.000000
# 2 -0.006067 0.011889 -0.002051 0.000000 0.000495 0.000000
# 3 0.000754 -0.002051 0.012899 0.000000 0.001201 0.000000
# 4 0.000000 0.000000 0.000000 0.021095 0.000000 0.001221
# 5 -0.001863 0.000495 0.001201 0.000000 0.030464 0.000000
# 6 0.000000 0.000000 0.000000 0.001221 0.000000 0.027276
#
#
# Mechanical properties :
#
#
# Convention : Reuss Voigt Hill
#
# Bulk Modulus (GPa) = 43.45233 48.21686 45.83460
# Shear Modulus (GPa) = 35.97740 38.62723 37.30231
#
# Velocity S-wave (km/s) = 3.90733 4.04866 3.97862
# Velocity P-wave (km/s) = 6.22861 6.50513 6.36837
#
# Compressibility (1/GPa) = 0.02301373
#
# Stress axis : x y z
#
# Youngs Moduli (GPa) = 77.19517 84.11244 77.52601
#
# Poissons Ratio (x) = 0.51031 -0.05843
# Poissons Ratio (y) = 0.46835 0.15899
# Poissons Ratio (z) = -0.05818 0.17249
#
# Static dielectric constant tensor:
#      x y z
#    x 1.939090 0.000000 0.012180 
#    y 0.000000 1.889370 0.000000 
#    z 0.012180 0.000000 1.823300 
# 
# From -- ./inp_files/760.got.cif
#   From: 2010.05.17/outbox.cif.g08.bks.cpg/sg14_1_cif.got.tgz:760.got - 2010.06.03 17:49:19.
