data_PCOD9247388
_publ_section_title
;
Structure prediction by ZEFSAII (Michael W. Deem and Ramdas Pophale) SiO2 
 PCOD9247388
Probable space group: P 21/C
;
_chemical_formula_sum "Si O2"
_cell_formula_units_Z 28
_cell_length_a 10.430751
_cell_length_b 18.850393
_cell_length_c 5.607631
_cell_angle_alpha 90.000000
_cell_angle_beta 76.981642
_cell_angle_gamma 90.000000
_cell_volume 1074.254543
_symmetry_space_group_name_H-M "P 21/C"
_symmetry_group_IT_number 14
_symmetry_cell_setting 'monoclinic'
loop_
_space_group_symop_operation_xyz
x,y,z
-x,1/2+y,1/2-z
-x,-y,-z
x,1/2-y,1/2+z
loop_
_atom_site_type_symbol
_atom_site_label
_atom_site_fract_x
_atom_site_fract_y
_atom_site_fract_z
Si Si1 0.081524 0.546958 0.276754
Si Si2 0.596358 0.969804 0.768276
Si Si3 0.853230 0.585409 0.079553
Si Si4 0.089549 0.294025 0.242007
Si Si5 0.469095 0.750929 0.448970
Si Si6 0.805087 0.207521 0.928368
Si Si7 0.637785 0.401496 0.902350
O O1 0.220701 0.584605 0.287461
O O2 0.000000 0.500000 0.500000
O O3 0.979838 0.600901 0.190598
O O4 0.118241 0.487945 0.065310
O O5 0.724849 0.927453 0.793986
O O6 0.501002 0.918970 0.661200
O O7 0.639879 0.039083 0.605703
O O8 0.500000 0.000000 0.000000
O O9 0.821518 0.640786 0.882866
O O10 0.104719 0.244290 0.993701
O O11 0.944303 0.332153 0.330097
O O12 0.543424 0.751061 0.168066
O O13 0.352665 0.691004 0.501038
O O14 0.383182 0.823170 0.489074
O O15 0.819253 0.254976 0.680091
#
# Coordination Sequence:
#
# PCOD9247388 Si02
#       7
#     4   4   4   4   4   4   4
#     4  10  22  38  64  99 128 169 215 295 336 385
#     4  10  22  45  68  90 124 181 224 280 336 390
#     4  10  23  40  62  98 131 165 231 274 336 403
#     4  10  22  38  60  93 130 181 214 264 335 413
#     4  10  22  37  60  96 132 170 215 273 334 402
#     4   8  16  30  49  80 119 163 199 239 315 382
#     4  10  23  40  65  96 127 171 229 272 337 405
#
# _framework density 26.064584
#
# number of rings (size 3 to 8) (size 9 to 14) (size 15 to 20)
#    0.000    2.286    0.000    0.857   10.000    2.286 
#    0.000    1.429    0.000    0.000    0.000    0.000 
#    0.000    0.000    0.000    0.000    0.000    0.000 
#
# Total GULP energy -155952.971018 kJ/mol
# GULP energy per Si atom -5569.748965 kJ/mol
# Density = 2.600526 g / cm^3
# Si number density = 26.064584 Si / 1000 Ang^3
#
#
#
# Elastic Constant Matrix: (Units=GPa)
#
#
# Indices 1 2 3 4 5 6 
#
# 1 195.4049 32.0898 -38.8909 0.0000 -20.7137 0.0000
# 2 32.0898 78.2457 8.7889 0.0000 0.8723 0.0000
# 3 -38.8909 8.7889 191.9869 0.0000 3.0698 0.0000
# 4 0.0000 0.0000 0.0000 35.6685 0.0000 -4.6023
# 5 -20.7137 0.8723 3.0698 0.0000 36.1784 0.0000
# 6 0.0000 0.0000 0.0000 -4.6023 0.0000 -25.3844
#
#
#
# Elastic Compliance Matrix: (Units=1/GPa)
#
#
# Indices 1 2 3 4 5 6 
#
# 1 0.006201 -0.002731 0.001325 0.000000 0.003504 0.000000
# 2 -0.002731 0.014052 -0.001168 0.000000 -0.001803 0.000000
# 3 0.001325 -0.001168 0.005526 0.000000 0.000318 0.000000
# 4 0.000000 0.000000 0.000000 0.027395 0.000000 -0.004967
# 5 0.003504 -0.001803 0.000318 0.000000 0.029663 0.000000
# 6 0.000000 0.000000 0.000000 -0.004967 0.000000 -0.038494
#
#
# Mechanical properties :
#
#
# Convention : Reuss Voigt Hill
#
# Bulk Modulus (GPa) = 48.47047 52.17922 50.32485
# Shear Modulus (GPa) = 88.70372 40.20249 64.45311
#
# Velocity S-wave (km/s) = 5.84005 3.93162 4.97814
# Velocity P-wave (km/s) = 8.00697 6.37753 7.23825
#
# Compressibility (1/GPa) = 0.02063112
#
# Stress axis : x y z
#
# Youngs Moduli (GPa) = 161.25727 71.16625 180.97897
#
# Poissons Ratio (x) = 0.19437 -0.23983
# Poissons Ratio (y) = 0.44042 0.21132
# Poissons Ratio (z) = -0.21370 0.08310
#
# Static dielectric constant tensor:
#      x y z
#    x 2.093560 0.000000 -0.072010 
#    y 0.000000 2.205280 0.000000 
#    z -0.072010 0.000000 2.019030 
# 
# From -- ./inp_files/2841.got.cif
#   From: 2010.05.17/outbox.cif.g08.bks.cpg/sg14_2_cif.got.tgz:2841.got - 2010.06.03 17:49:19.
