data_PCOD9247555
_publ_section_title
;
Structure prediction by ZEFSAII (Michael W. Deem and Ramdas Pophale) SiO2 
 PCOD9247555
Probable space group: P 21/C
;
_chemical_formula_sum "Si O2"
_cell_formula_units_Z 32
_cell_length_a 14.993418
_cell_length_b 11.294409
_cell_length_c 18.080447
_cell_angle_alpha 90.000000
_cell_angle_beta 151.101405
_cell_angle_gamma 90.000000
_cell_volume 1479.636359
_symmetry_space_group_name_H-M "P 21/C"
_symmetry_group_IT_number 14
_symmetry_cell_setting 'monoclinic'
loop_
_space_group_symop_operation_xyz
x,y,z
-x,1/2+y,1/2-z
-x,-y,-z
x,1/2-y,1/2+z
loop_
_atom_site_type_symbol
_atom_site_label
_atom_site_fract_x
_atom_site_fract_y
_atom_site_fract_z
Si Si1 0.030786 0.993393 0.660942
Si Si2 0.703909 0.165970 0.467928
Si Si3 0.628691 0.846087 0.139711
Si Si4 0.834787 0.096287 0.878085
Si Si5 0.406879 0.626246 0.941147
Si Si6 0.262458 0.580234 0.453724
Si Si7 0.678454 0.913838 0.872951
Si Si8 0.910542 0.782795 0.468610
O O1 0.216273 0.069420 0.781586
O O2 0.863653 0.081983 0.553891
O O3 0.081346 0.922698 0.771908
O O4 0.982409 0.900139 0.561202
O O5 0.667383 0.138429 0.528902
O O6 0.747898 0.304833 0.501774
O O7 0.520046 0.141992 0.287238
O O8 0.733112 0.802273 0.288948
O O9 0.554759 0.733360 0.039832
O O10 0.442195 0.907515 0.032276
O O11 0.746103 0.125164 0.734017
O O12 0.931893 0.220944 0.967140
O O13 0.692528 0.027276 0.827298
O O14 0.000000 0.000000 0.000000
O O15 0.500000 0.500000 0.000000
O O16 0.289058 0.465357 0.522710
O O17 0.835870 0.816365 0.971159
#
# Coordination Sequence:
#
# PCOD9247555 Si02
#       8
#     4   4   4   4   4   4   4   4
#     4  12  28  44  72 102 139 188 228 294 351 419
#     4  11  25  45  68 102 136 178 232 290 347 411
#     4  11  24  48  66 100 141 186 230 289 350 421
#     4  10  22  38  70 103 132 180 229 284 346 410
#     4  11  20  43  70  99 138 179 230 286 345 413
#     4  11  26  46  70  97 144 176 234 283 347 421
#     4  11  23  46  70 101 137 185 228 293 351 412
#     4  11  22  45  71 100 143 179 237 286 348 420
#
# _framework density 21.626936000000001
#
# number of rings (size 3 to 8) (size 9 to 14) (size 15 to 20)
#    0.000    1.000    3.750    3.750    7.000    1.000 
#    2.250    0.000    0.000    0.000    0.000    0.000 
#    0.000    0.000    0.000    0.000    0.000    0.000 
#
# Total GULP energy -178729.015086 kJ/mol
# GULP energy per Si atom -5585.281721 kJ/mol
# Density = 2.157771 g / cm^3
# Si number density = 21.626936 Si / 1000 Ang^3
#
#
#
# Elastic Constant Matrix: (Units=GPa)
#
#
# Indices 1 2 3 4 5 6 
#
# 1 26.7343 41.0251 10.0318 0.0000 2.4485 0.0000
# 2 41.0251 121.4754 45.8739 0.0000 15.6469 0.0000
# 3 10.0318 45.8739 130.4887 0.0000 -0.8645 0.0000
# 4 0.0000 0.0000 0.0000 47.0828 0.0000 -6.3376
# 5 2.4485 15.6469 -0.8645 0.0000 30.5525 0.0000
# 6 0.0000 0.0000 0.0000 -6.3376 0.0000 36.2184
#
#
#
# Elastic Compliance Matrix: (Units=1/GPa)
#
#
# Indices 1 2 3 4 5 6 
#
# 1 0.081566 -0.030421 0.004485 0.000000 0.009170 0.000000
# 2 -0.030421 0.021653 -0.005332 0.000000 -0.008802 0.000000
# 3 0.004485 -0.005332 0.009211 0.000000 0.002632 0.000000
# 4 0.000000 0.000000 0.000000 0.021751 0.000000 0.003806
# 5 0.009170 -0.008802 0.002632 0.000000 0.036578 0.000000
# 6 0.000000 0.000000 0.000000 0.003806 0.000000 0.028276
#
#
# Mechanical properties :
#
#
# Convention : Reuss Voigt Hill
#
# Bulk Modulus (GPa) = 20.04296 52.50666 36.27481
# Shear Modulus (GPa) = 17.97246 34.88860 26.43053
#
# Velocity S-wave (km/s) = 2.88587 4.02083 3.49966
# Velocity P-wave (km/s) = 4.51576 6.77400 5.75670
#
# Compressibility (1/GPa) = 0.04989282
#
# Stress axis : x y z
#
# Youngs Moduli (GPa) = 12.26006 46.18193 108.57036
#
# Poissons Ratio (x) = 1.40492 -0.48693
# Poissons Ratio (y) = 0.37297 0.57889
# Poissons Ratio (z) = -0.05499 0.24624
#
# Static dielectric constant tensor:
#      x y z
#    x 1.843150 0.000000 -0.017170 
#    y 0.000000 1.819760 0.000000 
#    z -0.017170 0.000000 2.074510 
# 
# From -- ./inp_files/59410.got.cif
#   From: 2010.05.17/outbox.cif.g08.bks.cpg/sg14_30_cif.got.tgz:59410.got - 2010.06.03 17:49:19.
