data_PCOD9247961
_publ_section_title
;
Structure prediction by ZEFSAII (Michael W. Deem and Ramdas Pophale) SiO2 
 PCOD9247961
Probable space group: P 21/C
;
_chemical_formula_sum "Si O2"
_cell_formula_units_Z 30
_cell_length_a 14.443561
_cell_length_b 12.803938
_cell_length_c 8.280526
_cell_angle_alpha 90.000000
_cell_angle_beta 59.526551
_cell_angle_gamma 90.000000
_cell_volume 1319.819803
_symmetry_space_group_name_H-M "P 21/C"
_symmetry_group_IT_number 14
_symmetry_cell_setting 'monoclinic'
loop_
_space_group_symop_operation_xyz
x,y,z
-x,1/2+y,1/2-z
-x,-y,-z
x,1/2-y,1/2+z
loop_
_atom_site_type_symbol
_atom_site_label
_atom_site_fract_x
_atom_site_fract_y
_atom_site_fract_z
Si Si1 0.402497 0.823152 0.801602
Si Si2 0.702668 0.867450 0.415580
Si Si3 0.875222 0.575740 0.509414
Si Si4 0.613902 0.664229 0.325492
Si Si5 0.101607 0.648316 0.361349
Si Si6 0.278454 0.506251 0.608922
Si Si7 0.500000 0.000000 0.500000
Si Si8 0.220657 0.836861 0.426077
O O1 0.501877 0.812659 0.837026
O O2 0.449599 0.888330 0.611504
O O3 0.338889 0.717363 0.819869
O O4 0.316702 0.900103 0.960795
O O5 0.811827 0.885385 0.223259
O O6 0.651484 0.760849 0.395513
O O7 0.701747 0.857004 0.608254
O O8 0.620763 0.959339 0.441109
O O9 0.898900 0.453224 0.522877
O O10 0.797924 0.571734 0.422630
O O11 0.981519 0.644391 0.395331
O O12 0.617281 0.560624 0.431255
O O13 0.139164 0.750822 0.423848
O O14 0.183858 0.637458 0.139329
O O15 0.224323 0.562627 0.808567
#
# Coordination Sequence:
#
# PCOD9247961 Si02
#       8
#     4   4   4   4   4   4   2   4
#     4  11  24  42  69 101 140 183 230 295 348 434
#     4  11  23  44  63  98 138 187 233 282 356 423
#     4  11  24  46  70  97 143 182 235 300 363 419
#     4  11  27  39  65 101 138 189 229 283 355 430
#     4  11  24  44  71 102 132 183 237 304 362 418
#     4  12  24  45  69 103 144 185 237 294 354 437
#     4  10  22  40  68  96 138 184 230 286 354 422
#     4  12  24  45  74 106 140 182 249 296 362 427
#
# _framework density 22.730374000000001
#
# number of rings (size 3 to 8) (size 9 to 14) (size 15 to 20)
#    0.000    0.800    4.000    2.000    3.733    6.933 
#    0.000    0.000    0.000    0.000    0.000    0.000 
#    0.000    0.000    0.000    0.000    0.000    0.000 
#
# Total GULP energy -167341.263800 kJ/mol
# GULP energy per Si atom -5578.042127 kJ/mol
# Density = 2.267864 g / cm^3
# Si number density = 22.730374 Si / 1000 Ang^3
#
#
#
# Elastic Constant Matrix: (Units=GPa)
#
#
# Indices 1 2 3 4 5 6 
#
# 1 94.7979 27.9021 12.9126 0.0000 -1.7713 0.0000
# 2 27.9021 64.0595 6.1150 0.0000 10.0493 0.0000
# 3 12.9126 6.1150 51.8162 0.0000 -9.6222 0.0000
# 4 0.0000 0.0000 0.0000 22.0563 0.0000 7.0328
# 5 -1.7713 10.0493 -9.6222 0.0000 24.7329 0.0000
# 6 0.0000 0.0000 0.0000 7.0328 0.0000 28.7881
#
#
#
# Elastic Compliance Matrix: (Units=1/GPa)
#
#
# Indices 1 2 3 4 5 6 
#
# 1 0.012528 -0.005643 -0.002009 0.000000 0.002408 0.000000
# 2 -0.005643 0.019817 -0.002698 0.000000 -0.009506 0.000000
# 3 -0.002009 -0.002698 0.021875 0.000000 0.009463 0.000000
# 4 0.000000 0.000000 0.000000 0.049169 0.000000 -0.012012
# 5 0.002408 -0.009506 0.009463 0.000000 0.048148 0.000000
# 6 0.000000 0.000000 0.000000 -0.012012 0.000000 0.037671
#
#
# Mechanical properties :
#
#
# Convention : Reuss Voigt Hill
#
# Bulk Modulus (GPa) = 29.83147 33.83698 31.83423
# Shear Modulus (GPa) = 22.61615 26.03172 24.32393
#
# Velocity S-wave (km/s) = 3.15774 3.38781 3.27480
# Velocity P-wave (km/s) = 5.14273 5.49741 5.32303
#
# Compressibility (1/GPa) = 0.03352165
#
# Stress axis : x y z
#
# Youngs Moduli (GPa) = 79.81931 50.46156 45.71395
#
# Poissons Ratio (x) = 0.28475 0.09183
# Poissons Ratio (y) = 0.45042 0.12332
# Poissons Ratio (z) = 0.16035 0.13613
#
# Static dielectric constant tensor:
#      x y z
#    x 1.866020 0.000000 0.009520 
#    y 0.000000 1.815670 0.000000 
#    z 0.009520 0.000000 1.851830 
# 
# From -- ./inp_files/15705.got.cif
#   From: 2010.05.17/outbox.cif.g08.bks.cpg/sg14_8_cif.got.tgz:15705.got - 2010.06.03 17:49:19.
