data_PCOD9247404
_publ_section_title
;
Structure prediction by ZEFSAII (Michael W. Deem and Ramdas Pophale) SiO2 
 PCOD9247404
Probable space group: P 21/C
;
_chemical_formula_sum "Si O2"
_cell_formula_units_Z 28
_cell_length_a 7.904999
_cell_length_b 11.269305
_cell_length_c 13.170541
_cell_angle_alpha 90.000000
_cell_angle_beta 83.173466
_cell_angle_gamma 90.000000
_cell_volume 1164.964524
_symmetry_space_group_name_H-M "P 21/C"
_symmetry_group_IT_number 14
_symmetry_cell_setting 'monoclinic'
loop_
_space_group_symop_operation_xyz
x,y,z
-x,1/2+y,1/2-z
-x,-y,-z
x,1/2-y,1/2+z
loop_
_atom_site_type_symbol
_atom_site_label
_atom_site_fract_x
_atom_site_fract_y
_atom_site_fract_z
Si Si1 0.880497 0.052330 0.856513
Si Si2 0.615685 0.877071 0.268952
Si Si3 0.996998 0.772978 0.541200
Si Si4 0.247372 0.624950 0.169994
Si Si5 0.231280 0.827904 0.333544
Si Si6 0.244124 0.197424 0.097246
Si Si7 0.531725 0.176375 0.933975
O O1 0.868610 0.085543 0.738160
O O2 0.699650 0.096903 0.914503
O O3 0.882302 0.913002 0.877595
O O4 0.004704 0.141689 0.907096
O O5 0.424188 0.874387 0.329616
O O6 0.725163 0.767500 0.302243
O O7 0.584717 0.864429 0.151812
O O8 0.707214 0.994487 0.300253
O O9 0.068410 0.858056 0.624137
O O10 0.135973 0.798444 0.443189
O O11 0.825246 0.781887 0.488363
O O12 0.243087 0.706336 0.269777
O O13 0.396051 0.690976 0.093558
O O14 0.429501 0.160128 0.043957
#
# Coordination Sequence:
#
# PCOD9247404 Si02
#       7
#     4   4   4   4   4   4   4
#     4   9  21  40  62  88 117 160 201 246 292 354
#     4  10  22  37  63  89 116 153 203 255 289 350
#     4  10  22  40  59  83 126 164 189 240 304 365
#     4   9  21  42  58  88 118 161 200 241 306 350
#     4   9  21  39  62  84 120 159 198 244 302 353
#     4  12  23  37  60  98 118 152 207 241 298 358
#     4   9  22  37  65  87 119 152 202 255 291 344
#
# _framework density 24.035064999999999
#
# number of rings (size 3 to 8) (size 9 to 14) (size 15 to 20)
#    0.000    2.857    0.000    2.571   10.000    5.143 
#    2.571    0.000    0.000    0.000    0.000    0.000 
#    0.000    0.000    0.000    0.000    0.000    0.000 
#
# Total GULP energy -156491.608306 kJ/mol
# GULP energy per Si atom -5588.986011 kJ/mol
# Density = 2.398036 g / cm^3
# Si number density = 24.035065 Si / 1000 Ang^3
#
#
#
# Elastic Constant Matrix: (Units=GPa)
#
#
# Indices 1 2 3 4 5 6 
#
# 1 60.4087 -0.2021 2.5916 0.0000 9.8978 0.0000
# 2 -0.2021 69.1879 25.6929 0.0000 -5.5569 0.0000
# 3 2.5916 25.6929 33.5664 0.0000 7.6742 0.0000
# 4 0.0000 0.0000 0.0000 10.5293 0.0000 -3.7289
# 5 9.8978 -5.5569 7.6742 0.0000 42.5409 0.0000
# 6 0.0000 0.0000 0.0000 -3.7289 0.0000 14.8388
#
#
#
# Elastic Compliance Matrix: (Units=1/GPa)
#
#
# Indices 1 2 3 4 5 6 
#
# 1 0.017217 -0.000157 -0.000301 0.000000 -0.003972 0.000000
# 2 -0.000157 0.021591 -0.017906 0.000000 0.006087 0.000000
# 3 -0.000301 -0.017906 0.045934 0.000000 -0.010555 0.000000
# 4 0.000000 0.000000 0.000000 0.104251 0.000000 0.026198
# 5 -0.003972 0.006087 -0.010555 0.000000 0.027130 0.000000
# 6 0.000000 0.000000 0.000000 0.026198 0.000000 0.073974
#
#
# Mechanical properties :
#
#
# Convention : Reuss Voigt Hill
#
# Bulk Modulus (GPa) = 20.82721 24.36976 22.59849
# Shear Modulus (GPa) = 14.58444 22.58718 18.58581
#
# Velocity S-wave (km/s) = 2.46600 3.06888 2.78381
# Velocity P-wave (km/s) = 4.09785 4.76640 4.44471
#
# Compressibility (1/GPa) = 0.04801411
#
# Stress axis : x y z
#
# Youngs Moduli (GPa) = 58.08175 46.31487 21.77021
#
# Poissons Ratio (x) = 0.00727 0.00655
# Poissons Ratio (y) = 0.00911 0.38982
# Poissons Ratio (z) = 0.01749 0.82933
#
# Static dielectric constant tensor:
#      x y z
#    x 1.984420 0.000000 -0.014030 
#    y 0.000000 1.927450 0.000000 
#    z -0.014030 0.000000 1.885880 
# 
# From -- ./inp_files/39708.got.cif
#   From: 2010.05.17/outbox.cif.g08.bks.cpg/sg14_20_cif.got.tgz:39708.got - 2010.06.03 17:49:19.
