data_PCOD9247106
_publ_section_title
;
Structure prediction by ZEFSAII (Michael W. Deem and Ramdas Pophale) SiO2 
 PCOD9247106
Probable space group: P 21/C
;
_chemical_formula_sum "Si O2"
_cell_formula_units_Z 20
_cell_length_a 14.294693
_cell_length_b 5.264506
_cell_length_c 20.130927
_cell_angle_alpha 90.000000
_cell_angle_beta 26.362162
_cell_angle_gamma 90.000000
_cell_volume 672.700583
_symmetry_space_group_name_H-M "P 21/C"
_symmetry_group_IT_number 14
_symmetry_cell_setting 'monoclinic'
loop_
_space_group_symop_operation_xyz
x,y,z
-x,1/2+y,1/2-z
-x,-y,-z
x,1/2-y,1/2+z
loop_
_atom_site_type_symbol
_atom_site_label
_atom_site_fract_x
_atom_site_fract_y
_atom_site_fract_z
Si Si1 0.605772 0.180864 0.870205
Si Si2 0.290009 0.580136 0.053261
Si Si3 0.051513 0.168100 0.319019
Si Si4 0.444072 0.230216 0.742830
Si Si5 0.009726 0.318000 0.564097
O O1 0.381449 0.292084 0.992757
O O2 0.763608 0.256065 0.709486
O O3 0.677350 0.332909 0.891387
O O4 0.702026 0.905977 0.829238
O O5 0.429053 0.716675 0.907112
O O6 0.053185 0.660439 0.186161
O O7 0.985062 0.419182 0.399836
O O8 0.937587 0.921863 0.422818
O O9 0.498562 0.491869 0.746155
O O10 0.189340 0.205384 0.894957
#
# Coordination Sequence:
#
# PCOD9247106 Si02
#       5
#     4   4   4   4   4
#     4   9  25  44  66 108 131 179 231 278 346 405
#     4  11  22  45  71 100 139 178 224 291 336 408
#     4  10  22  43  68  93 135 175 219 275 332 400
#     4  12  22  42  67 102 131 182 230 275 342 410
#     4  10  21  44  64  94 133 172 227 272 332 403
#
# _framework density 29.730912
#
# number of rings (size 3 to 8) (size 9 to 14) (size 15 to 20)
#    1.200    0.400    4.000    0.000    2.800    0.800 
#   10.800    3.000    0.000    0.000    0.000    0.000 
#    0.000    0.000    0.000    0.000    0.000    0.000 
#
# Total GULP energy -111854.034933 kJ/mol
# GULP energy per Si atom -5592.701747 kJ/mol
# Density = 2.966324 g / cm^3
# Si number density = 29.730912 Si / 1000 Ang^3
#
#
#
# Elastic Constant Matrix: (Units=GPa)
#
#
# Indices 1 2 3 4 5 6 
#
# 1 129.6389 44.4111 49.1884 0.0000 -10.7142 0.0000
# 2 44.4111 188.6226 33.6247 0.0000 10.9846 0.0000
# 3 49.1884 33.6247 163.7310 0.0000 -21.0888 0.0000
# 4 0.0000 0.0000 0.0000 40.0816 0.0000 24.0203
# 5 -10.7142 10.9846 -21.0888 0.0000 60.0474 0.0000
# 6 0.0000 0.0000 0.0000 24.0203 0.0000 46.9581
#
#
#
# Elastic Compliance Matrix: (Units=1/GPa)
#
#
# Indices 1 2 3 4 5 6 
#
# 1 0.009307 -0.001859 -0.002259 0.000000 0.001207 0.000000
# 2 -0.001859 0.006001 -0.000899 0.000000 -0.001745 0.000000
# 3 -0.002259 -0.000899 0.007269 0.000000 0.002314 0.000000
# 4 0.000000 0.000000 0.000000 0.035978 0.000000 -0.018404
# 5 0.001207 -0.001745 0.002314 0.000000 0.018001 0.000000
# 6 0.000000 0.000000 0.000000 -0.018404 0.000000 0.030710
#
#
# Mechanical properties :
#
#
# Convention : Reuss Voigt Hill
#
# Bulk Modulus (GPa) = 79.71826 81.82675 80.77251
# Shear Modulus (GPa) = 41.15879 53.06864 47.11371
#
# Velocity S-wave (km/s) = 3.72476 4.22947 3.98511
# Velocity P-wave (km/s) = 6.73572 7.17171 6.95713
#
# Compressibility (1/GPa) = 0.01254418
#
# Stress axis : x y z
#
# Youngs Moduli (GPa) = 107.44051 166.63474 137.57398
#
# Poissons Ratio (x) = 0.30979 0.31076
# Poissons Ratio (y) = 0.19974 0.12364
# Poissons Ratio (z) = 0.24269 0.14975
#
# Static dielectric constant tensor:
#      x y z
#    x 2.301710 0.000000 -0.078170 
#    y 0.000000 2.396350 0.000000 
#    z -0.078170 0.000000 2.402190 
# 
# From -- ./inp_files/67788.got.cif
#   From: 2010.05.17/outbox.cif.g08.bks.cpg/sg14_34_cif.got.tgz:67788.got - 2010.06.03 17:49:19.
