data_PCOD9247429
_publ_section_title
;
Structure prediction by ZEFSAII (Michael W. Deem and Ramdas Pophale) SiO2 
 PCOD9247429
Probable space group: P 21/C
;
_chemical_formula_sum "Si O2"
_cell_formula_units_Z 16
_cell_length_a 5.075088
_cell_length_b 8.002514
_cell_length_c 22.412783
_cell_angle_alpha 90.000000
_cell_angle_beta 43.733127
_cell_angle_gamma 90.000000
_cell_volume 629.263512
_symmetry_space_group_name_H-M "P 21/C"
_symmetry_group_IT_number 14
_symmetry_cell_setting 'monoclinic'
loop_
_space_group_symop_operation_xyz
x,y,z
-x,1/2+y,1/2-z
-x,-y,-z
x,1/2-y,1/2+z
loop_
_atom_site_type_symbol
_atom_site_label
_atom_site_fract_x
_atom_site_fract_y
_atom_site_fract_z
Si Si1 0.355912 0.437668 0.205770
Si Si2 0.555897 0.069603 0.887023
Si Si3 0.841474 0.123614 0.150774
Si Si4 0.600139 0.575825 0.046712
O O1 0.403773 0.575774 0.249715
O O2 0.332833 0.511320 0.143893
O O3 0.940603 0.365908 0.290726
O O4 0.690711 0.302975 0.156254
O O5 0.267394 0.003576 0.884505
O O6 0.399507 0.223348 0.950388
O O7 0.729785 0.916058 0.897269
O O8 0.500000 0.500000 0.000000
O O9 0.000000 0.500000 0.000000
#
# Coordination Sequence:
#
# PCOD9247429 Si02
#       4
#     4   4   4   4
#     4  10  24  41  72  98 135 180 238 281 338 411
#     4  10  23  42  67  97 134 176 237 273 331 423
#     4  10  22  37  73  95 129 170 247 279 325 394
#     4  12  27  44  67 101 144 179 218 287 361 402
#
# _framework density 25.426549999999999
#
# number of rings (size 3 to 8) (size 9 to 14) (size 15 to 20)
#    1.500    0.000    0.000    4.500   10.500    0.000 
#    0.000    7.500    0.000    0.000    0.000    0.000 
#    0.000    0.000    0.000    0.000    0.000    0.000 
#
# Total GULP energy -89592.199643 kJ/mol
# GULP energy per Si atom -5599.512478 kJ/mol
# Density = 2.536868 g / cm^3
# Si number density = 25.426550 Si / 1000 Ang^3
#
#
#
# Elastic Constant Matrix: (Units=GPa)
#
#
# Indices 1 2 3 4 5 6 
#
# 1 153.3887 22.0184 37.5518 0.0000 36.0104 0.0000
# 2 22.0184 90.5076 42.2970 0.0000 27.3444 0.0000
# 3 37.5518 42.2970 96.4842 0.0000 29.2908 0.0000
# 4 0.0000 0.0000 0.0000 55.0661 0.0000 3.4839
# 5 36.0104 27.3444 29.2908 0.0000 62.0652 0.0000
# 6 0.0000 0.0000 0.0000 3.4839 0.0000 46.5465
#
#
#
# Elastic Compliance Matrix: (Units=1/GPa)
#
#
# Indices 1 2 3 4 5 6 
#
# 1 0.007852 0.000134 -0.002000 0.000000 -0.003670 0.000000
# 2 0.000134 0.014706 -0.005262 0.000000 -0.004073 0.000000
# 3 -0.002000 -0.005262 0.014466 0.000000 -0.003348 0.000000
# 4 0.000000 0.000000 0.000000 0.018246 0.000000 -0.001366
# 5 -0.003670 -0.004073 -0.003348 0.000000 0.021616 0.000000
# 6 0.000000 0.000000 0.000000 -0.001366 0.000000 0.021586
#
#
# Mechanical properties :
#
#
# Convention : Reuss Voigt Hill
#
# Bulk Modulus (GPa) = 43.92509 60.45722 52.19116
# Shear Modulus (GPa) = 41.55607 48.63644 45.09626
#
# Velocity S-wave (km/s) = 4.04710 4.37833 4.21597
# Velocity P-wave (km/s) = 6.25712 7.02769 6.65357
#
# Compressibility (1/GPa) = 0.02276603
#
# Stress axis : x y z
#
# Youngs Moduli (GPa) = 127.36329 67.99867 69.12656
#
# Poissons Ratio (x) = -0.00908 0.13826
# Poissons Ratio (y) = -0.01701 0.36377
# Poissons Ratio (z) = 0.25474 0.35783
#
# Static dielectric constant tensor:
#      x y z
#    x 1.908630 0.000000 -0.029870 
#    y 0.000000 2.017880 0.000000 
#    z -0.029870 0.000000 2.090480 
# 
# From -- ./inp_files/60086.got.cif
#   From: 2010.05.17/outbox.cif.g08.bks.cpg/sg14_31_cif.got.tgz:60086.got - 2010.06.03 17:49:19.
