data_PCOD9247122
_publ_section_title
;
Structure prediction by ZEFSAII (Michael W. Deem and Ramdas Pophale) SiO2 
 PCOD9247122
Probable space group: P 21/C
;
_chemical_formula_sum "Si O2"
_cell_formula_units_Z 28
_cell_length_a 9.292016
_cell_length_b 8.129736
_cell_length_c 25.523799
_cell_angle_alpha 90.000000
_cell_angle_beta 36.229243
_cell_angle_gamma 90.000000
_cell_volume 1139.546399
_symmetry_space_group_name_H-M "P 21/C"
_symmetry_group_IT_number 14
_symmetry_cell_setting 'monoclinic'
loop_
_space_group_symop_operation_xyz
x,y,z
-x,1/2+y,1/2-z
-x,-y,-z
x,1/2-y,1/2+z
loop_
_atom_site_type_symbol
_atom_site_label
_atom_site_fract_x
_atom_site_fract_y
_atom_site_fract_z
Si Si1 0.348996 0.802853 0.156734
Si Si2 0.248457 0.407721 0.982909
Si Si3 0.951109 0.575081 0.314486
Si Si4 0.434616 0.935123 0.827578
Si Si5 0.967487 0.062045 0.924278
Si Si6 0.788789 0.587107 0.132331
Si Si7 0.499551 0.749436 0.905483
O O1 0.577266 0.743308 0.054559
O O2 0.157261 0.915600 0.182678
O O3 0.446721 0.910815 0.176495
O O4 0.206316 0.641519 0.218122
O O5 0.229732 0.398297 0.924947
O O6 0.389839 0.576187 0.953009
O O7 0.981044 0.437720 0.084812
O O8 0.750349 0.713277 0.360109
O O9 0.962557 0.530680 0.371260
O O10 0.144699 0.956369 0.909537
O O11 0.546504 0.935847 0.736807
O O12 0.513551 0.776344 0.838489
O O13 0.096898 0.240633 0.882054
O O14 0.697363 0.109778 0.021762
#
# Coordination Sequence:
#
# PCOD9247122 Si02
#       7
#     4   4   4   4   4   4   4
#     4  11  24  43  66  96 129 177 215 270 328 396
#     4  10  21  44  66  93 133 167 221 267 333 387
#     4  11  25  42  67  96 138 172 221 265 334 395
#     4  11  24  41  68 101 126 166 227 267 335 381
#     4  11  23  43  66  99 131 172 222 274 325 391
#     4  10  23  39  66 101 127 171 212 282 328 385
#     4  10  24  44  68  94 133 175 216 274 333 390
#
# _framework density 24.571178
#
# number of rings (size 3 to 8) (size 9 to 14) (size 15 to 20)
#    0.000    1.429    1.429    2.571    8.000    0.000 
#    7.714    1.429    0.000    0.000    0.000    0.000 
#    0.000    0.000    0.000    0.000    0.000    0.000 
#
# Total GULP energy -156826.059205 kJ/mol
# GULP energy per Si atom -5600.930686 kJ/mol
# Density = 2.451525 g / cm^3
# Si number density = 24.571178 Si / 1000 Ang^3
#
#
#
# Elastic Constant Matrix: (Units=GPa)
#
#
# Indices 1 2 3 4 5 6 
#
# 1 96.2811 -1.4285 -0.5020 0.0000 -8.8046 0.0000
# 2 -1.4285 68.1238 -3.4088 0.0000 2.8349 0.0000
# 3 -0.5020 -3.4088 70.1698 0.0000 -12.0783 0.0000
# 4 0.0000 0.0000 0.0000 29.3664 0.0000 -16.7369
# 5 -8.8046 2.8349 -12.0783 0.0000 25.1539 0.0000
# 6 0.0000 0.0000 0.0000 -16.7369 0.0000 12.8355
#
#
#
# Elastic Compliance Matrix: (Units=1/GPa)
#
#
# Indices 1 2 3 4 5 6 
#
# 1 0.010770 0.000093 0.000794 0.000000 0.004141 0.000000
# 2 0.000093 0.014763 0.000476 0.000000 -0.001402 0.000000
# 3 0.000794 0.000476 0.015609 0.000000 0.007719 0.000000
# 4 0.000000 0.000000 0.000000 0.132589 0.000000 0.172891
# 5 0.004141 -0.001402 0.007719 0.000000 0.045069 0.000000
# 6 0.000000 0.000000 0.000000 0.172891 0.000000 0.303352
#
#
# Mechanical properties :
#
#
# Convention : Reuss Voigt Hill
#
# Bulk Modulus (GPa) = 22.79428 24.87734 23.83581
# Shear Modulus (GPa) = 9.36245 29.46541 19.41393
#
# Velocity S-wave (km/s) = 1.95413 3.46668 2.81394
# Velocity P-wave (km/s) = 3.79321 5.11571 4.50327
#
# Compressibility (1/GPa) = 0.04387065
#
# Stress axis : x y z
#
# Youngs Moduli (GPa) = 92.84666 67.73545 64.06685
#
# Poissons Ratio (x) = -0.00632 -0.05089
# Poissons Ratio (y) = -0.00866 -0.03053
# Poissons Ratio (z) = -0.07375 -0.03227
#
# Static dielectric constant tensor:
#      x y z
#    x 1.940130 0.000000 -0.013170 
#    y 0.000000 1.988200 0.000000 
#    z -0.013170 0.000000 1.936810 
# 
# From -- ./inp_files/76316.got.cif
#   From: 2010.05.17/outbox.cif.g08.bks.cpg/sg14_39_cif.got.tgz:76316.got - 2010.06.03 17:49:19.
