data_PCOD9247549
_publ_section_title
;
Structure prediction by ZEFSAII (Michael W. Deem and Ramdas Pophale) SiO2 
 PCOD9247549
Probable space group: P 21/C
;
_chemical_formula_sum "Si O2"
_cell_formula_units_Z 30
_cell_length_a 9.204093
_cell_length_b 14.162920
_cell_length_c 21.137949
_cell_angle_alpha 90.000000
_cell_angle_beta 33.183376
_cell_angle_gamma 90.000000
_cell_volume 1508.128324
_symmetry_space_group_name_H-M "P 21/C"
_symmetry_group_IT_number 14
_symmetry_cell_setting 'monoclinic'
loop_
_space_group_symop_operation_xyz
x,y,z
-x,1/2+y,1/2-z
-x,-y,-z
x,1/2-y,1/2+z
loop_
_atom_site_type_symbol
_atom_site_label
_atom_site_fract_x
_atom_site_fract_y
_atom_site_fract_z
Si Si1 0.226449 0.898649 0.146266
Si Si2 0.202073 0.859621 0.828870
Si Si3 0.786598 0.879944 0.876421
Si Si4 0.211349 0.255146 0.243396
Si Si5 0.394982 0.940193 0.221383
Si Si6 0.801467 0.622427 0.135631
Si Si7 0.000000 0.000000 0.000000
Si Si8 0.268821 0.682729 0.885480
O O1 0.251647 0.895989 0.212898
O O2 0.996655 0.833555 0.202051
O O3 0.179292 0.008226 0.146361
O O4 0.506678 0.867387 0.013993
O O5 0.518504 0.861265 0.704468
O O6 0.112407 0.958237 0.891887
O O7 0.154240 0.782568 0.901974
O O8 0.026557 0.841339 0.831803
O O9 0.780399 0.826011 0.812335
O O10 0.145239 0.208641 0.335394
O O11 0.504313 0.297523 0.146123
O O12 0.399348 0.866407 0.277184
O O13 0.240206 0.030661 0.305720
O O14 0.690247 0.971046 0.093542
O O15 0.037694 0.620520 0.999810
#
# Coordination Sequence:
#
# PCOD9247549 Si02
#       8
#     4   4   4   4   4   4   2   4
#     4  11  24  40  69  94 132 169 216 272 331 396
#     4  10  23  37  68  94 124 166 217 268 317 387
#     4  11  23  42  64  99 129 169 216 275 332 389
#     4  11  24  41  64  96 133 172 220 267 333 392
#     4  11  22  43  65  97 126 173 217 275 321 396
#     4  10  23  43  63  93 131 170 218 272 319 388
#     4  10  22  38  68  94 126 156 224 264 320 376
#     4  11  25  40  66  93 131 173 218 269 328 382
#
# _framework density 19.892208
#
# number of rings (size 3 to 8) (size 9 to 14) (size 15 to 20)
#    0.000    1.333    2.667    2.000    7.467    1.067 
#    0.000    2.000    0.000    0.000    0.000    0.000 
#    0.000    0.000    0.000    0.000    0.000    0.000 
#
# Total GULP energy -167160.308708 kJ/mol
# GULP energy per Si atom -5572.010290 kJ/mol
# Density = 1.984693 g / cm^3
# Si number density = 19.892208 Si / 1000 Ang^3
#
#
#
# Elastic Constant Matrix: (Units=GPa)
#
#
# Indices 1 2 3 4 5 6 
#
# 1 143.5212 36.3147 44.9028 0.0000 -20.4261 0.0000
# 2 36.3147 41.1871 24.8161 0.0000 -7.7661 0.0000
# 3 44.9028 24.8161 56.0790 0.0000 -3.7075 0.0000
# 4 0.0000 0.0000 0.0000 17.9464 0.0000 -4.6877
# 5 -20.4261 -7.7661 -3.7075 0.0000 13.4732 0.0000
# 6 0.0000 0.0000 0.0000 -4.6877 0.0000 36.2029
#
#
#
# Elastic Compliance Matrix: (Units=1/GPa)
#
#
# Indices 1 2 3 4 5 6 
#
# 1 0.012199 -0.003726 -0.007169 0.000000 0.014374 0.000000
# 2 -0.003726 0.037676 -0.012860 0.000000 0.012529 0.000000
# 3 -0.007169 -0.012860 0.028574 0.000000 -0.010418 0.000000
# 4 0.000000 0.000000 0.000000 0.057672 0.000000 0.007468
# 5 0.014374 0.012529 -0.010418 0.000000 0.100367 0.000000
# 6 0.000000 0.000000 0.000000 0.007468 0.000000 0.028589
#
#
# Mechanical properties :
#
#
# Convention : Reuss Voigt Hill
#
# Bulk Modulus (GPa) = 32.32216 50.31717 41.31966
# Shear Modulus (GPa) = 15.48463 22.50808 18.99636
#
# Velocity S-wave (km/s) = 2.79306 3.36743 3.09360
# Velocity P-wave (km/s) = 5.16580 6.36155 5.79460
#
# Compressibility (1/GPa) = 0.03093853
#
# Stress axis : x y z
#
# Youngs Moduli (GPa) = 81.97430 26.54215 34.99672
#
# Poissons Ratio (x) = 0.09891 0.25087
# Poissons Ratio (y) = 0.30547 0.45007
# Poissons Ratio (z) = 0.58763 0.34134
#
# Static dielectric constant tensor:
#      x y z
#    x 1.696870 0.000000 -0.006350 
#    y 0.000000 1.765750 0.000000 
#    z -0.006350 0.000000 1.659380 
# 
# From -- ./inp_files/65921.got.cif
#   From: 2010.05.17/outbox.cif.g08.bks.cpg/sg14_33_cif.got.tgz:65921.got - 2010.06.03 17:49:19.
