data_PCOD9247469
_publ_section_title
;
Structure prediction by ZEFSAII (Michael W. Deem and Ramdas Pophale) SiO2 
 PCOD9247469
Probable space group: P 21/C
;
_chemical_formula_sum "Si O2"
_cell_formula_units_Z 24
_cell_length_a 9.756968
_cell_length_b 11.987627
_cell_length_c 10.310584
_cell_angle_alpha 90.000000
_cell_angle_beta 65.731399
_cell_angle_gamma 90.000000
_cell_volume 1099.383805
_symmetry_space_group_name_H-M "P 21/C"
_symmetry_group_IT_number 14
_symmetry_cell_setting 'monoclinic'
loop_
_space_group_symop_operation_xyz
x,y,z
-x,1/2+y,1/2-z
-x,-y,-z
x,1/2-y,1/2+z
loop_
_atom_site_type_symbol
_atom_site_label
_atom_site_fract_x
_atom_site_fract_y
_atom_site_fract_z
Si Si1 0.073646 0.354256 0.520540
Si Si2 0.678221 0.484650 0.560261
Si Si3 0.650639 0.048301 0.769846
Si Si4 0.917827 0.082369 0.347282
Si Si5 0.767514 0.249016 0.558090
Si Si6 0.829432 0.615248 0.029274
O O1 0.177636 0.455170 0.433033
O O2 0.180244 0.245687 0.493133
O O3 0.002720 0.386839 0.685486
O O4 0.928725 0.312650 0.497897
O O5 0.529129 0.552858 0.653211
O O6 0.701313 0.482860 0.395447
O O7 0.657510 0.354285 0.602260
O O8 0.729712 0.161280 0.687229
O O9 0.697049 0.949823 0.653368
O O10 0.780555 0.167689 0.428514
O O11 0.032116 0.100426 0.423368
O O12 0.866243 0.955173 0.385715
#
# Coordination Sequence:
#
# PCOD9247469 Si02
#       6
#     4   4   4   4   4   4
#     4  11  21  34  63  91 117 149 199 253 287 343
#     4  11  23  38  62  88 119 156 204 235 293 362
#     4  10  22  42  62  82 120 166 191 237 302 355
#     4   9  18  34  59  83 113 153 193 242 290 342
#     4  10  22  38  61  87 120 153 194 253 293 338
#     4   9  19  36  57  83 115 155 196 234 290 348
#
# _framework density 21.830411000000002
#
# number of rings (size 3 to 8) (size 9 to 14) (size 15 to 20)
#    0.000    2.000    1.667    2.500    4.667    0.000 
#    0.000    0.000    0.000    3.000    0.000    0.000 
#    0.000    0.000    0.000    0.000    0.000    0.000 
#
# Total GULP energy -133824.919595 kJ/mol
# GULP energy per Si atom -5576.038316 kJ/mol
# Density = 2.178072 g / cm^3
# Si number density = 21.830411 Si / 1000 Ang^3
#
#
#
# Elastic Constant Matrix: (Units=GPa)
#
#
# Indices 1 2 3 4 5 6 
#
# 1 32.4576 3.3657 2.8624 0.0000 -11.7403 0.0000
# 2 3.3657 132.6016 33.7074 0.0000 -9.4603 0.0000
# 3 2.8624 33.7074 67.6342 0.0000 -3.9089 0.0000
# 4 0.0000 0.0000 0.0000 27.9630 0.0000 -5.6654
# 5 -11.7403 -9.4603 -3.9089 0.0000 19.9193 0.0000
# 6 0.0000 0.0000 0.0000 -5.6654 0.0000 21.5391
#
#
#
# Elastic Compliance Matrix: (Units=1/GPa)
#
#
# Indices 1 2 3 4 5 6 
#
# 1 0.039248 0.000861 -0.000738 0.000000 0.023396 0.000000
# 2 0.000861 0.008873 -0.004234 0.000000 0.003891 0.000000
# 3 -0.000738 -0.004234 0.016978 0.000000 0.000886 0.000000
# 4 0.000000 0.000000 0.000000 0.037774 0.000000 0.009936
# 5 0.023396 0.003891 0.000886 0.000000 0.066014 0.000000
# 6 0.000000 0.000000 0.000000 0.009936 0.000000 0.049041
#
#
# Mechanical properties :
#
#
# Convention : Reuss Voigt Hill
#
# Bulk Modulus (GPa) = 17.58172 34.72937 26.15555
# Shear Modulus (GPa) = 20.39903 26.73480 23.56692
#
# Velocity S-wave (km/s) = 3.06016 3.50331 3.28921
# Velocity P-wave (km/s) = 4.53403 5.68397 5.14125
#
# Compressibility (1/GPa) = 0.05687725
#
# Stress axis : x y z
#
# Youngs Moduli (GPa) = 25.47898 112.69684 58.90002
#
# Poissons Ratio (x) = -0.09698 0.04345
# Poissons Ratio (y) = -0.02193 0.24937
# Poissons Ratio (z) = 0.01880 0.47714
#
# Static dielectric constant tensor:
#      x y z
#    x 1.871920 0.000000 -0.014900 
#    y 0.000000 1.868390 0.000000 
#    z -0.014900 0.000000 1.777750 
# 
# From -- ./inp_files/28465.got.cif
#   From: 2010.05.17/outbox.cif.g08.bks.cpg/sg14_15_cif.got.tgz:28465.got - 2010.06.03 17:49:19.
