data_PCOD9247689
_publ_section_title
;
Structure prediction by ZEFSAII (Michael W. Deem and Ramdas Pophale) SiO2 
 PCOD9247689
Probable space group: P 21/C
;
_chemical_formula_sum "Si O2"
_cell_formula_units_Z 32
_cell_length_a 11.460711
_cell_length_b 7.576577
_cell_length_c 30.054726
_cell_angle_alpha 90.000000
_cell_angle_beta 151.250481
_cell_angle_gamma 90.000000
_cell_volume 1255.236807
_symmetry_space_group_name_H-M "P 21/C"
_symmetry_group_IT_number 14
_symmetry_cell_setting 'monoclinic'
loop_
_space_group_symop_operation_xyz
x,y,z
-x,1/2+y,1/2-z
-x,-y,-z
x,1/2-y,1/2+z
loop_
_atom_site_type_symbol
_atom_site_label
_atom_site_fract_x
_atom_site_fract_y
_atom_site_fract_z
Si Si1 0.016180 0.201227 0.632722
Si Si2 0.642524 0.542480 0.966892
Si Si3 0.580609 0.408236 0.621943
Si Si4 0.451514 0.128871 0.321201
Si Si5 0.053974 0.946025 0.966989
Si Si6 0.787632 0.244536 0.779311
Si Si7 0.874810 0.308354 0.898980
Si Si8 0.779239 0.973913 0.105083
O O1 0.035450 0.268962 0.587249
O O2 0.897425 0.359742 0.620857
O O3 0.277508 0.217036 0.744305
O O4 0.803138 0.053766 0.558324
O O5 0.493532 0.720921 0.926732
O O6 0.481650 0.406975 0.884009
O O7 0.857506 0.615252 0.006170
O O8 0.335015 0.519072 0.548921
O O9 0.689675 0.351700 0.704841
O O10 0.774481 0.510026 0.656645
O O11 0.711338 0.168210 0.386575
O O12 0.363179 0.938804 0.273028
O O13 0.907551 0.105434 0.895562
O O14 0.000000 0.000000 0.000000
O O15 0.760318 0.368844 0.813878
O O16 0.066155 0.190499 0.860801
O O17 0.500000 0.000000 0.000000
#
# Coordination Sequence:
#
# PCOD9247689 Si02
#       8
#     4   4   4   4   4   4   4   4
#     4  11  23  41  66  96 131 174 220 272 334 397
#     4  10  23  42  61  99 134 171 225 269 334 390
#     4  10  23  44  67  92 134 177 219 283 326 391
#     4  10  22  39  65  90 142 173 211 275 333 390
#     4  11  22  39  67  99 127 175 226 260 334 411
#     4  10  23  42  62 101 128 172 230 274 339 397
#     4  11  21  40  65  93 136 177 215 269 333 398
#     4  11  20  46  68  87 130 177 218 277 335 389
#
# _framework density 25.493198
#
# number of rings (size 3 to 8) (size 9 to 14) (size 15 to 20)
#    0.000    1.500    3.750    1.875    3.500    1.500 
#   11.250    0.000    0.000    0.000    0.000    0.000 
#    0.000    0.000    0.000    0.000    0.000    0.000 
#
# Total GULP energy -178646.847929 kJ/mol
# GULP energy per Si atom -5582.713998 kJ/mol
# Density = 2.543517 g / cm^3
# Si number density = 25.493198 Si / 1000 Ang^3
#
#
#
# Elastic Constant Matrix: (Units=GPa)
#
#
# Indices 1 2 3 4 5 6 
#
# 1 73.3993 14.2067 -11.5137 0.0000 3.9604 0.0000
# 2 14.2067 90.1504 19.2658 0.0000 -11.4124 0.0000
# 3 -11.5137 19.2658 71.8534 0.0000 -3.8168 0.0000
# 4 0.0000 0.0000 0.0000 39.3848 0.0000 -10.7147
# 5 3.9604 -11.4124 -3.8168 0.0000 30.9161 0.0000
# 6 0.0000 0.0000 0.0000 -10.7147 0.0000 26.6944
#
#
#
# Elastic Compliance Matrix: (Units=1/GPa)
#
#
# Indices 1 2 3 4 5 6 
#
# 1 0.014921 -0.003375 0.003149 0.000000 -0.002768 0.000000
# 2 -0.003375 0.013038 -0.003783 0.000000 0.004778 0.000000
# 3 0.003149 -0.003783 0.015442 0.000000 0.000107 0.000000
# 4 0.000000 0.000000 0.000000 0.028503 0.000000 0.011441
# 5 -0.002768 0.004778 0.000107 0.000000 0.034477 0.000000
# 6 0.000000 0.000000 0.000000 0.011441 0.000000 0.042053
#
#
# Mechanical properties :
#
#
# Convention : Reuss Voigt Hill
#
# Bulk Modulus (GPa) = 28.26260 31.03563 29.64911
# Shear Modulus (GPa) = 29.71863 33.62868 31.67366
#
# Velocity S-wave (km/s) = 3.41801 3.63591 3.52864
# Velocity P-wave (km/s) = 5.16599 5.46141 5.31575
#
# Compressibility (1/GPa) = 0.03538245
#
# Stress axis : x y z
#
# Youngs Moduli (GPa) = 67.02158 76.70101 64.75992
#
# Poissons Ratio (x) = 0.25884 -0.20390
# Poissons Ratio (y) = 0.22617 0.24497
# Poissons Ratio (z) = -0.21103 0.29013
#
# Static dielectric constant tensor:
#      x y z
#    x 2.078140 0.000000 -0.069230 
#    y 0.000000 2.032650 0.000000 
#    z -0.069230 0.000000 2.350390 
# 
# From -- ./inp_files/79976.got.cif
#   From: 2010.05.17/outbox.cif.g08.bks.cpg/sg14_40_cif.got.tgz:79976.got - 2010.06.03 17:49:19.
