data_PCOD9247217
_publ_section_title
;
Structure prediction by ZEFSAII (Michael W. Deem and Ramdas Pophale) SiO2 
 PCOD9247217
Probable space group: P 21/C
;
_chemical_formula_sum "Si O2"
_cell_formula_units_Z 28
_cell_length_a 5.351968
_cell_length_b 18.154980
_cell_length_c 17.059680
_cell_angle_alpha 90.000000
_cell_angle_beta 44.151613
_cell_angle_gamma 90.000000
_cell_volume 1154.618016
_symmetry_space_group_name_H-M "P 21/C"
_symmetry_group_IT_number 14
_symmetry_cell_setting 'monoclinic'
loop_
_space_group_symop_operation_xyz
x,y,z
-x,1/2+y,1/2-z
-x,-y,-z
x,1/2-y,1/2+z
loop_
_atom_site_type_symbol
_atom_site_label
_atom_site_fract_x
_atom_site_fract_y
_atom_site_fract_z
Si Si1 0.357709 0.067197 0.160025
Si Si2 0.862383 0.740938 0.525984
Si Si3 0.279647 0.869100 0.493547
Si Si4 0.366338 0.462867 0.828030
Si Si5 0.643502 0.151019 0.968482
Si Si6 0.255304 0.834448 0.673589
Si Si7 0.869064 0.578471 0.765056
O O1 0.524629 0.065995 0.209303
O O2 0.135483 0.144368 0.209704
O O3 0.557539 0.074369 0.033221
O O4 0.123612 0.992633 0.217548
O O5 0.700721 0.694226 0.489857
O O6 0.500316 0.769897 0.651813
O O7 0.092614 0.817282 0.469579
O O8 0.119029 0.690812 0.519335
O O9 0.246190 0.824560 0.582445
O O10 0.689438 0.886201 0.381606
O O11 0.050991 0.942994 0.566392
O O12 0.539127 0.410463 0.854466
O O13 0.508888 0.544767 0.805762
O O14 0.908370 0.134574 0.836667
#
# Coordination Sequence:
#
# PCOD9247217 Si02
#       7
#     4   4   4   4   4   4   4
#     4  10  24  43  68  98 137 184 222 285 340 404
#     4  11  25  47  68 101 135 183 226 281 337 409
#     4  10  21  45  71 103 136 175 230 290 344 394
#     4   9  21  40  70 100 135 175 226 280 345 390
#     4  12  28  45  68 100 142 183 228 272 340 414
#     4   9  20  44  69  99 133 172 228 279 341 397
#     4  11  25  42  68 103 134 182 227 288 336 411
#
# _framework density 24.250444999999999
#
# number of rings (size 3 to 8) (size 9 to 14) (size 15 to 20)
#    0.000    1.714    1.429    0.857    6.000   10.286 
#    0.000    0.000    0.000    0.000    0.000    0.000 
#    0.000    0.000    0.000    0.000    0.000    0.000 
#
# Total GULP energy -155959.081185 kJ/mol
# GULP energy per Si atom -5569.967185 kJ/mol
# Density = 2.419525 g / cm^3
# Si number density = 24.250445 Si / 1000 Ang^3
#
#
#
# Elastic Constant Matrix: (Units=GPa)
#
#
# Indices 1 2 3 4 5 6 
#
# 1 107.5327 36.5991 18.0604 0.0000 7.5458 0.0000
# 2 36.5991 74.2070 16.2890 0.0000 -0.9190 0.0000
# 3 18.0604 16.2890 64.6181 0.0000 1.4921 0.0000
# 4 0.0000 0.0000 0.0000 9.7622 0.0000 1.3188
# 5 7.5458 -0.9190 1.4921 0.0000 12.6997 0.0000
# 6 0.0000 0.0000 0.0000 1.3188 0.0000 22.6623
#
#
#
# Elastic Compliance Matrix: (Units=1/GPa)
#
#
# Indices 1 2 3 4 5 6 
#
# 1 0.012031 -0.005636 -0.001772 0.000000 -0.007348 0.000000
# 2 -0.005636 0.016932 -0.002806 0.000000 0.004903 0.000000
# 3 -0.001772 -0.002806 0.016704 0.000000 -0.001113 0.000000
# 4 0.000000 0.000000 0.000000 0.103248 0.000000 -0.006008
# 5 -0.007348 0.004903 -0.001113 0.000000 0.083593 0.000000
# 6 0.000000 0.000000 0.000000 -0.006008 0.000000 0.044476
#
#
# Mechanical properties :
#
#
# Convention : Reuss Voigt Hill
#
# Bulk Modulus (GPa) = 39.62206 43.13942 41.38074
# Shear Modulus (GPa) = 16.34922 20.71880 18.53401
#
# Velocity S-wave (km/s) = 2.59932 2.92613 2.76755
# Velocity P-wave (km/s) = 5.03813 5.40778 5.22622
#
# Compressibility (1/GPa) = 0.02523846
#
# Stress axis : x y z
#
# Youngs Moduli (GPa) = 83.11949 59.05950 59.86589
#
# Poissons Ratio (x) = 0.33284 0.10610
# Poissons Ratio (y) = 0.46843 0.16801
# Poissons Ratio (z) = 0.14731 0.16574
#
# Static dielectric constant tensor:
#      x y z
#    x 1.986240 0.000000 -0.031410 
#    y 0.000000 2.007980 0.000000 
#    z -0.031410 0.000000 2.008970 
# 
# From -- ./inp_files/53718.got.cif
#   From: 2010.05.17/outbox.cif.g08.bks.cpg/sg14_27_cif.got.tgz:53718.got - 2010.06.03 17:49:19.
