data_PCOD9247030
_publ_section_title
;
Structure prediction by ZEFSAII (Michael W. Deem and Ramdas Pophale) SiO2 
 PCOD9247030
Probable space group: P 21/C
;
_chemical_formula_sum "Si O2"
_cell_formula_units_Z 30
_cell_length_a 5.393656
_cell_length_b 12.204902
_cell_length_c 19.259889
_cell_angle_alpha 90.000000
_cell_angle_beta 96.864213
_cell_angle_gamma 90.000000
_cell_volume 1258.772274
_symmetry_space_group_name_H-M "P 21/C"
_symmetry_group_IT_number 14
_symmetry_cell_setting 'monoclinic'
loop_
_space_group_symop_operation_xyz
x,y,z
-x,1/2+y,1/2-z
-x,-y,-z
x,1/2-y,1/2+z
loop_
_atom_site_type_symbol
_atom_site_label
_atom_site_fract_x
_atom_site_fract_y
_atom_site_fract_z
Si Si1 0.011839 0.892790 0.413861
Si Si2 0.747271 0.532298 0.660015
Si Si3 0.816431 0.299738 0.731563
Si Si4 0.328175 0.172568 0.716556
Si Si5 0.728280 0.606414 0.051734
Si Si6 0.500000 0.000000 0.000000
Si Si7 0.336297 0.736833 0.492022
Si Si8 0.073177 0.718544 0.625484
O O1 0.802659 0.897807 0.348083
O O2 0.874996 0.899062 0.483599
O O3 0.150604 0.775163 0.425091
O O4 0.206761 0.992012 0.410166
O O5 0.802980 0.417536 0.697158
O O6 0.602798 0.602607 0.713185
O O7 0.618334 0.522323 0.581148
O O8 0.996688 0.603230 0.655454
O O9 0.576883 0.230521 0.698115
O O10 0.778145 0.291648 0.814118
O O11 0.095453 0.252065 0.729047
O O12 0.834044 0.706285 0.100514
O O13 0.456385 0.648432 0.021813
O O14 0.514718 0.864467 0.981307
O O15 0.190766 0.694500 0.554826
#
# Coordination Sequence:
#
# PCOD9247030 Si02
#       8
#     4   4   4   4   4   2   4   4
#     4  10  23  41  69 100 138 186 244 303 363 433
#     4  11  25  46  69 107 141 197 241 305 374 450
#     4  11  26  45  72 101 144 193 242 300 368 444
#     4  11  26  47  68 104 144 183 248 302 363 442
#     4  10  21  43  68 102 140 183 240 301 371 428
#     4  12  24  40  72  96 146 184 236 302 362 446
#     4  11  23  41  70 107 140 194 241 307 370 445
#     4  10  23  45  69 104 145 189 244 305 373 446
#
# _framework density 23.832744000000002
#
# number of rings (size 3 to 8) (size 9 to 14) (size 15 to 20)
#    0.000    1.333    1.333    2.800    5.600    3.733 
#    2.400    0.000    0.000    0.000    0.000    0.000 
#    0.000    0.000    0.000    0.000    0.000    0.000 
#
# Total GULP energy -167058.215304 kJ/mol
# GULP energy per Si atom -5568.607177 kJ/mol
# Density = 2.377850 g / cm^3
# Si number density = 23.832744 Si / 1000 Ang^3
#
#
#
# Elastic Constant Matrix: (Units=GPa)
#
#
# Indices 1 2 3 4 5 6 
#
# 1 54.1824 21.1871 25.5716 0.0000 -0.5331 0.0000
# 2 21.1871 101.7814 29.4348 0.0000 4.3067 0.0000
# 3 25.5716 29.4348 103.8717 0.0000 22.2449 0.0000
# 4 0.0000 0.0000 0.0000 38.9836 0.0000 3.7903
# 5 -0.5331 4.3067 22.2449 0.0000 30.6152 0.0000
# 6 0.0000 0.0000 0.0000 3.7903 0.0000 20.4191
#
#
#
# Elastic Compliance Matrix: (Units=1/GPa)
#
#
# Indices 1 2 3 4 5 6 
#
# 1 0.022450 -0.003243 -0.005672 0.000000 0.004968 0.000000
# 2 -0.003243 0.011188 -0.002396 0.000000 0.000110 0.000000
# 3 -0.005672 -0.002396 0.013799 0.000000 -0.009788 0.000000
# 4 0.000000 0.000000 0.000000 0.026123 0.000000 -0.004849
# 5 0.004968 0.000110 -0.009788 0.000000 0.039846 0.000000
# 6 0.000000 0.000000 0.000000 -0.004849 0.000000 0.049874
#
#
# Mechanical properties :
#
#
# Convention : Reuss Voigt Hill
#
# Bulk Modulus (GPa) = 40.29739 45.80249 43.04994
# Shear Modulus (GPa) = 25.75015 30.24638 27.99826
#
# Velocity S-wave (km/s) = 3.29059 3.56632 3.43123
# Velocity P-wave (km/s) = 5.60200 6.01816 5.81381
#
# Compressibility (1/GPa) = 0.02481550
#
# Stress axis : x y z
#
# Youngs Moduli (GPa) = 44.54323 89.37946 72.47130
#
# Poissons Ratio (x) = 0.28988 0.41104
# Poissons Ratio (y) = 0.14446 0.17362
# Poissons Ratio (z) = 0.25264 0.21412
#
# Static dielectric constant tensor:
#      x y z
#    x 1.916970 0.000000 -0.024020 
#    y 0.000000 1.927980 0.000000 
#    z -0.024020 0.000000 1.936510 
# 
# From -- ./inp_files/63579.got.cif
#   From: 2010.05.17/outbox.cif.g08.bks.cpg/sg14_32_cif.got.tgz:63579.got - 2010.06.03 17:49:19.
