data_PCOD9247773
_publ_section_title
;
Structure prediction by ZEFSAII (Michael W. Deem and Ramdas Pophale) SiO2 
 PCOD9247773
Probable space group: P 21/C
;
_chemical_formula_sum "Si O2"
_cell_formula_units_Z 28
_cell_length_a 5.050837
_cell_length_b 32.053654
_cell_length_c 7.581508
_cell_angle_alpha 90.000000
_cell_angle_beta 89.455225
_cell_angle_gamma 90.000000
_cell_volume 1227.373844
_symmetry_space_group_name_H-M "P 21/C"
_symmetry_group_IT_number 14
_symmetry_cell_setting 'monoclinic'
loop_
_space_group_symop_operation_xyz
x,y,z
-x,1/2+y,1/2-z
-x,-y,-z
x,1/2-y,1/2+z
loop_
_atom_site_type_symbol
_atom_site_label
_atom_site_fract_x
_atom_site_fract_y
_atom_site_fract_z
Si Si1 0.318462 0.453117 0.412194
Si Si2 0.857750 0.374471 0.794736
Si Si3 0.157839 0.364874 0.449651
Si Si4 0.158712 0.832713 0.347853
Si Si5 0.808424 0.461629 0.654063
Si Si6 0.664358 0.712630 0.957353
Si Si7 0.536243 0.697468 0.348148
O O1 0.277184 0.405459 0.356365
O O2 0.611031 0.456149 0.488910
O O3 0.257283 0.491466 0.281272
O O4 0.104480 0.460388 0.572300
O O5 0.746947 0.421566 0.775906
O O6 0.685212 0.335214 0.720613
O O7 0.095299 0.375896 0.653355
O O8 0.925044 0.363849 0.994014
O O9 0.901614 0.352282 0.340381
O O10 0.332985 0.324785 0.485118
O O11 0.952772 0.793942 0.370316
O O12 0.460088 0.821582 0.384940
O O13 0.699506 0.705787 0.166561
O O14 0.507893 0.755491 0.919416
#
# Coordination Sequence:
#
# PCOD9247773 Si02
#       7
#     4   4   4   4   4   4   4
#     4   9  18  32  56  91 110 155 191 237 287 351
#     4  10  22  40  60  90 117 164 192 250 291 359
#     4  11  22  38  64  87 120 159 196 246 291 359
#     4  11  26  41  60  90 123 153 204 243 296 348
#     4   9  17  33  58  83 121 146 196 236 289 346
#     4  11  26  42  59  89 119 157 197 253 291 353
#     4  11  23  40  63  84 121 154 204 240 305 343
#
# _framework density 22.812937000000002
#
# number of rings (size 3 to 8) (size 9 to 14) (size 15 to 20)
#    0.000    1.714    2.857    0.857    6.000    1.143 
#    0.000    0.714    0.000    0.000    0.000   13.000 
#    0.000    0.000    0.000    0.000    0.000    0.000 
#
# Total GULP energy -155983.825861 kJ/mol
# GULP energy per Si atom -5570.850924 kJ/mol
# Density = 2.276101 g / cm^3
# Si number density = 22.812937 Si / 1000 Ang^3
#
#
#
# Elastic Constant Matrix: (Units=GPa)
#
#
# Indices 1 2 3 4 5 6 
#
# 1 54.0227 -9.6460 10.9604 0.0000 8.7462 0.0000
# 2 -9.6460 65.6374 6.2585 0.0000 2.1057 0.0000
# 3 10.9604 6.2585 88.0307 0.0000 7.8526 0.0000
# 4 0.0000 0.0000 0.0000 5.0034 0.0000 5.7948
# 5 8.7462 2.1057 7.8526 0.0000 26.1097 0.0000
# 6 0.0000 0.0000 0.0000 5.7948 0.0000 24.9940
#
#
#
# Elastic Compliance Matrix: (Units=1/GPa)
#
#
# Indices 1 2 3 4 5 6 
#
# 1 0.020636 0.003455 -0.002233 0.000000 -0.006520 0.000000
# 2 0.003455 0.015940 -0.001383 0.000000 -0.002027 0.000000
# 3 -0.002233 -0.001383 0.011981 0.000000 -0.002744 0.000000
# 4 0.000000 0.000000 0.000000 0.273231 0.000000 -0.063348
# 5 -0.006520 -0.002027 -0.002744 0.000000 0.041473 0.000000
# 6 0.000000 0.000000 0.000000 -0.063348 0.000000 0.054697
#
#
# Mechanical properties :
#
#
# Convention : Reuss Voigt Hill
#
# Bulk Modulus (GPa) = 20.73208 24.75964 22.74586
# Shear Modulus (GPa) = 11.51124 24.56260 18.03692
#
# Velocity S-wave (km/s) = 2.24875 3.28486 2.81489
# Velocity P-wave (km/s) = 3.98122 5.02633 4.53399
#
# Compressibility (1/GPa) = 0.04823442
#
# Stress axis : x y z
#
# Youngs Moduli (GPa) = 48.45847 62.73609 83.46703
#
# Poissons Ratio (x) = -0.21674 0.18641
# Poissons Ratio (y) = -0.16741 0.11540
# Poissons Ratio (z) = 0.10823 0.08674
#
# Static dielectric constant tensor:
#      x y z
#    x 1.909140 0.000000 -0.038640 
#    y 0.000000 1.996000 0.000000 
#    z -0.038640 0.000000 1.804310 
# 
# From -- ./inp_files/6819.got.cif
#   From: 2010.05.17/outbox.cif.g08.bks.cpg/sg14_4_cif.got.tgz:6819.got - 2010.06.03 17:49:19.
