data_PCOD9247305
_publ_section_title
;
Structure prediction by ZEFSAII (Michael W. Deem and Ramdas Pophale) SiO2 
 PCOD9247305
Probable space group: P 21/C
;
_chemical_formula_sum "Si O2"
_cell_formula_units_Z 28
_cell_length_a 6.075519
_cell_length_b 11.399630
_cell_length_c 21.191945
_cell_angle_alpha 90.000000
_cell_angle_beta 127.060332
_cell_angle_gamma 90.000000
_cell_volume 1171.247263
_symmetry_space_group_name_H-M "P 21/C"
_symmetry_group_IT_number 14
_symmetry_cell_setting 'monoclinic'
loop_
_space_group_symop_operation_xyz
x,y,z
-x,1/2+y,1/2-z
-x,-y,-z
x,1/2-y,1/2+z
loop_
_atom_site_type_symbol
_atom_site_label
_atom_site_fract_x
_atom_site_fract_y
_atom_site_fract_z
Si Si1 0.768241 0.150992 0.511982
Si Si2 0.767581 0.626683 0.002990
Si Si3 0.798946 0.795753 0.667062
Si Si4 0.074480 0.187804 0.164395
Si Si5 0.148854 0.459977 0.329249
Si Si6 0.658895 0.412787 0.757003
Si Si7 0.557303 0.463900 0.166637
O O1 0.442857 0.172459 0.478348
O O2 0.930634 0.222058 0.593890
O O3 0.946251 0.178813 0.477350
O O4 0.813922 0.010891 0.527162
O O5 0.570042 0.620002 0.906789
O O6 0.922520 0.783700 0.760574
O O7 0.065504 0.843927 0.676545
O O8 0.720005 0.664825 0.633389
O O9 0.590663 0.905242 0.641440
O O10 0.398663 0.171850 0.208530
O O11 0.930002 0.058687 0.133132
O O12 0.324399 0.525443 0.307122
O O13 0.857296 0.434039 0.244304
O O14 0.618762 0.513508 0.801764
#
# Coordination Sequence:
#
# PCOD9247305 Si02
#       7
#     4   4   4   4   4   4   4
#     4  10  22  36  54  79 104 137 175 214 263 308
#     4  10  22  36  54  79 104 137 175 214 263 308
#     4   9  18  30  46  73 100 136 170 208 262 314
#     4   9  19  29  48  73  99 137 168 213 255 312
#     4   9  18  30  46  73 100 136 170 208 262 314
#     4   8  18  30  44  72 100 132 174 204 260 308
#     4   9  19  29  48  73  99 137 168 213 255 312
#
# _framework density 23.906137000000001
#
# number of rings (size 3 to 8) (size 9 to 14) (size 15 to 20)
#    0.000    3.429    0.000    0.857   12.000    3.429 
#    0.000    0.000    0.000    0.857    0.000    2.000 
#    0.000    0.000    0.000    0.000    0.000    0.000 
#
# Total GULP energy -156145.256479 kJ/mol
# GULP energy per Si atom -5576.616303 kJ/mol
# Density = 2.385173 g / cm^3
# Si number density = 23.906137 Si / 1000 Ang^3
#
#
#
# Elastic Constant Matrix: (Units=GPa)
#
#
# Indices 1 2 3 4 5 6 
#
# 1 157.7419 22.5464 19.4024 0.0000 1.3752 0.0000
# 2 22.5464 69.1502 3.0363 0.0000 6.0517 0.0000
# 3 19.4024 3.0363 26.1531 0.0000 -0.8816 0.0000
# 4 0.0000 0.0000 0.0000 37.9032 0.0000 -0.6400
# 5 1.3752 6.0517 -0.8816 0.0000 21.5580 0.0000
# 6 0.0000 0.0000 0.0000 -0.6400 0.0000 4.3609
#
#
#
# Elastic Compliance Matrix: (Units=1/GPa)
#
#
# Indices 1 2 3 4 5 6 
#
# 1 0.007280 -0.002141 -0.005155 0.000000 -0.000074 0.000000
# 2 -0.002141 0.015546 -0.000360 0.000000 -0.004242 0.000000
# 3 -0.005155 -0.000360 0.042175 0.000000 0.002154 0.000000
# 4 0.000000 0.000000 0.000000 0.026449 0.000000 0.003881
# 5 -0.000074 -0.004242 0.002154 0.000000 0.047670 0.000000
# 6 0.000000 0.000000 0.000000 0.003881 0.000000 0.229879
#
#
# Mechanical properties :
#
#
# Convention : Reuss Voigt Hill
#
# Bulk Modulus (GPa) = 20.12444 38.11279 29.11862
# Shear Modulus (GPa) = 12.47275 26.63512 19.55393
#
# Velocity S-wave (km/s) = 2.28664 3.34152 2.86308
# Velocity P-wave (km/s) = 3.92530 5.55562 4.81004
#
# Compressibility (1/GPa) = 0.04969082
#
# Stress axis : x y z
#
# Youngs Moduli (GPa) = 137.35934 64.32382 23.71065
#
# Poissons Ratio (x) = 0.13771 0.12223
# Poissons Ratio (y) = 0.29407 0.00853
# Poissons Ratio (z) = 0.70808 0.02313
#
# Static dielectric constant tensor:
#      x y z
#    x 2.011090 0.000000 0.009060 
#    y 0.000000 1.991060 0.000000 
#    z 0.009060 0.000000 2.086540 
# 
# From -- ./inp_files/63550.got.cif
#   From: 2010.05.17/outbox.cif.g08.bks.cpg/sg14_32_cif.got.tgz:63550.got - 2010.06.03 17:49:19.
