data_PCOD9247082
_publ_section_title
;
Structure prediction by ZEFSAII (Michael W. Deem and Ramdas Pophale) SiO2 
 PCOD9247082
Probable space group: P 21/C
;
_chemical_formula_sum "Si O2"
_cell_formula_units_Z 26
_cell_length_a 28.459812
_cell_length_b 5.024740
_cell_length_c 19.640755
_cell_angle_alpha 90.000000
_cell_angle_beta 19.239232
_cell_angle_gamma 90.000000
_cell_volume 925.500440
_symmetry_space_group_name_H-M "P 21/C"
_symmetry_group_IT_number 14
_symmetry_cell_setting 'monoclinic'
loop_
_space_group_symop_operation_xyz
x,y,z
-x,1/2+y,1/2-z
-x,-y,-z
x,1/2-y,1/2+z
loop_
_atom_site_type_symbol
_atom_site_label
_atom_site_fract_x
_atom_site_fract_y
_atom_site_fract_z
Si Si1 0.567411 0.602025 0.177110
Si Si2 0.500000 0.000000 0.500000
Si Si3 0.042504 0.912118 0.525611
Si Si4 0.835401 0.300900 0.761931
Si Si5 0.653917 0.469868 0.210822
Si Si6 0.953587 0.525092 0.743586
Si Si7 0.752256 0.678879 0.689499
O O1 0.566054 0.908418 0.156981
O O2 0.598769 0.573097 0.214014
O O3 0.684170 0.435896 0.974692
O O4 0.584441 0.195629 0.326610
O O5 0.357862 0.951749 0.639621
O O6 0.105464 0.665155 0.395529
O O7 0.980373 0.827558 0.684032
O O8 0.175961 0.108797 0.358477
O O9 0.897412 0.000007 0.684894
O O10 0.903776 0.401335 0.739294
O O11 0.632524 0.692213 0.299837
O O12 0.824671 0.456738 0.968750
O O13 0.111969 0.419698 0.538952
#
# Coordination Sequence:
#
# PCOD9247082 Si02
#       7
#     4   2   4   4   4   4   4
#     4  11  28  48  75 110 149 209 260 326 404 483
#     4  12  28  48  68 108 156 206 254 328 390 484
#     4  10  21  43  72 108 143 188 253 315 398 464
#     4   9  22  42  71 106 147 188 248 320 384 471
#     4  11  28  47  74 104 152 201 264 322 400 480
#     4  10  23  43  75 109 143 196 250 322 383 479
#     4  11  26  43  72 108 144 201 244 318 392 470
#
# _framework density 28.09291
#
# number of rings (size 3 to 8) (size 9 to 14) (size 15 to 20)
#    0.000    1.538    0.000    1.846   12.923    3.692 
#    0.000    0.000    0.000    0.000    0.000    0.000 
#    0.000    0.000    0.000    0.000    0.000    0.000 
#
# Total GULP energy -144755.303492 kJ/mol
# GULP energy per Si atom -5567.511673 kJ/mol
# Density = 2.802897 g / cm^3
# Si number density = 28.092910 Si / 1000 Ang^3
#
#
#
# Elastic Constant Matrix: (Units=GPa)
#
#
# Indices 1 2 3 4 5 6 
#
# 1 87.3521 -7.7090 6.9515 0.0000 -4.9272 0.0000
# 2 -7.7090 56.3527 -9.7066 0.0000 5.1021 0.0000
# 3 6.9515 -9.7066 176.5848 0.0000 2.4755 0.0000
# 4 0.0000 0.0000 0.0000 23.6348 0.0000 -9.0879
# 5 -4.9272 5.1021 2.4755 0.0000 46.2672 0.0000
# 6 0.0000 0.0000 0.0000 -9.0879 0.0000 51.7943
#
#
#
# Elastic Compliance Matrix: (Units=1/GPa)
#
#
# Indices 1 2 3 4 5 6 
#
# 1 0.011668 0.001428 -0.000396 0.000000 0.001106 0.000000
# 2 0.001428 0.018282 0.000976 0.000000 -0.001916 0.000000
# 3 -0.000396 0.000976 0.005739 0.000000 -0.000457 0.000000
# 4 0.000000 0.000000 0.000000 0.045372 0.000000 0.007961
# 5 0.001106 -0.001916 -0.000457 0.000000 0.021967 0.000000
# 6 0.000000 0.000000 0.000000 0.007961 0.000000 0.020704
#
#
# Mechanical properties :
#
#
# Convention : Reuss Voigt Hill
#
# Bulk Modulus (GPa) = 25.18725 33.26241 29.22483
# Shear Modulus (GPa) = 37.60763 46.38950 41.99857
#
# Velocity S-wave (km/s) = 3.66278 4.06801 3.87070
# Velocity P-wave (km/s) = 5.18392 5.82502 5.51380
#
# Compressibility (1/GPa) = 0.03970263
#
# Stress axis : x y z
#
# Youngs Moduli (GPa) = 85.70548 54.69796 174.25746
#
# Poissons Ratio (x) = -0.07809 0.06907
# Poissons Ratio (y) = -0.12236 -0.17001
# Poissons Ratio (z) = 0.03397 -0.05336
#
# Static dielectric constant tensor:
#      x y z
#    x 2.382680 0.000000 -0.029400 
#    y 0.000000 3.277960 0.000000 
#    z -0.029400 0.000000 2.672640 
# 
# From -- ./inp_files/70631.got.cif
#   From: 2010.05.17/outbox.cif.g08.bks.cpg/sg14_36_cif.got.tgz:70631.got - 2010.06.03 17:49:19.
