data_PCOD9247787
_publ_section_title
;
Structure prediction by ZEFSAII (Michael W. Deem and Ramdas Pophale) SiO2 
 PCOD9247787
Probable space group: P 21/C
;
_chemical_formula_sum "Si O2"
_cell_formula_units_Z 32
_cell_length_a 11.901415
_cell_length_b 7.851378
_cell_length_c 14.499195
_cell_angle_alpha 90.000000
_cell_angle_beta 118.483056
_cell_angle_gamma 90.000000
_cell_volume 1190.848711
_symmetry_space_group_name_H-M "P 21/C"
_symmetry_group_IT_number 14
_symmetry_cell_setting 'monoclinic'
loop_
_space_group_symop_operation_xyz
x,y,z
-x,1/2+y,1/2-z
-x,-y,-z
x,1/2-y,1/2+z
loop_
_atom_site_type_symbol
_atom_site_label
_atom_site_fract_x
_atom_site_fract_y
_atom_site_fract_z
Si Si1 0.075870 0.742968 0.206972
Si Si2 0.827550 0.589036 0.063576
Si Si3 0.729242 0.219851 0.964084
Si Si4 0.647554 0.908405 0.652832
Si Si5 0.347259 0.618976 0.240486
Si Si6 0.012692 0.881299 0.885147
Si Si7 0.250019 0.250171 0.139605
Si Si8 0.457734 0.772596 0.953148
O O1 0.055347 0.712546 0.307503
O O2 0.219979 0.700992 0.236848
O O3 0.978067 0.614862 0.118241
O O4 0.028908 0.928405 0.157753
O O5 0.756052 0.729892 0.972754
O O6 0.781526 0.409489 0.007342
O O7 0.781902 0.596910 0.151133
O O8 0.653850 0.157947 0.024046
O O9 0.859542 0.115209 0.000808
O O10 0.635819 0.261627 0.842461
O O11 0.669474 0.884997 0.769456
O O12 0.570827 0.762087 0.568607
O O13 0.578988 0.084516 0.600590
O O14 0.307715 0.429289 0.197389
O O15 0.459282 0.622198 0.359683
O O16 0.896013 0.780872 0.885644
#
# Coordination Sequence:
#
# PCOD9247787 Si02
#       8
#     4   4   4   4   4   4   4   4
#     4  12  23  37  61  91 122 157 196 243 299 359
#     4  10  22  40  61  88 124 160 196 244 300 354
#     4  10  22  40  61  88 124 160 196 244 300 354
#     4  10  22  41  63  86 117 161 207 250 296 348
#     4  11  23  39  61  90 122 159 199 245 300 354
#     4  12  23  37  61  91 122 157 196 243 299 359
#     4  11  23  39  61  90 122 159 199 245 300 354
#     4  10  22  41  63  86 117 161 207 250 296 348
#
# _framework density 26.871590999999999
#
# number of rings (size 3 to 8) (size 9 to 14) (size 15 to 20)
#    0.000    1.250    2.500    3.750    0.000    6.500 
#    0.000    0.000    0.000    0.000    0.000    0.000 
#    0.000    0.000    0.000    0.000    0.000    0.000 
#
# Total GULP energy -179339.131381 kJ/mol
# GULP energy per Si atom -5604.347856 kJ/mol
# Density = 2.681043 g / cm^3
# Si number density = 26.871591 Si / 1000 Ang^3
#
#
#
# Elastic Constant Matrix: (Units=GPa)
#
#
# Indices 1 2 3 4 5 6 
#
# 1 31.1748 0.3309 2.8316 0.0000 -2.7416 0.0000
# 2 0.3309 86.1709 15.9308 0.0000 -7.4965 0.0000
# 3 2.8316 15.9308 100.1027 0.0000 -6.2327 0.0000
# 4 0.0000 0.0000 0.0000 47.6854 0.0000 5.4314
# 5 -2.7416 -7.4965 -6.2327 0.0000 50.4761 0.0000
# 6 0.0000 0.0000 0.0000 5.4314 0.0000 14.7073
#
#
#
# Elastic Compliance Matrix: (Units=1/GPa)
#
#
# Indices 1 2 3 4 5 6 
#
# 1 0.032299 0.000177 -0.000837 0.000000 0.001677 0.000000
# 2 0.000177 0.012080 -0.001829 0.000000 0.001578 0.000000
# 3 -0.000837 -0.001829 0.010364 0.000000 0.000963 0.000000
# 4 0.000000 0.000000 0.000000 0.021892 0.000000 -0.008085
# 5 0.001677 0.001578 0.000963 0.000000 0.020256 0.000000
# 6 0.000000 0.000000 0.000000 -0.008085 0.000000 0.070979
#
#
# Mechanical properties :
#
#
# Convention : Reuss Voigt Hill
#
# Bulk Modulus (GPa) = 20.09516 28.40391 24.24953
# Shear Modulus (GPa) = 26.39407 35.79745 31.09576
#
# Velocity S-wave (km/s) = 3.13745 3.65385 3.40545
# Velocity P-wave (km/s) = 4.54085 5.32860 4.95042
#
# Compressibility (1/GPa) = 0.04976323
#
# Stress axis : x y z
#
# Youngs Moduli (GPa) = 30.96085 82.78432 96.48354
#
# Poissons Ratio (x) = -0.01462 0.08079
# Poissons Ratio (y) = -0.00547 0.17648
# Poissons Ratio (z) = 0.02592 0.15143
#
# Static dielectric constant tensor:
#      x y z
#    x 2.062450 0.000000 0.026130 
#    y 0.000000 2.099810 0.000000 
#    z 0.026130 0.000000 2.127830 
# 
# From -- ./inp_files/46517.got.cif
#   From: 2010.05.17/outbox.cif.g08.bks.cpg/sg14_24_cif.got.tgz:46517.got - 2010.06.03 17:49:19.
