data_PCOD9247098
_publ_section_title
;
Structure prediction by ZEFSAII (Michael W. Deem and Ramdas Pophale) SiO2 
 PCOD9247098
Probable space group: P 21/C
;
_chemical_formula_sum "Si O2"
_cell_formula_units_Z 28
_cell_length_a 13.783462
_cell_length_b 14.093993
_cell_length_c 8.378174
_cell_angle_alpha 90.000000
_cell_angle_beta 135.264167
_cell_angle_gamma 90.000000
_cell_volume 1145.552852
_symmetry_space_group_name_H-M "P 21/C"
_symmetry_group_IT_number 14
_symmetry_cell_setting 'monoclinic'
loop_
_space_group_symop_operation_xyz
x,y,z
-x,1/2+y,1/2-z
-x,-y,-z
x,1/2-y,1/2+z
loop_
_atom_site_type_symbol
_atom_site_label
_atom_site_fract_x
_atom_site_fract_y
_atom_site_fract_z
Si Si1 0.897335 0.389434 0.357566
Si Si2 0.302350 0.678988 0.095178
Si Si3 0.643769 0.866766 0.552155
Si Si4 0.670793 0.106041 0.815018
Si Si5 0.093646 0.065575 0.329135
Si Si6 0.247122 0.508389 0.275861
Si Si7 0.394226 0.344764 0.626209
O O1 0.758578 0.434367 0.272107
O O2 0.960532 0.466261 0.310127
O O3 0.994747 0.362294 0.618039
O O4 0.834176 0.310216 0.171007
O O5 0.286718 0.588964 0.193090
O O6 0.441564 0.659328 0.159990
O O7 0.323123 0.780456 0.198943
O O8 0.756029 0.911895 0.566620
O O9 0.670963 0.864003 0.775356
O O10 0.640556 0.757317 0.488785
O O11 0.491502 0.913776 0.353675
O O12 0.757236 0.069565 0.068016
O O13 0.119226 0.048276 0.545361
O O14 0.353147 0.425765 0.451842
#
# Coordination Sequence:
#
# PCOD9247098 Si02
#       7
#     4   4   4   4   4   4   4
#     4  10  21  44  63  89 131 173 216 266 328 395
#     4  10  22  40  64  98 126 169 217 273 327 383
#     4  11  24  41  65  97 135 169 222 271 333 382
#     4  11  23  38  69  96 127 166 220 278 320 392
#     4  10  24  42  64  91 134 176 211 271 329 397
#     4  11  24  38  66  99 132 169 219 268 333 386
#     4  11  23  40  65  98 132 170 218 277 322 391
#
# _framework density 24.442347000000002
#
# number of rings (size 3 to 8) (size 9 to 14) (size 15 to 20)
#    0.000    1.429    1.429    3.000   12.000    1.714 
#    5.143    1.429    0.000    0.000    0.000    0.000 
#    0.000    0.000    0.000    0.000    0.000    0.000 
#
# Total GULP energy -156195.892741 kJ/mol
# GULP energy per Si atom -5578.424741 kJ/mol
# Density = 2.438672 g / cm^3
# Si number density = 24.442347 Si / 1000 Ang^3
#
#
#
# Elastic Constant Matrix: (Units=GPa)
#
#
# Indices 1 2 3 4 5 6 
#
# 1 53.2068 5.6751 14.8004 0.0000 -10.0054 0.0000
# 2 5.6751 81.6937 38.9074 0.0000 -16.2124 0.0000
# 3 14.8004 38.9074 163.8668 0.0000 -10.0199 0.0000
# 4 0.0000 0.0000 0.0000 30.2894 0.0000 -4.7038
# 5 -10.0054 -16.2124 -10.0199 0.0000 20.1294 0.0000
# 6 0.0000 0.0000 0.0000 -4.7038 0.0000 25.9031
#
#
#
# Elastic Compliance Matrix: (Units=1/GPa)
#
#
# Indices 1 2 3 4 5 6 
#
# 1 0.021127 0.001446 -0.001587 0.000000 0.010877 0.000000
# 2 0.001446 0.016061 -0.003207 0.000000 0.012058 0.000000
# 3 -0.001587 -0.003207 0.007015 0.000000 0.000120 0.000000
# 4 0.000000 0.000000 0.000000 0.033973 0.000000 0.006169
# 5 0.010877 0.012058 0.000120 0.000000 0.064856 0.000000
# 6 0.000000 0.000000 0.000000 0.006169 0.000000 0.039726
#
#
# Mechanical properties :
#
#
# Convention : Reuss Voigt Hill
#
# Bulk Modulus (GPa) = 26.66057 46.39255 36.52656
# Shear Modulus (GPa) = 24.75819 31.22334 27.99076
#
# Velocity S-wave (km/s) = 3.18610 3.57799 3.38771
# Velocity P-wave (km/s) = 4.94633 6.00757 5.50260
#
# Compressibility (1/GPa) = 0.03750857
#
# Stress axis : x y z
#
# Youngs Moduli (GPa) = 47.33288 62.26438 142.56109
#
# Poissons Ratio (x) = -0.09006 0.22618
# Poissons Ratio (y) = -0.06846 0.45714
# Poissons Ratio (z) = 0.07510 0.19966
#
# Static dielectric constant tensor:
#      x y z
#    x 1.961130 0.000000 0.006090 
#    y 0.000000 1.934590 0.000000 
#    z 0.006090 0.000000 2.009540 
# 
# From -- ./inp_files/16440.got.cif
#   From: 2010.05.17/outbox.cif.g08.bks.cpg/sg14_9_cif.got.tgz:16440.got - 2010.06.03 17:49:19.
