data_PCOD9247303
_publ_section_title
;
Structure prediction by ZEFSAII (Michael W. Deem and Ramdas Pophale) SiO2 
 PCOD9247303
Probable space group: P 21/C
;
_chemical_formula_sum "Si O2"
_cell_formula_units_Z 28
_cell_length_a 26.148159
_cell_length_b 10.890702
_cell_length_c 8.901852
_cell_angle_alpha 90.000000
_cell_angle_beta 144.523188
_cell_angle_gamma 90.000000
_cell_volume 1471.244605
_symmetry_space_group_name_H-M "P 21/C"
_symmetry_group_IT_number 14
_symmetry_cell_setting 'monoclinic'
loop_
_space_group_symop_operation_xyz
x,y,z
-x,1/2+y,1/2-z
-x,-y,-z
x,1/2-y,1/2+z
loop_
_atom_site_type_symbol
_atom_site_label
_atom_site_fract_x
_atom_site_fract_y
_atom_site_fract_z
Si Si1 0.585694 0.082888 0.673995
Si Si2 0.427589 0.400455 0.290581
Si Si3 0.940117 0.900933 0.660932
Si Si4 0.938882 0.637495 0.516500
Si Si5 0.751370 0.644717 0.226673
Si Si6 0.484855 0.740976 0.256252
Si Si7 0.251360 0.099689 0.927403
O O1 0.568479 0.143540 0.470841
O O2 0.579822 0.189053 0.785021
O O3 0.500000 0.000000 0.500000
O O4 0.673283 0.002902 0.897205
O O5 0.500000 0.500000 0.500000
O O6 0.466378 0.331650 0.239802
O O7 0.436483 0.314359 0.456515
O O8 0.328640 0.440372 0.020935
O O9 0.968077 0.774232 0.642276
O O10 0.843484 0.935790 0.367301
O O11 0.934530 0.867520 0.824846
O O12 0.001824 0.020838 0.792478
O O13 0.842450 0.621002 0.359310
O O14 0.761786 0.635874 0.429773
O O15 0.721686 0.781173 0.105122
#
# Coordination Sequence:
#
# PCOD9247303 Si02
#       7
#     4   4   4   4   4   4   4
#     4  11  22  38  57  81 116 156 194 241 290 344
#     4  11  21  35  54  79 111 148 187 231 279 329
#     4  10  22  41  63  91 118 153 196 245 300 362
#     4  10  22  40  64  90 120 151 194 246 302 360
#     4  11  21  35  59  88 112 147 195 239 285 345
#     4  10  22  36  53  79 113 150 193 234 281 338
#     4  11  22  37  60  86 115 149 192 238 290 347
#
# _framework density 19.031506
#
# number of rings (size 3 to 8) (size 9 to 14) (size 15 to 20)
#    0.000    1.429    0.000    8.571    0.000    5.714 
#    0.000    7.143    0.000    0.000    0.000    0.000 
#    0.000    0.000    0.000    0.000    0.000    0.000 
#
# Total GULP energy -156370.598780 kJ/mol
# GULP energy per Si atom -5584.664242 kJ/mol
# Density = 1.898819 g / cm^3
# Si number density = 19.031506 Si / 1000 Ang^3
#
#
#
# Elastic Constant Matrix: (Units=GPa)
#
#
# Indices 1 2 3 4 5 6 
#
# 1 83.6200 47.3064 59.5718 0.0000 -17.5387 0.0000
# 2 47.3064 91.3553 75.1700 0.0000 1.4252 0.0000
# 3 59.5718 75.1700 147.0328 0.0000 -6.7106 0.0000
# 4 0.0000 0.0000 0.0000 41.2036 0.0000 4.9371
# 5 -17.5387 1.4252 -6.7106 0.0000 33.2750 0.0000
# 6 0.0000 0.0000 0.0000 4.9371 0.0000 16.8123
#
#
#
# Elastic Compliance Matrix: (Units=1/GPa)
#
#
# Indices 1 2 3 4 5 6 
#
# 1 0.021794 -0.007945 -0.004268 0.000000 0.010967 0.000000
# 2 -0.007945 0.022050 -0.008365 0.000000 -0.006819 0.000000
# 3 -0.004268 -0.008365 0.012839 0.000000 0.000698 0.000000
# 4 0.000000 0.000000 0.000000 0.025155 0.000000 -0.007387
# 5 0.010967 -0.006819 0.000698 0.000000 0.036266 0.000000
# 6 0.000000 0.000000 0.000000 -0.007387 0.000000 0.061650
#
#
# Mechanical properties :
#
#
# Convention : Reuss Voigt Hill
#
# Bulk Modulus (GPa) = 64.40376 76.23383 70.31880
# Shear Modulus (GPa) = 22.11553 27.58884 24.85218
#
# Velocity S-wave (km/s) = 3.41258 3.81154 3.61757
# Velocity P-wave (km/s) = 7.03148 7.71454 7.38091
#
# Compressibility (1/GPa) = 0.01552704
#
# Stress axis : x y z
#
# Youngs Moduli (GPa) = 45.88347 45.35138 77.88889
#
# Poissons Ratio (x) = 0.36033 0.33240
# Poissons Ratio (y) = 0.36456 0.65155
# Poissons Ratio (z) = 0.19582 0.37937
#
# Static dielectric constant tensor:
#      x y z
#    x 1.658110 0.000000 -0.001200 
#    y 0.000000 8.537450 0.000000 
#    z -0.001200 0.000000 1.660000 
# 
# From -- ./inp_files/19825.got.cif
#   From: 2010.05.17/outbox.cif.g08.bks.cpg/sg14_10_cif.got.tgz:19825.got - 2010.06.03 17:49:19.
