data_PCOD9247851
_publ_section_title
;
Structure prediction by ZEFSAII (Michael W. Deem and Ramdas Pophale) SiO2 
 PCOD9247851
Probable space group: P 21/C
;
_chemical_formula_sum "Si O2"
_cell_formula_units_Z 20
_cell_length_a 10.430090
_cell_length_b 5.037584
_cell_length_c 22.117124
_cell_angle_alpha 90.000000
_cell_angle_beta 39.368805
_cell_angle_gamma 90.000000
_cell_volume 737.123679
_symmetry_space_group_name_H-M "P 21/C"
_symmetry_group_IT_number 14
_symmetry_cell_setting 'monoclinic'
loop_
_space_group_symop_operation_xyz
x,y,z
-x,1/2+y,1/2-z
-x,-y,-z
x,1/2-y,1/2+z
loop_
_atom_site_type_symbol
_atom_site_label
_atom_site_fract_x
_atom_site_fract_y
_atom_site_fract_z
Si Si1 0.423881 0.772629 0.178581
Si Si2 0.205498 0.242915 0.045753
Si Si3 0.032166 0.768637 0.050688
Si Si4 0.873658 0.580453 0.296902
Si Si5 0.335928 0.909647 0.347319
O O1 0.237696 0.909923 0.213669
O O2 0.476717 0.465072 0.175579
O O3 0.416260 0.867936 0.250859
O O4 0.601951 0.822992 0.065417
O O5 0.129649 0.538364 0.057997
O O6 0.032048 0.040919 0.086861
O O7 0.248728 0.180708 0.099772
O O8 0.821888 0.655200 0.102891
O O9 0.187715 0.787922 0.937392
O O10 0.968144 0.854579 0.238680
#
# Coordination Sequence:
#
# PCOD9247851 Si02
#       5
#     4   4   4   4   4
#     4  11  24  41  68 101 137 174 222 275 331 393
#     4  11  23  44  68  98 130 172 221 273 327 390
#     4  10  23  42  69  96 134 173 216 267 329 397
#     4  12  27  47  70  95 132 179 227 276 329 392
#     4  10  22  40  64 100 135 174 215 268 331 394
#
# _framework density 27.132487000000001
#
# number of rings (size 3 to 8) (size 9 to 14) (size 15 to 20)
#    0.000    1.200    0.000    5.400    0.000   15.200 
#    0.000    7.000    0.000    0.000    0.000    0.000 
#    0.000    0.000    0.000    0.000    0.000    0.000 
#
# Total GULP energy -111853.806116 kJ/mol
# GULP energy per Si atom -5592.690306 kJ/mol
# Density = 2.707073 g / cm^3
# Si number density = 27.132487 Si / 1000 Ang^3
#
#
#
# Elastic Constant Matrix: (Units=GPa)
#
#
# Indices 1 2 3 4 5 6 
#
# 1 86.7610 8.1690 40.4956 0.0000 38.2811 0.0000
# 2 8.1690 107.4738 25.7464 0.0000 11.5392 0.0000
# 3 40.4956 25.7464 184.2940 0.0000 37.3473 0.0000
# 4 0.0000 0.0000 0.0000 28.1981 0.0000 11.2415
# 5 38.2811 11.5392 37.3473 0.0000 42.3992 0.0000
# 6 0.0000 0.0000 0.0000 11.2415 0.0000 39.2052
#
#
#
# Elastic Compliance Matrix: (Units=1/GPa)
#
#
# Indices 1 2 3 4 5 6 
#
# 1 0.019301 0.000554 -0.000921 0.000000 -0.016766 0.000000
# 2 0.000554 0.009750 -0.001028 0.000000 -0.002248 0.000000
# 3 -0.000921 -0.001028 0.006752 0.000000 -0.004836 0.000000
# 4 0.000000 0.000000 0.000000 0.040040 0.000000 -0.011481
# 5 -0.016766 -0.002248 -0.004836 0.000000 0.043595 0.000000
# 6 0.000000 0.000000 0.000000 -0.011481 0.000000 0.028799
#
#
# Mechanical properties :
#
#
# Convention : Reuss Voigt Hill
#
# Bulk Modulus (GPa) = 30.29140 58.59454 44.44297
# Shear Modulus (GPa) = 30.85795 42.23502 36.54649
#
# Velocity S-wave (km/s) = 3.37606 3.94968 3.67408
# Velocity P-wave (km/s) = 5.13668 6.51480 5.86635
#
# Compressibility (1/GPa) = 0.03301267
#
# Stress axis : x y z
#
# Youngs Moduli (GPa) = 51.81033 102.56221 148.09961
#
# Poissons Ratio (x) = -0.05678 0.13637
# Poissons Ratio (y) = -0.02869 0.15229
# Poissons Ratio (z) = 0.04771 0.10546
#
# Static dielectric constant tensor:
#      x y z
#    x 2.185220 0.000000 -0.044040 
#    y 0.000000 2.190000 0.000000 
#    z -0.044040 0.000000 2.101790 
# 
# From -- ./inp_files/72704.got.cif
#   From: 2010.05.17/outbox.cif.g08.bks.cpg/sg14_37_cif.got.tgz:72704.got - 2010.06.03 17:49:19.
