data_PCOD9247980
_publ_section_title
;
Structure prediction by ZEFSAII (Michael W. Deem and Ramdas Pophale) SiO2 
 PCOD9247980
Probable space group: P 21/C
;
_chemical_formula_sum "Si O2"
_cell_formula_units_Z 32
_cell_length_a 12.565227
_cell_length_b 5.661496
_cell_length_c 22.004996
_cell_angle_alpha 90.000000
_cell_angle_beta 63.976415
_cell_angle_gamma 90.000000
_cell_volume 1406.681534
_symmetry_space_group_name_H-M "P 21/C"
_symmetry_group_IT_number 14
_symmetry_cell_setting 'monoclinic'
loop_
_space_group_symop_operation_xyz
x,y,z
-x,1/2+y,1/2-z
-x,-y,-z
x,1/2-y,1/2+z
loop_
_atom_site_type_symbol
_atom_site_label
_atom_site_fract_x
_atom_site_fract_y
_atom_site_fract_z
Si Si1 0.165754 0.902887 0.595035
Si Si2 0.116624 0.935021 0.005390
Si Si3 0.287231 0.707285 0.685118
Si Si4 0.309109 0.152559 0.454041
Si Si5 0.500643 0.999658 0.927409
Si Si6 0.313702 0.755094 0.388954
Si Si7 0.566828 0.065532 0.247270
Si Si8 0.028547 0.894769 0.277826
O O1 0.110527 0.676107 0.573859
O O2 0.234482 0.831555 0.638589
O O3 0.057515 0.071899 0.642397
O O4 0.261920 0.006646 0.524157
O O5 0.211675 0.143513 0.977961
O O6 0.181188 0.743655 0.947306
O O7 0.000000 0.000000 0.000000
O O8 0.372956 0.501885 0.637324
O O9 0.368321 0.876883 0.705948
O O10 0.170723 0.620708 0.750829
O O11 0.438376 0.250001 0.433096
O O12 0.328007 0.034451 0.382998
O O13 0.410754 0.821680 0.915848
O O14 0.500000 0.000000 0.000000
O O15 0.330663 0.586284 0.329143
O O16 0.494260 0.308814 0.245882
O O17 0.006668 0.142959 0.245622
#
# Coordination Sequence:
#
# PCOD9247980 Si02
#       8
#     4   4   4   4   4   4   4   4
#     4  10  24  44  68 103 138 184 240 299 358 434
#     4  10  23  43  69 101 135 180 236 301 363 423
#     4  11  24  46  69 104 142 194 236 299 367 426
#     4  10  22  40  70  95 144 174 236 298 353 439
#     4  11  22  39  67 102 136 176 235 292 363 424
#     4  10  23  43  62  99 135 181 231 292 359 429
#     4  12  27  47  70 103 147 189 243 293 352 448
#     4  10  25  45  70 103 145 188 243 298 357 433
#
# _framework density 22.748574999999999
#
# number of rings (size 3 to 8) (size 9 to 14) (size 15 to 20)
#    0.000    1.500    1.250    3.000    7.000    9.000 
#    6.750    0.000    0.000    0.000    0.000    0.000 
#    0.000    0.000    0.000    0.000    0.000    0.000 
#
# Total GULP energy -178175.349861 kJ/mol
# GULP energy per Si atom -5567.979683 kJ/mol
# Density = 2.269680 g / cm^3
# Si number density = 22.748575 Si / 1000 Ang^3
#
#
#
# Elastic Constant Matrix: (Units=GPa)
#
#
# Indices 1 2 3 4 5 6 
#
# 1 124.1967 22.6019 29.2476 0.0000 -0.9802 0.0000
# 2 22.6019 72.9935 18.3518 0.0000 3.3753 0.0000
# 3 29.2476 18.3518 75.5933 0.0000 -8.2705 0.0000
# 4 0.0000 0.0000 0.0000 37.1259 0.0000 -7.1864
# 5 -0.9802 3.3753 -8.2705 0.0000 45.6390 0.0000
# 6 0.0000 0.0000 0.0000 -7.1864 0.0000 13.6114
#
#
#
# Elastic Compliance Matrix: (Units=1/GPa)
#
#
# Indices 1 2 3 4 5 6 
#
# 1 0.009145 -0.002052 -0.003063 0.000000 -0.000207 0.000000
# 2 -0.002052 0.015190 -0.003083 0.000000 -0.001726 0.000000
# 3 -0.003063 -0.003083 0.015487 0.000000 0.002969 0.000000
# 4 0.000000 0.000000 0.000000 0.030001 0.000000 0.015840
# 5 -0.000207 -0.001726 0.002969 0.000000 0.022572 0.000000
# 6 0.000000 0.000000 0.000000 0.015840 0.000000 0.081831
#
#
# Mechanical properties :
#
#
# Convention : Reuss Voigt Hill
#
# Bulk Modulus (GPa) = 42.68560 45.90956 44.29758
# Shear Modulus (GPa) = 25.19785 32.78074 28.98930
#
# Velocity S-wave (km/s) = 3.33177 3.80017 3.57365
# Velocity P-wave (km/s) = 5.79705 6.28332 6.04508
#
# Compressibility (1/GPa) = 0.02342710
#
# Stress axis : x y z
#
# Youngs Moduli (GPa) = 109.35189 65.83241 64.57110
#
# Poissons Ratio (x) = 0.13509 0.19776
# Poissons Ratio (y) = 0.22440 0.19905
# Poissons Ratio (z) = 0.33490 0.20293
#
# Static dielectric constant tensor:
#      x y z
#    x 1.651560 0.000000 -0.276660 
#    y 0.000000 2.627330 0.000000 
#    z -0.276660 0.000000 1.686050 
# 
# From -- ./inp_files/72745.got.cif
#   From: 2010.05.17/outbox.cif.g08.bks.cpg/sg14_37_cif.got.tgz:72745.got - 2010.06.03 17:49:19.
