data_PCOD9247166
_publ_section_title
;
Structure prediction by ZEFSAII (Michael W. Deem and Ramdas Pophale) SiO2 
 PCOD9247166
Probable space group: P 21/C
;
_chemical_formula_sum "Si O2"
_cell_formula_units_Z 28
_cell_length_a 9.281662
_cell_length_b 17.440109
_cell_length_c 8.231290
_cell_angle_alpha 90.000000
_cell_angle_beta 47.570662
_cell_angle_gamma 90.000000
_cell_volume 983.476346
_symmetry_space_group_name_H-M "P 21/C"
_symmetry_group_IT_number 14
_symmetry_cell_setting 'monoclinic'
loop_
_space_group_symop_operation_xyz
x,y,z
-x,1/2+y,1/2-z
-x,-y,-z
x,1/2-y,1/2+z
loop_
_atom_site_type_symbol
_atom_site_label
_atom_site_fract_x
_atom_site_fract_y
_atom_site_fract_z
Si Si1 0.969959 0.368356 0.559030
Si Si2 0.497203 0.530291 0.741319
Si Si3 0.828374 0.582829 0.294928
Si Si4 0.282963 0.721960 0.451800
Si Si5 0.296340 0.233210 0.957836
Si Si6 0.711626 0.596549 0.898289
Si Si7 0.843516 0.137043 0.626368
O O1 0.000565 0.417060 0.697619
O O2 0.116347 0.295854 0.484211
O O3 0.761404 0.337112 0.662981
O O4 0.067617 0.414463 0.336306
O O5 0.671617 0.521653 0.477048
O O6 0.396256 0.453808 0.884045
O O7 0.593108 0.574607 0.822661
O O8 0.327759 0.581789 0.797636
O O9 0.497425 0.757234 0.289246
O O10 0.706843 0.662646 0.411287
O O11 0.146790 0.794404 0.514237
O O12 0.218023 0.678972 0.662135
O O13 0.279473 0.316041 0.049444
O O14 0.047873 0.408743 0.962906
#
# Coordination Sequence:
#
# PCOD9247166 Si02
#       7
#     4   4   4   4   4   4   4
#     4   9  22  43  68 103 137 180 238 298 347 426
#     4  10  23  45  69 104 150 188 238 294 361 446
#     4   9  21  45  70  99 140 184 235 300 355 419
#     4  12  25  40  70 107 140 183 243 308 362 418
#     4  10  23  42  73 102 139 187 240 296 358 418
#     4  10  21  44  72 103 144 194 234 296 365 421
#     4  12  25  41  68 106 141 183 244 299 362 430
#
# _framework density 28.470435999999999
#
# number of rings (size 3 to 8) (size 9 to 14) (size 15 to 20)
#    0.857    0.857    1.429    1.714    8.000    2.286 
#    2.571    3.571    0.000    0.000    0.000    0.000 
#    0.000    0.000    0.000    0.000    0.000    0.000 
#
# Total GULP energy -156842.818511 kJ/mol
# GULP energy per Si atom -5601.529233 kJ/mol
# Density = 2.840564 g / cm^3
# Si number density = 28.470436 Si / 1000 Ang^3
#
#
#
# Elastic Constant Matrix: (Units=GPa)
#
#
# Indices 1 2 3 4 5 6 
#
# 1 124.3227 38.9928 28.3382 0.0000 -15.9155 0.0000
# 2 38.9928 116.6681 -0.0929 0.0000 14.6302 0.0000
# 3 28.3382 -0.0929 100.9913 0.0000 -10.2482 0.0000
# 4 0.0000 0.0000 0.0000 49.9025 0.0000 4.2249
# 5 -15.9155 14.6302 -10.2482 0.0000 31.4725 0.0000
# 6 0.0000 0.0000 0.0000 4.2249 0.0000 50.8156
#
#
#
# Elastic Compliance Matrix: (Units=1/GPa)
#
#
# Indices 1 2 3 4 5 6 
#
# 1 0.010860 -0.004485 -0.002361 0.000000 0.006808 0.000000
# 2 -0.004485 0.010973 0.000539 0.000000 -0.007194 0.000000
# 3 -0.002361 0.000539 0.010774 0.000000 0.002064 0.000000
# 4 0.000000 0.000000 0.000000 0.020181 0.000000 -0.001678
# 5 0.006808 -0.007194 0.002064 0.000000 0.039233 0.000000
# 6 0.000000 0.000000 0.000000 -0.001678 0.000000 0.019818
#
#
# Mechanical properties :
#
#
# Convention : Reuss Voigt Hill
#
# Bulk Modulus (GPa) = 50.01810 52.93982 51.47896
# Shear Modulus (GPa) = 38.13360 44.75440 41.44400
#
# Velocity S-wave (km/s) = 3.66377 3.96910 3.81948
# Velocity P-wave (km/s) = 5.95854 6.29603 6.12961
#
# Compressibility (1/GPa) = 0.01999276
#
# Stress axis : x y z
#
# Youngs Moduli (GPa) = 92.08116 91.13372 92.81448
#
# Poissons Ratio (x) = 0.40876 0.21910
# Poissons Ratio (y) = 0.41301 -0.05000
# Poissons Ratio (z) = 0.21736 -0.04909
#
# Static dielectric constant tensor:
#      x y z
#    x 2.218640 0.000000 0.068800 
#    y 0.000000 2.266490 0.000000 
#    z 0.068800 0.000000 2.258390 
# 
# From -- ./inp_files/25760.got.cif
#   From: 2010.05.17/outbox.cif.g08.bks.cpg/sg14_13_cif.got.tgz:25760.got - 2010.06.03 17:49:19.
