data_PCOD9247462
_publ_section_title
;
Structure prediction by ZEFSAII (Michael W. Deem and Ramdas Pophale) SiO2 
 PCOD9247462
Probable space group: P 21/C
;
_chemical_formula_sum "Si O2"
_cell_formula_units_Z 28
_cell_length_a 8.406845
_cell_length_b 17.347909
_cell_length_c 8.009053
_cell_angle_alpha 90.000000
_cell_angle_beta 90.000246
_cell_angle_gamma 90.000000
_cell_volume 1168.049757
_symmetry_space_group_name_H-M "P 21/C"
_symmetry_group_IT_number 14
_symmetry_cell_setting 'monoclinic'
loop_
_space_group_symop_operation_xyz
x,y,z
-x,1/2+y,1/2-z
-x,-y,-z
x,1/2-y,1/2+z
loop_
_atom_site_type_symbol
_atom_site_label
_atom_site_fract_x
_atom_site_fract_y
_atom_site_fract_z
Si Si1 0.009537 0.771371 0.063220
Si Si2 0.716104 0.824068 0.637244
Si Si3 0.750001 0.999999 0.096823
Si Si4 0.546817 0.092625 0.822144
Si Si5 0.953183 0.592625 0.322143
Si Si6 0.509536 0.771371 0.936776
Si Si7 0.783895 0.324067 0.137247
O O1 0.106586 0.818277 0.199781
O O2 0.834727 0.748991 0.122273
O O3 0.101075 0.691917 0.017615
O O4 0.996620 0.823309 0.897551
O O5 0.831843 0.896023 0.668310
O O6 0.606592 0.818274 0.800219
O O7 0.601067 0.808084 0.482386
O O8 0.884399 0.045573 0.199887
O O9 0.615604 0.954425 0.199887
O O10 0.648868 0.054611 0.972744
O O11 0.851133 0.945386 0.972744
O O12 0.668156 0.103978 0.668312
O O13 0.503383 0.176691 0.897557
O O14 0.334727 0.748993 0.877715
#
# Coordination Sequence:
#
# PCOD9247462 Si02
#       7
#     4   4   4   4   4   4   4
#     4  12  22  38  63  96 125 155 196 261 319 364
#     4  12  22  38  61  97 126 156 198 256 321 362
#     4  10  22  38  60  90 118 168 210 254 270 380
#     4  11  21  38  62  92 119 157 210 247 303 352
#     4  11  21  38  62  92 119 157 210 247 303 352
#     4  12  22  38  63  96 125 155 196 261 319 364
#     4  12  22  38  61  97 126 156 198 256 321 362
#
# _framework density 23.971582000000001
#
# number of rings (size 3 to 8) (size 9 to 14) (size 15 to 20)
#    0.000    0.571    8.571    0.000    0.000    0.000 
#    0.000    0.000    0.000    5.143    0.000    0.000 
#    0.000    0.000    0.000    0.000    0.000    0.000 
#
# Total GULP energy -156423.352141 kJ/mol
# GULP energy per Si atom -5586.548291 kJ/mol
# Density = 2.391702 g / cm^3
# Si number density = 23.971582 Si / 1000 Ang^3
#
#
#
# Elastic Constant Matrix: (Units=GPa)
#
#
# Indices 1 2 3 4 5 6 
#
# 1 117.3440 7.7738 15.0358 0.0000 -0.0002 0.0000
# 2 7.7738 43.5693 -7.0952 0.0000 0.0003 0.0000
# 3 15.0358 -7.0952 26.1251 0.0000 0.0018 0.0000
# 4 0.0000 0.0000 0.0000 24.4377 0.0000 0.0001
# 5 -0.0002 0.0003 0.0018 0.0000 40.3433 0.0000
# 6 0.0000 0.0000 0.0000 0.0001 0.0000 50.7501
#
#
#
# Elastic Compliance Matrix: (Units=1/GPa)
#
#
# Indices 1 2 3 4 5 6 
#
# 1 0.009495 -0.002704 -0.006199 0.000000 0.000000 0.000000
# 2 -0.002704 0.024784 0.008287 0.000000 -0.000001 0.000000
# 3 -0.006199 0.008287 0.044096 0.000000 -0.000002 0.000000
# 4 0.000000 0.000000 0.000000 0.040920 0.000000 0.000000
# 5 0.000000 -0.000001 -0.000002 0.000000 0.024787 0.000000
# 6 0.000000 0.000000 0.000000 0.000000 0.000000 0.019704
#
#
# Mechanical properties :
#
#
# Convention : Reuss Voigt Hill
#
# Bulk Modulus (GPa) = 12.96289 24.27414 18.61852
# Shear Modulus (GPa) = 26.21459 34.52781 30.37120
#
# Velocity S-wave (km/s) = 3.31050 3.79933 3.56331
# Velocity P-wave (km/s) = 4.47570 5.42169 4.97125
#
# Compressibility (1/GPa) = 0.07714331
#
# Stress axis : x y z
#
# Youngs Moduli (GPa) = 105.31419 40.34882 22.67786
#
# Poissons Ratio (x) = 0.10909 0.14058
# Poissons Ratio (y) = 0.28474 -0.18793
# Poissons Ratio (z) = 0.65286 -0.33437
#
# Static dielectric constant tensor:
#      x y z
#    x 1.909280 0.000000 0.000000 
#    y 0.000000 1.988930 0.000000 
#    z 0.000000 0.000000 1.898490 
# 
# From -- ./inp_files/9450.got.cif
#   From: 2010.05.17/outbox.cif.g08.bks.cpg/sg14_5_cif.got.tgz:9450.got - 2010.06.03 17:49:19.
