data_PCOD9247660
_publ_section_title
;
Structure prediction by ZEFSAII (Michael W. Deem and Ramdas Pophale) SiO2 
 PCOD9247660
Probable space group: P 21/C
;
_chemical_formula_sum "Si O2"
_cell_formula_units_Z 20
_cell_length_a 5.003206
_cell_length_b 8.094583
_cell_length_c 27.009780
_cell_angle_alpha 90.000000
_cell_angle_beta 58.129957
_cell_angle_gamma 90.000000
_cell_volume 928.962912
_symmetry_space_group_name_H-M "P 21/C"
_symmetry_group_IT_number 14
_symmetry_cell_setting 'monoclinic'
loop_
_space_group_symop_operation_xyz
x,y,z
-x,1/2+y,1/2-z
-x,-y,-z
x,1/2-y,1/2+z
loop_
_atom_site_type_symbol
_atom_site_label
_atom_site_fract_x
_atom_site_fract_y
_atom_site_fract_z
Si Si1 0.747353 0.016047 0.175642
Si Si2 0.090529 0.895928 0.235615
Si Si3 0.589162 0.799470 0.636952
Si Si4 0.371682 0.005419 0.457846
Si Si5 0.442109 0.654133 0.854623
O O1 0.389851 0.985474 0.231209
O O2 0.738621 0.190372 0.149422
O O3 0.986901 0.995847 0.196788
O O4 0.780415 0.861900 0.134410
O O5 0.256384 0.731259 0.196958
O O6 0.788962 0.855841 0.297232
O O7 0.543081 0.832328 0.583251
O O8 0.722758 0.976844 0.640830
O O9 0.500000 0.000000 0.500000
O O10 0.468818 0.855809 0.411526
O O11 0.000000 0.000000 0.500000
#
# Coordination Sequence:
#
# PCOD9247660 Si02
#       5
#     4   4   4   4   4
#     4  10  23  38  60 100 125 160 208 258 332 382
#     4  10  22  39  63  98 132 157 207 268 332 373
#     4   8  23  40  65  90 131 160 209 268 309 378
#     4  10  24  42  65  89 122 178 218 251 311 378
#     4  10  22  41  67  91 128 173 207 265 319 393
#
# _framework density 21.529387
#
# number of rings (size 3 to 8) (size 9 to 14) (size 15 to 20)
#    2.400    0.000    0.000    1.200    5.600    3.200 
#    3.600    2.000    0.000    0.000    0.000    0.000 
#    0.000    0.000    0.000    0.000    0.000    0.000 
#
# Total GULP energy -111429.792059 kJ/mol
# GULP energy per Si atom -5571.489603 kJ/mol
# Density = 2.148038 g / cm^3
# Si number density = 21.529387 Si / 1000 Ang^3
#
#
#
# Elastic Constant Matrix: (Units=GPa)
#
#
# Indices 1 2 3 4 5 6 
#
# 1 67.6523 18.6434 15.2354 0.0000 17.3523 0.0000
# 2 18.6434 152.3381 31.5276 0.0000 17.0960 0.0000
# 3 15.2354 31.5276 126.6091 0.0000 16.5367 0.0000
# 4 0.0000 0.0000 0.0000 29.4711 0.0000 8.5706
# 5 17.3523 17.0960 16.5367 0.0000 32.9421 0.0000
# 6 0.0000 0.0000 0.0000 8.5706 0.0000 18.4180
#
#
#
# Elastic Compliance Matrix: (Units=1/GPa)
#
#
# Indices 1 2 3 4 5 6 
#
# 1 0.017347 -0.001045 -0.000754 0.000000 -0.008217 0.000000
# 2 -0.001045 0.007256 -0.001350 0.000000 -0.002538 0.000000
# 3 -0.000754 -0.001350 0.008756 0.000000 -0.003298 0.000000
# 4 0.000000 0.000000 0.000000 0.039242 0.000000 -0.018261
# 5 -0.008217 -0.002538 -0.003298 0.000000 0.037657 0.000000
# 6 0.000000 0.000000 0.000000 -0.018261 0.000000 0.062792
#
#
# Mechanical properties :
#
#
# Convention : Reuss Voigt Hill
#
# Bulk Modulus (GPa) = 36.95233 53.04580 44.99906
# Shear Modulus (GPa) = 26.54380 34.91245 30.72812
#
# Velocity S-wave (km/s) = 3.51509 4.03130 3.78201
# Velocity P-wave (km/s) = 5.80305 6.80888 6.32599
#
# Compressibility (1/GPa) = 0.02706189
#
# Stress axis : x y z
#
# Youngs Moduli (GPa) = 57.64784 137.81008 114.20882
#
# Poissons Ratio (x) = 0.14398 0.08612
# Poissons Ratio (y) = 0.06023 0.15415
# Poissons Ratio (z) = 0.04347 0.18601
#
# Static dielectric constant tensor:
#      x y z
#    x 1.770290 0.000000 -0.005220 
#    y 0.000000 1.869280 0.000000 
#    z -0.005220 0.000000 1.778660 
# 
# From -- ./inp_files/62979.got.cif
#   From: 2010.05.17/outbox.cif.g08.bks.cpg/sg14_32_cif.got.tgz:62979.got - 2010.06.03 17:49:19.
