data_PCOD9247655
_publ_section_title
;
Structure prediction by ZEFSAII (Michael W. Deem and Ramdas Pophale) SiO2 
 PCOD9247655
Probable space group: P 21/C
;
_chemical_formula_sum "Si O2"
_cell_formula_units_Z 24
_cell_length_a 13.914876
_cell_length_b 14.574416
_cell_length_c 4.747000
_cell_angle_alpha 90.000000
_cell_angle_beta 74.608722
_cell_angle_gamma 90.000000
_cell_volume 928.170906
_symmetry_space_group_name_H-M "P 21/C"
_symmetry_group_IT_number 14
_symmetry_cell_setting 'monoclinic'
loop_
_space_group_symop_operation_xyz
x,y,z
-x,1/2+y,1/2-z
-x,-y,-z
x,1/2-y,1/2+z
loop_
_atom_site_type_symbol
_atom_site_label
_atom_site_fract_x
_atom_site_fract_y
_atom_site_fract_z
Si Si1 0.908985 0.994834 0.358244
Si Si2 0.124232 0.188664 0.905904
Si Si3 0.571228 0.568991 0.616565
Si Si4 0.828170 0.314178 0.886147
Si Si5 0.706278 0.911120 0.502242
Si Si6 0.399008 0.807068 0.355730
O O1 0.886673 0.095578 0.259460
O O2 0.922740 0.909632 0.134600
O O3 0.799757 0.965991 0.567453
O O4 0.000000 0.000000 0.500000
O O5 0.098655 0.277094 0.734752
O O6 0.238603 0.169052 0.718012
O O7 0.500000 0.500000 0.500000
O O8 0.636565 0.614431 0.316868
O O9 0.495317 0.634142 0.842816
O O10 0.645313 0.534982 0.806126
O O11 0.848748 0.274031 0.177565
O O12 0.710743 0.339457 0.975962
O O13 0.404437 0.711364 0.518646
#
# Coordination Sequence:
#
# PCOD9247655 Si02
#       6
#     4   4   4   4   4   4
#     4  10  25  47  73 103 139 187 239 291 356 420
#     4  10  23  44  68  99 137 177 226 286 345 412
#     4  12  23  40  65  98 134 181 224 278 343 415
#     4  10  23  44  69  99 137 178 230 290 345 407
#     4  10  25  40  65  97 140 180 226 286 345 408
#     4  10  22  39  63  94 128 174 224 275 331 409
#
# _framework density 25.857308
#
# number of rings (size 3 to 8) (size 9 to 14) (size 15 to 20)
#    1.000    0.667    0.000    3.500    0.000   12.000 
#    0.000    5.833    0.000    0.000    0.000    0.000 
#    0.000    0.000    0.000    0.000    0.000    0.000 
#
# Total GULP energy -134061.265750 kJ/mol
# GULP energy per Si atom -5585.886073 kJ/mol
# Density = 2.579846 g / cm^3
# Si number density = 25.857308 Si / 1000 Ang^3
#
#
#
# Elastic Constant Matrix: (Units=GPa)
#
#
# Indices 1 2 3 4 5 6 
#
# 1 156.2928 53.3641 41.4933 0.0000 -3.6466 0.0000
# 2 53.3641 103.6469 7.1609 0.0000 -3.1280 0.0000
# 3 41.4933 7.1609 89.9655 0.0000 -11.7683 0.0000
# 4 0.0000 0.0000 0.0000 -16.8462 0.0000 35.0060
# 5 -3.6466 -3.1280 -11.7683 0.0000 55.1117 0.0000
# 6 0.0000 0.0000 0.0000 35.0060 0.0000 21.5253
#
#
#
# Elastic Compliance Matrix: (Units=1/GPa)
#
#
# Indices 1 2 3 4 5 6 
#
# 1 0.008874 -0.004320 -0.003811 0.000000 -0.000472 0.000000
# 2 -0.004320 0.011813 0.001134 0.000000 0.000627 0.000000
# 3 -0.003811 0.001134 0.013125 0.000000 0.002615 0.000000
# 4 0.000000 0.000000 0.000000 -0.013555 0.000000 0.022044
# 5 -0.000472 0.000627 0.002615 0.000000 0.018708 0.000000
# 6 0.000000 0.000000 0.000000 0.022044 0.000000 0.010608
#
#
# Mechanical properties :
#
#
# Convention : Reuss Voigt Hill
#
# Bulk Modulus (GPa) = 50.45744 61.54908 56.00326
# Shear Modulus (GPa) = 71.25417 28.48395 49.86906
#
# Velocity S-wave (km/s) = 5.25514 3.32261 4.39638
# Velocity P-wave (km/s) = 7.50854 6.21085 6.89031
#
# Compressibility (1/GPa) = 0.01981868
#
# Stress axis : x y z
#
# Youngs Moduli (GPa) = 112.69090 84.65381 76.19258
#
# Poissons Ratio (x) = 0.36569 0.29034
# Poissons Ratio (y) = 0.48680 -0.08641
# Poissons Ratio (z) = 0.42942 -0.09600
#
# Static dielectric constant tensor:
#      x y z
#    x 2.124970 0.000000 0.020850 
#    y 0.000000 2.057900 0.000000 
#    z 0.020850 0.000000 1.956880 
# 
# From -- ./inp_files/3560.got.cif
#   From: 2010.05.17/outbox.cif.g08.bks.cpg/sg14_2_cif.got.tgz:3560.got - 2010.06.03 17:49:19.
