data_PCOD9247381
_publ_section_title
;
Structure prediction by ZEFSAII (Michael W. Deem and Ramdas Pophale) SiO2 
 PCOD9247381
Probable space group: P 21/C
;
_chemical_formula_sum "Si O2"
_cell_formula_units_Z 28
_cell_length_a 10.977611
_cell_length_b 24.082579
_cell_length_c 11.790711
_cell_angle_alpha 90.000000
_cell_angle_beta 25.024778
_cell_angle_gamma 90.000000
_cell_volume 1318.565250
_symmetry_space_group_name_H-M "P 21/C"
_symmetry_group_IT_number 14
_symmetry_cell_setting 'monoclinic'
loop_
_space_group_symop_operation_xyz
x,y,z
-x,1/2+y,1/2-z
-x,-y,-z
x,1/2-y,1/2+z
loop_
_atom_site_type_symbol
_atom_site_label
_atom_site_fract_x
_atom_site_fract_y
_atom_site_fract_z
Si Si1 0.651369 0.796457 0.312980
Si Si2 0.301875 0.670541 0.893520
Si Si3 0.390699 0.948851 0.233334
Si Si4 0.709193 0.296030 0.678386
Si Si5 0.775213 0.831428 0.695193
Si Si6 0.182174 0.863728 0.142023
Si Si7 0.939580 0.021227 0.712512
O O1 0.433371 0.678095 0.906504
O O2 0.634925 0.729580 0.317495
O O3 0.990500 0.805927 0.008722
O O4 0.552436 0.814919 0.521837
O O5 0.433261 0.614245 0.733425
O O6 0.347075 0.730572 0.796295
O O7 0.964711 0.661792 0.148434
O O8 0.157252 0.952817 0.327820
O O9 0.232556 0.987165 0.460120
O O10 0.685574 0.978871 0.954877
O O11 0.761452 0.325487 0.514592
O O12 0.982684 0.837059 0.409354
O O13 0.509610 0.873257 0.910653
O O14 0.053067 0.923441 0.218397
#
# Coordination Sequence:
#
# PCOD9247381 Si02
#       7
#     4   4   4   4   4   4   4
#     4  11  25  41  59  93 131 163 212 250 313 381
#     4  11  24  40  66  90 135 161 206 261 324 372
#     4  10  22  37  59  94 126 159 205 263 315 370
#     4  11  26  41  63  93 128 170 210 253 314 387
#     4  11  23  38  65  96 123 169 200 258 323 370
#     4  12  22  43  65  92 129 167 211 258 309 388
#     4  10  22  38  60  91 127 160 208 257 315 374
#
# _framework density 21.235202000000001
#
# number of rings (size 3 to 8) (size 9 to 14) (size 15 to 20)
#    0.000    1.143    2.857    3.429    4.000    4.571 
#    0.000    0.000    0.000    5.143    0.000    0.000 
#    0.000    0.000    0.000    0.000    0.000    0.000 
#
# Total GULP energy -156335.160130 kJ/mol
# GULP energy per Si atom -5583.398576 kJ/mol
# Density = 2.118687 g / cm^3
# Si number density = 21.235202 Si / 1000 Ang^3
#
#
#
# Elastic Constant Matrix: (Units=GPa)
#
#
# Indices 1 2 3 4 5 6 
#
# 1 62.9528 30.4077 15.5044 0.0000 0.0083 0.0000
# 2 30.4077 121.0845 31.0321 0.0000 20.5032 0.0000
# 3 15.5044 31.0321 87.0008 0.0000 17.2427 0.0000
# 4 0.0000 0.0000 0.0000 23.9048 0.0000 -0.4644
# 5 0.0083 20.5032 17.2427 0.0000 17.3504 0.0000
# 6 0.0000 0.0000 0.0000 -0.4644 0.0000 15.5135
#
#
#
# Elastic Compliance Matrix: (Units=1/GPa)
#
#
# Indices 1 2 3 4 5 6 
#
# 1 0.019507 -0.005743 -0.003451 0.000000 0.010206 0.000000
# 2 -0.005743 0.012191 -0.000586 0.000000 -0.013822 0.000000
# 3 -0.003451 -0.000586 0.015168 0.000000 -0.014380 0.000000
# 4 0.000000 0.000000 0.000000 0.041857 0.000000 0.001253
# 5 0.010206 -0.013822 -0.014380 0.000000 0.088255 0.000000
# 6 0.000000 0.000000 0.000000 0.001253 0.000000 0.064498
#
#
# Mechanical properties :
#
#
# Convention : Reuss Voigt Hill
#
# Bulk Modulus (GPa) = 36.61898 47.21406 41.91652
# Shear Modulus (GPa) = 18.50908 24.29333 21.40121
#
# Velocity S-wave (km/s) = 2.95553 3.38599 3.17806
# Velocity P-wave (km/s) = 5.37855 6.12933 5.76617
#
# Compressibility (1/GPa) = 0.02730824
#
# Stress axis : x y z
#
# Youngs Moduli (GPa) = 51.26282 82.02488 65.92804
#
# Poissons Ratio (x) = 0.47104 0.22751
# Poissons Ratio (y) = 0.29439 0.03862
# Poissons Ratio (z) = 0.17690 0.04805
#
# Static dielectric constant tensor:
#      x y z
#    x 1.808880 0.000000 0.022590 
#    y 0.000000 1.802170 0.000000 
#    z 0.022590 0.000000 1.800510 
# 
# From -- ./inp_files/47688.got.cif
#   From: 2010.05.17/outbox.cif.g08.bks.cpg/sg14_24_cif.got.tgz:47688.got - 2010.06.03 17:49:19.
