data_PCOD9247979
_publ_section_title
;
Structure prediction by ZEFSAII (Michael W. Deem and Ramdas Pophale) SiO2 
 PCOD9247979
Probable space group: P 21/C
;
_chemical_formula_sum "Si O2"
_cell_formula_units_Z 18
_cell_length_a 8.910213
_cell_length_b 10.488299
_cell_length_c 8.930659
_cell_angle_alpha 90.000000
_cell_angle_beta 119.640025
_cell_angle_gamma 90.000000
_cell_volume 725.389425
_symmetry_space_group_name_H-M "P 21/C"
_symmetry_group_IT_number 14
_symmetry_cell_setting 'monoclinic'
loop_
_space_group_symop_operation_xyz
x,y,z
-x,1/2+y,1/2-z
-x,-y,-z
x,1/2-y,1/2+z
loop_
_atom_site_type_symbol
_atom_site_label
_atom_site_fract_x
_atom_site_fract_y
_atom_site_fract_z
Si Si1 0.754850 0.484053 0.630535
Si Si2 0.518548 0.151045 0.821985
Si Si3 0.778101 0.817974 0.874639
Si Si4 0.877886 0.578718 0.115400
Si Si5 0.500000 0.000000 0.500000
O O1 0.613536 0.552012 0.664169
O O2 0.680185 0.356722 0.514885
O O3 0.780614 0.575370 0.500734
O O4 0.932050 0.476025 0.807306
O O5 0.420678 0.288350 0.775685
O O6 0.545904 0.098652 0.668458
O O7 0.883387 0.855538 0.782569
O O8 0.844031 0.690821 0.982702
O O9 0.704519 0.496513 0.045160
#
# Coordination Sequence:
#
# PCOD9247979 Si02
#       5
#     4   4   4   4   2
#     4  11  23  46  66  95 139 174 218 276 331 392
#     4  10  23  43  68  97 130 177 216 277 326 399
#     4  11  22  44  64  97 132 169 225 267 321 407
#     4  11  24  45  67  97 133 177 221 274 330 397
#     4  10  22  40  70  92 130 170 214 274 332 382
#
# _framework density 24.814259
#
# number of rings (size 3 to 8) (size 9 to 14) (size 15 to 20)
#    0.000    1.333    4.444    0.667    0.000    3.556 
#   12.000    0.000    0.000    0.000    0.000    0.000 
#    0.000    0.000    0.000    0.000    0.000    0.000 
#
# Total GULP energy -100255.439152 kJ/mol
# GULP energy per Si atom -5569.746620 kJ/mol
# Density = 2.475778 g / cm^3
# Si number density = 24.814259 Si / 1000 Ang^3
#
#
#
# Elastic Constant Matrix: (Units=GPa)
#
#
# Indices 1 2 3 4 5 6 
#
# 1 69.6353 2.6582 12.5923 0.0000 26.0312 0.0000
# 2 2.6582 32.7290 -4.7377 0.0000 10.2995 0.0000
# 3 12.5923 -4.7377 92.7190 0.0000 18.6662 0.0000
# 4 0.0000 0.0000 0.0000 23.6966 0.0000 17.2620
# 5 26.0312 10.2995 18.6662 0.0000 69.3845 0.0000
# 6 0.0000 0.0000 0.0000 17.2620 0.0000 2.9155
#
#
#
# Elastic Compliance Matrix: (Units=1/GPa)
#
#
# Indices 1 2 3 4 5 6 
#
# 1 0.016808 0.000400 -0.001037 0.000000 -0.006086 0.000000
# 2 0.000400 0.032735 0.002777 0.000000 -0.005756 0.000000
# 3 -0.001037 0.002777 0.011707 0.000000 -0.003173 0.000000
# 4 0.000000 0.000000 0.000000 -0.012737 0.000000 0.075416
# 5 -0.006086 -0.005756 -0.003173 0.000000 0.018404 0.000000
# 6 0.000000 0.000000 0.000000 0.075416 0.000000 -0.103528
#
#
# Mechanical properties :
#
#
# Convention : Reuss Voigt Hill
#
# Bulk Modulus (GPa) = 15.26012 24.01211 19.63612
# Shear Modulus (GPa) = -262.47450 31.50401 -115.48524
#
# Velocity S-wave (km/s) = -10.29589 3.56700 -6.82941
# Velocity P-wave (km/s) = 11.62658 5.16357 7.36597
#
# Compressibility (1/GPa) = 0.06553028
#
# Stress axis : x y z
#
# Youngs Moduli (GPa) = 59.49554 30.54838 85.42100
#
# Poissons Ratio (x) = -0.01222 0.08858
# Poissons Ratio (y) = -0.02380 -0.23723
# Poissons Ratio (z) = 0.06170 -0.08484
#
# Static dielectric constant tensor:
#      x y z
#    x 1.887530 0.000000 0.192920 
#    y 0.000000 2.075180 0.000000 
#    z 0.192920 0.000000 1.876670 
# 
# From -- ./inp_files/7598.got.cif
#   From: 2010.05.17/outbox.cif.g08.bks.cpg/sg14_4_cif.got.tgz:7598.got - 2010.06.03 17:49:19.
