data_PCOD9247917
_publ_section_title
;
Structure prediction by ZEFSAII (Michael W. Deem and Ramdas Pophale) SiO2 
 PCOD9247917
Probable space group: P 21/C
;
_chemical_formula_sum "Si O2"
_cell_formula_units_Z 28
_cell_length_a 14.083916
_cell_length_b 8.463910
_cell_length_c 19.921644
_cell_angle_alpha 90.000000
_cell_angle_beta 31.997891
_cell_angle_gamma 90.000000
_cell_volume 1258.356688
_symmetry_space_group_name_H-M "P 21/C"
_symmetry_group_IT_number 14
_symmetry_cell_setting 'monoclinic'
loop_
_space_group_symop_operation_xyz
x,y,z
-x,1/2+y,1/2-z
-x,-y,-z
x,1/2-y,1/2+z
loop_
_atom_site_type_symbol
_atom_site_label
_atom_site_fract_x
_atom_site_fract_y
_atom_site_fract_z
Si Si1 0.524961 0.860246 0.396017
Si Si2 0.942013 0.108852 0.749885
Si Si3 0.429949 0.519976 0.467302
Si Si4 0.378479 0.444481 0.861571
Si Si5 0.991508 0.400842 0.075168
Si Si6 0.783137 0.447731 0.823384
Si Si7 0.371369 0.807622 0.249105
O O1 0.531621 0.674199 0.376348
O O2 0.708862 0.952468 0.303990
O O3 0.411359 0.946935 0.406615
O O4 0.398522 0.873155 0.537155
O O5 0.912410 0.293170 0.747508
O O6 0.939814 0.019442 0.678469
O O7 0.121932 0.070940 0.682823
O O8 0.779997 0.056290 0.896324
O O9 0.500000 0.500000 0.500000
O O10 0.489604 0.364907 0.391065
O O11 0.551931 0.338132 0.757355
O O12 0.367536 0.552788 0.804119
O O13 0.193316 0.346337 0.970561
O O14 0.826536 0.283766 0.160974
O O15 0.000000 0.500000 0.000000
#
# Coordination Sequence:
#
# PCOD9247917 Si02
#       7
#     4   4   4   4   4   4   4
#     4  10  22  41  61  93 127 170 212 265 325 376
#     4  11  22  39  61  96 130 169 213 265 323 384
#     4  11  24  38  64  95 133 171 214 267 325 385
#     4  11  23  44  71  89 131 170 216 274 323 389
#     4  10  22  40  66  95 123 171 216 258 323 381
#     4  10  23  36  63  93 130 165 212 262 322 386
#     4  11  24  43  67  97 127 172 219 265 327 391
#
# _framework density 22.251242999999999
#
# number of rings (size 3 to 8) (size 9 to 14) (size 15 to 20)
#    0.000    1.429    2.857    1.714    8.000    0.000 
#    0.000    0.714    0.000    0.000    0.000    0.000 
#    0.000    0.000    0.000    0.000    0.000    0.000 
#
# Total GULP energy -156015.195351 kJ/mol
# GULP energy per Si atom -5571.971263 kJ/mol
# Density = 2.220060 g / cm^3
# Si number density = 22.251243 Si / 1000 Ang^3
#
#
#
# Elastic Constant Matrix: (Units=GPa)
#
#
# Indices 1 2 3 4 5 6 
#
# 1 137.3584 23.1519 21.7136 0.0000 -26.1379 0.0000
# 2 23.1519 49.0149 6.8787 0.0000 -13.5343 0.0000
# 3 21.7136 6.8787 32.7368 0.0000 -6.3268 0.0000
# 4 0.0000 0.0000 0.0000 21.2429 0.0000 -2.3324
# 5 -26.1379 -13.5343 -6.3268 0.0000 36.4075 0.0000
# 6 0.0000 0.0000 0.0000 -2.3324 0.0000 28.6834
#
#
#
# Elastic Compliance Matrix: (Units=1/GPa)
#
#
# Indices 1 2 3 4 5 6 
#
# 1 0.009390 -0.002379 -0.004756 0.000000 0.005031 0.000000
# 2 -0.002379 0.023678 -0.002097 0.000000 0.006730 0.000000
# 3 -0.004756 -0.002097 0.034490 0.000000 0.001799 0.000000
# 4 0.000000 0.000000 0.000000 0.047499 0.000000 0.003862
# 5 0.005031 0.006730 0.001799 0.000000 0.033893 0.000000
# 6 0.000000 0.000000 0.000000 0.003862 0.000000 0.035177
#
#
# Mechanical properties :
#
#
# Convention : Reuss Voigt Hill
#
# Bulk Modulus (GPa) = 20.36895 35.84429 28.10662
# Shear Modulus (GPa) = 22.83561 28.42449 25.63005
#
# Velocity S-wave (km/s) = 3.20701 3.57800 3.39757
# Velocity P-wave (km/s) = 4.78405 5.76310 5.29625
#
# Compressibility (1/GPa) = 0.04909432
#
# Stress axis : x y z
#
# Youngs Moduli (GPa) = 106.49230 42.23292 28.99410
#
# Poissons Ratio (x) = 0.10047 0.13791
# Poissons Ratio (y) = 0.25333 0.06080
# Poissons Ratio (z) = 0.50651 0.08855
#
# Static dielectric constant tensor:
#      x y z
#    x 1.796190 0.000000 0.010930 
#    y 0.000000 1.917790 0.000000 
#    z 0.010930 0.000000 1.917900 
# 
# From -- ./inp_files/68315.got.cif
#   From: 2010.05.17/outbox.cif.g08.bks.cpg/sg14_35_cif.got.tgz:68315.got - 2010.06.03 17:49:19.
