data_PCOD9247182
_publ_section_title
;
Structure prediction by ZEFSAII (Michael W. Deem and Ramdas Pophale) SiO2 
 PCOD9247182
Probable space group: P 21/C
;
_chemical_formula_sum "Si O2"
_cell_formula_units_Z 30
_cell_length_a 5.366661
_cell_length_b 11.014977
_cell_length_c 20.869087
_cell_angle_alpha 90.000000
_cell_angle_beta 86.753786
_cell_angle_gamma 90.000000
_cell_volume 1231.668359
_symmetry_space_group_name_H-M "P 21/C"
_symmetry_group_IT_number 14
_symmetry_cell_setting 'monoclinic'
loop_
_space_group_symop_operation_xyz
x,y,z
-x,1/2+y,1/2-z
-x,-y,-z
x,1/2-y,1/2+z
loop_
_atom_site_type_symbol
_atom_site_label
_atom_site_fract_x
_atom_site_fract_y
_atom_site_fract_z
Si Si1 0.694427 0.192363 0.690289
Si Si2 0.000000 0.500000 0.500000
Si Si3 0.768527 0.455418 0.633293
Si Si4 0.419178 0.875364 0.065091
Si Si5 0.579881 0.973015 0.399511
Si Si6 0.911342 0.328692 0.876201
Si Si7 0.823811 0.672352 0.726997
Si Si8 0.738690 0.834049 0.515643
O O1 0.723482 0.319408 0.653994
O O2 0.633375 0.088979 0.639015
O O3 0.443160 0.194288 0.736736
O O4 0.944208 0.176376 0.727736
O O5 0.982957 0.471917 0.577519
O O6 0.761837 0.410315 0.489384
O O7 0.526653 0.516243 0.604601
O O8 0.826848 0.542908 0.691933
O O9 0.284705 0.780427 0.113610
O O10 0.658833 0.805887 0.029167
O O11 0.720187 0.874961 0.442581
O O12 0.778241 0.049291 0.355262
O O13 0.455389 0.076497 0.445804
O O14 0.125400 0.276381 0.827642
O O15 0.010798 0.351939 0.947312
#
# Coordination Sequence:
#
# PCOD9247182 Si02
#       8
#     4   2   4   4   4   4   4   4
#     4  12  32  52  80 113 163 212 273 331 385 490
#     4  12  24  42  82 114 158 200 258 340 416 478
#     4  12  28  52  79 115 160 201 275 331 412 478
#     4  11  22  44  72 116 151 201 250 328 412 476
#     4  10  25  45  73 115 149 200 261 323 399 466
#     4  11  23  45  79 104 152 205 260 326 396 481
#     4  12  29  53  77 116 156 222 268 322 400 482
#     4  10  21  44  77 110 153 192 259 326 407 476
#
# _framework density 24.357208
#
# number of rings (size 3 to 8) (size 9 to 14) (size 15 to 20)
#    0.000    0.800    2.667    2.400    7.467    1.067 
#    0.000    0.000    0.000    0.000    0.000    0.000 
#    0.000    0.000    0.000    0.000    0.000    0.000 
#
# Total GULP energy -167679.410709 kJ/mol
# GULP energy per Si atom -5589.313690 kJ/mol
# Density = 2.430177 g / cm^3
# Si number density = 24.357208 Si / 1000 Ang^3
#
#
#
# Elastic Constant Matrix: (Units=GPa)
#
#
# Indices 1 2 3 4 5 6 
#
# 1 105.6695 25.9966 28.3476 0.0000 13.0440 0.0000
# 2 25.9966 88.0728 27.7074 0.0000 16.3394 0.0000
# 3 28.3476 27.7074 83.1913 0.0000 2.3941 0.0000
# 4 0.0000 0.0000 0.0000 36.7387 0.0000 17.3266
# 5 13.0440 16.3394 2.3941 0.0000 47.2119 0.0000
# 6 0.0000 0.0000 0.0000 17.3266 0.0000 38.2598
#
#
#
# Elastic Compliance Matrix: (Units=1/GPa)
#
#
# Indices 1 2 3 4 5 6 
#
# 1 0.011024 -0.001873 -0.003068 0.000000 -0.002242 0.000000
# 2 -0.001873 0.013883 -0.003868 0.000000 -0.004091 0.000000
# 3 -0.003068 -0.003868 0.014312 0.000000 0.001461 0.000000
# 4 0.000000 0.000000 0.000000 0.034612 0.000000 -0.015675
# 5 -0.002242 -0.004091 0.001461 0.000000 0.023142 0.000000
# 6 0.000000 0.000000 0.000000 -0.015675 0.000000 0.033236
#
#
# Mechanical properties :
#
#
# Convention : Reuss Voigt Hill
#
# Bulk Modulus (GPa) = 46.29342 49.00407 47.64875
# Shear Modulus (GPa) = 32.25247 37.43421 34.84334
#
# Velocity S-wave (km/s) = 3.64283 3.92456 3.78632
# Velocity P-wave (km/s) = 6.06143 6.37957 6.22253
#
# Compressibility (1/GPa) = 0.02160134
#
# Stress axis : x y z
#
# Youngs Moduli (GPa) = 90.71065 72.03132 69.87066
#
# Poissons Ratio (x) = 0.13490 0.21438
# Poissons Ratio (y) = 0.16988 0.27025
# Poissons Ratio (z) = 0.27832 0.27861
#
# Static dielectric constant tensor:
#      x y z
#    x 1.807840 0.000000 0.033480 
#    y 0.000000 1.925310 0.000000 
#    z 0.033480 0.000000 2.004010 
# 
# From -- ./inp_files/63529.got.cif
#   From: 2010.05.17/outbox.cif.g08.bks.cpg/sg14_32_cif.got.tgz:63529.got - 2010.06.03 17:49:19.
