data_PCOD9247132
_publ_section_title
;
Structure prediction by ZEFSAII (Michael W. Deem and Ramdas Pophale) SiO2 
 PCOD9247132
Probable space group: P 21/C
;
_chemical_formula_sum "Si O2"
_cell_formula_units_Z 28
_cell_length_a 7.657965
_cell_length_b 9.673471
_cell_length_c 14.416461
_cell_angle_alpha 90.000000
_cell_angle_beta 99.394250
_cell_angle_gamma 90.000000
_cell_volume 1053.635615
_symmetry_space_group_name_H-M "P 21/C"
_symmetry_group_IT_number 14
_symmetry_cell_setting 'monoclinic'
loop_
_space_group_symop_operation_xyz
x,y,z
-x,1/2+y,1/2-z
-x,-y,-z
x,1/2-y,1/2+z
loop_
_atom_site_type_symbol
_atom_site_label
_atom_site_fract_x
_atom_site_fract_y
_atom_site_fract_z
Si Si1 0.956693 0.126047 0.301225
Si Si2 0.900145 0.106775 0.090911
Si Si3 0.458597 0.848809 0.459389
Si Si4 0.963866 0.114213 0.574735
Si Si5 0.496099 0.955615 0.266809
Si Si6 0.360383 0.266235 0.843969
Si Si7 0.819719 0.377786 0.390146
O O1 0.160418 0.177488 0.320734
O O2 0.863447 0.144061 0.194224
O O3 0.855973 0.218984 0.368123
O O4 0.965990 0.965971 0.329918
O O5 0.036169 0.230958 0.071343
O O6 0.766475 0.097850 0.992760
O O7 0.000669 0.962908 0.103939
O O8 0.244863 0.851950 0.437310
O O9 0.519288 0.856003 0.358316
O O10 0.564325 0.758856 0.544164
O O11 0.500000 0.000000 0.500000
O O12 0.000000 0.000000 0.500000
O O13 0.623128 0.883586 0.202104
O O14 0.311345 0.934642 0.197771
O O15 0.482219 0.114195 0.302751
#
# Coordination Sequence:
#
# PCOD9247132 Si02
#       7
#     4   4   4   4   4   4   4
#     4  12  23  44  66 100 132 175 224 280 325 402
#     4  11  23  40  66  96 136 171 212 279 334 390
#     4  10  21  44  67  91 135 173 216 280 319 393
#     4  12  23  42  72 102 128 179 234 268 333 403
#     4  11  23  48  65  95 133 176 220 275 332 397
#     4  11  25  44  69  95 134 175 224 269 337 399
#     4  11  24  44  66  95 138 171 216 282 343 389
#
# _framework density 26.574653000000001
#
# number of rings (size 3 to 8) (size 9 to 14) (size 15 to 20)
#    0.000    0.857    5.714    2.571    0.000    3.429 
#    5.143    0.714    0.000    0.000    0.000    0.000 
#    0.000    0.000    0.000    0.000    0.000    0.000 
#
# Total GULP energy -156483.811680 kJ/mol
# GULP energy per Si atom -5588.707560 kJ/mol
# Density = 2.651417 g / cm^3
# Si number density = 26.574653 Si / 1000 Ang^3
#
#
#
# Elastic Constant Matrix: (Units=GPa)
#
#
# Indices 1 2 3 4 5 6 
#
# 1 60.3047 17.3006 26.4058 0.0000 16.7758 0.0000
# 2 17.3006 97.0451 18.7133 0.0000 11.1881 0.0000
# 3 26.4058 18.7133 225.7102 0.0000 13.5767 0.0000
# 4 0.0000 0.0000 0.0000 46.4538 0.0000 -3.8307
# 5 16.7758 11.1881 13.5767 0.0000 19.8831 0.0000
# 6 0.0000 0.0000 0.0000 -3.8307 0.0000 31.5110
#
#
#
# Elastic Compliance Matrix: (Units=1/GPa)
#
#
# Indices 1 2 3 4 5 6 
#
# 1 0.022442 -0.001766 -0.001460 0.000000 -0.016944 0.000000
# 2 -0.001766 0.011228 -0.000452 0.000000 -0.004519 0.000000
# 3 -0.001460 -0.000452 0.004744 0.000000 -0.001753 0.000000
# 4 0.000000 0.000000 0.000000 0.021745 0.000000 0.002643
# 5 -0.016944 -0.004519 -0.001753 0.000000 0.068330 0.000000
# 6 0.000000 0.000000 0.000000 0.002643 0.000000 0.032056
#
#
# Mechanical properties :
#
#
# Convention : Reuss Voigt Hill
#
# Bulk Modulus (GPa) = 32.19851 56.43325 44.31588
# Shear Modulus (GPa) = 28.04996 40.94561 34.49778
#
# Velocity S-wave (km/s) = 3.25239 3.92953 3.60689
# Velocity P-wave (km/s) = 5.12315 6.47071 5.83596
#
# Compressibility (1/GPa) = 0.03105734
#
# Stress axis : x y z
#
# Youngs Moduli (GPa) = 44.55946 89.06699 210.78298
#
# Poissons Ratio (x) = 0.15728 0.30771
# Poissons Ratio (y) = 0.07868 0.09537
# Poissons Ratio (z) = 0.06505 0.04030
#
# Static dielectric constant tensor:
#      x y z
#    x 11.046470 0.000000 -0.895900 
#    y 0.000000 2.616890 0.000000 
#    z -0.895900 0.000000 2.238020 
# 
# From -- ./inp_files/40095.got.cif
#   From: 2010.05.17/outbox.cif.g08.bks.cpg/sg14_21_cif.got.tgz:40095.got - 2010.06.03 17:49:19.
