data_PCOD9247269
_publ_section_title
;
Structure prediction by ZEFSAII (Michael W. Deem and Ramdas Pophale) SiO2 
 PCOD9247269
Probable space group: P 21/C
;
_chemical_formula_sum "Si O2"
_cell_formula_units_Z 28
_cell_length_a 19.751063
_cell_length_b 5.110587
_cell_length_c 9.948840
_cell_angle_alpha 90.000000
_cell_angle_beta 81.794717
_cell_angle_gamma 90.000000
_cell_volume 993.950953
_symmetry_space_group_name_H-M "P 21/C"
_symmetry_group_IT_number 14
_symmetry_cell_setting 'monoclinic'
loop_
_space_group_symop_operation_xyz
x,y,z
-x,1/2+y,1/2-z
-x,-y,-z
x,1/2-y,1/2+z
loop_
_atom_site_type_symbol
_atom_site_label
_atom_site_fract_x
_atom_site_fract_y
_atom_site_fract_z
Si Si1 0.488648 0.733214 0.164017
Si Si2 0.140350 0.788274 0.584640
Si Si3 0.004808 0.189570 0.840047
Si Si4 0.632307 0.754053 0.516161
Si Si5 0.344185 0.553722 0.726136
Si Si6 0.744578 0.059366 0.136854
Si Si7 0.149618 0.289075 0.766208
O O1 0.508006 0.950290 0.269748
O O2 0.411267 0.800107 0.148926
O O3 0.549761 0.760127 0.040464
O O4 0.062496 0.747603 0.554252
O O5 0.199431 0.719323 0.463971
O O6 0.146354 0.572268 0.701520
O O7 0.147330 0.074155 0.646969
O O8 0.998650 0.398763 0.719325
O O9 0.080746 0.242623 0.871830
O O10 0.646021 0.983626 0.619394
O O11 0.657675 0.715703 0.357236
O O12 0.677735 0.525118 0.572120
O O13 0.282047 0.753148 0.737174
O O14 0.784310 0.797582 0.169947
#
# Coordination Sequence:
#
# PCOD9247269 Si02
#       7
#     4   4   4   4   4   4   4
#     4  10  21  48  73 107 138 187 244 304 360 427
#     4  10  23  41  67  95 139 182 237 291 360 426
#     4   8  16  37  62  92 127 180 231 289 347 424
#     4  11  26  46  74 103 146 193 244 303 363 438
#     4  11  26  48  72 108 143 194 244 301 367 433
#     4  12  26  41  67 102 144 187 240 301 363 433
#     4  10  23  41  66  96 138 183 236 291 361 424
#
# _framework density 28.170403
#
# number of rings (size 3 to 8) (size 9 to 14) (size 15 to 20)
#    0.000    1.714    1.429    1.286    6.000    1.714 
#    0.000    3.571    0.000   10.286    0.000    0.000 
#    0.000    0.000    0.000    0.000    0.000    0.000 
#
# Total GULP energy -157014.473828 kJ/mol
# GULP energy per Si atom -5607.659780 kJ/mol
# Density = 2.810629 g / cm^3
# Si number density = 28.170403 Si / 1000 Ang^3
#
#
#
# Elastic Constant Matrix: (Units=GPa)
#
#
# Indices 1 2 3 4 5 6 
#
# 1 150.5924 36.0369 44.9016 0.0000 -24.7596 0.0000
# 2 36.0369 124.2205 44.3077 0.0000 6.1844 0.0000
# 3 44.9016 44.3077 82.3549 0.0000 -2.9577 0.0000
# 4 0.0000 0.0000 0.0000 48.2939 0.0000 -5.0419
# 5 -24.7596 6.1844 -2.9577 0.0000 36.0568 0.0000
# 6 0.0000 0.0000 0.0000 -5.0419 0.0000 38.4968
#
#
#
# Elastic Compliance Matrix: (Units=1/GPa)
#
#
# Indices 1 2 3 4 5 6 
#
# 1 0.009232 -0.001579 -0.003958 0.000000 0.006286 0.000000
# 2 -0.001579 0.010402 -0.004852 0.000000 -0.003267 0.000000
# 3 -0.003958 -0.004852 0.016893 0.000000 -0.000500 0.000000
# 4 0.000000 0.000000 0.000000 0.020994 0.000000 0.002750
# 5 0.006286 -0.003267 -0.000500 0.000000 0.032570 0.000000
# 6 0.000000 0.000000 0.000000 0.002750 0.000000 0.026336
#
#
# Mechanical properties :
#
#
# Convention : Reuss Voigt Hill
#
# Bulk Modulus (GPa) = 63.50279 67.51781 65.51030
# Shear Modulus (GPa) = 35.09869 40.03096 37.56483
#
# Velocity S-wave (km/s) = 3.53362 3.77374 3.65565
# Velocity P-wave (km/s) = 6.26418 6.55804 6.41279
#
# Compressibility (1/GPa) = 0.01574734
#
# Stress axis : x y z
#
# Youngs Moduli (GPa) = 108.31894 96.13677 59.19510
#
# Poissons Ratio (x) = 0.15184 0.23429
# Poissons Ratio (y) = 0.17108 0.28724
# Poissons Ratio (z) = 0.42873 0.46650
#
# Static dielectric constant tensor:
#      x y z
#    x 2.202990 0.000000 0.006120 
#    y 0.000000 2.142180 0.000000 
#    z 0.006120 0.000000 2.137650 
# 
# From -- ./inp_files/34575.got.cif
#   From: 2010.05.17/outbox.cif.g08.bks.cpg/sg14_18_cif.got.tgz:34575.got - 2010.06.03 17:49:19.
