data_PCOD9247670
_publ_section_title
;
Structure prediction by ZEFSAII (Michael W. Deem and Ramdas Pophale) SiO2 
 PCOD9247670
Probable space group: P 21/C
;
_chemical_formula_sum "Si O2"
_cell_formula_units_Z 24
_cell_length_a 13.112384
_cell_length_b 4.705757
_cell_length_c 31.597216
_cell_angle_alpha 90.000000
_cell_angle_beta 29.780686
_cell_angle_gamma 90.000000
_cell_volume 968.362326
_symmetry_space_group_name_H-M "P 21/C"
_symmetry_group_IT_number 14
_symmetry_cell_setting 'monoclinic'
loop_
_space_group_symop_operation_xyz
x,y,z
-x,1/2+y,1/2-z
-x,-y,-z
x,1/2-y,1/2+z
loop_
_atom_site_type_symbol
_atom_site_label
_atom_site_fract_x
_atom_site_fract_y
_atom_site_fract_z
Si Si1 0.596277 0.435090 0.820616
Si Si2 0.945430 0.322955 0.242736
Si Si3 0.993973 0.973073 0.861115
Si Si4 0.958807 0.290624 0.068607
Si Si5 0.213189 0.794571 0.987808
Si Si6 0.441216 0.444411 0.299043
O O1 0.936809 0.252911 0.627136
O O2 0.586298 0.816250 0.724602
O O3 0.422788 0.642163 0.900899
O O4 0.519619 0.223530 0.811559
O O5 0.011053 0.142500 0.260119
O O6 0.710183 0.251376 0.315569
O O7 0.929333 0.705150 0.343118
O O8 0.209272 0.110712 0.768716
O O9 0.834644 0.167443 0.944458
O O10 0.026491 0.607601 0.035580
O O11 0.760711 0.138603 0.121249
O O12 0.165140 0.105731 0.987695
#
# Coordination Sequence:
#
# PCOD9247670 Si02
#       6
#     4   4   4   4   4   4
#     4  10  24  43  71  96 135 181 223 280 330 408
#     4  10  23  41  69  98 127 175 228 279 341 397
#     4   8  22  43  68  90 139 175 215 280 330 391
#     4  10  22  39  64  92 139 172 216 274 325 394
#     4  10  22  43  62 100 135 173 224 269 339 391
#     4  12  23  39  65 102 133 185 230 260 336 403
#
# _framework density 24.784109000000001
#
# number of rings (size 3 to 8) (size 9 to 14) (size 15 to 20)
#    2.000    0.000    1.667    1.000    2.333    6.667 
#    3.000    1.667    0.000    1.000    0.000    0.000 
#    0.000    0.000    0.000    0.000    0.000    0.000 
#
# Total GULP energy -133906.450140 kJ/mol
# GULP energy per Si atom -5579.435423 kJ/mol
# Density = 2.472770 g / cm^3
# Si number density = 24.784109 Si / 1000 Ang^3
#
#
#
# Elastic Constant Matrix: (Units=GPa)
#
#
# Indices 1 2 3 4 5 6 
#
# 1 103.1225 8.9572 15.1310 0.0000 19.0452 0.0000
# 2 8.9572 97.6240 29.5057 0.0000 -0.3027 0.0000
# 3 15.1310 29.5057 126.6416 0.0000 4.4209 0.0000
# 4 0.0000 0.0000 0.0000 30.2742 0.0000 -2.6252
# 5 19.0452 -0.3027 4.4209 0.0000 31.7961 0.0000
# 6 0.0000 0.0000 0.0000 -2.6252 0.0000 39.9506
#
#
#
# Elastic Compliance Matrix: (Units=1/GPa)
#
#
# Indices 1 2 3 4 5 6 
#
# 1 0.011105 -0.000761 -0.000922 0.000000 -0.006531 0.000000
# 2 -0.000761 0.011078 -0.002522 0.000000 0.000912 0.000000
# 3 -0.000922 -0.002522 0.008617 0.000000 -0.000670 0.000000
# 4 0.000000 0.000000 0.000000 0.033221 0.000000 0.002183
# 5 -0.006531 0.000912 -0.000670 0.000000 0.035464 0.000000
# 6 0.000000 0.000000 0.000000 0.002183 0.000000 0.025174
#
#
# Mechanical properties :
#
#
# Convention : Reuss Voigt Hill
#
# Bulk Modulus (GPa) = 44.65913 48.28621 46.47267
# Shear Modulus (GPa) = 35.57920 38.65712 37.11816
#
# Velocity S-wave (km/s) = 3.79300 3.95366 3.87416
# Velocity P-wave (km/s) = 6.10252 6.35349 6.22927
#
# Compressibility (1/GPa) = 0.02239184
#
# Stress axis : x y z
#
# Youngs Moduli (GPa) = 90.05296 90.26703 116.04425
#
# Poissons Ratio (x) = 0.06865 0.10695
# Poissons Ratio (y) = 0.06849 0.29267
# Poissons Ratio (z) = 0.08299 0.22766
#
# Static dielectric constant tensor:
#      x y z
#    x 1.961230 0.000000 0.034780 
#    y 0.000000 1.945130 0.000000 
#    z 0.034780 0.000000 2.101490 
# 
# From -- ./inp_files/62099.got.cif
#   From: 2010.05.17/outbox.cif.g08.bks.cpg/sg14_32_cif.got.tgz:62099.got - 2010.06.03 17:49:19.
