data_PCOD9247256
_publ_section_title
;
Structure prediction by ZEFSAII (Michael W. Deem and Ramdas Pophale) SiO2 
 PCOD9247256
Probable space group: P 21/C
;
_chemical_formula_sum "Si O2"
_cell_formula_units_Z 24
_cell_length_a 10.480308
_cell_length_b 7.732022
_cell_length_c 10.760613
_cell_angle_alpha 90.000000
_cell_angle_beta 94.604102
_cell_angle_gamma 90.000000
_cell_volume 869.161466
_symmetry_space_group_name_H-M "P 21/C"
_symmetry_group_IT_number 14
_symmetry_cell_setting 'monoclinic'
loop_
_space_group_symop_operation_xyz
x,y,z
-x,1/2+y,1/2-z
-x,-y,-z
x,1/2-y,1/2+z
loop_
_atom_site_type_symbol
_atom_site_label
_atom_site_fract_x
_atom_site_fract_y
_atom_site_fract_z
Si Si1 0.413102 0.323092 0.154596
Si Si2 0.659844 0.389057 0.034772
Si Si3 0.631699 0.466957 0.436911
Si Si4 0.997452 0.836508 0.735656
Si Si5 0.937878 0.312358 0.013970
Si Si6 0.791722 0.606328 0.667108
O O1 0.563431 0.351742 0.140407
O O2 0.336757 0.405583 0.261865
O O3 0.359403 0.423428 0.027670
O O4 0.378002 0.121383 0.161884
O O5 0.630933 0.240731 0.926640
O O6 0.805360 0.346122 0.074166
O O7 0.500000 0.500000 0.500000
O O8 0.751499 0.524080 0.533310
O O9 0.072641 0.739408 0.626427
O O10 0.982121 0.791639 0.880022
O O11 0.854222 0.797518 0.672431
O O12 0.092854 0.999528 0.759299
O O13 0.000000 0.500000 0.000000
#
# Coordination Sequence:
#
# PCOD9247256 Si02
#       6
#     4   4   4   4   4   4
#     4  10  23  47  72 109 151 195 262 326 389 474
#     4  10  21  46  77 102 151 202 252 327 397 452
#     4  10  24  48  70 110 151 197 261 323 388 475
#     4  12  27  45  79 104 161 204 255 332 395 484
#     4  12  25  50  71 112 153 208 268 322 404 479
#     4  12  26  47  73 117 151 205 266 323 404 481
#
# _framework density 27.612821
#
# number of rings (size 3 to 8) (size 9 to 14) (size 15 to 20)
#    0.000    1.000    5.000    0.000    4.667    2.000 
#   24.000    0.000    0.000    0.000    0.000    0.000 
#    0.000    0.000    0.000    0.000    0.000    0.000 
#
# Total GULP energy -133850.382121 kJ/mol
# GULP energy per Si atom -5577.099255 kJ/mol
# Density = 2.754997 g / cm^3
# Si number density = 27.612821 Si / 1000 Ang^3
#
#
#
# Elastic Constant Matrix: (Units=GPa)
#
#
# Indices 1 2 3 4 5 6 
#
# 1 145.5789 15.5859 29.5429 0.0000 -22.0742 0.0000
# 2 15.5859 121.5578 34.3500 0.0000 -1.3787 0.0000
# 3 29.5429 34.3500 113.0323 0.0000 -9.5036 0.0000
# 4 0.0000 0.0000 0.0000 36.5228 0.0000 -2.3063
# 5 -22.0742 -1.3787 -9.5036 0.0000 49.1412 0.0000
# 6 0.0000 0.0000 0.0000 -2.3063 0.0000 45.7847
#
#
#
# Elastic Compliance Matrix: (Units=1/GPa)
#
#
# Indices 1 2 3 4 5 6 
#
# 1 0.007725 -0.000502 -0.001602 0.000000 0.003146 0.000000
# 2 -0.000502 0.009036 -0.002656 0.000000 -0.000486 0.000000
# 3 -0.001602 -0.002656 0.010171 0.000000 0.001173 0.000000
# 4 0.000000 0.000000 0.000000 0.027468 0.000000 0.001384
# 5 0.003146 -0.000486 0.001173 0.000000 0.021976 0.000000
# 6 0.000000 0.000000 0.000000 0.001384 0.000000 0.021911
#
#
# Mechanical properties :
#
#
# Convention : Reuss Voigt Hill
#
# Bulk Modulus (GPa) = 57.42839 59.90296 58.66568
# Shear Modulus (GPa) = 44.01005 46.33573 45.17289
#
# Velocity S-wave (km/s) = 3.99661 4.10085 4.04906
# Velocity P-wave (km/s) = 6.49154 6.64557 6.56900
#
# Compressibility (1/GPa) = 0.01741299
#
# Stress axis : x y z
#
# Youngs Moduli (GPa) = 129.44932 110.67065 98.31527
#
# Poissons Ratio (x) = 0.05557 0.15750
# Poissons Ratio (y) = 0.06500 0.26108
# Poissons Ratio (z) = 0.20737 0.29389
#
# Static dielectric constant tensor:
#      x y z
#    x 2.154390 0.000000 0.037800 
#    y 0.000000 2.460510 0.000000 
#    z 0.037800 0.000000 2.216900 
# 
# From -- ./inp_files/28104.got.cif
#   From: 2010.05.17/outbox.cif.g08.bks.cpg/sg14_15_cif.got.tgz:28104.got - 2010.06.03 17:49:19.
