data_PCOD9247057
_publ_section_title
;
Structure prediction by ZEFSAII (Michael W. Deem and Ramdas Pophale) SiO2 
 PCOD9247057
Probable space group: P 21/C
;
_chemical_formula_sum "Si O2"
_cell_formula_units_Z 32
_cell_length_a 7.906981
_cell_length_b 12.208067
_cell_length_c 14.517397
_cell_angle_alpha 90.000000
_cell_angle_beta 97.092237
_cell_angle_gamma 90.000000
_cell_volume 1390.626968
_symmetry_space_group_name_H-M "P 21/C"
_symmetry_group_IT_number 14
_symmetry_cell_setting 'monoclinic'
loop_
_space_group_symop_operation_xyz
x,y,z
-x,1/2+y,1/2-z
-x,-y,-z
x,1/2-y,1/2+z
loop_
_atom_site_type_symbol
_atom_site_label
_atom_site_fract_x
_atom_site_fract_y
_atom_site_fract_z
Si Si1 0.449493 0.660434 0.730229
Si Si2 0.627976 0.672072 0.558243
Si Si3 0.818257 0.966683 0.776597
Si Si4 0.953132 0.375348 0.019961
Si Si5 0.193730 0.752200 0.840206
Si Si6 0.286927 0.243754 0.623929
Si Si7 0.877016 0.483101 0.578582
Si Si8 0.047234 0.299902 0.842083
O O1 0.482659 0.678886 0.624973
O O2 0.332187 0.554021 0.734135
O O3 0.353080 0.753819 0.782094
O O4 0.628370 0.662359 0.796381
O O5 0.597539 0.727267 0.457680
O O6 0.703520 0.549909 0.553240
O O7 0.793960 0.730790 0.612582
O O8 0.759870 0.860546 0.832747
O O9 0.873018 0.915921 0.683323
O O10 0.992269 0.016046 0.830887
O O11 0.119497 0.313975 0.072116
O O12 0.814473 0.348706 0.089115
O O13 0.920291 0.317403 0.919047
O O14 0.000000 0.500000 0.000000
O O15 0.172382 0.859464 0.900730
O O16 0.041595 0.752417 0.754648
O O17 0.000000 0.500000 0.500000
#
# Coordination Sequence:
#
# PCOD9247057 Si02
#       8
#     4   4   4   4   4   4   4   4
#     4  12  27  41  67 100 145 188 223 278 373 429
#     4  11  23  40  69  99 134 184 228 283 357 410
#     4  11  22  44  68  96 141 179 235 290 354 419
#     4  11  22  44  73  98 131 185 237 292 350 406
#     4  11  24  43  63 104 141 176 238 292 342 435
#     4  11  24  47  65  99 143 175 227 300 341 424
#     4  11  21  41  74 103 130 181 244 299 347 405
#     4  10  21  43  69  94 136 175 236 291 336 406
#
# _framework density 23.011203999999999
#
# number of rings (size 3 to 8) (size 9 to 14) (size 15 to 20)
#    0.000    1.000    5.000    2.250    1.750    5.500 
#    0.000    5.625    0.000    0.000    0.000    0.000 
#    0.000    0.000    0.000    0.000    0.000    0.000 
#
# Total GULP energy -178792.196069 kJ/mol
# GULP energy per Si atom -5587.256127 kJ/mol
# Density = 2.295883 g / cm^3
# Si number density = 23.011204 Si / 1000 Ang^3
#
#
#
# Elastic Constant Matrix: (Units=GPa)
#
#
# Indices 1 2 3 4 5 6 
#
# 1 51.2806 7.4607 22.3204 0.0000 -21.1167 0.0000
# 2 7.4607 75.9529 31.3639 0.0000 0.4773 0.0000
# 3 22.3204 31.3639 125.1793 0.0000 -33.5391 0.0000
# 4 0.0000 0.0000 0.0000 33.3069 0.0000 -5.6467
# 5 -21.1167 0.4773 -33.5391 0.0000 51.1331 0.0000
# 6 0.0000 0.0000 0.0000 -5.6467 0.0000 33.8458
#
#
#
# Elastic Compliance Matrix: (Units=1/GPa)
#
#
# Indices 1 2 3 4 5 6 
#
# 1 0.024109 -0.001841 -0.001414 0.000000 0.009046 0.000000
# 2 -0.001841 0.015241 -0.004528 0.000000 -0.003873 0.000000
# 3 -0.001414 -0.004528 0.011198 0.000000 0.006803 0.000000
# 4 0.000000 0.000000 0.000000 0.030898 0.000000 0.005155
# 5 0.009046 -0.003873 0.006803 0.000000 0.027791 0.000000
# 6 0.000000 0.000000 0.000000 0.005155 0.000000 0.030406
#
#
# Mechanical properties :
#
#
# Convention : Reuss Voigt Hill
#
# Bulk Modulus (GPa) = 28.58610 41.63363 35.10986
# Shear Modulus (GPa) = 29.96361 36.40836 33.18599
#
# Velocity S-wave (km/s) = 3.61242 3.98200 3.80171
# Velocity P-wave (km/s) = 5.46343 6.26689 5.87890
#
# Compressibility (1/GPa) = 0.03498204
#
# Stress axis : x y z
#
# Youngs Moduli (GPa) = 41.47848 65.61245 89.30233
#
# Poissons Ratio (x) = 0.12081 0.12625
# Poissons Ratio (y) = 0.07637 0.40436
# Poissons Ratio (z) = 0.05864 0.29709
#
# Static dielectric constant tensor:
#      x y z
#    x 1.935280 0.000000 -0.037350 
#    y 0.000000 3.123060 0.000000 
#    z -0.037350 0.000000 1.853750 
# 
# From -- ./inp_files/40322.got.cif
#   From: 2010.05.17/outbox.cif.g08.bks.cpg/sg14_21_cif.got.tgz:40322.got - 2010.06.03 17:49:19.
