data_PCOD9247789
_publ_section_title
;
Structure prediction by ZEFSAII (Michael W. Deem and Ramdas Pophale) SiO2 
 PCOD9247789
Probable space group: P 21/C
;
_chemical_formula_sum "Si O2"
_cell_formula_units_Z 20
_cell_length_a 15.028735
_cell_length_b 5.354590
_cell_length_c 10.118176
_cell_angle_alpha 90.000000
_cell_angle_beta 96.205623
_cell_angle_gamma 90.000000
_cell_volume 809.465949
_symmetry_space_group_name_H-M "P 21/C"
_symmetry_group_IT_number 14
_symmetry_cell_setting 'monoclinic'
loop_
_space_group_symop_operation_xyz
x,y,z
-x,1/2+y,1/2-z
-x,-y,-z
x,1/2-y,1/2+z
loop_
_atom_site_type_symbol
_atom_site_label
_atom_site_fract_x
_atom_site_fract_y
_atom_site_fract_z
Si Si1 0.924930 0.352846 0.573934
Si Si2 0.605770 0.573373 0.226608
Si Si3 0.136822 0.345505 0.861993
Si Si4 0.773220 0.556186 0.399942
Si Si5 0.564445 0.072482 0.129482
O O1 0.904328 0.571207 0.676365
O O2 0.832568 0.341478 0.475363
O O3 0.000000 0.500000 0.500000
O O4 0.933842 0.068559 0.621528
O O5 0.668156 0.522561 0.363196
O O6 0.629409 0.841952 0.169605
O O7 0.502554 0.600482 0.255192
O O8 0.611138 0.340600 0.128421
O O9 0.196445 0.284170 0.001164
O O10 0.192479 0.421725 0.743951
O O11 0.500000 0.000000 0.000000
#
# Coordination Sequence:
#
# PCOD9247789 Si02
#       5
#     4   4   4   4   4
#     4  10  24  43  68  96 134 172 222 270 333 396
#     4  10  23  38  61  92 123 169 212 271 318 394
#     4  10  25  41  67  97 132 174 219 277 326 400
#     4  10  26  41  69  98 137 172 230 267 349 387
#     4  10  22  40  61  88 126 166 219 260 329 377
#
# _framework density 24.707649
#
# number of rings (size 3 to 8) (size 9 to 14) (size 15 to 20)
#    1.200    0.800    0.000    1.200    8.400    3.200 
#    0.000    0.000    0.000    0.000    0.000    0.000 
#    0.000    0.000    0.000    0.000    0.000    0.000 
#
# Total GULP energy -111454.580268 kJ/mol
# GULP energy per Si atom -5572.729013 kJ/mol
# Density = 2.465141 g / cm^3
# Si number density = 24.707649 Si / 1000 Ang^3
#
#
#
# Elastic Constant Matrix: (Units=GPa)
#
#
# Indices 1 2 3 4 5 6 
#
# 1 76.6485 5.3061 17.4530 0.0000 20.6478 0.0000
# 2 5.3061 102.0716 17.5386 0.0000 -6.2673 0.0000
# 3 17.4530 17.5386 51.9279 0.0000 5.9627 0.0000
# 4 0.0000 0.0000 0.0000 12.3421 0.0000 4.5311
# 5 20.6478 -6.2673 5.9627 0.0000 44.1918 0.0000
# 6 0.0000 0.0000 0.0000 4.5311 0.0000 18.6875
#
#
#
# Elastic Compliance Matrix: (Units=1/GPa)
#
#
# Indices 1 2 3 4 5 6 
#
# 1 0.015949 -0.000499 -0.004396 0.000000 -0.006929 0.000000
# 2 -0.000499 0.010590 -0.003665 0.000000 0.002230 0.000000
# 3 -0.004396 -0.003665 0.022140 0.000000 -0.001453 0.000000
# 4 0.000000 0.000000 0.000000 0.088940 0.000000 -0.021565
# 5 -0.006929 0.002230 -0.001453 0.000000 0.026379 0.000000
# 6 0.000000 0.000000 0.000000 -0.021565 0.000000 0.058740
#
#
# Mechanical properties :
#
#
# Convention : Reuss Voigt Hill
#
# Bulk Modulus (GPa) = 31.68794 34.58259 33.13527
# Shear Modulus (GPa) = 19.96989 27.73430 23.85210
#
# Velocity S-wave (km/s) = 2.84605 3.35401 3.11042
# Velocity P-wave (km/s) = 4.86344 5.38760 5.13222
#
# Compressibility (1/GPa) = 0.03155774
#
# Stress axis : x y z
#
# Youngs Moduli (GPa) = 62.70063 94.43218 45.16780
#
# Poissons Ratio (x) = 0.04714 0.19856
# Poissons Ratio (y) = 0.03130 0.16553
# Poissons Ratio (z) = 0.27564 0.34608
#
# Static dielectric constant tensor:
#      x y z
#    x 2.080570 0.000000 -0.061160 
#    y 0.000000 2.019700 0.000000 
#    z -0.061160 0.000000 2.125560 
# 
# From -- ./inp_files/31003.got.cif
#   From: 2010.05.17/outbox.cif.g08.bks.cpg/sg14_16_cif.got.tgz:31003.got - 2010.06.03 17:49:19.
