data_PCOD9247663
_publ_section_title
;
Structure prediction by ZEFSAII (Michael W. Deem and Ramdas Pophale) SiO2 
 PCOD9247663
Probable space group: P 21/C
;
_chemical_formula_sum "Si O2"
_cell_formula_units_Z 28
_cell_length_a 17.837252
_cell_length_b 9.419443
_cell_length_c 16.741743
_cell_angle_alpha 90.000000
_cell_angle_beta 31.236359
_cell_angle_gamma 90.000000
_cell_volume 1458.683208
_symmetry_space_group_name_H-M "P 21/C"
_symmetry_group_IT_number 14
_symmetry_cell_setting 'monoclinic'
loop_
_space_group_symop_operation_xyz
x,y,z
-x,1/2+y,1/2-z
-x,-y,-z
x,1/2-y,1/2+z
loop_
_atom_site_type_symbol
_atom_site_label
_atom_site_fract_x
_atom_site_fract_y
_atom_site_fract_z
Si Si1 0.234332 0.341174 0.940150
Si Si2 0.425993 0.133190 0.114222
Si Si3 0.277935 0.686858 0.596980
Si Si4 0.816958 0.583747 0.411120
Si Si5 0.835495 0.719041 0.741911
Si Si6 0.861619 0.029928 0.328430
Si Si7 0.025741 0.845269 0.440395
O O1 0.337909 0.398002 0.775993
O O2 0.265931 0.187029 0.951093
O O3 0.216786 0.451681 0.027240
O O4 0.077850 0.326503 0.041318
O O5 0.309952 0.217422 0.165799
O O6 0.561371 0.223426 0.022313
O O7 0.500000 0.000000 0.000000
O O8 0.270474 0.545900 0.548793
O O9 0.186453 0.661922 0.761239
O O10 0.198271 0.812817 0.624292
O O11 0.862881 0.684745 0.295196
O O12 0.966086 0.528508 0.313804
O O13 0.825073 0.559281 0.782298
O O14 0.966996 0.737940 0.560335
O O15 0.000000 0.000000 0.500000
#
# Coordination Sequence:
#
# PCOD9247663 Si02
#       7
#     4   4   4   4   4   4   4
#     4  10  22  39  64  88 127 160 207 262 317 360
#     4  11  23  43  64  88 124 172 211 250 314 388
#     4  12  22  36  66  89 122 163 216 246 307 387
#     4  11  19  40  64  92 118 163 209 261 306 367
#     4  10  22  39  65  87 128 160 203 267 312 363
#     4  11  22  39  63  96 126 158 209 270 313 363
#     4  11  18  36  63  92 114 165 213 252 306 367
#
# _framework density 19.195395000000001
#
# number of rings (size 3 to 8) (size 9 to 14) (size 15 to 20)
#    0.000    1.143    5.714    1.714    0.000    2.286 
#    0.000    0.000    0.000    0.000    0.000    0.000 
#    0.000    0.000    0.000    0.000    0.000    0.000 
#
# Total GULP energy -156238.812264 kJ/mol
# GULP energy per Si atom -5579.957581 kJ/mol
# Density = 1.915171 g / cm^3
# Si number density = 19.195395 Si / 1000 Ang^3
#
#
#
# Elastic Constant Matrix: (Units=GPa)
#
#
# Indices 1 2 3 4 5 6 
#
# 1 71.9390 20.5854 27.0694 0.0000 7.6256 0.0000
# 2 20.5854 76.7600 13.9963 0.0000 20.0018 0.0000
# 3 27.0694 13.9963 96.6155 0.0000 8.7405 0.0000
# 4 0.0000 0.0000 0.0000 12.0793 0.0000 7.7180
# 5 7.6256 20.0018 8.7405 0.0000 31.7338 0.0000
# 6 0.0000 0.0000 0.0000 7.7180 0.0000 27.4218
#
#
#
# Elastic Compliance Matrix: (Units=1/GPa)
#
#
# Indices 1 2 3 4 5 6 
#
# 1 0.016501 -0.003522 -0.004056 0.000000 -0.000628 0.000000
# 2 -0.003522 0.016528 -0.000555 0.000000 -0.009418 0.000000
# 3 -0.004056 -0.000555 0.011740 0.000000 -0.001909 0.000000
# 4 0.000000 0.000000 0.000000 0.100938 0.000000 -0.028410
# 5 -0.000628 -0.009418 -0.001909 0.000000 0.038125 0.000000
# 6 0.000000 0.000000 0.000000 -0.028410 0.000000 0.044463
#
#
# Mechanical properties :
#
#
# Convention : Reuss Voigt Hill
#
# Bulk Modulus (GPa) = 35.08612 40.95739 38.02176
# Shear Modulus (GPa) = 19.68012 26.49121 23.08567
#
# Velocity S-wave (km/s) = 3.20543 3.71898 3.47171
# Velocity P-wave (km/s) = 5.65843 6.31066 5.99342
#
# Compressibility (1/GPa) = 0.02850130
#
# Stress axis : x y z
#
# Youngs Moduli (GPa) = 60.60104 60.50520 85.17945
#
# Poissons Ratio (x) = 0.21310 0.34551
# Poissons Ratio (y) = 0.21344 0.04731
# Poissons Ratio (z) = 0.24581 0.03361
#
# Static dielectric constant tensor:
#      x y z
#    x 1.673980 0.000000 0.000980 
#    y 0.000000 1.708970 0.000000 
#    z 0.000980 0.000000 1.713310 
# 
# From -- ./inp_files/54867.got.cif
#   From: 2010.05.17/outbox.cif.g08.bks.cpg/sg14_28_cif.got.tgz:54867.got - 2010.06.03 17:49:19.
