data_PCOD9247383
_publ_section_title
;
Structure prediction by ZEFSAII (Michael W. Deem and Ramdas Pophale) SiO2 
 PCOD9247383
Probable space group: P 21/C
;
_chemical_formula_sum "Si O2"
_cell_formula_units_Z 16
_cell_length_a 18.011501
_cell_length_b 8.064279
_cell_length_c 5.528937
_cell_angle_alpha 90.000000
_cell_angle_beta 46.568183
_cell_angle_gamma 90.000000
_cell_volume 583.188777
_symmetry_space_group_name_H-M "P 21/C"
_symmetry_group_IT_number 14
_symmetry_cell_setting 'monoclinic'
loop_
_space_group_symop_operation_xyz
x,y,z
-x,1/2+y,1/2-z
-x,-y,-z
x,1/2-y,1/2+z
loop_
_atom_site_type_symbol
_atom_site_label
_atom_site_fract_x
_atom_site_fract_y
_atom_site_fract_z
Si Si1 0.108059 0.831637 0.882304
Si Si2 0.382471 0.453424 0.791161
Si Si3 0.087398 0.371127 0.722421
Si Si4 0.697307 0.920450 0.031503
O O1 0.144993 0.729301 0.036926
O O2 0.985841 0.785833 0.156551
O O3 0.127471 0.022660 0.901046
O O4 0.500000 0.500000 0.500000
O O5 0.325767 0.506635 0.671307
O O6 0.636767 0.754694 0.652455
O O7 0.341818 0.515602 0.142455
O O8 0.185228 0.368406 0.678090
O O9 0.000000 0.500000 0.000000
#
# Coordination Sequence:
#
# PCOD9247383 Si02
#       4
#     4   4   4   4
#     4  10  22  37  60  88 138 175 215 257 310 367
#     4  10  22  42  70  95 126 164 234 283 334 388
#     4  10  23  40  68  99 144 175 223 260 326 409
#     4  10  23  39  73  99 125 179 214 269 357 389
#
# _framework density 27.435371
#
# number of rings (size 3 to 8) (size 9 to 14) (size 15 to 20)
#    0.000    2.000    0.000    1.500   14.000    4.000 
#    0.000    0.000   66.000    0.000    0.000    0.000 
#    0.000    0.000    0.000    0.000    0.000    0.000 
#
# Total GULP energy -89434.942264 kJ/mol
# GULP energy per Si atom -5589.683892 kJ/mol
# Density = 2.737293 g / cm^3
# Si number density = 27.435371 Si / 1000 Ang^3
#
#
#
# Elastic Constant Matrix: (Units=GPa)
#
#
# Indices 1 2 3 4 5 6 
#
# 1 207.3221 51.5493 79.7052 0.0000 13.9460 0.0000
# 2 51.5493 49.5903 -15.2015 0.0000 -2.0369 0.0000
# 3 79.7052 -15.2015 141.8003 0.0000 33.3988 0.0000
# 4 0.0000 0.0000 0.0000 30.3128 0.0000 -7.3909
# 5 13.9460 -2.0369 33.3988 0.0000 92.7674 0.0000
# 6 0.0000 0.0000 0.0000 -7.3909 0.0000 51.8284
#
#
#
# Elastic Compliance Matrix: (Units=1/GPa)
#
#
# Indices 1 2 3 4 5 6 
#
# 1 0.011536 -0.014484 -0.008254 0.000000 0.000919 0.000000
# 2 -0.014484 0.039048 0.012689 0.000000 -0.001533 0.000000
# 3 -0.008254 0.012689 0.013870 0.000000 -0.003474 0.000000
# 4 0.000000 0.000000 0.000000 0.034178 0.000000 0.004874
# 5 0.000919 -0.001533 -0.003474 0.000000 0.011859 0.000000
# 6 0.000000 0.000000 0.000000 0.004874 0.000000 0.019989
#
#
# Mechanical properties :
#
#
# Convention : Reuss Voigt Hill
#
# Bulk Modulus (GPa) = 22.54470 70.09096 46.31783
# Shear Modulus (GPa) = 30.23639 53.82569 42.03104
#
# Velocity S-wave (km/s) = 3.32338 4.43415 3.91833
# Velocity P-wave (km/s) = 4.79184 7.19852 6.11475
#
# Compressibility (1/GPa) = 0.04435632
#
# Stress axis : x y z
#
# Youngs Moduli (GPa) = 86.68450 25.60938 72.09763
#
# Poissons Ratio (x) = 0.37093 0.59507
# Poissons Ratio (y) = 1.25555 -0.91483
# Poissons Ratio (z) = 0.71546 -0.32495
#
# Static dielectric constant tensor:
#      x y z
#    x 2.208570 0.000000 0.187360 
#    y 0.000000 2.469000 0.000000 
#    z 0.187360 0.000000 2.392800 
# 
# From -- ./inp_files/3438.got.cif
#   From: 2010.05.17/outbox.cif.g08.bks.cpg/sg14_2_cif.got.tgz:3438.got - 2010.06.03 17:49:19.
