data_PCOD9247306
_publ_section_title
;
Structure prediction by ZEFSAII (Michael W. Deem and Ramdas Pophale) SiO2 
 PCOD9247306
Probable space group: P 21/C
;
_chemical_formula_sum "Si O2"
_cell_formula_units_Z 24
_cell_length_a 8.310083
_cell_length_b 7.301136
_cell_length_c 16.735586
_cell_angle_alpha 90.000000
_cell_angle_beta 90.410815
_cell_angle_gamma 90.000000
_cell_volume 1015.372881
_symmetry_space_group_name_H-M "P 21/C"
_symmetry_group_IT_number 14
_symmetry_cell_setting 'monoclinic'
loop_
_space_group_symop_operation_xyz
x,y,z
-x,1/2+y,1/2-z
-x,-y,-z
x,1/2-y,1/2+z
loop_
_atom_site_type_symbol
_atom_site_label
_atom_site_fract_x
_atom_site_fract_y
_atom_site_fract_z
Si Si1 0.689256 0.876107 0.911767
Si Si2 0.777999 0.050179 0.243490
Si Si3 0.727614 0.377368 0.042956
Si Si4 0.569516 0.485303 0.876814
Si Si5 0.366557 0.043042 0.913514
Si Si6 0.993122 0.702963 0.853920
O O1 0.612020 0.700415 0.868835
O O2 0.559385 0.038200 0.899328
O O3 0.872655 0.866365 0.882418
O O4 0.683678 0.847431 0.007754
O O5 0.724698 0.923655 0.168964
O O6 0.873359 0.216962 0.205084
O O7 0.622030 0.105076 0.294537
O O8 0.893841 0.946713 0.305132
O O9 0.615154 0.509264 0.096879
O O10 0.677781 0.166487 0.061062
O O11 0.911653 0.383200 0.071075
O O12 0.678131 0.419592 0.952062
#
# Coordination Sequence:
#
# PCOD9247306 Si02
#       6
#     4   4   4   4   4   4
#     4   9  19  36  56  78 108 145 187 225 276 343
#     4  10  22  36  54  82 114 144 186 238 286 328
#     4   9  19  36  56  78 108 145 187 225 276 343
#     4   9  19  37  56  78 108 146 186 227 278 338
#     4   9  19  37  56  78 108 146 186 227 278 338
#     4  10  22  36  54  84 114 146 188 236 282 326
#
# _framework density 23.636638000000001
#
# number of rings (size 3 to 8) (size 9 to 14) (size 15 to 20)
#    0.000    2.667    0.000    0.000    0.000   10.667 
#    0.000   23.333    0.000    0.000    0.000    0.000 
#    0.000    0.000    0.000    0.000    0.000    0.000 
#
# Total GULP energy -133907.992831 kJ/mol
# GULP energy per Si atom -5579.499701 kJ/mol
# Density = 2.358284 g / cm^3
# Si number density = 23.636638 Si / 1000 Ang^3
#
#
#
# Elastic Constant Matrix: (Units=GPa)
#
#
# Indices 1 2 3 4 5 6 
#
# 1 64.9456 3.2085 34.9978 0.0000 11.4390 0.0000
# 2 3.2085 29.0404 13.8212 0.0000 -7.3605 0.0000
# 3 34.9978 13.8212 66.4153 0.0000 -8.3898 0.0000
# 4 0.0000 0.0000 0.0000 34.2305 0.0000 0.5793
# 5 11.4390 -7.3605 -8.3898 0.0000 51.4298 0.0000
# 6 0.0000 0.0000 0.0000 0.5793 0.0000 13.5970
#
#
#
# Elastic Compliance Matrix: (Units=1/GPa)
#
#
# Indices 1 2 3 4 5 6 
#
# 1 0.024212 0.002187 -0.014146 0.000000 -0.007380 0.000000
# 2 0.002187 0.039354 -0.008875 0.000000 0.003698 0.000000
# 3 -0.014146 -0.008875 0.025113 0.000000 0.005973 0.000000
# 4 0.000000 0.000000 0.000000 0.029235 0.000000 -0.001246
# 5 -0.007380 0.003698 0.005973 0.000000 0.022589 0.000000
# 6 0.000000 0.000000 0.000000 -0.001246 0.000000 0.073599
#
#
# Mechanical properties :
#
#
# Convention : Reuss Voigt Hill
#
# Bulk Modulus (GPa) = 21.27167 29.38403 25.32785
# Shear Modulus (GPa) = 18.42023 27.07639 22.74831
#
# Velocity S-wave (km/s) = 2.79464 3.38823 3.10565
# Velocity P-wave (km/s) = 4.40821 5.26929 4.85787
#
# Compressibility (1/GPa) = 0.04701088
#
# Stress axis : x y z
#
# Youngs Moduli (GPa) = 41.30110 25.41013 39.82061
#
# Poissons Ratio (x) = -0.05557 0.56331
# Poissons Ratio (y) = -0.09033 0.35341
# Poissons Ratio (z) = 0.58425 0.22552
#
# Static dielectric constant tensor:
#      x y z
#    x 1.979180 0.000000 -0.021920 
#    y 0.000000 1.945430 0.000000 
#    z -0.021920 0.000000 1.881410 
# 
# From -- ./inp_files/38984.got.cif
#   From: 2010.05.17/outbox.cif.g08.bks.cpg/sg14_20_cif.got.tgz:38984.got - 2010.06.03 17:49:19.
