data_PCOD9247048
_publ_section_title
;
Structure prediction by ZEFSAII (Michael W. Deem and Ramdas Pophale) SiO2 
 PCOD9247048
Probable space group: P 21/C
;
_chemical_formula_sum "Si O2"
_cell_formula_units_Z 28
_cell_length_a 15.836424
_cell_length_b 9.257693
_cell_length_c 9.330235
_cell_angle_alpha 90.000000
_cell_angle_beta 52.498928
_cell_angle_gamma 90.000000
_cell_volume 1085.207777
_symmetry_space_group_name_H-M "P 21/C"
_symmetry_group_IT_number 14
_symmetry_cell_setting 'monoclinic'
loop_
_space_group_symop_operation_xyz
x,y,z
-x,1/2+y,1/2-z
-x,-y,-z
x,1/2-y,1/2+z
loop_
_atom_site_type_symbol
_atom_site_label
_atom_site_fract_x
_atom_site_fract_y
_atom_site_fract_z
Si Si1 0.361464 0.162544 0.928804
Si Si2 0.534732 0.544457 0.160574
Si Si3 0.198940 0.813769 0.500855
Si Si4 0.704686 0.904353 0.698169
Si Si5 0.094750 0.091583 0.978330
Si Si6 0.715994 0.386498 0.798706
Si Si7 0.974130 0.861132 0.625600
O O1 0.446516 0.286484 0.894660
O O2 0.290843 0.254610 0.892088
O O3 0.422324 0.032132 0.790185
O O4 0.298112 0.108072 0.130568
O O5 0.589840 0.536837 0.260669
O O6 0.609222 0.448889 0.979139
O O7 0.220685 0.796570 0.644596
O O8 0.288421 0.723281 0.326892
O O9 0.082250 0.779070 0.565682
O O10 0.213307 0.982417 0.449911
O O11 0.076953 0.095892 0.168394
O O12 0.088365 0.248380 0.909953
O O13 0.204643 0.014291 0.824757
O O14 0.000000 0.000000 0.000000
O O15 0.000000 0.000000 0.500000
#
# Coordination Sequence:
#
# PCOD9247048 Si02
#       7
#     4   4   4   4   4   4   4
#     4  10  21  43  68  98 136 182 232 287 345 420
#     4   9  23  41  69  99 136 178 234 284 348 414
#     4  11  23  45  68 100 140 177 236 287 352 417
#     4   9  23  42  67  98 140 175 233 286 349 417
#     4  12  24  45  72 101 142 181 241 284 346 434
#     4  11  25  45  69 101 140 182 236 290 347 422
#     4  12  26  44  73 104 138 189 228 295 360 415
#
# _framework density 25.80151
#
# number of rings (size 3 to 8) (size 9 to 14) (size 15 to 20)
#    0.857    0.571    2.857    1.286    4.000    2.857 
#    5.143    0.000    0.000    0.000    0.000    0.000 
#    0.000    0.000    0.000    0.000    0.000    0.000 
#
# Total GULP energy -156896.543220 kJ/mol
# GULP energy per Si atom -5603.447972 kJ/mol
# Density = 2.574278 g / cm^3
# Si number density = 25.801510 Si / 1000 Ang^3
#
#
#
# Elastic Constant Matrix: (Units=GPa)
#
#
# Indices 1 2 3 4 5 6 
#
# 1 75.5539 22.4198 33.3612 0.0000 11.2608 0.0000
# 2 22.4198 83.8678 27.8112 0.0000 19.8399 0.0000
# 3 33.3612 27.8112 174.3041 0.0000 31.4980 0.0000
# 4 0.0000 0.0000 0.0000 48.6468 0.0000 -0.8671
# 5 11.2608 19.8399 31.4980 0.0000 36.9785 0.0000
# 6 0.0000 0.0000 0.0000 -0.8671 0.0000 47.0911
#
#
#
# Elastic Compliance Matrix: (Units=1/GPa)
#
#
# Indices 1 2 3 4 5 6 
#
# 1 0.015304 -0.003090 -0.002238 0.000000 -0.001096 0.000000
# 2 -0.003090 0.014433 -0.000570 0.000000 -0.006317 0.000000
# 3 -0.002238 -0.000570 0.007184 0.000000 -0.005132 0.000000
# 4 0.000000 0.000000 0.000000 0.020563 0.000000 0.000379
# 5 -0.001096 -0.006317 -0.005132 0.000000 0.035137 0.000000
# 6 0.000000 0.000000 0.000000 0.000379 0.000000 0.021242
#
#
# Mechanical properties :
#
#
# Convention : Reuss Voigt Hill
#
# Bulk Modulus (GPa) = 39.80026 55.65669 47.72847
# Shear Modulus (GPa) = 37.30409 43.21885 40.26147
#
# Velocity S-wave (km/s) = 3.80651 4.09718 3.95451
# Velocity P-wave (km/s) = 5.89732 6.63328 6.27610
#
# Compressibility (1/GPa) = 0.02512547
#
# Stress axis : x y z
#
# Youngs Moduli (GPa) = 65.34225 69.28634 139.20350
#
# Poissons Ratio (x) = 0.21407 0.31154
# Poissons Ratio (y) = 0.20188 0.07934
# Poissons Ratio (z) = 0.14624 0.03949
#
# Static dielectric constant tensor:
#      x y z
#    x 2.179810 0.000000 -0.021880 
#    y 0.000000 2.005530 0.000000 
#    z -0.021880 0.000000 1.938880 
# 
# From -- ./inp_files/18706.got.cif
#   From: 2010.05.17/outbox.cif.g08.bks.cpg/sg14_10_cif.got.tgz:18706.got - 2010.06.03 17:49:19.
