data_PCOD9247335
_publ_section_title
;
Structure prediction by ZEFSAII (Michael W. Deem and Ramdas Pophale) SiO2 
 PCOD9247335
Probable space group: P 21/C
;
_chemical_formula_sum "Si O2"
_cell_formula_units_Z 20
_cell_length_a 16.181365
_cell_length_b 10.751986
_cell_length_c 8.884229
_cell_angle_alpha 90.000000
_cell_angle_beta 34.100065
_cell_angle_gamma 90.000000
_cell_volume 866.577917
_symmetry_space_group_name_H-M "P 21/C"
_symmetry_group_IT_number 14
_symmetry_cell_setting 'monoclinic'
loop_
_space_group_symop_operation_xyz
x,y,z
-x,1/2+y,1/2-z
-x,-y,-z
x,1/2-y,1/2+z
loop_
_atom_site_type_symbol
_atom_site_label
_atom_site_fract_x
_atom_site_fract_y
_atom_site_fract_z
Si Si1 0.431242 0.606402 0.809326
Si Si2 0.933908 0.135007 0.604179
Si Si3 0.113060 0.265095 0.081177
Si Si4 0.835411 0.939767 0.246643
Si Si5 0.601335 0.358085 0.496745
O O1 0.538367 0.487575 0.656300
O O2 0.411103 0.638175 0.664058
O O3 0.277812 0.552285 0.104441
O O4 0.476514 0.732773 0.824869
O O5 0.769549 0.148159 0.797164
O O6 0.048328 0.202762 0.324734
O O7 0.966873 0.185739 0.718666
O O8 0.000000 0.000000 0.500000
O O9 0.198837 0.379390 0.034106
O O10 0.181020 0.163082 0.863490
O O11 0.000000 0.000000 0.000000
#
# Coordination Sequence:
#
# PCOD9247335 Si02
#       5
#     4   4   4   4   4
#     4  11  26  45  67  93 131 171 217 268 324 390
#     4  11  21  38  63  91 124 164 209 257 312 376
#     4  10  22  36  61  95 126 160 213 269 318 373
#     4  11  22  40  64  94 129 169 216 271 325 385
#     4  11  25  45  65  95 130 171 217 267 323 388
#
# _framework density 23.079287000000001
#
# number of rings (size 3 to 8) (size 9 to 14) (size 15 to 20)
#    0.000    1.200    0.000    7.200    0.000    8.800 
#    0.000    0.000    0.000    0.000    0.000    0.000 
#    0.000    0.000    0.000    0.000    0.000    0.000 
#
# Total GULP energy -111746.905666 kJ/mol
# GULP energy per Si atom -5587.345283 kJ/mol
# Density = 2.302676 g / cm^3
# Si number density = 23.079287 Si / 1000 Ang^3
#
#
#
# Elastic Constant Matrix: (Units=GPa)
#
#
# Indices 1 2 3 4 5 6 
#
# 1 38.2684 25.1240 0.2209 0.0000 19.0581 0.0000
# 2 25.1240 129.9186 12.5994 0.0000 15.1195 0.0000
# 3 0.2209 12.5994 41.0552 0.0000 7.4594 0.0000
# 4 0.0000 0.0000 0.0000 19.1916 0.0000 0.5028
# 5 19.0581 15.1195 7.4594 0.0000 26.3090 0.0000
# 6 0.0000 0.0000 0.0000 0.5028 0.0000 43.7643
#
#
#
# Elastic Compliance Matrix: (Units=1/GPa)
#
#
# Indices 1 2 3 4 5 6 
#
# 1 0.045831 -0.005862 0.007351 0.000000 -0.031916 0.000000
# 2 -0.005862 0.009121 -0.002727 0.000000 -0.000222 0.000000
# 3 0.007351 -0.002727 0.027241 0.000000 -0.011481 0.000000
# 4 0.000000 0.000000 0.000000 0.052122 0.000000 -0.000599
# 5 -0.031916 -0.000222 -0.011481 0.000000 0.064513 0.000000
# 6 0.000000 0.000000 0.000000 -0.000599 0.000000 0.022857
#
#
# Mechanical properties :
#
#
# Convention : Reuss Voigt Hill
#
# Bulk Modulus (GPa) = 12.54424 31.68121 22.11273
# Shear Modulus (GPa) = 19.94157 29.27284 24.60721
#
# Velocity S-wave (km/s) = 2.94266 3.56527 3.26882
# Velocity P-wave (km/s) = 4.12222 5.54122 4.88353
#
# Compressibility (1/GPa) = 0.07971783
#
# Stress axis : x y z
#
# Youngs Moduli (GPa) = 21.81907 109.63671 36.70950
#
# Poissons Ratio (x) = 0.64265 -0.26985
# Poissons Ratio (y) = 0.12790 0.10011
# Poissons Ratio (z) = -0.16039 0.29900
#
# Static dielectric constant tensor:
#      x y z
#    x 1.923240 0.000000 -0.007380 
#    y 0.000000 1.797110 0.000000 
#    z -0.007380 0.000000 1.845460 
# 
# From -- ./inp_files/12224.got.cif
#   From: 2010.05.17/outbox.cif.g08.bks.cpg/sg14_7_cif.got.tgz:12224.got - 2010.06.03 17:49:19.
