data_PCOD9247276
_publ_section_title
;
Structure prediction by ZEFSAII (Michael W. Deem and Ramdas Pophale) SiO2 
 PCOD9247276
Probable space group: P 21/C
;
_chemical_formula_sum "Si O2"
_cell_formula_units_Z 30
_cell_length_a 20.890901
_cell_length_b 5.363953
_cell_length_c 17.995097
_cell_angle_alpha 90.000000
_cell_angle_beta 34.290347
_cell_angle_gamma 90.000000
_cell_volume 1136.064640
_symmetry_space_group_name_H-M "P 21/C"
_symmetry_group_IT_number 14
_symmetry_cell_setting 'monoclinic'
loop_
_space_group_symop_operation_xyz
x,y,z
-x,1/2+y,1/2-z
-x,-y,-z
x,1/2-y,1/2+z
loop_
_atom_site_type_symbol
_atom_site_label
_atom_site_fract_x
_atom_site_fract_y
_atom_site_fract_z
Si Si1 0.638356 0.483448 0.083863
Si Si2 0.500000 0.000000 0.000000
Si Si3 0.032597 0.417158 0.114539
Si Si4 0.344084 0.660555 0.559162
Si Si5 0.148930 0.288397 0.764136
Si Si6 0.676673 0.959677 0.302294
Si Si7 0.949488 0.091963 0.862196
Si Si8 0.365798 0.019895 0.829353
O O1 0.675178 0.736167 0.086769
O O2 0.502468 0.485377 0.205267
O O3 0.671611 0.232489 0.094752
O O4 0.679751 0.412896 0.961471
O O5 0.532056 0.040269 0.061104
O O6 0.586637 0.750295 0.914505
O O7 0.946625 0.492827 0.131640
O O8 0.108900 0.659196 0.052487
O O9 0.961053 0.413265 0.262266
O O10 0.093479 0.157155 0.058995
O O11 0.250228 0.457379 0.635798
O O12 0.353454 0.758825 0.636599
O O13 0.201977 0.132330 0.780803
O O14 0.077501 0.120687 0.774710
O O15 0.669011 0.975810 0.222246
#
# Coordination Sequence:
#
# PCOD9247276 Si02
#       8
#     4   2   4   4   4   4   4   4
#     4  10  23  38  55  72 100 144 191 227 266 320
#     4  10  22  32  52  78 100 148 176 222 278 316
#     4   8  14  27  45  68 103 140 165 198 261 329
#     4  11  22  34  54  78 113 137 186 231 280 320
#     4   9  20  29  50  80 108 140 170 219 274 325
#     4  11  22  34  54  78 113 137 186 231 280 320
#     4   8  14  27  45  68 103 140 165 198 261 329
#     4  10  23  38  55  72 100 144 191 227 266 320
#
# _framework density 26.406949999999998
#
# number of rings (size 3 to 8) (size 9 to 14) (size 15 to 20)
#    0.800    1.600    1.333    1.200    7.467    0.000 
#    0.000    0.000    0.000    0.000    0.000    0.000 
#    0.000    6.400    0.000    0.000    0.000    0.000 
#
# Total GULP energy -167120.390124 kJ/mol
# GULP energy per Si atom -5570.679671 kJ/mol
# Density = 2.634685 g / cm^3
# Si number density = 26.406950 Si / 1000 Ang^3
#
#
#
# Elastic Constant Matrix: (Units=GPa)
#
#
# Indices 1 2 3 4 5 6 
#
# 1 163.1955 43.5278 39.1555 0.0000 7.8305 0.0000
# 2 43.5278 150.5495 17.0065 0.0000 2.7607 0.0000
# 3 39.1555 17.0065 34.1046 0.0000 11.2746 0.0000
# 4 0.0000 0.0000 0.0000 12.3248 0.0000 10.2575
# 5 7.8305 2.7607 11.2746 0.0000 39.3332 0.0000
# 6 0.0000 0.0000 0.0000 10.2575 0.0000 38.2740
#
#
#
# Elastic Compliance Matrix: (Units=1/GPa)
#
#
# Indices 1 2 3 4 5 6 
#
# 1 0.008804 -0.001464 -0.009757 0.000000 0.001147 0.000000
# 2 -0.001464 0.007294 -0.002080 0.000000 0.000376 0.000000
# 3 -0.009757 -0.002080 0.045149 0.000000 -0.010853 0.000000
# 4 0.000000 0.000000 0.000000 0.104430 0.000000 -0.027987
# 5 0.001147 0.000376 -0.010853 0.000000 0.028280 0.000000
# 6 0.000000 0.000000 0.000000 -0.027987 0.000000 0.033628
#
#
# Mechanical properties :
#
#
# Convention : Reuss Voigt Hill
#
# Bulk Modulus (GPa) = 28.86519 60.80323 44.83421
# Shear Modulus (GPa) = 18.81571 34.53039 26.67305
#
# Velocity S-wave (km/s) = 2.67222 3.62003 3.18162
# Velocity P-wave (km/s) = 4.52500 6.36775 5.52376
#
# Compressibility (1/GPa) = 0.03464380
#
# Stress axis : x y z
#
# Youngs Moduli (GPa) = 113.58257 137.10274 22.14902
#
# Poissons Ratio (x) = 0.20077 0.21611
# Poissons Ratio (y) = 0.16633 0.04607
# Poissons Ratio (z) = 1.10822 0.28519
#
# Static dielectric constant tensor:
#      x y z
#    x 1.863620 0.000000 0.199000 
#    y 0.000000 2.039090 0.000000 
#    z 0.199000 0.000000 1.956360 
# 
# From -- ./inp_files/60880.got.cif
#   From: 2010.05.17/outbox.cif.g08.bks.cpg/sg14_31_cif.got.tgz:60880.got - 2010.06.03 17:49:19.
