data_PCOD9247612
_publ_section_title
;
Structure prediction by ZEFSAII (Michael W. Deem and Ramdas Pophale) SiO2 
 PCOD9247612
Probable space group: P 21/C
;
_chemical_formula_sum "Si O2"
_cell_formula_units_Z 28
_cell_length_a 6.030176
_cell_length_b 11.857992
_cell_length_c 19.505345
_cell_angle_alpha 90.000000
_cell_angle_beta 59.696091
_cell_angle_gamma 90.000000
_cell_volume 1204.168516
_symmetry_space_group_name_H-M "P 21/C"
_symmetry_group_IT_number 14
_symmetry_cell_setting 'monoclinic'
loop_
_space_group_symop_operation_xyz
x,y,z
-x,1/2+y,1/2-z
-x,-y,-z
x,1/2-y,1/2+z
loop_
_atom_site_type_symbol
_atom_site_label
_atom_site_fract_x
_atom_site_fract_y
_atom_site_fract_z
Si Si1 0.944808 0.712330 0.242780
Si Si2 0.391336 0.969113 0.678277
Si Si3 0.767205 0.346849 0.520227
Si Si4 0.717850 0.384877 0.381980
Si Si5 0.280285 0.317476 0.101871
Si Si6 0.262079 0.300818 0.950099
Si Si7 0.475843 0.938555 0.818437
O O1 0.947664 0.756667 0.320893
O O2 0.657542 0.668869 0.273434
O O3 0.146318 0.611377 0.203155
O O4 0.036516 0.814582 0.181363
O O5 0.640513 0.898306 0.615252
O O6 0.404823 0.992110 0.757138
O O7 0.363498 0.078164 0.635628
O O8 0.751244 0.423759 0.455108
O O9 0.511092 0.271658 0.561813
O O10 0.760874 0.408040 0.594566
O O11 0.002494 0.263071 0.472662
O O12 0.483526 0.295001 0.416309
O O13 0.650278 0.481814 0.339190
O O14 0.224576 0.349648 0.032599
#
# Coordination Sequence:
#
# PCOD9247612 Si02
#       7
#     4   4   4   4   4   4   4
#     4  10  22  40  60  86 122 158 202 250 300 356
#     4  11  23  38  62  92 121 159 204 249 304 362
#     4  10  22  40  61  87 123 160 200 249 301 357
#     4  10  22  39  61  89 120 158 203 250 299 357
#     4  10  22  39  61  89 120 158 203 250 299 357
#     4  10  22  40  61  87 123 160 200 249 301 357
#     4  11  23  38  62  92 121 159 204 249 304 362
#
# _framework density 23.252558000000001
#
# number of rings (size 3 to 8) (size 9 to 14) (size 15 to 20)
#    0.000    1.714    0.000    3.429    0.000   10.286 
#    0.000    0.000    0.000    0.000    0.000    0.000 
#    0.000    0.000    0.000    0.000    0.000    0.000 
#
# Total GULP energy -156659.145497 kJ/mol
# GULP energy per Si atom -5594.969482 kJ/mol
# Density = 2.319963 g / cm^3
# Si number density = 23.252558 Si / 1000 Ang^3
#
#
#
# Elastic Constant Matrix: (Units=GPa)
#
#
# Indices 1 2 3 4 5 6 
#
# 1 22.9504 -2.0640 12.6093 0.0000 11.8033 0.0000
# 2 -2.0640 62.5449 15.1936 0.0000 3.4205 0.0000
# 3 12.6093 15.1936 97.3591 0.0000 17.9365 0.0000
# 4 0.0000 0.0000 0.0000 69.3866 0.0000 -22.2189
# 5 11.8033 3.4205 17.9365 0.0000 43.8666 0.0000
# 6 0.0000 0.0000 0.0000 -22.2189 0.0000 40.6754
#
#
#
# Elastic Compliance Matrix: (Units=1/GPa)
#
#
# Indices 1 2 3 4 5 6 
#
# 1 0.053159 0.003691 -0.005161 0.000000 -0.012481 0.000000
# 2 0.003691 0.016877 -0.002905 0.000000 -0.001121 0.000000
# 3 -0.005161 -0.002905 0.011999 0.000000 -0.003291 0.000000
# 4 0.000000 0.000000 0.000000 0.017467 0.000000 0.009542
# 5 -0.012481 -0.001121 -0.003291 0.000000 0.027588 0.000000
# 6 0.000000 0.000000 0.000000 0.009542 0.000000 0.029797
#
#
# Mechanical properties :
#
#
# Convention : Reuss Voigt Hill
#
# Bulk Modulus (GPa) = 13.64563 26.03692 19.84127
# Shear Modulus (GPa) = 26.30645 41.26010 33.78327
#
# Velocity S-wave (km/s) = 3.36718 4.21697 3.81581
# Velocity P-wave (km/s) = 4.58240 5.91035 5.28822
#
# Compressibility (1/GPa) = 0.07328356
#
# Stress axis : x y z
#
# Youngs Moduli (GPa) = 18.81157 59.25089 83.33724
#
# Poissons Ratio (x) = -0.21868 0.43014
# Poissons Ratio (y) = -0.06943 0.24212
# Poissons Ratio (z) = 0.09709 0.17214
#
# Static dielectric constant tensor:
#      x y z
#    x 1.859940 0.000000 0.013780 
#    y 0.000000 1.850170 0.000000 
#    z 0.013780 0.000000 1.896910 
# 
# From -- ./inp_files/63423.got.cif
#   From: 2010.05.17/outbox.cif.g08.bks.cpg/sg14_32_cif.got.tgz:63423.got - 2010.06.03 17:49:19.
