data_PCOD9247541
_publ_section_title
;
Structure prediction by ZEFSAII (Michael W. Deem and Ramdas Pophale) SiO2 
 PCOD9247541
Probable space group: P 21/C
;
_chemical_formula_sum "Si O2"
_cell_formula_units_Z 24
_cell_length_a 5.560697
_cell_length_b 8.828561
_cell_length_c 23.095850
_cell_angle_alpha 90.000000
_cell_angle_beta 48.528111
_cell_angle_gamma 90.000000
_cell_volume 849.567065
_symmetry_space_group_name_H-M "P 21/C"
_symmetry_group_IT_number 14
_symmetry_cell_setting 'monoclinic'
loop_
_space_group_symop_operation_xyz
x,y,z
-x,1/2+y,1/2-z
-x,-y,-z
x,1/2-y,1/2+z
loop_
_atom_site_type_symbol
_atom_site_label
_atom_site_fract_x
_atom_site_fract_y
_atom_site_fract_z
Si Si1 0.684080 0.777568 0.241127
Si Si2 0.141840 0.997530 0.213931
Si Si3 0.785041 0.630888 0.564021
Si Si4 0.433250 0.819964 0.009398
Si Si5 0.791798 0.984108 0.634246
Si Si6 0.643018 0.573468 0.894821
O O1 0.943709 0.915912 0.193226
O O2 0.499846 0.935364 0.148489
O O3 0.362096 0.862120 0.312202
O O4 0.642563 0.655149 0.195888
O O5 0.913657 0.945588 0.302584
O O6 0.189133 0.170225 0.226490
O O7 0.609465 0.723236 0.540947
O O8 0.000000 0.500000 0.500000
O O9 0.057495 0.710296 0.558412
O O10 0.586822 0.739745 0.929218
O O11 0.500000 0.000000 0.000000
O O12 0.661894 0.004846 0.590024
O O13 0.173979 0.990042 0.581754
#
# Coordination Sequence:
#
# PCOD9247541 Si02
#       6
#     4   4   4   4   4   4
#     4  10  24  43  72 115 152 208 264 338 399 473
#     4  10  24  44  76 108 159 199 271 329 401 469
#     4  10  23  40  65 109 146 198 258 328 383 459
#     4  10  22  38  67 100 148 193 253 318 392 450
#     4  10  23  41  69 102 156 193 258 322 402 457
#     4  10  22  40  66 105 144 203 247 324 394 461
#
# _framework density 28.249683000000001
#
# number of rings (size 3 to 8) (size 9 to 14) (size 15 to 20)
#    0.000    2.000    0.000    1.000   14.000   17.333 
#    0.000    0.000    0.000   14.000    0.000    0.000 
#    0.000    0.000    0.000    0.000    0.000    0.000 
#
# Total GULP energy -134130.755894 kJ/mol
# GULP energy per Si atom -5588.781496 kJ/mol
# Density = 2.818539 g / cm^3
# Si number density = 28.249683 Si / 1000 Ang^3
#
#
#
# Elastic Constant Matrix: (Units=GPa)
#
#
# Indices 1 2 3 4 5 6 
#
# 1 267.1659 53.4394 27.9149 0.0000 -1.6524 0.0000
# 2 53.4394 144.9180 23.1693 0.0000 24.2534 0.0000
# 3 27.9149 23.1693 112.4001 0.0000 -18.1203 0.0000
# 4 0.0000 0.0000 0.0000 54.2905 0.0000 18.7603
# 5 -1.6524 24.2534 -18.1203 0.0000 53.3177 0.0000
# 6 0.0000 0.0000 0.0000 18.7603 0.0000 57.7699
#
#
#
# Elastic Compliance Matrix: (Units=1/GPa)
#
#
# Indices 1 2 3 4 5 6 
#
# 1 0.004115 -0.001523 -0.000609 0.000000 0.000613 0.000000
# 2 -0.001523 0.008589 -0.002148 0.000000 -0.004684 0.000000
# 3 -0.000609 -0.002148 0.010204 0.000000 0.004426 0.000000
# 4 0.000000 0.000000 0.000000 0.020748 0.000000 -0.006738
# 5 0.000613 -0.004684 0.004426 0.000000 0.022409 0.000000
# 6 0.000000 0.000000 0.000000 -0.006738 0.000000 0.019498
#
#
# Mechanical properties :
#
#
# Convention : Reuss Voigt Hill
#
# Bulk Modulus (GPa) = 69.68788 81.50345 75.59566
# Shear Modulus (GPa) = 50.55323 61.07299 55.81311
#
# Velocity S-wave (km/s) = 4.23486 4.65467 4.44972
# Velocity P-wave (km/s) = 6.97382 7.60274 7.29506
#
# Compressibility (1/GPa) = 0.01434970
#
# Stress axis : x y z
#
# Youngs Moduli (GPa) = 243.01307 116.42519 97.99794
#
# Poissons Ratio (x) = 0.17727 0.05971
# Poissons Ratio (y) = 0.37002 0.21045
# Poissons Ratio (z) = 0.14806 0.25002
#
# Static dielectric constant tensor:
#      x y z
#    x 2.374670 0.000000 0.168490 
#    y 0.000000 2.461920 0.000000 
#    z 0.168490 0.000000 2.271030 
# 
# From -- ./inp_files/71210.got.cif
#   From: 2010.05.17/outbox.cif.g08.bks.cpg/sg14_36_cif.got.tgz:71210.got - 2010.06.03 17:49:19.
