data_PCOD9247479
_publ_section_title
;
Structure prediction by ZEFSAII (Michael W. Deem and Ramdas Pophale) SiO2 
 PCOD9247479
Probable space group: P 21/C
;
_chemical_formula_sum "Si O2"
_cell_formula_units_Z 28
_cell_length_a 14.584467
_cell_length_b 13.546526
_cell_length_c 8.341337
_cell_angle_alpha 90.000000
_cell_angle_beta 137.685398
_cell_angle_gamma 90.000000
_cell_volume 1109.427457
_symmetry_space_group_name_H-M "P 21/C"
_symmetry_group_IT_number 14
_symmetry_cell_setting 'monoclinic'
loop_
_space_group_symop_operation_xyz
x,y,z
-x,1/2+y,1/2-z
-x,-y,-z
x,1/2-y,1/2+z
loop_
_atom_site_type_symbol
_atom_site_label
_atom_site_fract_x
_atom_site_fract_y
_atom_site_fract_z
Si Si1 0.946275 0.803208 0.317064
Si Si2 0.513247 0.749084 0.021051
Si Si3 0.623249 0.551630 0.256063
Si Si4 0.652501 0.355789 0.459225
Si Si5 0.137142 0.806890 0.295426
Si Si6 0.835667 0.506779 0.265365
Si Si7 0.212943 0.354147 0.095192
O O1 0.871986 0.870190 0.351538
O O2 0.847551 0.742847 0.072795
O O3 0.063771 0.848356 0.358725
O O4 0.021441 0.719937 0.518563
O O5 0.567413 0.661715 0.208858
O O6 0.385006 0.812636 0.916340
O O7 0.635084 0.825742 0.161547
O O8 0.468691 0.689030 0.806800
O O9 0.655925 0.472684 0.438583
O O10 0.756203 0.554328 0.312287
O O11 0.500000 0.500000 0.000000
O O12 0.786115 0.296128 0.576494
O O13 0.221927 0.895062 0.327521
O O14 0.799531 0.563078 0.055522
O O15 0.000000 0.500000 0.500000
#
# Coordination Sequence:
#
# PCOD9247479 Si02
#       7
#     4   4   4   4   4   4   4
#     4  10  22  38  62  88 132 176 214 270 328 384
#     4  11  23  42  68  97 129 174 220 274 329 396
#     4  10  22  42  67  95 129 177 223 264 329 412
#     4  11  23  42  68  97 129 174 220 274 329 396
#     4  11  22  41  63  95 133 174 222 270 331 395
#     4  12  24  41  67 102 130 181 229 272 338 414
#     4  11  22  41  63  95 133 174 222 270 331 395
#
# _framework density 25.238243000000001
#
# number of rings (size 3 to 8) (size 9 to 14) (size 15 to 20)
#    0.000    1.143    1.429    6.857    4.000    0.571 
#    0.000    7.143    0.000    0.000    0.000    0.000 
#    0.000    0.000    0.000    0.000    0.000    0.000 
#
# Total GULP energy -156645.797534 kJ/mol
# GULP energy per Si atom -5594.492769 kJ/mol
# Density = 2.518080 g / cm^3
# Si number density = 25.238243 Si / 1000 Ang^3
#
#
#
# Elastic Constant Matrix: (Units=GPa)
#
#
# Indices 1 2 3 4 5 6 
#
# 1 102.1070 20.6009 8.1459 0.0000 8.5419 0.0000
# 2 20.6009 99.3347 5.7856 0.0000 -0.7595 0.0000
# 3 8.1459 5.7856 71.3413 0.0000 11.7122 0.0000
# 4 0.0000 0.0000 0.0000 39.8131 0.0000 -6.8141
# 5 8.5419 -0.7595 11.7122 0.0000 35.8645 0.0000
# 6 0.0000 0.0000 0.0000 -6.8141 0.0000 35.5089
#
#
#
# Elastic Compliance Matrix: (Units=1/GPa)
#
#
# Indices 1 2 3 4 5 6 
#
# 1 0.010474 -0.002153 -0.000639 0.000000 -0.002332 0.000000
# 2 -0.002153 0.010566 -0.000773 0.000000 0.000989 0.000000
# 3 -0.000639 -0.000773 0.014931 0.000000 -0.004740 0.000000
# 4 0.000000 0.000000 0.000000 0.025970 0.000000 0.004984
# 5 -0.002332 0.000989 -0.004740 0.000000 0.030007 0.000000
# 6 0.000000 0.000000 0.000000 0.004984 0.000000 0.029118
#
#
# Mechanical properties :
#
#
# Convention : Reuss Voigt Hill
#
# Bulk Modulus (GPa) = 34.67242 37.98307 36.32775
# Shear Modulus (GPa) = 36.28179 38.12067 37.20123
#
# Velocity S-wave (km/s) = 3.79565 3.89065 3.84344
# Velocity P-wave (km/s) = 5.74257 5.93846 5.84134
#
# Compressibility (1/GPa) = 0.02884137
#
# Stress axis : x y z
#
# Youngs Moduli (GPa) = 95.47450 94.64264 66.97490
#
# Poissons Ratio (x) = 0.20375 0.04277
# Poissons Ratio (y) = 0.20554 0.05180
# Poissons Ratio (z) = 0.06097 0.07320
#
# Static dielectric constant tensor:
#      x y z
#    x 2.022470 0.000000 -0.012760 
#    y 0.000000 1.977850 0.000000 
#    z -0.012760 0.000000 2.005810 
# 
# From -- ./inp_files/16439.got.cif
#   From: 2010.05.17/outbox.cif.g08.bks.cpg/sg14_9_cif.got.tgz:16439.got - 2010.06.03 17:49:19.
