data_PCOD9247534
_publ_section_title
;
Structure prediction by ZEFSAII (Michael W. Deem and Ramdas Pophale) SiO2 
 PCOD9247534
Probable space group: P 21/C
;
_chemical_formula_sum "Si O2"
_cell_formula_units_Z 26
_cell_length_a 5.282458
_cell_length_b 19.013224
_cell_length_c 10.832068
_cell_angle_alpha 90.000000
_cell_angle_beta 64.290647
_cell_angle_gamma 90.000000
_cell_volume 980.236757
_symmetry_space_group_name_H-M "P 21/C"
_symmetry_group_IT_number 14
_symmetry_cell_setting 'monoclinic'
loop_
_space_group_symop_operation_xyz
x,y,z
-x,1/2+y,1/2-z
-x,-y,-z
x,1/2-y,1/2+z
loop_
_atom_site_type_symbol
_atom_site_label
_atom_site_fract_x
_atom_site_fract_y
_atom_site_fract_z
Si Si1 0.382143 0.411059 0.266839
Si Si2 0.703050 0.262032 0.451820
Si Si3 0.500000 0.500000 0.500000
Si Si4 0.842069 0.788324 0.340673
Si Si5 0.056851 0.607198 0.462507
Si Si6 0.996215 0.468957 0.766615
Si Si7 0.913280 0.118043 0.519203
O O1 0.294109 0.332529 0.242549
O O2 0.212178 0.466799 0.220482
O O3 0.270255 0.416189 0.432338
O O4 0.703758 0.412908 0.165024
O O5 0.372215 0.270217 0.559803
O O6 0.859976 0.315780 0.510913
O O7 0.773853 0.182774 0.475165
O O8 0.849462 0.271837 0.285055
O O9 0.240393 0.555662 0.508624
O O10 0.683939 0.519340 0.338457
O O11 0.852634 0.843171 0.451263
O O12 0.099221 0.591287 0.311461
O O13 0.982627 0.440140 0.906091
#
# Coordination Sequence:
#
# PCOD9247534 Si02
#       7
#     4   4   2   4   4   4   4
#     4   9  21  44  65 103 135 181 226 288 347 414
#     4  10  25  44  69 101 136 187 238 296 350 421
#     4  10  22  38  66 106 136 178 230 284 358 390
#     4  10  24  45  69 100 141 181 239 287 356 426
#     4  10  23  43  72 100 141 180 241 292 349 424
#     4  11  24  42  71 105 140 184 235 293 350 432
#     4  11  25  42  69  98 141 187 228 289 361 412
#
# _framework density 26.524204999999998
#
# number of rings (size 3 to 8) (size 9 to 14) (size 15 to 20)
#    0.000    1.846    0.000    2.308    4.308   14.154 
#    0.000    0.000    0.000    0.000    0.000    0.000 
#    0.000    0.000    0.000    0.000    0.000    0.000 
#
# Total GULP energy -145136.147667 kJ/mol
# GULP energy per Si atom -5582.159526 kJ/mol
# Density = 2.646383 g / cm^3
# Si number density = 26.524205 Si / 1000 Ang^3
#
#
#
# Elastic Constant Matrix: (Units=GPa)
#
#
# Indices 1 2 3 4 5 6 
#
# 1 73.0935 22.3708 41.6564 0.0000 -12.8839 0.0000
# 2 22.3708 101.1830 59.7306 0.0000 -13.1512 0.0000
# 3 41.6564 59.7306 162.0254 0.0000 3.6483 0.0000
# 4 0.0000 0.0000 0.0000 39.7390 0.0000 9.3354
# 5 -12.8839 -13.1512 3.6483 0.0000 36.7594 0.0000
# 6 0.0000 0.0000 0.0000 9.3354 0.0000 43.7063
#
#
#
# Elastic Compliance Matrix: (Units=1/GPa)
#
#
# Indices 1 2 3 4 5 6 
#
# 1 0.017500 -0.000370 -0.004508 0.000000 0.006449 0.000000
# 2 -0.000370 0.013625 -0.005046 0.000000 0.005246 0.000000
# 3 -0.004508 -0.005046 0.009288 0.000000 -0.004307 0.000000
# 4 0.000000 0.000000 0.000000 0.026494 0.000000 -0.005659
# 5 0.006449 0.005246 -0.004307 0.000000 0.031769 0.000000
# 6 0.000000 0.000000 0.000000 -0.005659 0.000000 0.024089
#
#
# Mechanical properties :
#
#
# Convention : Reuss Voigt Hill
#
# Bulk Modulus (GPa) = 48.62422 64.86862 56.74642
# Shear Modulus (GPa) = 33.45200 38.21055 35.83127
#
# Velocity S-wave (km/s) = 3.55517 3.79963 3.67943
# Velocity P-wave (km/s) = 5.93499 6.61506 6.28424
#
# Compressibility (1/GPa) = 0.02056588
#
# Stress axis : x y z
#
# Youngs Moduli (GPa) = 57.14212 73.39182 107.66403
#
# Poissons Ratio (x) = 0.02713 0.48537
# Poissons Ratio (y) = 0.02112 0.54328
# Poissons Ratio (z) = 0.25761 0.37034
#
# Static dielectric constant tensor:
#      x y z
#    x 1.986970 0.000000 -0.071230 
#    y 0.000000 2.064920 0.000000 
#    z -0.071230 0.000000 2.028490 
# 
# From -- ./inp_files/21488.got.cif
#   From: 2010.05.17/outbox.cif.g08.bks.cpg/sg14_11_cif.got.tgz:21488.got - 2010.06.03 17:49:19.
