data_PCOD9247952
_publ_section_title
;
Structure prediction by ZEFSAII (Michael W. Deem and Ramdas Pophale) SiO2 
 PCOD9247952
Probable space group: P 21/C
;
_chemical_formula_sum "Si O2"
_cell_formula_units_Z 16
_cell_length_a 6.843783
_cell_length_b 13.191615
_cell_length_c 9.972944
_cell_angle_alpha 90.000000
_cell_angle_beta 42.701692
_cell_angle_gamma 90.000000
_cell_volume 610.609330
_symmetry_space_group_name_H-M "P 21/C"
_symmetry_group_IT_number 14
_symmetry_cell_setting 'monoclinic'
loop_
_space_group_symop_operation_xyz
x,y,z
-x,1/2+y,1/2-z
-x,-y,-z
x,1/2-y,1/2+z
loop_
_atom_site_type_symbol
_atom_site_label
_atom_site_fract_x
_atom_site_fract_y
_atom_site_fract_z
Si Si1 0.105598 0.753741 0.880595
Si Si2 0.715387 0.368419 0.439940
Si Si3 0.148187 0.527404 0.284476
Si Si4 0.276484 0.430198 0.869124
O O1 0.325052 0.686793 0.680831
O O2 0.066507 0.854696 0.809499
O O3 0.207121 0.790971 0.976173
O O4 0.829715 0.683038 0.043253
O O5 0.553858 0.574204 0.358564
O O6 0.994100 0.440744 0.277629
O O7 0.487902 0.526516 0.145173
O O8 0.000000 0.500000 0.500000
O O9 0.000000 0.500000 0.000000
#
# Coordination Sequence:
#
# PCOD9247952 Si02
#       4
#     4   4   4   4
#     4  10  22  40  67  99 134 176 222 276 339 400
#     4  10  24  44  68  98 136 177 226 281 334 404
#     4   8  20  42  65  94 136 176 216 273 338 401
#     4  10  22  40  68 100 133 177 226 278 338 404
#
# _framework density 26.203333000000001
#
# number of rings (size 3 to 8) (size 9 to 14) (size 15 to 20)
#    0.000    3.000    0.000    0.000    0.000   20.000 
#    0.000    0.000    0.000   19.500    0.000    7.000 
#    0.000    0.000    0.000    0.000    0.000    0.000 
#
# Total GULP energy -89444.115366 kJ/mol
# GULP energy per Si atom -5590.257210 kJ/mol
# Density = 2.614369 g / cm^3
# Si number density = 26.203333 Si / 1000 Ang^3
#
#
#
# Elastic Constant Matrix: (Units=GPa)
#
#
# Indices 1 2 3 4 5 6 
#
# 1 137.2238 68.2683 79.2518 0.0000 -21.0375 0.0000
# 2 68.2683 133.6016 69.4838 0.0000 -27.2058 0.0000
# 3 79.2518 69.4838 173.2708 0.0000 -24.3262 0.0000
# 4 0.0000 0.0000 0.0000 64.9516 0.0000 -2.7577
# 5 -21.0375 -27.2058 -24.3262 0.0000 61.4304 0.0000
# 6 0.0000 0.0000 0.0000 -2.7577 0.0000 48.0374
#
#
#
# Elastic Compliance Matrix: (Units=1/GPa)
#
#
# Indices 1 2 3 4 5 6 
#
# 1 0.011349 -0.003784 -0.003561 0.000000 0.000801 0.000000
# 2 -0.003784 0.011213 -0.002383 0.000000 0.002726 0.000000
# 3 -0.003561 -0.002383 0.008509 0.000000 0.001095 0.000000
# 4 0.000000 0.000000 0.000000 0.015434 0.000000 0.000886
# 5 0.000801 0.002726 0.001095 0.000000 0.018194 0.000000
# 6 0.000000 0.000000 0.000000 0.000886 0.000000 0.020868
#
#
# Mechanical properties :
#
#
# Convention : Reuss Voigt Hill
#
# Bulk Modulus (GPa) = 86.09363 97.56713 91.83038
# Shear Modulus (GPa) = 45.91536 50.02339 47.96937
#
# Velocity S-wave (km/s) = 4.19056 4.37400 4.28326
# Velocity P-wave (km/s) = 7.50611 7.92620 7.71901
#
# Compressibility (1/GPa) = 0.01161526
#
# Stress axis : x y z
#
# Youngs Moduli (GPa) = 88.10985 89.18084 117.51646
#
# Poissons Ratio (x) = 0.33749 0.41849
# Poissons Ratio (y) = 0.33343 0.28004
# Poissons Ratio (z) = 0.31377 0.21252
#
# Static dielectric constant tensor:
#      x y z
#    x 2.103880 0.000000 0.005870 
#    y 0.000000 2.177070 0.000000 
#    z 0.005870 0.000000 2.087850 
# 
# From -- ./inp_files/20365.got.cif
#   From: 2010.05.17/outbox.cif.g08.bks.cpg/sg14_11_cif.got.tgz:20365.got - 2010.06.03 17:49:19.
