data_PCOD9247808
_publ_section_title
;
Structure prediction by ZEFSAII (Michael W. Deem and Ramdas Pophale) SiO2 
 PCOD9247808
Probable space group: P 21/C
;
_chemical_formula_sum "Si O2"
_cell_formula_units_Z 22
_cell_length_a 9.253778
_cell_length_b 4.867768
_cell_length_c 20.498259
_cell_angle_alpha 90.000000
_cell_angle_beta 81.355213
_cell_angle_gamma 90.000000
_cell_volume 912.859094
_symmetry_space_group_name_H-M "P 21/C"
_symmetry_group_IT_number 14
_symmetry_cell_setting 'monoclinic'
loop_
_space_group_symop_operation_xyz
x,y,z
-x,1/2+y,1/2-z
-x,-y,-z
x,1/2-y,1/2+z
loop_
_atom_site_type_symbol
_atom_site_label
_atom_site_fract_x
_atom_site_fract_y
_atom_site_fract_z
Si Si1 0.753555 0.955972 0.130450
Si Si2 0.591153 0.048441 0.602419
Si Si3 0.708254 0.611864 0.381699
Si Si4 0.771581 0.409143 0.958918
Si Si5 0.000000 0.500000 0.500000
Si Si6 0.097903 0.294772 0.752973
O O1 0.613892 0.759753 0.125666
O O2 0.835303 0.842544 0.187751
O O3 0.694514 0.263823 0.141081
O O4 0.861473 0.956198 0.061698
O O5 0.437949 0.206573 0.610808
O O6 0.658041 0.053720 0.525273
O O7 0.702745 0.310191 0.412690
O O8 0.781378 0.605566 0.306454
O O9 0.807653 0.794765 0.424961
O O10 0.915991 0.265481 0.974299
O O11 0.995638 0.553509 0.774986
#
# Coordination Sequence:
#
# PCOD9247808 Si02
#       6
#     4   4   4   4   2   4
#     4  11  24  41  65  94 129 167 214 261 314 378
#     4  11  24  41  65  96 127 166 211 264 318 378
#     4  12  24  42  66  92 130 169 208 263 320 378
#     4  11  23  40  66  96 127 165 212 260 319 381
#     4  10  22  40  62  90 124 162 204 260 310 354
#     4  12  26  44  66  94 127 169 215 260 316 384
#
# _framework density 24.100107999999999
#
# number of rings (size 3 to 8) (size 9 to 14) (size 15 to 20)
#    0.000    0.727    0.000    8.727    0.000    9.455 
#    0.000    0.000    0.000    0.000    0.000    0.000 
#    0.000    0.000    0.000    0.000    0.000    0.000 
#
# Total GULP energy -122840.029399 kJ/mol
# GULP energy per Si atom -5583.637700 kJ/mol
# Density = 2.404525 g / cm^3
# Si number density = 24.100108 Si / 1000 Ang^3
#
#
#
# Elastic Constant Matrix: (Units=GPa)
#
#
# Indices 1 2 3 4 5 6 
#
# 1 31.0910 11.2954 -10.4783 0.0000 7.1044 0.0000
# 2 11.2954 119.3521 16.7427 0.0000 9.4881 0.0000
# 3 -10.4783 16.7427 59.3949 0.0000 7.9015 0.0000
# 4 0.0000 0.0000 0.0000 16.4261 0.0000 21.5355
# 5 7.1044 9.4881 7.9015 0.0000 21.8483 0.0000
# 6 0.0000 0.0000 0.0000 21.5355 0.0000 28.4108
#
#
#
# Elastic Compliance Matrix: (Units=1/GPa)
#
#
# Indices 1 2 3 4 5 6 
#
# 1 0.040594 -0.004086 0.010330 0.000000 -0.015162 0.000000
# 2 -0.004086 0.009332 -0.003140 0.000000 -0.001589 0.000000
# 3 0.010330 -0.003140 0.020811 0.000000 -0.009522 0.000000
# 4 0.000000 0.000000 0.000000 9.801585 0.000000 -7.429660
# 5 -0.015162 -0.001589 -0.009522 0.000000 0.054834 0.000000
# 6 0.000000 0.000000 0.000000 -7.429660 0.000000 5.666925
#
#
# Mechanical properties :
#
#
# Convention : Reuss Voigt Hill
#
# Bulk Modulus (GPa) = 12.99618 27.21751 20.10684
# Shear Modulus (GPa) = 0.32024 26.15559 13.23791
#
# Velocity S-wave (km/s) = 0.36492 3.29795 2.34623
# Velocity P-wave (km/s) = 2.36259 5.08134 3.96244
#
# Compressibility (1/GPa) = 0.07694569
#
# Stress axis : x y z
#
# Youngs Moduli (GPa) = 24.63426 107.15827 48.05217
#
# Poissons Ratio (x) = 0.43781 -0.49639
# Poissons Ratio (y) = 0.10065 0.15088
# Poissons Ratio (z) = -0.25448 0.33648
#
# Static dielectric constant tensor:
#      x y z
#    x 2.061520 0.000000 0.134180 
#    y 0.000000 1.875640 0.000000 
#    z 0.134180 0.000000 1.901420 
# 
# From -- ./inp_files/64145.got.cif
#   From: 2010.05.17/outbox.cif.g08.bks.cpg/sg14_33_cif.got.tgz:64145.got - 2010.06.03 17:49:19.
