data_PCOD9247568
_publ_section_title
;
Structure prediction by ZEFSAII (Michael W. Deem and Ramdas Pophale) SiO2 
 PCOD9247568
Probable space group: P 21/C
;
_chemical_formula_sum "Si O2"
_cell_formula_units_Z 20
_cell_length_a 9.425641
_cell_length_b 4.888901
_cell_length_c 18.558114
_cell_angle_alpha 90.000000
_cell_angle_beta 125.133500
_cell_angle_gamma 90.000000
_cell_volume 699.375135
_symmetry_space_group_name_H-M "P 21/C"
_symmetry_group_IT_number 14
_symmetry_cell_setting 'monoclinic'
loop_
_space_group_symop_operation_xyz
x,y,z
-x,1/2+y,1/2-z
-x,-y,-z
x,1/2-y,1/2+z
loop_
_atom_site_type_symbol
_atom_site_label
_atom_site_fract_x
_atom_site_fract_y
_atom_site_fract_z
Si Si1 0.879205 0.791708 0.565496
Si Si2 0.109863 0.850421 0.750795
Si Si3 0.734311 0.276709 0.452256
Si Si4 0.381058 0.129692 0.216089
Si Si5 0.351018 0.064809 0.363314
O O1 0.843006 0.479662 0.535443
O O2 0.744305 0.867272 0.590312
O O3 0.067631 0.856554 0.653728
O O4 0.833540 0.990074 0.486217
O O5 0.299822 0.756630 0.833724
O O6 0.987388 0.595635 0.739256
O O7 0.709886 0.464153 0.374230
O O8 0.542677 0.190288 0.423989
O O9 0.536707 0.917084 0.282708
O O10 0.288854 0.179013 0.266024
#
# Coordination Sequence:
#
# PCOD9247568 Si02
#       5
#     4   4   4   4   4
#     4  11  22  38  60  91 121 150 195 253 292 334
#     4  10  22  39  58  86 121 156 194 240 294 355
#     4  11  22  38  60  91 121 150 195 253 292 334
#     4  10  22  39  58  86 121 156 194 240 294 355
#     4  10  22  40  64  86 116 162 200 232 292 362
#
# _framework density 28.596954
#
# number of rings (size 3 to 8) (size 9 to 14) (size 15 to 20)
#    0.000    1.600    0.000    6.000    0.000   12.800 
#    0.000    2.000    0.000    0.000    0.000    0.000 
#    0.000    0.000    0.000    0.000    0.000    0.000 
#
# Total GULP energy -111875.821019 kJ/mol
# GULP energy per Si atom -5593.791051 kJ/mol
# Density = 2.853187 g / cm^3
# Si number density = 28.596954 Si / 1000 Ang^3
#
#
#
# Elastic Constant Matrix: (Units=GPa)
#
#
# Indices 1 2 3 4 5 6 
#
# 1 122.6385 2.4857 25.1306 0.0000 -10.6574 0.0000
# 2 2.4857 140.3217 16.3781 0.0000 18.0234 0.0000
# 3 25.1306 16.3781 97.3168 0.0000 13.5692 0.0000
# 4 0.0000 0.0000 0.0000 64.6289 0.0000 12.1733
# 5 -10.6574 18.0234 13.5692 0.0000 39.3019 0.0000
# 6 0.0000 0.0000 0.0000 12.1733 0.0000 21.6948
#
#
#
# Elastic Compliance Matrix: (Units=1/GPa)
#
#
# Indices 1 2 3 4 5 6 
#
# 1 0.009037 -0.000291 -0.002779 0.000000 0.003543 0.000000
# 2 -0.000291 0.007646 -0.000748 0.000000 -0.003327 0.000000
# 3 -0.002779 -0.000748 0.011742 0.000000 -0.004464 0.000000
# 4 0.000000 0.000000 0.000000 0.017302 0.000000 -0.009708
# 5 0.003543 -0.003327 -0.004464 0.000000 0.029472 0.000000
# 6 0.000000 0.000000 0.000000 -0.009708 0.000000 0.051542
#
#
# Mechanical properties :
#
#
# Convention : Reuss Voigt Hill
#
# Bulk Modulus (GPa) = 48.09969 49.80730 48.95350
# Shear Modulus (GPa) = 35.38429 46.21061 40.79745
#
# Velocity S-wave (km/s) = 3.52141 4.02422 3.78118
# Velocity P-wave (km/s) = 5.77842 6.24878 6.01820
#
# Compressibility (1/GPa) = 0.02079015
#
# Stress axis : x y z
#
# Youngs Moduli (GPa) = 110.65246 130.78268 85.16671
#
# Poissons Ratio (x) = 0.03804 0.23667
# Poissons Ratio (y) = 0.03219 0.06369
# Poissons Ratio (z) = 0.30749 0.09780
#
# Static dielectric constant tensor:
#      x y z
#    x 2.290820 0.000000 0.063930 
#    y 0.000000 2.366600 0.000000 
#    z 0.063930 0.000000 2.330890 
# 
# From -- ./inp_files/58369.got.cif
#   From: 2010.05.17/outbox.cif.g08.bks.cpg/sg14_30_cif.got.tgz:58369.got - 2010.06.03 17:49:19.
