data_PCOD9247736
_publ_section_title
;
Structure prediction by ZEFSAII (Michael W. Deem and Ramdas Pophale) SiO2 
 PCOD9247736
Probable space group: P 21/C
;
_chemical_formula_sum "Si O2"
_cell_formula_units_Z 24
_cell_length_a 12.447890
_cell_length_b 10.193684
_cell_length_c 26.879961
_cell_angle_alpha 90.000000
_cell_angle_beta 161.744684
_cell_angle_gamma 90.000000
_cell_volume 1068.437897
_symmetry_space_group_name_H-M "P 21/C"
_symmetry_group_IT_number 14
_symmetry_cell_setting 'monoclinic'
loop_
_space_group_symop_operation_xyz
x,y,z
-x,1/2+y,1/2-z
-x,-y,-z
x,1/2-y,1/2+z
loop_
_atom_site_type_symbol
_atom_site_label
_atom_site_fract_x
_atom_site_fract_y
_atom_site_fract_z
Si Si1 0.417222 0.328523 0.358285
Si Si2 0.243109 0.819805 0.896061
Si Si3 0.825035 0.050369 0.318225
Si Si4 0.224158 0.391998 0.894672
Si Si5 0.217711 0.129044 0.110150
Si Si6 0.735085 0.131443 0.426089
O O1 0.645492 0.385868 0.503265
O O2 0.369819 0.425923 0.291846
O O3 0.593900 0.197248 0.414951
O O4 0.047407 0.286043 0.216055
O O5 0.073836 0.900961 0.777653
O O6 0.575937 0.744649 0.022850
O O7 0.048187 0.994729 0.462080
O O8 0.528326 0.145393 0.207359
O O9 0.067423 0.097906 0.380447
O O10 0.500000 0.500000 0.000000
O O11 0.415071 0.106858 0.249264
O O12 0.981084 0.256711 0.011018
O O13 0.000000 0.000000 0.000000
#
# Coordination Sequence:
#
# PCOD9247736 Si02
#       6
#     4   4   4   4   4   4
#     4  11  18  39  67  97 126 173 218 264 326 399
#     4  10  22  39  68  98 136 172 219 279 320 397
#     4  12  24  41  68  99 131 183 226 267 345 398
#     4  11  23  44  65 101 138 178 225 274 336 397
#     4  12  25  43  68 100 130 174 228 283 339 398
#     4  12  23  44  69  98 137 174 231 284 327 416
#
# _framework density 22.462699000000001
#
# number of rings (size 3 to 8) (size 9 to 14) (size 15 to 20)
#    0.000    0.667    6.667    1.500    0.000    2.000 
#    0.000    0.000    0.000    0.000    0.000    0.000 
#    0.000    0.000    0.000    0.000    0.000    0.000 
#
# Total GULP energy -134258.754480 kJ/mol
# GULP energy per Si atom -5594.114770 kJ/mol
# Density = 2.241157 g / cm^3
# Si number density = 22.462699 Si / 1000 Ang^3
#
#
#
# Elastic Constant Matrix: (Units=GPa)
#
#
# Indices 1 2 3 4 5 6 
#
# 1 123.7246 24.6291 59.9545 0.0000 3.7161 0.0000
# 2 24.6291 27.2279 37.0460 0.0000 -6.8947 0.0000
# 3 59.9545 37.0460 143.4843 0.0000 -28.9955 0.0000
# 4 0.0000 0.0000 0.0000 31.6404 0.0000 4.9168
# 5 3.7161 -6.8947 -28.9955 0.0000 63.7943 0.0000
# 6 0.0000 0.0000 0.0000 4.9168 0.0000 33.8356
#
#
#
# Elastic Compliance Matrix: (Units=1/GPa)
#
#
# Indices 1 2 3 4 5 6 
#
# 1 0.011139 -0.005670 -0.003794 0.000000 -0.002986 0.000000
# 2 -0.005670 0.059521 -0.012808 0.000000 0.000942 0.000000
# 3 -0.003794 -0.012808 0.012802 0.000000 0.004656 0.000000
# 4 0.000000 0.000000 0.000000 0.032335 0.000000 -0.004699
# 5 -0.002986 0.000942 0.004656 0.000000 0.018067 0.000000
# 6 0.000000 0.000000 0.000000 -0.004699 0.000000 0.030237
#
#
# Mechanical properties :
#
#
# Convention : Reuss Voigt Hill
#
# Bulk Modulus (GPa) = 25.69485 59.74397 42.71941
# Shear Modulus (GPa) = 22.56111 37.37455 29.96783
#
# Velocity S-wave (km/s) = 3.17264 4.08346 3.65652
# Velocity P-wave (km/s) = 4.98844 6.99196 6.07339
#
# Compressibility (1/GPa) = 0.03891830
#
# Stress axis : x y z
#
# Youngs Moduli (GPa) = 89.77151 16.80076 78.11009
#
# Poissons Ratio (x) = 0.09526 0.29635
# Poissons Ratio (y) = 0.50902 1.00044
# Poissons Ratio (z) = 0.34059 0.21519
#
# Static dielectric constant tensor:
#      x y z
#    x 1.840920 0.000000 0.008830 
#    y 0.000000 1.876280 0.000000 
#    z 0.008830 0.000000 1.834500 
# 
# From -- ./inp_files/77248.got.cif
#   From: 2010.05.17/outbox.cif.g08.bks.cpg/sg14_39_cif.got.tgz:77248.got - 2010.06.03 17:49:19.
