data_PCOD9247757
_publ_section_title
;
Structure prediction by ZEFSAII (Michael W. Deem and Ramdas Pophale) SiO2 
 PCOD9247757
Probable space group: P 21/C
;
_chemical_formula_sum "Si O2"
_cell_formula_units_Z 20
_cell_length_a 14.221655
_cell_length_b 14.902374
_cell_length_c 7.204177
_cell_angle_alpha 90.000000
_cell_angle_beta 38.064606
_cell_angle_gamma 90.000000
_cell_volume 941.364934
_symmetry_space_group_name_H-M "P 21/C"
_symmetry_group_IT_number 14
_symmetry_cell_setting 'monoclinic'
loop_
_space_group_symop_operation_xyz
x,y,z
-x,1/2+y,1/2-z
-x,-y,-z
x,1/2-y,1/2+z
loop_
_atom_site_type_symbol
_atom_site_label
_atom_site_fract_x
_atom_site_fract_y
_atom_site_fract_z
Si Si1 0.845721 0.440302 0.018436
Si Si2 0.546448 0.676220 0.678957
Si Si3 0.690660 0.465989 0.874833
Si Si4 0.840575 0.582538 0.329491
Si Si5 0.483927 0.876076 0.859933
O O1 0.865878 0.536142 0.090207
O O2 0.694380 0.396313 0.339823
O O3 0.809549 0.450316 0.857581
O O4 0.999750 0.387813 0.830094
O O5 0.709377 0.656240 0.516622
O O6 0.513212 0.780938 0.719877
O O7 0.545579 0.633952 0.474627
O O8 0.410789 0.622963 0.994773
O O9 0.225504 0.495205 0.433642
O O10 0.571707 0.542434 0.127253
#
# Coordination Sequence:
#
# PCOD9247757 Si02
#       5
#     4   4   4   4   4
#     4  10  22  40  59  92 122 156 198 258 300 360
#     4  11  22  38  63  93 120 164 208 253 298 367
#     4  11  21  41  64  88 123 165 209 246 302 367
#     4  11  21  38  65  88 121 159 199 250 314 349
#     4  11  22  40  62  89 126 159 211 253 298 368
#
# _framework density 21.245746
#
# number of rings (size 3 to 8) (size 9 to 14) (size 15 to 20)
#    0.000    1.200    4.000    3.600    2.800    0.000 
#    0.000   10.000    0.000    0.000    0.000    0.000 
#    0.000    0.000    0.000    0.000    0.000    0.000 
#
# Total GULP energy -111888.670195 kJ/mol
# GULP energy per Si atom -5594.433510 kJ/mol
# Density = 2.119739 g / cm^3
# Si number density = 21.245746 Si / 1000 Ang^3
#
#
#
# Elastic Constant Matrix: (Units=GPa)
#
#
# Indices 1 2 3 4 5 6 
#
# 1 91.8547 14.8079 40.5831 0.0000 -25.4958 0.0000
# 2 14.8079 80.8843 14.7173 0.0000 -17.9021 0.0000
# 3 40.5831 14.7173 93.8553 0.0000 -36.0438 0.0000
# 4 0.0000 0.0000 0.0000 10.0671 0.0000 -0.2681
# 5 -25.4958 -17.9021 -36.0438 0.0000 44.1635 0.0000
# 6 0.0000 0.0000 0.0000 -0.2681 0.0000 12.5703
#
#
#
# Elastic Compliance Matrix: (Units=1/GPa)
#
#
# Indices 1 2 3 4 5 6 
#
# 1 0.014124 -0.000852 -0.004333 0.000000 0.004272 0.000000
# 2 -0.000852 0.013633 0.000239 0.000000 0.005230 0.000000
# 3 -0.004333 0.000239 0.016848 0.000000 0.011346 0.000000
# 4 0.000000 0.000000 0.000000 0.099390 0.000000 0.002119
# 5 0.004272 0.005230 0.011346 0.000000 0.036489 0.000000
# 6 0.000000 0.000000 0.000000 0.002119 0.000000 0.079598
#
#
# Mechanical properties :
#
#
# Convention : Reuss Voigt Hill
#
# Bulk Modulus (GPa) = 28.80711 45.20120 37.00416
# Shear Modulus (GPa) = 17.75911 26.45926 22.10918
#
# Velocity S-wave (km/s) = 2.89431 3.53284 3.22940
# Velocity P-wave (km/s) = 4.97572 6.16140 5.60003
#
# Compressibility (1/GPa) = 0.03471365
#
# Stress axis : x y z
#
# Youngs Moduli (GPa) = 70.79959 73.34992 59.35411
#
# Poissons Ratio (x) = 0.06248 0.25719
# Poissons Ratio (y) = 0.06031 -0.01418
# Poissons Ratio (z) = 0.30678 -0.01752
#
# Static dielectric constant tensor:
#      x y z
#    x 1.824260 0.000000 -0.002530 
#    y 0.000000 1.735830 0.000000 
#    z -0.002530 0.000000 1.765990 
# 
# From -- ./inp_files/34037.got.cif
#   From: 2010.05.17/outbox.cif.g08.bks.cpg/sg14_18_cif.got.tgz:34037.got - 2010.06.03 17:49:19.
