data_PCOD9247898
_publ_section_title
;
Structure prediction by ZEFSAII (Michael W. Deem and Ramdas Pophale) SiO2 
 PCOD9247898
Probable space group: P 21/C
;
_chemical_formula_sum "Si O2"
_cell_formula_units_Z 28
_cell_length_a 5.001842
_cell_length_b 17.467768
_cell_length_c 14.498231
_cell_angle_alpha 90.000000
_cell_angle_beta 108.903609
_cell_angle_gamma 90.000000
_cell_volume 1198.404287
_symmetry_space_group_name_H-M "P 21/C"
_symmetry_group_IT_number 14
_symmetry_cell_setting 'monoclinic'
loop_
_space_group_symop_operation_xyz
x,y,z
-x,1/2+y,1/2-z
-x,-y,-z
x,1/2-y,1/2+z
loop_
_atom_site_type_symbol
_atom_site_label
_atom_site_fract_x
_atom_site_fract_y
_atom_site_fract_z
Si Si1 0.730849 0.891511 0.873266
Si Si2 0.911414 0.417792 0.755693
Si Si3 0.131536 0.419706 0.219972
Si Si4 0.411294 0.818957 0.311898
Si Si5 0.165644 0.730352 0.453671
Si Si6 0.947946 0.270024 0.867335
Si Si7 0.642504 0.875517 0.066867
O O1 0.404967 0.894302 0.808439
O O2 0.908476 0.936211 0.816046
O O3 0.742061 0.914305 0.982516
O O4 0.874937 0.806657 0.884656
O O5 0.895652 0.493597 0.815410
O O6 0.040019 0.345009 0.822787
O O7 0.293964 0.360820 0.171965
O O8 0.316301 0.422576 0.335528
O O9 0.827557 0.385119 0.209448
O O10 0.351853 0.769402 0.396298
O O11 0.320649 0.766694 0.215075
O O12 0.122141 0.786085 0.534555
O O13 0.331047 0.656259 0.512194
O O14 0.176808 0.202139 0.896318
#
# Coordination Sequence:
#
# PCOD9247898 Si02
#       7
#     4   4   4   4   4   4   4
#     4  11  23  39  65  96 124 165 215 269 325 376
#     4  12  25  43  64  95 135 173 211 263 330 391
#     4  11  26  43  62  94 136 174 206 265 335 382
#     4  11  23  43  66  89 130 172 216 267 316 385
#     4  11  22  40  69 100 122 165 226 274 312 374
#     4  10  23  38  69  94 125 168 223 266 315 384
#     4  10  22  40  65  99 126 164 223 272 323 380
#
# _framework density 23.364402999999999
#
# number of rings (size 3 to 8) (size 9 to 14) (size 15 to 20)
#    0.000    1.143    4.286    0.857    8.000    1.143 
#    0.000    1.429    0.000    0.000    0.000    0.000 
#    0.000    0.000    0.000    0.000    0.000    0.000 
#
# Total GULP energy -156664.310472 kJ/mol
# GULP energy per Si atom -5595.153945 kJ/mol
# Density = 2.331122 g / cm^3
# Si number density = 23.364403 Si / 1000 Ang^3
#
#
#
# Elastic Constant Matrix: (Units=GPa)
#
#
# Indices 1 2 3 4 5 6 
#
# 1 89.4983 -8.7261 13.1095 0.0000 -7.1810 0.0000
# 2 -8.7261 61.8165 0.2372 0.0000 1.2845 0.0000
# 3 13.1095 0.2372 58.5977 0.0000 -15.0336 0.0000
# 4 0.0000 0.0000 0.0000 22.0036 0.0000 -4.2419
# 5 -7.1810 1.2845 -15.0336 0.0000 33.3792 0.0000
# 6 0.0000 0.0000 0.0000 -4.2419 0.0000 22.6682
#
#
#
# Elastic Compliance Matrix: (Units=1/GPa)
#
#
# Indices 1 2 3 4 5 6 
#
# 1 0.011782 0.001642 -0.002271 0.000000 0.001449 0.000000
# 2 0.001642 0.016422 -0.000571 0.000000 -0.000536 0.000000
# 3 -0.002271 -0.000571 0.019737 0.000000 0.008423 0.000000
# 4 0.000000 0.000000 0.000000 0.047148 0.000000 0.008823
# 5 0.001449 -0.000536 0.008423 0.000000 0.034085 0.000000
# 6 0.000000 0.000000 0.000000 0.008823 0.000000 0.045766
#
#
# Mechanical properties :
#
#
# Convention : Reuss Voigt Hill
#
# Bulk Modulus (GPa) = 21.95857 24.35044 23.15450
# Shear Modulus (GPa) = 25.97128 29.29632 27.63380
#
# Velocity S-wave (km/s) = 3.33765 3.54487 3.44282
# Velocity P-wave (km/s) = 4.92665 5.21531 5.07303
#
# Compressibility (1/GPa) = 0.04554030
#
# Stress axis : x y z
#
# Youngs Moduli (GPa) = 84.87268 60.89393 50.66688
#
# Poissons Ratio (x) = -0.09998 0.11506
# Poissons Ratio (y) = -0.13934 0.02895
# Poissons Ratio (z) = 0.19274 0.03479
#
# Static dielectric constant tensor:
#      x y z
#    x 1.896870 0.000000 0.001240 
#    y 0.000000 1.896920 0.000000 
#    z 0.001240 0.000000 1.902560 
# 
# From -- ./inp_files/37740.got.cif
#   From: 2010.05.17/outbox.cif.g08.bks.cpg/sg14_19_cif.got.tgz:37740.got - 2010.06.03 17:49:19.
