data_PCOD9247791
_publ_section_title
;
Structure prediction by ZEFSAII (Michael W. Deem and Ramdas Pophale) SiO2 
 PCOD9247791
Probable space group: P 21/C
;
_chemical_formula_sum "Si O2"
_cell_formula_units_Z 32
_cell_length_a 17.138971
_cell_length_b 11.661617
_cell_length_c 18.385382
_cell_angle_alpha 90.000000
_cell_angle_beta 21.218732
_cell_angle_gamma 90.000000
_cell_volume 1329.964322
_symmetry_space_group_name_H-M "P 21/C"
_symmetry_group_IT_number 14
_symmetry_cell_setting 'monoclinic'
loop_
_space_group_symop_operation_xyz
x,y,z
-x,1/2+y,1/2-z
-x,-y,-z
x,1/2-y,1/2+z
loop_
_atom_site_type_symbol
_atom_site_label
_atom_site_fract_x
_atom_site_fract_y
_atom_site_fract_z
Si Si1 0.258461 0.708972 0.904130
Si Si2 0.579806 0.808782 0.517171
Si Si3 0.433278 0.791028 0.404131
Si Si4 0.224688 0.616302 0.229779
Si Si5 0.815754 0.883699 0.729779
Si Si6 0.885851 0.691218 0.017172
Si Si7 0.994989 0.438146 0.340077
Si Si8 0.175141 0.938146 0.159924
O O1 0.059346 0.639456 0.045133
O O2 0.166460 0.837575 0.996480
O O3 0.461062 0.724647 0.675823
O O4 0.332053 0.661982 0.917947
O O5 0.403254 0.894531 0.636612
O O6 0.676905 0.729719 0.368511
O O7 0.781503 0.874867 0.375238
O O8 0.350387 0.860544 0.545133
O O9 0.687291 0.775353 0.175824
O O10 0.340577 0.662426 0.496482
O O11 0.060301 0.515929 0.351793
O O12 0.086072 0.729719 0.368511
O O13 0.823523 0.894531 0.636612
O O14 0.736114 0.984071 0.851792
O O15 0.968019 0.625132 0.875240
O O16 0.895469 0.497217 0.354531
#
# Coordination Sequence:
#
# PCOD9247791 Si02
#       8
#     4   4   4   4   4   4   4   4
#     4  10  22  40  61  89 125 160 203 252 300 360
#     4  11  22  40  62  91 122 159 202 254 301 360
#     4  10  22  40  61  89 125 160 203 252 300 360
#     4  11  22  40  63  90 124 159 204 248 307 361
#     4  11  22  40  63  90 124 159 204 248 307 361
#     4  11  22  40  62  91 122 159 202 254 301 360
#     4  10  23  40  61  89 122 160 203 252 303 358
#     4  10  23  40  61  89 122 160 203 252 303 358
#
# _framework density 24.060794999999999
#
# number of rings (size 3 to 8) (size 9 to 14) (size 15 to 20)
#    0.000    1.500    2.500    2.250    0.000    6.000 
#    0.000    2.500    0.000    0.000    0.000    0.000 
#    0.000    0.000    0.000    0.000    0.000    0.000 
#
# Total GULP energy -179048.397430 kJ/mol
# GULP energy per Si atom -5595.262420 kJ/mol
# Density = 2.400603 g / cm^3
# Si number density = 24.060795 Si / 1000 Ang^3
#
#
#
# Elastic Constant Matrix: (Units=GPa)
#
#
# Indices 1 2 3 4 5 6 
#
# 1 83.5723 -10.9596 22.3848 0.0000 3.8875 0.0000
# 2 -10.9596 37.2890 -0.9182 0.0000 -0.8347 0.0000
# 3 22.3848 -0.9182 79.5689 0.0000 -3.5549 0.0000
# 4 0.0000 0.0000 0.0000 13.1244 0.0000 0.8329
# 5 3.8875 -0.8347 -3.5549 0.0000 7.8310 0.0000
# 6 0.0000 0.0000 0.0000 0.8329 0.0000 23.1369
#
#
#
# Elastic Compliance Matrix: (Units=1/GPa)
#
#
# Indices 1 2 3 4 5 6 
#
# 1 0.014007 0.003821 -0.004276 0.000000 -0.008487 0.000000
# 2 0.003821 0.027940 -0.000719 0.000000 0.000755 0.000000
# 3 -0.004276 -0.000719 0.014140 0.000000 0.008465 0.000000
# 4 0.000000 0.000000 0.000000 0.076369 0.000000 -0.002749
# 5 -0.008487 0.000755 0.008465 0.000000 0.135834 0.000000
# 6 0.000000 0.000000 0.000000 -0.002749 0.000000 0.043320
#
#
# Mechanical properties :
#
#
# Convention : Reuss Voigt Hill
#
# Bulk Modulus (GPa) = 18.60774 24.60492 21.60633
# Shear Modulus (GPa) = 15.06618 21.48000 18.27309
#
# Velocity S-wave (km/s) = 2.50506 2.99111 2.75881
# Velocity P-wave (km/s) = 4.01466 4.70929 4.37578
#
# Compressibility (1/GPa) = 0.05374109
#
# Stress axis : x y z
#
# Youngs Moduli (GPa) = 71.39378 35.79111 70.71914
#
# Poissons Ratio (x) = -0.13677 0.30236
# Poissons Ratio (y) = -0.27283 0.05084
# Poissons Ratio (z) = 0.30525 0.02573
#
# Static dielectric constant tensor:
#      x y z
#    x 1.914240 0.000000 0.002960 
#    y 0.000000 1.938850 0.000000 
#    z 0.002960 0.000000 1.878680 
# 
# From -- ./inp_files/53445.got.cif
#   From: 2010.05.17/outbox.cif.g08.bks.cpg/sg14_27_cif.got.tgz:53445.got - 2010.06.03 17:49:19.
