data_PCOD9247594
_publ_section_title
;
Structure prediction by ZEFSAII (Michael W. Deem and Ramdas Pophale) SiO2 
 PCOD9247594
Probable space group: P 21/C
;
_chemical_formula_sum "Si O2"
_cell_formula_units_Z 32
_cell_length_a 21.085133
_cell_length_b 18.011181
_cell_length_c 9.522114
_cell_angle_alpha 90.000000
_cell_angle_beta 151.750281
_cell_angle_gamma 90.000000
_cell_volume 1711.600869
_symmetry_space_group_name_H-M "P 21/C"
_symmetry_group_IT_number 14
_symmetry_cell_setting 'monoclinic'
loop_
_space_group_symop_operation_xyz
x,y,z
-x,1/2+y,1/2-z
-x,-y,-z
x,1/2-y,1/2+z
loop_
_atom_site_type_symbol
_atom_site_label
_atom_site_fract_x
_atom_site_fract_y
_atom_site_fract_z
Si Si1 0.159805 0.500000 0.340864
Si Si2 0.279215 0.746116 0.345824
Si Si3 0.511687 0.137057 0.865460
Si Si4 0.852502 0.167246 0.145289
Si Si5 0.511689 0.637057 0.365465
Si Si6 0.426559 0.500000 0.708065
Si Si7 0.852504 0.832753 0.145293
Si Si8 0.720787 0.753884 0.154181
O O1 0.185384 0.580958 0.459521
O O2 0.265494 0.499999 0.417861
O O3 0.185383 0.419041 0.459519
O O4 0.000000 0.500000 0.000000
O O5 0.358036 0.688563 0.400547
O O6 0.237223 0.703252 0.405422
O O7 0.384786 0.810697 0.587867
O O8 0.164110 0.784242 0.027553
O O9 0.384783 0.189303 0.587858
O O10 0.526841 0.071819 0.784788
O O11 0.499998 0.107899 0.999996
O O12 0.999999 0.167988 0.499998
O O13 0.526840 0.571819 0.284787
O O14 0.641967 0.688562 0.599459
O O15 0.500000 0.500000 0.000000
O O16 0.762779 0.796747 0.094579
O O17 0.835894 0.784241 0.972455
#
# Coordination Sequence:
#
# PCOD9247594 Si02
#       8
#     4   4   4   4   4   4   4   4
#     4  10  22  39  60  89 122 155 198 252 301 360
#     4  11  22  38  61  89 120 159 205 253 310 360
#     4  11  23  38  60  87 126 158 198 258 310 360
#     4  11  22  40  63  88 122 163 207 252 305 371
#     4  11  23  38  60  87 126 158 198 258 310 360
#     4  12  23  39  66  91 118 165 210 250 307 376
#     4  11  22  40  63  88 122 163 207 252 305 371
#     4  11  22  38  61  89 120 159 205 253 310 360
#
# _framework density 18.695945999999999
#
# number of rings (size 3 to 8) (size 9 to 14) (size 15 to 20)
#    0.000    1.000    5.000    2.625    0.000    0.000 
#    0.000    0.000    0.000    0.000    0.000   14.000 
#    0.000    0.000    0.000    0.000    0.000    0.000 
#
# Total GULP energy -178528.845771 kJ/mol
# GULP energy per Si atom -5579.026430 kJ/mol
# Density = 1.865339 g / cm^3
# Si number density = 18.695946 Si / 1000 Ang^3
#
#
#
# Elastic Constant Matrix: (Units=GPa)
#
#
# Indices 1 2 3 4 5 6 
#
# 1 91.4661 41.2079 21.9471 0.0000 -4.9423 0.0000
# 2 41.2079 135.6680 46.0472 0.0000 -7.4957 0.0000
# 3 21.9471 46.0472 41.5864 0.0000 -4.0229 0.0000
# 4 0.0000 0.0000 0.0000 16.5499 0.0000 6.0252
# 5 -4.9423 -7.4957 -4.0229 0.0000 36.4308 0.0000
# 6 0.0000 0.0000 0.0000 6.0252 0.0000 37.7018
#
#
#
# Elastic Compliance Matrix: (Units=1/GPa)
#
#
# Indices 1 2 3 4 5 6 
#
# 1 0.013094 -0.002585 -0.003970 0.000000 0.000806 0.000000
# 2 -0.002585 0.012355 -0.012235 0.000000 0.000840 0.000000
# 3 -0.003970 -0.012235 0.039818 0.000000 0.001341 0.000000
# 4 0.000000 0.000000 0.000000 0.064156 0.000000 -0.010253
# 5 0.000806 0.000840 0.001341 0.000000 0.027880 0.000000
# 6 0.000000 0.000000 0.000000 -0.010253 0.000000 0.028163
#
#
# Mechanical properties :
#
#
# Convention : Reuss Voigt Hill
#
# Bulk Modulus (GPa) = 36.11711 54.12500 45.12105
# Shear Modulus (GPa) = 21.52625 28.77105 25.14865
#
# Velocity S-wave (km/s) = 3.39689 3.92713 3.67159
# Velocity P-wave (km/s) = 5.89451 7.04103 6.49312
#
# Compressibility (1/GPa) = 0.02768771
#
# Stress axis : x y z
#
# Youngs Moduli (GPa) = 76.37207 80.93717 25.11404
#
# Poissons Ratio (x) = 0.20924 0.09970
# Poissons Ratio (y) = 0.19744 0.30727
# Poissons Ratio (z) = 0.30317 0.99026
#
# Static dielectric constant tensor:
#      x y z
#    x 1.627420 0.000000 0.023710 
#    y 0.000000 1.649230 0.000000 
#    z 0.023710 0.000000 1.655210 
# 
# From -- ./inp_files/19185.got.cif
#   From: 2010.05.17/outbox.cif.g08.bks.cpg/sg14_10_cif.got.tgz:19185.got - 2010.06.03 17:49:19.
