data_PCOD9247498
_publ_section_title
;
Structure prediction by ZEFSAII (Michael W. Deem and Ramdas Pophale) SiO2 
 PCOD9247498
Probable space group: P 21/C
;
_chemical_formula_sum "Si O2"
_cell_formula_units_Z 32
_cell_length_a 17.185876
_cell_length_b 14.030342
_cell_length_c 11.146219
_cell_angle_alpha 90.000000
_cell_angle_beta 149.374263
_cell_angle_gamma 90.000000
_cell_volume 1369.147758
_symmetry_space_group_name_H-M "P 21/C"
_symmetry_group_IT_number 14
_symmetry_cell_setting 'monoclinic'
loop_
_space_group_symop_operation_xyz
x,y,z
-x,1/2+y,1/2-z
-x,-y,-z
x,1/2-y,1/2+z
loop_
_atom_site_type_symbol
_atom_site_label
_atom_site_fract_x
_atom_site_fract_y
_atom_site_fract_z
Si Si1 0.784166 0.446917 0.876582
Si Si2 0.085785 0.629066 0.565911
Si Si3 0.605531 0.323028 0.948107
Si Si4 0.729885 0.844403 0.986010
Si Si5 0.776526 0.828633 0.389302
Si Si6 0.448404 0.715175 0.374221
Si Si7 0.983615 0.160096 0.476719
Si Si8 0.072876 0.052280 0.925193
O O1 0.756523 0.557768 0.865438
O O2 0.635894 0.385148 0.710720
O O3 0.853714 0.416830 0.837540
O O4 0.927236 0.419369 0.151911
O O5 0.072912 0.741929 0.538030
O O6 0.081631 0.561638 0.446075
O O7 0.952601 0.593486 0.476503
O O8 0.246614 0.611725 0.846822
O O9 0.441799 0.370504 0.709911
O O10 0.615071 0.255917 0.841938
O O11 0.592916 0.276797 0.063363
O O12 0.752374 0.732673 0.978998
O O13 0.778038 0.902407 0.932543
O O14 0.857585 0.870523 0.251273
O O15 0.947376 0.813342 0.562168
O O16 0.632615 0.790398 0.119823
#
# Coordination Sequence:
#
# PCOD9247498 Si02
#       8
#     4   4   4   4   4   4   4   4
#     4  11  22  39  62  94 129 166 217 269 324 383
#     4  11  21  39  65  93 128 169 215 267 326 389
#     4  11  23  43  67  95 132 173 217 269 328 389
#     4  10  22  40  64  89 128 170 213 271 319 386
#     4  11  22  39  63  92 127 169 219 257 323 393
#     4  11  23  43  67  96 131 174 216 268 329 389
#     4  11  21  39  63  92 126 168 211 273 323 380
#     4  10  22  38  63  92 124 167 220 265 327 381
#
# _framework density 23.372205000000001
#
# number of rings (size 3 to 8) (size 9 to 14) (size 15 to 20)
#    0.000    1.250    5.000    1.500    0.000    0.500 
#    2.250    1.250    2.750    0.000    0.000    0.000 
#    0.000    0.000    0.000    0.000    0.000    0.000 
#
# Total GULP energy -178489.122436 kJ/mol
# GULP energy per Si atom -5577.785076 kJ/mol
# Density = 2.331901 g / cm^3
# Si number density = 23.372205 Si / 1000 Ang^3
#
#
#
# Elastic Constant Matrix: (Units=GPa)
#
#
# Indices 1 2 3 4 5 6 
#
# 1 83.0653 2.2360 17.4891 0.0000 11.6092 0.0000
# 2 2.2360 78.9722 -11.5139 0.0000 8.8128 0.0000
# 3 17.4891 -11.5139 61.7617 0.0000 9.5869 0.0000
# 4 0.0000 0.0000 0.0000 21.0910 0.0000 -3.0313
# 5 11.6092 8.8128 9.5869 0.0000 32.2677 0.0000
# 6 0.0000 0.0000 0.0000 -3.0313 0.0000 26.9799
#
#
#
# Elastic Compliance Matrix: (Units=1/GPa)
#
#
# Indices 1 2 3 4 5 6 
#
# 1 0.013252 -0.000441 -0.003264 0.000000 -0.003678 0.000000
# 2 -0.000441 0.013680 0.003387 0.000000 -0.004584 0.000000
# 3 -0.003264 0.003387 0.018564 0.000000 -0.005266 0.000000
# 4 0.000000 0.000000 0.000000 0.048192 0.000000 0.005415
# 5 -0.003678 -0.004584 -0.005266 0.000000 0.035130 0.000000
# 6 0.000000 0.000000 0.000000 0.005415 0.000000 0.037673
#
#
# Mechanical properties :
#
#
# Convention : Reuss Voigt Hill
#
# Bulk Modulus (GPa) = 22.29106 26.69128 24.49117
# Shear Modulus (GPa) = 27.46030 30.44024 28.95027
#
# Velocity S-wave (km/s) = 3.43142 3.61281 3.52328
# Velocity P-wave (km/s) = 5.02570 5.37104 5.20124
#
# Compressibility (1/GPa) = 0.04486102
#
# Stress axis : x y z
#
# Youngs Moduli (GPa) = 75.46176 73.09682 53.86689
#
# Poissons Ratio (x) = 0.03221 0.17581
# Poissons Ratio (y) = 0.03325 -0.18243
# Poissons Ratio (z) = 0.24629 -0.24756
#
# Static dielectric constant tensor:
#      x y z
#    x 2.037300 0.000000 -0.061890 
#    y 0.000000 1.890590 0.000000 
#    z -0.061890 0.000000 1.893880 
# 
# From -- ./inp_files/34174.got.cif
#   From: 2010.05.17/outbox.cif.g08.bks.cpg/sg14_18_cif.got.tgz:34174.got - 2010.06.03 17:49:19.
