data_PCOD9247958
_publ_section_title
;
Structure prediction by ZEFSAII (Michael W. Deem and Ramdas Pophale) SiO2 
 PCOD9247958
Probable space group: P 21/C
;
_chemical_formula_sum "Si O2"
_cell_formula_units_Z 32
_cell_length_a 10.954028
_cell_length_b 5.361329
_cell_length_c 23.653199
_cell_angle_alpha 90.000000
_cell_angle_beta 119.355477
_cell_angle_gamma 90.000000
_cell_volume 1210.740107
_symmetry_space_group_name_H-M "P 21/C"
_symmetry_group_IT_number 14
_symmetry_cell_setting 'monoclinic'
loop_
_space_group_symop_operation_xyz
x,y,z
-x,1/2+y,1/2-z
-x,-y,-z
x,1/2-y,1/2+z
loop_
_atom_site_type_symbol
_atom_site_label
_atom_site_fract_x
_atom_site_fract_y
_atom_site_fract_z
Si Si1 0.878735 0.869846 0.894414
Si Si2 0.846920 0.091513 0.677233
Si Si3 0.384689 0.273216 0.341782
Si Si4 0.719105 0.017101 0.080478
Si Si5 0.522024 0.393850 0.719195
Si Si6 0.023244 0.720057 0.677886
Si Si7 0.655559 0.930776 0.389125
Si Si8 0.812307 0.303293 0.490251
O O1 0.776099 0.628653 0.869059
O O2 0.829618 0.042090 0.936478
O O3 0.880585 0.061418 0.842313
O O4 0.033843 0.785876 0.947854
O O5 0.728266 0.214692 0.611449
O O6 0.925482 0.224510 0.746112
O O7 0.751986 0.896303 0.689962
O O8 0.967714 0.003151 0.660800
O O9 0.391576 0.366105 0.408176
O O10 0.351916 0.484386 0.286968
O O11 0.528798 0.131520 0.359400
O O12 0.872089 0.912645 0.133660
O O13 0.718539 0.044981 0.013777
O O14 0.467853 0.629732 0.745019
O O15 0.429293 0.321052 0.643134
O O16 0.747227 0.032725 0.461752
#
# Coordination Sequence:
#
# PCOD9247958 Si02
#       8
#     4   4   4   4   4   4   4   4
#     4  10  24  43  74 106 151 199 256 335 396 482
#     4  11  22  43  69 108 149 194 255 324 401 481
#     4  11  26  45  72 110 150 200 260 318 405 470
#     4  10  23  44  71 103 151 196 257 327 389 478
#     4  12  27  49  73 108 157 205 259 319 388 483
#     4  10  22  40  68 108 142 194 251 320 404 475
#     4  12  25  46  73 110 147 205 261 321 394 475
#     4  10  24  48  70 106 149 201 266 325 399 476
#
# _framework density 26.430116000000002
#
# number of rings (size 3 to 8) (size 9 to 14) (size 15 to 20)
#    0.000    1.250    2.500    1.875    1.750    6.500 
#    0.000    3.125    0.000    0.000    0.000    0.000 
#    0.000    0.000    0.000    0.000    0.000    0.000 
#
# Total GULP energy -178244.082054 kJ/mol
# GULP energy per Si atom -5570.127564 kJ/mol
# Density = 2.636996 g / cm^3
# Si number density = 26.430116 Si / 1000 Ang^3
#
#
#
# Elastic Constant Matrix: (Units=GPa)
#
#
# Indices 1 2 3 4 5 6 
#
# 1 114.6025 42.0934 47.2716 0.0000 -15.3567 0.0000
# 2 42.0934 96.4691 35.9469 0.0000 -17.6229 0.0000
# 3 47.2716 35.9469 84.1699 0.0000 -27.6988 0.0000
# 4 0.0000 0.0000 0.0000 25.3966 0.0000 -9.3087
# 5 -15.3567 -17.6229 -27.6988 0.0000 38.0508 0.0000
# 6 0.0000 0.0000 0.0000 -9.3087 0.0000 55.0748
#
#
#
# Elastic Compliance Matrix: (Units=1/GPa)
#
#
# Indices 1 2 3 4 5 6 
#
# 1 0.012191 -0.003346 -0.005666 0.000000 -0.000754 0.000000
# 2 -0.003346 0.013425 -0.002962 0.000000 0.002711 0.000000
# 3 -0.005666 -0.002962 0.019888 0.000000 0.010819 0.000000
# 4 0.000000 0.000000 0.000000 0.041976 0.000000 0.007095
# 5 -0.000754 0.002711 0.010819 0.000000 0.035107 0.000000
# 6 0.000000 0.000000 0.000000 0.007095 0.000000 0.019356
#
#
# Mechanical properties :
#
#
# Convention : Reuss Voigt Hill
#
# Bulk Modulus (GPa) = 46.39045 60.65170 53.52107
# Shear Modulus (GPa) = 28.88895 35.03307 31.96101
#
# Velocity S-wave (km/s) = 3.30969 3.64469 3.48122
# Velocity P-wave (km/s) = 5.67412 6.38040 6.03759
#
# Compressibility (1/GPa) = 0.02155616
#
# Stress axis : x y z
#
# Youngs Moduli (GPa) = 82.02949 74.48794 50.28118
#
# Poissons Ratio (x) = 0.24922 0.28488
# Poissons Ratio (y) = 0.27446 0.14895
# Poissons Ratio (z) = 0.46476 0.22065
#
# Static dielectric constant tensor:
#      x y z
#    x 2.124060 0.000000 0.012820 
#    y 0.000000 2.739130 0.000000 
#    z 0.012820 0.000000 2.091570 
# 
# From -- ./inp_files/72781.got.cif
#   From: 2010.05.17/outbox.cif.g08.bks.cpg/sg14_37_cif.got.tgz:72781.got - 2010.06.03 17:49:19.
