data_PCOD9247569
_publ_section_title
;
Structure prediction by ZEFSAII (Michael W. Deem and Ramdas Pophale) SiO2 
 PCOD9247569
Probable space group: P 21/C
;
_chemical_formula_sum "Si O2"
_cell_formula_units_Z 32
_cell_length_a 19.716929
_cell_length_b 10.199230
_cell_length_c 14.611865
_cell_angle_alpha 90.000000
_cell_angle_beta 32.084733
_cell_angle_gamma 90.000000
_cell_volume 1560.803274
_symmetry_space_group_name_H-M "P 21/C"
_symmetry_group_IT_number 14
_symmetry_cell_setting 'monoclinic'
loop_
_space_group_symop_operation_xyz
x,y,z
-x,1/2+y,1/2-z
-x,-y,-z
x,1/2-y,1/2+z
loop_
_atom_site_type_symbol
_atom_site_label
_atom_site_fract_x
_atom_site_fract_y
_atom_site_fract_z
Si Si1 0.197594 0.313591 0.066664
Si Si2 0.002537 0.174985 0.413784
Si Si3 0.971262 0.624272 0.910288
Si Si4 0.750235 0.204216 0.959551
Si Si5 0.386745 0.428704 0.363605
Si Si6 0.454550 0.792237 0.453202
Si Si7 0.397217 0.023217 0.255361
Si Si8 0.716741 0.296209 0.203194
O O1 0.132921 0.320070 0.040367
O O2 0.081906 0.285462 0.268927
O O3 0.293037 0.194180 0.977597
O O4 0.289882 0.440082 0.954566
O O5 0.854146 0.213541 0.593244
O O6 0.061505 0.147873 0.446113
O O7 0.995327 0.032812 0.371248
O O8 0.103822 0.696091 0.737074
O O9 0.660259 0.271302 0.987767
O O10 0.737639 0.266260 0.073402
O O11 0.695840 0.058072 0.033588
O O12 0.460929 0.410086 0.182647
O O13 0.492344 0.437897 0.322876
O O14 0.540946 0.660528 0.346809
O O15 0.387506 0.793315 0.627879
O O16 0.335989 0.945124 0.240660
#
# Coordination Sequence:
#
# PCOD9247569 Si02
#       8
#     4   4   4   4   4   4   4   4
#     4  11  22  41  66  93 127 165 208 261 325 368
#     4  11  23  38  64  95 125 159 208 263 309 374
#     4  11  22  39  63  93 126 160 208 261 305 377
#     4  11  21  37  62  85 124 165 198 258 310 361
#     4  10  22  42  60  87 128 164 206 257 311 372
#     4  10  22  39  58  88 122 160 210 255 302 372
#     4  10  22  39  62  90 124 163 207 257 308 372
#     4  12  21  37  64  88 118 163 205 250 315 364
#
# _framework density 20.502264
#
# number of rings (size 3 to 8) (size 9 to 14) (size 15 to 20)
#    0.000    1.250    6.250    0.375    0.000    0.500 
#    4.500    1.250    0.000    3.000    0.000    0.000 
#    0.000    0.000    0.000    0.000    0.000    0.000 
#
# Total GULP energy -178558.054022 kJ/mol
# GULP energy per Si atom -5579.939188 kJ/mol
# Density = 2.045560 g / cm^3
# Si number density = 20.502264 Si / 1000 Ang^3
#
#
#
# Elastic Constant Matrix: (Units=GPa)
#
#
# Indices 1 2 3 4 5 6 
#
# 1 75.7864 22.6620 30.1988 0.0000 -9.5030 0.0000
# 2 22.6620 21.0536 1.6794 0.0000 -4.4815 0.0000
# 3 30.1988 1.6794 70.9648 0.0000 -8.0190 0.0000
# 4 0.0000 0.0000 0.0000 26.0743 0.0000 -1.1877
# 5 -9.5030 -4.4815 -8.0190 0.0000 35.6471 0.0000
# 6 0.0000 0.0000 0.0000 -1.1877 0.0000 20.5497
#
#
#
# Elastic Compliance Matrix: (Units=1/GPa)
#
#
# Indices 1 2 3 4 5 6 
#
# 1 0.025040 -0.025909 -0.009908 0.000000 0.001189 0.000000
# 2 -0.025909 0.075628 0.009778 0.000000 0.004801 0.000000
# 3 -0.009908 0.009778 0.018384 0.000000 0.002724 0.000000
# 4 0.000000 0.000000 0.000000 0.038453 0.000000 0.002222
# 5 0.001189 0.004801 0.002724 0.000000 0.029586 0.000000
# 6 0.000000 0.000000 0.000000 0.002222 0.000000 0.048791
#
#
# Mechanical properties :
#
#
# Convention : Reuss Voigt Hill
#
# Bulk Modulus (GPa) = 14.93111 30.76501 22.84806
# Shear Modulus (GPa) = 16.11423 24.00519 20.05971
#
# Velocity S-wave (km/s) = 2.80656 3.42549 3.13136
# Velocity P-wave (km/s) = 4.21911 5.53927 4.92364
#
# Compressibility (1/GPa) = 0.06697427
#
# Stress axis : x y z
#
# Youngs Moduli (GPa) = 39.93675 13.22257 54.39467
#
# Poissons Ratio (x) = 0.34259 0.53894
# Poissons Ratio (y) = 1.03473 -0.53188
# Poissons Ratio (z) = 0.39569 -0.12929
#
# Static dielectric constant tensor:
#      x y z
#    x 1.726820 0.000000 -0.005200 
#    y 0.000000 1.762570 0.000000 
#    z -0.005200 0.000000 1.761010 
# 
# From -- ./inp_files/50377.got.cif
#   From: 2010.05.17/outbox.cif.g08.bks.cpg/sg14_26_cif.got.tgz:50377.got - 2010.06.03 17:49:19.
