data_PCOD9247586
_publ_section_title
;
Structure prediction by ZEFSAII (Michael W. Deem and Ramdas Pophale) SiO2 
 PCOD9247586
Probable space group: P 21/C
;
_chemical_formula_sum "Si O2"
_cell_formula_units_Z 32
_cell_length_a 14.398144
_cell_length_b 8.186133
_cell_length_c 23.213969
_cell_angle_alpha 90.000000
_cell_angle_beta 147.640756
_cell_angle_gamma 90.000000
_cell_volume 1464.441291
_symmetry_space_group_name_H-M "P 21/C"
_symmetry_group_IT_number 14
_symmetry_cell_setting 'monoclinic'
loop_
_space_group_symop_operation_xyz
x,y,z
-x,1/2+y,1/2-z
-x,-y,-z
x,1/2-y,1/2+z
loop_
_atom_site_type_symbol
_atom_site_label
_atom_site_fract_x
_atom_site_fract_y
_atom_site_fract_z
Si Si1 0.760225 0.556570 0.834453
Si Si2 0.200693 0.074448 0.408306
Si Si3 0.557056 0.139630 0.635881
Si Si4 0.868725 0.086709 0.509423
Si Si5 0.899432 0.347825 0.246478
Si Si6 0.575996 0.917724 0.856251
Si Si7 0.722104 0.565102 0.310799
Si Si8 0.941116 0.035349 0.072653
O O1 0.581864 0.532542 0.707288
O O2 0.769382 0.748609 0.849788
O O3 0.937081 0.514365 0.895156
O O4 0.768822 0.453206 0.897974
O O5 0.398810 0.138094 0.507693
O O6 0.049422 0.210380 0.322053
O O7 0.207098 0.005042 0.476226
O O8 0.159782 0.923374 0.344932
O O9 0.729219 0.205760 0.693751
O O10 0.502108 0.246693 0.663042
O O11 0.613233 0.968808 0.695735
O O12 0.886349 0.279335 0.530655
O O13 0.974208 0.503062 0.321362
O O14 0.614471 0.976786 0.811126
O O15 0.766922 0.930934 0.981661
O O16 0.908571 0.482215 0.394124
#
# Coordination Sequence:
#
# PCOD9247586 Si02
#       8
#     4   4   4   4   4   4   4   4
#     4  10  23  37  62  96 135 168 222 257 332 390
#     4  12  23  45  70  91 128 170 226 275 345 391
#     4  11  25  42  68  96 136 170 224 273 330 399
#     4  10  22  42  63  94 131 178 208 277 321 402
#     4  11  25  46  68  98 124 174 223 288 335 397
#     4  12  21  37  61  95 128 171 214 265 320 398
#     4  10  22  39  59  95 130 179 210 264 316 403
#     4  10  23  40  62  90 133 168 223 262 337 383
#
# _framework density 21.851337999999998
#
# number of rings (size 3 to 8) (size 9 to 14) (size 15 to 20)
#    0.000    1.250    1.250    4.500    5.250    0.000 
#    0.000    0.625    0.000    0.000    0.000    0.000 
#    0.000    0.000    0.000    0.000    0.000    0.000 
#
# Total GULP energy -178375.366847 kJ/mol
# GULP energy per Si atom -5574.230214 kJ/mol
# Density = 2.180160 g / cm^3
# Si number density = 21.851338 Si / 1000 Ang^3
#
#
#
# Elastic Constant Matrix: (Units=GPa)
#
#
# Indices 1 2 3 4 5 6 
#
# 1 52.9970 21.2288 30.9484 0.0000 7.9874 0.0000
# 2 21.2288 55.6806 10.0548 0.0000 6.0451 0.0000
# 3 30.9484 10.0548 102.9858 0.0000 34.0121 0.0000
# 4 0.0000 0.0000 0.0000 20.4802 0.0000 4.1997
# 5 7.9874 6.0451 34.0121 0.0000 26.7866 0.0000
# 6 0.0000 0.0000 0.0000 4.1997 0.0000 23.8029
#
#
#
# Elastic Compliance Matrix: (Units=1/GPa)
#
#
# Indices 1 2 3 4 5 6 
#
# 1 0.027030 -0.009271 -0.009036 0.000000 0.005506 0.000000
# 2 -0.009271 0.021623 0.002366 0.000000 -0.005119 0.000000
# 3 -0.009036 0.002366 0.019772 0.000000 -0.022945 0.000000
# 4 0.000000 0.000000 0.000000 0.050661 0.000000 -0.008938
# 5 0.005506 -0.005119 -0.022945 0.000000 0.065980 0.000000
# 6 0.000000 0.000000 0.000000 -0.008938 0.000000 0.043589
#
#
# Mechanical properties :
#
#
# Convention : Reuss Voigt Hill
#
# Bulk Modulus (GPa) = 27.36587 37.34748 32.35668
# Shear Modulus (GPa) = 18.33392 24.17602 21.25497
#
# Velocity S-wave (km/s) = 2.89974 3.32985 3.12221
# Velocity P-wave (km/s) = 4.87465 5.64912 5.27611
#
# Compressibility (1/GPa) = 0.03654187
#
# Stress axis : x y z
#
# Youngs Moduli (GPa) = 36.99648 46.24718 50.57541
#
# Poissons Ratio (x) = 0.42877 0.45699
# Poissons Ratio (y) = 0.34301 -0.11964
# Poissons Ratio (z) = 0.33429 -0.10940
#
# Static dielectric constant tensor:
#      x y z
#    x 1.845620 0.000000 0.043860 
#    y 0.000000 1.811010 0.000000 
#    z 0.043860 0.000000 1.837800 
# 
# From -- ./inp_files/51926.got.cif
#   From: 2010.05.17/outbox.cif.g08.bks.cpg/sg14_26_cif.got.tgz:51926.got - 2010.06.03 17:49:19.
