data_PCOD9247215
_publ_section_title
;
Structure prediction by ZEFSAII (Michael W. Deem and Ramdas Pophale) SiO2 
 PCOD9247215
Probable space group: P 21/C
;
_chemical_formula_sum "Si O2"
_cell_formula_units_Z 22
_cell_length_a 5.583812
_cell_length_b 7.703596
_cell_length_c 20.799159
_cell_angle_alpha 90.000000
_cell_angle_beta 66.039827
_cell_angle_gamma 90.000000
_cell_volume 817.587994
_symmetry_space_group_name_H-M "P 21/C"
_symmetry_group_IT_number 14
_symmetry_cell_setting 'monoclinic'
loop_
_space_group_symop_operation_xyz
x,y,z
-x,1/2+y,1/2-z
-x,-y,-z
x,1/2-y,1/2+z
loop_
_atom_site_type_symbol
_atom_site_label
_atom_site_fract_x
_atom_site_fract_y
_atom_site_fract_z
Si Si1 0.775709 0.902271 0.750318
Si Si2 0.524932 0.083255 0.393159
Si Si3 0.804088 0.846869 0.461694
Si Si4 0.877658 0.115945 0.851630
Si Si5 0.698635 0.301363 0.166829
Si Si6 0.500000 0.500000 0.500000
O O1 0.470884 0.862345 0.795300
O O2 0.891848 0.748237 0.693543
O O3 0.896870 0.940610 0.807400
O O4 0.819892 0.084487 0.710152
O O5 0.245293 0.107006 0.458477
O O6 0.624668 0.267332 0.357337
O O7 0.720516 0.007688 0.425992
O O8 0.507192 0.938308 0.341449
O O9 0.588029 0.697170 0.474369
O O10 0.083839 0.774514 0.410932
O O11 0.781522 0.070140 0.933611
#
# Coordination Sequence:
#
# PCOD9247215 Si02
#       6
#     4   4   4   4   4   2
#     4  12  27  42  73 103 149 183 246 290 373 415
#     4  10  21  45  70  99 139 180 241 282 370 408
#     4  10  22  43  70 101 138 188 227 300 346 433
#     4  11  24  47  70 103 140 197 228 302 350 446
#     4  12  25  43  67 106 135 185 232 299 347 437
#     4  10  24  42  74 100 138 186 248 280 358 414
#
# _framework density 26.908421000000001
#
# number of rings (size 3 to 8) (size 9 to 14) (size 15 to 20)
#    0.000    1.091    1.818    3.818    5.091    0.000 
#    3.273    4.545    0.000    0.000    0.000    0.000 
#    0.000    0.000    0.000    0.000    0.000    0.000 
#
# Total GULP energy -122558.017219 kJ/mol
# GULP energy per Si atom -5570.818965 kJ/mol
# Density = 2.684718 g / cm^3
# Si number density = 26.908421 Si / 1000 Ang^3
#
#
#
# Elastic Constant Matrix: (Units=GPa)
#
#
# Indices 1 2 3 4 5 6 
#
# 1 41.0084 5.6241 32.8758 0.0000 -23.2993 0.0000
# 2 5.6241 136.7195 44.9673 0.0000 -21.6036 0.0000
# 3 32.8758 44.9673 137.8492 0.0000 -40.7998 0.0000
# 4 0.0000 0.0000 0.0000 53.5406 0.0000 -15.9737
# 5 -23.2993 -21.6036 -40.7998 0.0000 47.5098 0.0000
# 6 0.0000 0.0000 0.0000 -15.9737 0.0000 36.2920
#
#
#
# Elastic Compliance Matrix: (Units=1/GPa)
#
#
# Indices 1 2 3 4 5 6 
#
# 1 0.036494 0.002515 -0.005213 0.000000 0.014564 0.000000
# 2 0.002515 0.008499 -0.002498 0.000000 0.002952 0.000000
# 3 -0.005213 -0.002498 0.011021 0.000000 0.005772 0.000000
# 4 0.000000 0.000000 0.000000 0.021501 0.000000 0.009463
# 5 0.014564 0.002952 0.005772 0.000000 0.034489 0.000000
# 6 0.000000 0.000000 0.000000 0.009463 0.000000 0.031720
#
#
# Mechanical properties :
#
#
# Convention : Reuss Voigt Hill
#
# Bulk Modulus (GPa) = 21.92014 53.61237 37.76626
# Shear Modulus (GPa) = 29.52902 42.94247 36.23575
#
# Velocity S-wave (km/s) = 3.31628 3.99917 3.67363
# Velocity P-wave (km/s) = 4.77781 6.42587 5.66212
#
# Compressibility (1/GPa) = 0.04562015
#
# Stress axis : x y z
#
# Youngs Moduli (GPa) = 27.40148 117.66049 90.73686
#
# Poissons Ratio (x) = -0.29588 0.47305
# Poissons Ratio (y) = -0.06891 0.22669
# Poissons Ratio (z) = 0.14286 0.29396
#
# Static dielectric constant tensor:
#      x y z
#    x 2.122630 0.000000 -0.080620 
#    y 0.000000 2.065310 0.000000 
#    z -0.080620 0.000000 2.019280 
# 
# From -- ./inp_files/70925.got.cif
#   From: 2010.05.17/outbox.cif.g08.bks.cpg/sg14_36_cif.got.tgz:70925.got - 2010.06.03 17:49:19.
