data_PCOD9247769
_publ_section_title
;
Structure prediction by ZEFSAII (Michael W. Deem and Ramdas Pophale) SiO2 
 PCOD9247769
Probable space group: P 21/C
;
_chemical_formula_sum "Si O2"
_cell_formula_units_Z 18
_cell_length_a 16.921382
_cell_length_b 4.821664
_cell_length_c 10.353781
_cell_angle_alpha 90.000000
_cell_angle_beta 49.574399
_cell_angle_gamma 90.000000
_cell_volume 643.070039
_symmetry_space_group_name_H-M "P 21/C"
_symmetry_group_IT_number 14
_symmetry_cell_setting 'monoclinic'
loop_
_space_group_symop_operation_xyz
x,y,z
-x,1/2+y,1/2-z
-x,-y,-z
x,1/2-y,1/2+z
loop_
_atom_site_type_symbol
_atom_site_label
_atom_site_fract_x
_atom_site_fract_y
_atom_site_fract_z
Si Si1 0.000000 0.000000 0.500000
Si Si2 0.931504 0.652709 0.297920
Si Si3 0.661896 0.636931 0.344284
Si Si4 0.796751 0.352714 0.645421
Si Si5 0.523299 0.280473 0.646330
O O1 0.928788 0.757542 0.654526
O O2 0.893697 0.203798 0.609859
O O3 0.842462 0.505438 0.469259
O O4 0.980437 0.906899 0.327585
O O5 0.722666 0.410225 0.192273
O O6 0.627838 0.446050 0.500886
O O7 0.555463 0.727233 0.389207
O O8 0.728539 0.913708 0.288758
O O9 0.533570 0.974982 0.688960
#
# Coordination Sequence:
#
# PCOD9247769 Si02
#       5
#     2   4   4   4   4
#     4  10  24  42  66  94 134 182 222 270 340 398
#     4  10  22  40  60  88 127 171 221 274 324 386
#     4  11  25  43  66 102 137 173 234 291 340 417
#     4  11  23  41  66  98 137 179 229 284 337 410
#     4  11  24  45  71  98 136 182 227 289 363 419
#
# _framework density 27.990732000000001
#
# number of rings (size 3 to 8) (size 9 to 14) (size 15 to 20)
#    0.000    1.333    0.000    5.333    0.000   16.889 
#    0.000    2.222    0.000    0.000    0.000    0.000 
#    0.000    0.000    0.000    0.000    0.000    0.000 
#
# Total GULP energy -100438.251096 kJ/mol
# GULP energy per Si atom -5579.902839 kJ/mol
# Density = 2.792702 g / cm^3
# Si number density = 27.990732 Si / 1000 Ang^3
#
#
#
# Elastic Constant Matrix: (Units=GPa)
#
#
# Indices 1 2 3 4 5 6 
#
# 1 84.4582 32.5779 12.6282 0.0000 -19.1191 0.0000
# 2 32.5779 158.4911 54.6746 0.0000 -27.3314 0.0000
# 3 12.6282 54.6746 128.8804 0.0000 -11.3798 0.0000
# 4 0.0000 0.0000 0.0000 75.2441 0.0000 -9.3362
# 5 -19.1191 -27.3314 -11.3798 0.0000 31.7706 0.0000
# 6 0.0000 0.0000 0.0000 -9.3362 0.0000 24.5250
#
#
#
# Elastic Compliance Matrix: (Units=1/GPa)
#
#
# Indices 1 2 3 4 5 6 
#
# 1 0.014080 -0.001665 -0.000053 0.000000 0.007022 0.000000
# 2 -0.001665 0.008612 -0.003020 0.000000 0.005325 0.000000
# 3 -0.000053 -0.003020 0.009101 0.000000 0.000630 0.000000
# 4 0.000000 0.000000 0.000000 0.013949 0.000000 0.005310
# 5 0.007022 0.005325 0.000630 0.000000 0.040508 0.000000
# 6 0.000000 0.000000 0.000000 0.005310 0.000000 0.042796
#
#
# Mechanical properties :
#
#
# Convention : Reuss Voigt Hill
#
# Bulk Modulus (GPa) = 44.81023 63.51012 54.16017
# Shear Modulus (GPa) = 34.25577 44.43787 39.34682
#
# Velocity S-wave (km/s) = 3.50212 3.98878 3.75335
# Velocity P-wave (km/s) = 5.69182 6.62969 6.17858
#
# Compressibility (1/GPa) = 0.02231633
#
# Stress axis : x y z
#
# Youngs Moduli (GPa) = 71.02346 116.11976 109.87616
#
# Poissons Ratio (x) = 0.19332 0.00586
# Poissons Ratio (y) = 0.11824 0.33183
# Poissons Ratio (z) = 0.00379 0.35069
#
# Static dielectric constant tensor:
#      x y z
#    x -13.726880 0.000000 -14.684450 
#    y 0.000000 2.231280 0.000000 
#    z -14.684450 0.000000 -11.373810 
# 
# From -- ./inp_files/33243.got.cif
#   From: 2010.05.17/outbox.cif.g08.bks.cpg/sg14_17_cif.got.tgz:33243.got - 2010.06.03 17:49:19.
