data_PCOD9247802
_publ_section_title
;
Structure prediction by ZEFSAII (Michael W. Deem and Ramdas Pophale) SiO2 
 PCOD9247802
Probable space group: P 21/C
;
_chemical_formula_sum "Si O2"
_cell_formula_units_Z 20
_cell_length_a 5.138866
_cell_length_b 22.941715
_cell_length_c 5.552353
_cell_angle_alpha 90.000000
_cell_angle_beta 88.861945
_cell_angle_gamma 90.000000
_cell_volume 654.462197
_symmetry_space_group_name_H-M "P 21/C"
_symmetry_group_IT_number 14
_symmetry_cell_setting 'monoclinic'
loop_
_space_group_symop_operation_xyz
x,y,z
-x,1/2+y,1/2-z
-x,-y,-z
x,1/2-y,1/2+z
loop_
_atom_site_type_symbol
_atom_site_label
_atom_site_fract_x
_atom_site_fract_y
_atom_site_fract_z
Si Si1 0.543261 0.573103 0.772220
Si Si2 0.877439 0.127144 0.278775
Si Si3 0.203821 0.028260 0.233093
Si Si4 0.007962 0.226693 0.564108
Si Si5 0.612350 0.822415 0.980906
O O1 0.689724 0.547319 0.532088
O O2 0.265341 0.540015 0.755480
O O3 0.545618 0.642238 0.724895
O O4 0.655160 0.556142 0.031997
O O5 0.920695 0.058082 0.261367
O O6 0.959922 0.158791 0.524026
O O7 0.107198 0.152341 0.106490
O O8 0.606667 0.152326 0.191561
O O9 0.890532 0.244970 0.821809
O O10 0.301633 0.254496 0.535052
#
# Coordination Sequence:
#
# PCOD9247802 Si02
#       5
#     4   4   4   4   4
#     4   9  18  36  61  89 122 160 202 250 304 363
#     4  10  22  40  63  91 124 162 205 254 307 365
#     4   9  18  36  61  89 122 160 202 250 304 363
#     4  10  22  40  62  88 122 160 204 252 304 362
#     4  10  22  40  63  91 124 162 205 254 307 365
#
# _framework density 30.559445
#
# number of rings (size 3 to 8) (size 9 to 14) (size 15 to 20)
#    0.000    2.400    0.000    1.200    0.000    7.200 
#    0.000   24.000    0.000   21.600    0.000    0.000 
#    0.000    0.000    0.000    0.000    0.000    0.000 
#
# Total GULP energy -111776.138974 kJ/mol
# GULP energy per Si atom -5588.806949 kJ/mol
# Density = 3.048989 g / cm^3
# Si number density = 30.559445 Si / 1000 Ang^3
#
#
#
# Elastic Constant Matrix: (Units=GPa)
#
#
# Indices 1 2 3 4 5 6 
#
# 1 127.2054 66.1250 72.1495 0.0000 1.4924 0.0000
# 2 66.1250 145.7311 47.1932 0.0000 -3.2061 0.0000
# 3 72.1495 47.1932 228.9353 0.0000 3.9977 0.0000
# 4 0.0000 0.0000 0.0000 52.1561 0.0000 8.0216
# 5 1.4924 -3.2061 3.9977 0.0000 63.3754 0.0000
# 6 0.0000 0.0000 0.0000 8.0216 0.0000 49.2748
#
#
#
# Elastic Compliance Matrix: (Units=1/GPa)
#
#
# Indices 1 2 3 4 5 6 
#
# 1 0.011750 -0.004438 -0.002783 0.000000 -0.000326 0.000000
# 2 -0.004438 0.009043 -0.000476 0.000000 0.000592 0.000000
# 3 -0.002783 -0.000476 0.005348 0.000000 -0.000296 0.000000
# 4 0.000000 0.000000 0.000000 0.019666 0.000000 -0.003201
# 5 -0.000326 0.000592 -0.000296 0.000000 0.015835 0.000000
# 6 0.000000 0.000000 0.000000 -0.003201 0.000000 0.020816
#
#
# Mechanical properties :
#
#
# Convention : Reuss Voigt Hill
#
# Bulk Modulus (GPa) = 93.03358 96.97857 95.00608
# Shear Modulus (GPa) = 49.29372 54.05487 51.67430
#
# Velocity S-wave (km/s) = 4.02063 4.21032 4.11657
# Velocity P-wave (km/s) = 7.21550 7.44574 7.33153
#
# Compressibility (1/GPa) = 0.01074881
#
# Stress axis : x y z
#
# Youngs Moduli (GPa) = 85.10477 110.58703 186.97650
#
# Poissons Ratio (x) = 0.49075 0.52029
# Poissons Ratio (y) = 0.37767 0.08898
# Poissons Ratio (z) = 0.23682 0.05262
#
# Static dielectric constant tensor:
#      x y z
#    x 2.471890 0.000000 0.043670 
#    y 0.000000 2.622900 0.000000 
#    z 0.043670 0.000000 2.410030 
# 
# From -- ./inp_files/671.got.cif
#   From: 2010.05.17/outbox.cif.g08.bks.cpg/sg14_1_cif.got.tgz:671.got - 2010.06.03 17:49:19.
