data_PCOD9247528
_publ_section_title
;
Structure prediction by ZEFSAII (Michael W. Deem and Ramdas Pophale) SiO2 
 PCOD9247528
Probable space group: P 21/C
;
_chemical_formula_sum "Si O2"
_cell_formula_units_Z 32
_cell_length_a 11.330572
_cell_length_b 8.175082
_cell_length_c 22.683349
_cell_angle_alpha 90.000000
_cell_angle_beta 139.034964
_cell_angle_gamma 90.000000
_cell_volume 1377.491674
_symmetry_space_group_name_H-M "P 21/C"
_symmetry_group_IT_number 14
_symmetry_cell_setting 'monoclinic'
loop_
_space_group_symop_operation_xyz
x,y,z
-x,1/2+y,1/2-z
-x,-y,-z
x,1/2-y,1/2+z
loop_
_atom_site_type_symbol
_atom_site_label
_atom_site_fract_x
_atom_site_fract_y
_atom_site_fract_z
Si Si1 0.972308 0.966927 0.709027
Si Si2 0.799133 0.891153 0.308687
Si Si3 0.800294 0.075832 0.087275
Si Si4 0.237000 0.228064 0.453603
Si Si5 0.378596 0.665717 0.910971
Si Si6 0.163256 0.454749 0.654076
Si Si7 0.792841 0.766883 0.424338
Si Si8 0.374650 0.767293 0.777797
O O1 0.917780 0.805575 0.652148
O O2 0.096645 0.941851 0.811556
O O3 0.781371 0.037365 0.657119
O O4 0.063961 0.079660 0.693572
O O5 0.729248 0.702863 0.276976
O O6 0.877917 0.879544 0.405187
O O7 0.670014 0.048339 0.258989
O O8 0.672212 0.229167 0.050289
O O9 0.960966 0.076423 0.100514
O O10 0.694308 0.911403 0.031455
O O11 0.411960 0.114540 0.510317
O O12 0.159853 0.209416 0.490086
O O13 0.364478 0.767857 0.844735
O O14 0.174318 0.415161 0.588846
O O15 0.242712 0.628318 0.702135
O O16 0.577003 0.787632 0.339442
#
# Coordination Sequence:
#
# PCOD9247528 Si02
#       8
#     4   4   4   4   4   4   4   4
#     4  12  22  41  66  95 125 170 221 266 327 393
#     4  10  22  38  65  96 128 171 224 265 310 394
#     4  12  22  41  66  95 125 170 221 266 327 393
#     4  11  26  40  65  91 130 177 204 284 336 376
#     4  11  22  40  61  96 138 157 221 273 330 390
#     4  10  22  38  65  96 128 171 224 265 310 394
#     4   9  23  42  57  96 134 166 221 261 330 390
#     4  11  19  38  67  93 134 174 210 272 320 382
#
# _framework density 23.230630999999999
#
# number of rings (size 3 to 8) (size 9 to 14) (size 15 to 20)
#    0.750    0.500    3.750    3.000    0.000    1.000 
#    0.000    1.250    0.000    0.000    0.000    0.000 
#    0.000    0.000    0.000    0.000    0.000    0.000 
#
# Total GULP energy -178489.704569 kJ/mol
# GULP energy per Si atom -5577.803268 kJ/mol
# Density = 2.317776 g / cm^3
# Si number density = 23.230631 Si / 1000 Ang^3
#
#
#
# Elastic Constant Matrix: (Units=GPa)
#
#
# Indices 1 2 3 4 5 6 
#
# 1 121.6777 1.8501 28.8397 0.0000 -9.5182 0.0000
# 2 1.8501 83.1556 15.0690 0.0000 4.9266 0.0000
# 3 28.8397 15.0690 58.9294 0.0000 -8.7736 0.0000
# 4 0.0000 0.0000 0.0000 26.0046 0.0000 -0.1002
# 5 -9.5182 4.9266 -8.7736 0.0000 23.2071 0.0000
# 6 0.0000 0.0000 0.0000 -0.1002 0.0000 38.0304
#
#
#
# Elastic Compliance Matrix: (Units=1/GPa)
#
#
# Indices 1 2 3 4 5 6 
#
# 1 0.009423 0.000467 -0.004419 0.000000 0.002095 0.000000
# 2 0.000467 0.013018 -0.004175 0.000000 -0.004150 0.000000
# 3 -0.004419 -0.004175 0.021258 0.000000 0.007111 0.000000
# 4 0.000000 0.000000 0.000000 0.038455 0.000000 0.000101
# 5 0.002095 -0.004150 0.007111 0.000000 0.047519 0.000000
# 6 0.000000 0.000000 0.000000 0.000101 0.000000 0.026295
#
#
# Mechanical properties :
#
#
# Convention : Reuss Voigt Hill
#
# Bulk Modulus (GPa) = 36.43728 39.47558 37.95643
# Shear Modulus (GPa) = 27.56790 31.98201 29.77496
#
# Velocity S-wave (km/s) = 3.44860 3.71444 3.58398
# Velocity P-wave (km/s) = 5.61927 5.95196 5.78801
#
# Compressibility (1/GPa) = 0.02744442
#
# Stress axis : x y z
#
# Youngs Moduli (GPa) = 106.12845 76.81799 47.04020
#
# Poissons Ratio (x) = -0.03588 0.20786
# Poissons Ratio (y) = -0.04956 0.19641
# Poissons Ratio (z) = 0.46897 0.32074
#
# Static dielectric constant tensor:
#      x y z
#    x 1.926030 0.000000 0.029040 
#    y 0.000000 1.972750 0.000000 
#    z 0.029040 0.000000 1.910270 
# 
# From -- ./inp_files/73111.got.cif
#   From: 2010.05.17/outbox.cif.g08.bks.cpg/sg14_37_cif.got.tgz:73111.got - 2010.06.03 17:49:19.
