data_PCOD9247706
_publ_section_title
;
Structure prediction by ZEFSAII (Michael W. Deem and Ramdas Pophale) SiO2 
 PCOD9247706
Probable space group: P 21/C
;
_chemical_formula_sum "Si O2"
_cell_formula_units_Z 20
_cell_length_a 13.678953
_cell_length_b 9.143731
_cell_length_c 7.964004
_cell_angle_alpha 90.000000
_cell_angle_beta 134.064787
_cell_angle_gamma 90.000000
_cell_volume 715.759455
_symmetry_space_group_name_H-M "P 21/C"
_symmetry_group_IT_number 14
_symmetry_cell_setting 'monoclinic'
loop_
_space_group_symop_operation_xyz
x,y,z
-x,1/2+y,1/2-z
-x,-y,-z
x,1/2-y,1/2+z
loop_
_atom_site_type_symbol
_atom_site_label
_atom_site_fract_x
_atom_site_fract_y
_atom_site_fract_z
Si Si1 0.359869 0.297385 0.353992
Si Si2 0.793273 0.319348 0.655721
Si Si3 0.924812 0.726408 0.828518
Si Si4 0.634251 0.084806 0.289037
Si Si5 0.177022 0.051596 0.094432
O O1 0.213654 0.339117 0.258694
O O2 0.375984 0.409878 0.217746
O O3 0.488980 0.334860 0.621753
O O4 0.326858 0.128686 0.274791
O O5 0.735945 0.159128 0.540787
O O6 0.686837 0.380853 0.663272
O O7 0.809891 0.404562 0.497743
O O8 0.937116 0.321834 0.920592
O O9 0.915341 0.659835 0.633227
O O10 0.894946 0.900426 0.814929
#
# Coordination Sequence:
#
# PCOD9247706 Si02
#       5
#     4   4   4   4   4
#     4   9  24  42  65  85 129 163 203 247 312 362
#     4  12  24  40  65  93 125 160 209 256 303 364
#     4  10  22  39  66  86 122 163 203 248 311 357
#     4  11  25  42  62  95 127 161 204 256 308 363
#     4  10  22  41  66  87 122 165 203 251 308 364
#
# _framework density 27.942347999999999
#
# number of rings (size 3 to 8) (size 9 to 14) (size 15 to 20)
#    1.200    0.400    2.000    1.800    5.600    2.400 
#    0.000    3.000    0.000    0.000    0.000    0.000 
#    0.000    0.000    0.000    0.000    0.000    0.000 
#
# Total GULP energy -111799.445309 kJ/mol
# GULP energy per Si atom -5589.972265 kJ/mol
# Density = 2.787875 g / cm^3
# Si number density = 27.942348 Si / 1000 Ang^3
#
#
#
# Elastic Constant Matrix: (Units=GPa)
#
#
# Indices 1 2 3 4 5 6 
#
# 1 119.5081 13.4768 24.3607 0.0000 19.1364 0.0000
# 2 13.4768 73.9646 -21.8567 0.0000 5.7984 0.0000
# 3 24.3607 -21.8567 117.5540 0.0000 32.9676 0.0000
# 4 0.0000 0.0000 0.0000 43.7174 0.0000 2.5193
# 5 19.1364 5.7984 32.9676 0.0000 50.1884 0.0000
# 6 0.0000 0.0000 0.0000 2.5193 0.0000 40.2147
#
#
#
# Elastic Compliance Matrix: (Units=1/GPa)
#
#
# Indices 1 2 3 4 5 6 
#
# 1 0.009291 -0.002017 -0.001682 0.000000 -0.002205 0.000000
# 2 -0.002017 0.015492 0.004394 0.000000 -0.003907 0.000000
# 3 -0.001682 0.004394 0.011811 0.000000 -0.007624 0.000000
# 4 0.000000 0.000000 0.000000 0.022957 0.000000 -0.001438
# 5 -0.002205 -0.003907 -0.007624 0.000000 0.026225 0.000000
# 6 0.000000 0.000000 0.000000 -0.001438 0.000000 0.024957
#
#
# Mechanical properties :
#
#
# Convention : Reuss Voigt Hill
#
# Bulk Modulus (GPa) = 26.32698 38.10981 32.21839
# Shear Modulus (GPa) = 40.98222 46.49383 43.73803
#
# Velocity S-wave (km/s) = 3.83387 4.08354 3.96067
# Velocity P-wave (km/s) = 5.38892 5.99184 5.69836
#
# Compressibility (1/GPa) = 0.03798385
#
# Stress axis : x y z
#
# Youngs Moduli (GPa) = 107.63091 64.54804 84.66993
#
# Poissons Ratio (x) = 0.13020 0.14243
# Poissons Ratio (y) = 0.21711 -0.37206
# Poissons Ratio (z) = 0.18105 -0.28364
#
# Static dielectric constant tensor:
#      x y z
#    x 2.256310 0.000000 -0.111550 
#    y 0.000000 2.299520 0.000000 
#    z -0.111550 0.000000 2.196420 
# 
# From -- ./inp_files/17712.got.cif
#   From: 2010.05.17/outbox.cif.g08.bks.cpg/sg14_9_cif.got.tgz:17712.got - 2010.06.03 17:49:19.
