data_PCOD9247913
_publ_section_title
;
Structure prediction by ZEFSAII (Michael W. Deem and Ramdas Pophale) SiO2 
 PCOD9247913
Probable space group: P 21/C
;
_chemical_formula_sum "Si O2"
_cell_formula_units_Z 32
_cell_length_a 22.436017
_cell_length_b 8.768778
_cell_length_c 14.159473
_cell_angle_alpha 90.000000
_cell_angle_beta 149.891944
_cell_angle_gamma 90.000000
_cell_volume 1397.389526
_symmetry_space_group_name_H-M "P 21/C"
_symmetry_group_IT_number 14
_symmetry_cell_setting 'monoclinic'
loop_
_space_group_symop_operation_xyz
x,y,z
-x,1/2+y,1/2-z
-x,-y,-z
x,1/2-y,1/2+z
loop_
_atom_site_type_symbol
_atom_site_label
_atom_site_fract_x
_atom_site_fract_y
_atom_site_fract_z
Si Si1 0.259525 0.889973 0.408612
Si Si2 0.622111 0.065892 0.619061
Si Si3 0.858926 0.559187 0.894727
Si Si4 0.139808 0.118546 0.379866
Si Si5 0.640740 0.443215 0.467754
Si Si6 0.296470 0.374354 0.621435
Si Si7 0.506806 0.861109 0.077482
Si Si8 0.979547 0.238612 0.011012
O O1 0.339083 0.967353 0.434812
O O2 0.316790 0.724173 0.508624
O O3 0.231657 0.001567 0.456784
O O4 0.131208 0.843854 0.190281
O O5 0.601866 0.245963 0.592724
O O6 0.500000 0.000000 0.500000
O O7 0.721791 0.000213 0.824364
O O8 0.733915 0.518362 0.670581
O O9 0.918886 0.704944 0.924049
O O10 0.862592 0.588771 0.011967
O O11 0.932226 0.402395 0.982385
O O12 0.181178 0.294284 0.425186
O O13 0.023916 0.127101 0.155232
O O14 0.633243 0.552092 0.368366
O O15 0.516598 0.419630 0.349633
O O16 0.375149 0.237049 0.770920
O O17 0.500000 0.000000 0.000000
#
# Coordination Sequence:
#
# PCOD9247913 Si02
#       8
#     4   4   4   4   4   4   4   4
#     4  10  24  42  66  96 133 176 236 284 342 411
#     4   9  22  44  65  95 133 177 221 288 346 405
#     4  10  23  43  64  92 139 175 222 277 347 408
#     4  12  25  39  70 103 128 184 229 283 345 409
#     4  10  22  44  61  88 135 175 217 284 341 415
#     4  11  24  38  64  95 128 179 218 276 349 400
#     4  10  22  40  66  94 127 171 228 281 340 409
#     4  10  23  44  64  97 136 177 224 286 336 408
#
# _framework density 22.899842
#
# number of rings (size 3 to 8) (size 9 to 14) (size 15 to 20)
#    0.000    1.750    1.250    1.125    3.500   11.000 
#    0.000    0.000    0.000    0.000    0.000    0.000 
#    0.000    0.000    0.000    0.000    0.000    0.000 
#
# Total GULP energy -178661.109137 kJ/mol
# GULP energy per Si atom -5583.159661 kJ/mol
# Density = 2.284772 g / cm^3
# Si number density = 22.899842 Si / 1000 Ang^3
#
#
#
# Elastic Constant Matrix: (Units=GPa)
#
#
# Indices 1 2 3 4 5 6 
#
# 1 123.1765 41.5626 26.2157 0.0000 -26.1769 0.0000
# 2 41.5626 50.2226 17.6769 0.0000 -22.7144 0.0000
# 3 26.2157 17.6769 49.8503 0.0000 -7.0331 0.0000
# 4 0.0000 0.0000 0.0000 32.5012 0.0000 -12.1395
# 5 -26.1769 -22.7144 -7.0331 0.0000 31.6379 0.0000
# 6 0.0000 0.0000 0.0000 -12.1395 0.0000 44.1428
#
#
#
# Elastic Compliance Matrix: (Units=1/GPa)
#
#
# Indices 1 2 3 4 5 6 
#
# 1 0.012052 -0.006864 -0.003296 0.000000 0.004311 0.000000
# 2 -0.006864 0.036576 -0.006665 0.000000 0.019098 0.000000
# 3 -0.003296 -0.006665 0.023845 0.000000 -0.002212 0.000000
# 4 0.000000 0.000000 0.000000 0.034290 0.000000 0.009430
# 5 0.004311 0.019098 -0.002212 0.000000 0.048395 0.000000
# 6 0.000000 0.000000 0.000000 0.009430 0.000000 0.025247
#
#
# Mechanical properties :
#
#
# Convention : Reuss Voigt Hill
#
# Bulk Modulus (GPa) = 25.75876 43.79555 34.77715
# Shear Modulus (GPa) = 22.02683 30.84267 26.43475
#
# Velocity S-wave (km/s) = 3.10478 3.67393 3.40128
# Velocity P-wave (km/s) = 4.91180 6.09617 5.53575
#
# Compressibility (1/GPa) = 0.03882174
#
# Stress axis : x y z
#
# Youngs Moduli (GPa) = 82.97248 27.34063 41.93784
#
# Poissons Ratio (x) = 0.18767 0.13822
# Poissons Ratio (y) = 0.56954 0.27953
# Poissons Ratio (z) = 0.27347 0.18224
#
# Static dielectric constant tensor:
#      x y z
#    x 1.874430 0.000000 0.037000 
#    y 0.000000 1.856200 0.000000 
#    z 0.037000 0.000000 1.944910 
# 
# From -- ./inp_files/51376.got.cif
#   From: 2010.05.17/outbox.cif.g08.bks.cpg/sg14_26_cif.got.tgz:51376.got - 2010.06.03 17:49:19.
