data_PCOD9247872
_publ_section_title
;
Structure prediction by ZEFSAII (Michael W. Deem and Ramdas Pophale) SiO2 
 PCOD9247872
Probable space group: P 21/C
;
_chemical_formula_sum "Si O2"
_cell_formula_units_Z 24
_cell_length_a 8.982704
_cell_length_b 5.244481
_cell_length_c 22.823641
_cell_angle_alpha 90.000000
_cell_angle_beta 108.343388
_cell_angle_gamma 90.000000
_cell_volume 1020.578726
_symmetry_space_group_name_H-M "P 21/C"
_symmetry_group_IT_number 14
_symmetry_cell_setting 'monoclinic'
loop_
_space_group_symop_operation_xyz
x,y,z
-x,1/2+y,1/2-z
-x,-y,-z
x,1/2-y,1/2+z
loop_
_atom_site_type_symbol
_atom_site_label
_atom_site_fract_x
_atom_site_fract_y
_atom_site_fract_z
Si Si1 0.184880 0.047714 0.532006
Si Si2 0.463070 0.204551 0.274810
Si Si3 0.684993 0.048666 0.014467
Si Si4 0.864791 0.918602 0.262887
Si Si5 0.944908 0.431438 0.643590
Si Si6 0.229583 0.744980 0.149037
O O1 0.278376 0.821337 0.510445
O O2 0.210930 0.991119 0.603349
O O3 0.242068 0.319540 0.515581
O O4 0.000000 0.000000 0.500000
O O5 0.490141 0.409786 0.225889
O O6 0.278493 0.221353 0.261392
O O7 0.588985 0.327090 0.335930
O O8 0.786542 0.052777 0.087200
O O9 0.500000 0.000000 0.000000
O O10 0.926904 0.943875 0.205444
O O11 0.997332 0.842909 0.326449
O O12 0.786020 0.158537 0.285119
O O13 0.087363 0.557633 0.624405
#
# Coordination Sequence:
#
# PCOD9247872 Si02
#       6
#     4   4   4   4   4   4
#     4  12  26  50  79 107 143 200 255 312 366 441
#     4  10  22  40  64  96 138 175 233 286 356 426
#     4  12  30  52  75 111 151 203 253 307 377 442
#     4  11  24  43  67 109 139 194 229 305 375 429
#     4  12  24  45  73  99 154 185 247 295 373 447
#     4  11  24  43  71 102 142 185 245 304 362 444
#
# _framework density 23.516069000000002
#
# number of rings (size 3 to 8) (size 9 to 14) (size 15 to 20)
#    0.000    0.667    5.000    2.000    4.667    0.000 
#    9.000    0.000    0.000    0.000    0.000    0.000 
#    0.000    0.000    0.000    0.000    0.000    0.000 
#
# Total GULP energy -133883.965643 kJ/mol
# GULP energy per Si atom -5578.498568 kJ/mol
# Density = 2.346255 g / cm^3
# Si number density = 23.516069 Si / 1000 Ang^3
#
#
#
# Elastic Constant Matrix: (Units=GPa)
#
#
# Indices 1 2 3 4 5 6 
#
# 1 109.8969 15.0410 43.6832 0.0000 28.2325 0.0000
# 2 15.0410 78.5479 3.1888 0.0000 -6.8738 0.0000
# 3 43.6832 3.1888 108.7392 0.0000 15.1863 0.0000
# 4 0.0000 0.0000 0.0000 36.7532 0.0000 -3.4618
# 5 28.2325 -6.8738 15.1863 0.0000 47.7407 0.0000
# 6 0.0000 0.0000 0.0000 -3.4618 0.0000 41.6582
#
#
#
# Elastic Compliance Matrix: (Units=1/GPa)
#
#
# Indices 1 2 3 4 5 6 
#
# 1 0.012864 -0.002882 -0.004147 0.000000 -0.006703 0.000000
# 2 -0.002882 0.013585 0.000260 0.000000 0.003578 0.000000
# 3 -0.004147 0.000260 0.010995 0.000000 -0.001008 0.000000
# 4 0.000000 0.000000 0.000000 0.027423 0.000000 0.002279
# 5 -0.006703 0.003578 -0.001008 0.000000 0.025746 0.000000
# 6 0.000000 0.000000 0.000000 0.002279 0.000000 0.024194
#
#
# Mechanical properties :
#
#
# Convention : Reuss Voigt Hill
#
# Bulk Modulus (GPa) = 41.82926 46.77887 44.30407
# Shear Modulus (GPa) = 36.67930 40.91514 38.79722
#
# Velocity S-wave (km/s) = 3.95366 4.17571 4.06620
# Velocity P-wave (km/s) = 6.21836 6.57147 6.39735
#
# Compressibility (1/GPa) = 0.02390671
#
# Stress axis : x y z
#
# Youngs Moduli (GPa) = 77.73371 73.60835 90.94631
#
# Poissons Ratio (x) = 0.21211 0.37718
# Poissons Ratio (y) = 0.22400 -0.02361
# Poissons Ratio (z) = 0.32238 -0.01911
#
# Static dielectric constant tensor:
#      x y z
#    x 1.966510 0.000000 0.033100 
#    y 0.000000 2.007180 0.000000 
#    z 0.033100 0.000000 1.945810 
# 
# From -- ./inp_files/71672.got.cif
#   From: 2010.05.17/outbox.cif.g08.bks.cpg/sg14_36_cif.got.tgz:71672.got - 2010.06.03 17:49:19.
