data_PCOD9247062
_publ_section_title
;
Structure prediction by ZEFSAII (Michael W. Deem and Ramdas Pophale) SiO2 
 PCOD9247062
Probable space group: P 21/C
;
_chemical_formula_sum "Si O2"
_cell_formula_units_Z 20
_cell_length_a 11.013603
_cell_length_b 8.440073
_cell_length_c 16.880774
_cell_angle_alpha 90.000000
_cell_angle_beta 146.051151
_cell_angle_gamma 90.000000
_cell_volume 876.302919
_symmetry_space_group_name_H-M "P 21/C"
_symmetry_group_IT_number 14
_symmetry_cell_setting 'monoclinic'
loop_
_space_group_symop_operation_xyz
x,y,z
-x,1/2+y,1/2-z
-x,-y,-z
x,1/2-y,1/2+z
loop_
_atom_site_type_symbol
_atom_site_label
_atom_site_fract_x
_atom_site_fract_y
_atom_site_fract_z
Si Si1 0.212913 0.551786 0.160982
Si Si2 0.510397 0.554676 0.879141
Si Si3 0.175760 0.878002 0.334729
Si Si4 0.753156 0.460462 0.636899
Si Si5 0.472081 0.248126 0.752702
O O1 0.177052 0.571244 0.234356
O O2 0.289862 0.704090 0.151549
O O3 0.396315 0.410106 0.257198
O O4 0.000000 0.500000 0.000000
O O5 0.311487 0.605990 0.827123
O O6 0.425099 0.405730 0.778847
O O7 0.612381 0.694979 0.880540
O O8 0.701439 0.495107 0.039168
O O9 0.211316 0.703853 0.388649
O O10 0.921413 0.914244 0.192843
O O11 0.500000 0.500000 0.500000
#
# Coordination Sequence:
#
# PCOD9247062 Si02
#       5
#     4   4   4   4   4
#     4  11  24  44  69  98 141 185 232 291 360 425
#     4  10  22  46  73 101 144 187 245 299 367 427
#     4  11  26  45  72 105 146 191 242 307 356 433
#     4  12  27  44  73 106 144 189 249 291 366 430
#     4  10  21  43  69  99 134 184 230 288 357 429
#
# _framework density 22.823157999999999
#
# number of rings (size 3 to 8) (size 9 to 14) (size 15 to 20)
#    0.000    1.200    2.000    3.600    8.400    1.600 
#    0.000    2.000    0.000    0.000    0.000    0.000 
#    0.000    0.000    0.000    0.000    0.000    0.000 
#
# Total GULP energy -111369.196325 kJ/mol
# GULP energy per Si atom -5568.459816 kJ/mol
# Density = 2.277121 g / cm^3
# Si number density = 22.823158 Si / 1000 Ang^3
#
#
#
# Elastic Constant Matrix: (Units=GPa)
#
#
# Indices 1 2 3 4 5 6 
#
# 1 71.4876 9.2686 29.6955 0.0000 7.9462 0.0000
# 2 9.2686 47.7933 10.9044 0.0000 12.0108 0.0000
# 3 29.6955 10.9044 74.7809 0.0000 9.5680 0.0000
# 4 0.0000 0.0000 0.0000 27.8263 0.0000 0.2774
# 5 7.9462 12.0108 9.5680 0.0000 44.8587 0.0000
# 6 0.0000 0.0000 0.0000 0.2774 0.0000 54.3746
#
#
#
# Elastic Compliance Matrix: (Units=1/GPa)
#
#
# Indices 1 2 3 4 5 6 
#
# 1 0.016964 -0.001528 -0.006355 0.000000 -0.001240 0.000000
# 2 -0.001528 0.023063 -0.002057 0.000000 -0.005466 0.000000
# 3 -0.006355 -0.002057 0.016430 0.000000 -0.001828 0.000000
# 4 0.000000 0.000000 0.000000 0.035939 0.000000 -0.000183
# 5 -0.001240 -0.005466 -0.001828 0.000000 0.024365 0.000000
# 6 0.000000 0.000000 0.000000 -0.000183 0.000000 0.018392
#
#
# Mechanical properties :
#
#
# Convention : Reuss Voigt Hill
#
# Bulk Modulus (GPa) = 27.33986 32.64432 29.99209
# Shear Modulus (GPa) = 29.89985 35.02482 32.46233
#
# Velocity S-wave (km/s) = 3.62341 3.92167 3.77549
# Velocity P-wave (km/s) = 5.43235 5.90256 5.67233
#
# Compressibility (1/GPa) = 0.03657664
#
# Stress axis : x y z
#
# Youngs Moduli (GPa) = 58.94746 43.36026 60.86514
#
# Poissons Ratio (x) = 0.06626 0.38680
# Poissons Ratio (y) = 0.09009 0.12519
# Poissons Ratio (z) = 0.37461 0.08918
#
# Static dielectric constant tensor:
#      x y z
#    x 1.891450 0.000000 -0.026960 
#    y 0.000000 1.905030 0.000000 
#    z -0.026960 0.000000 1.829400 
# 
# From -- ./inp_files/27951.got.cif
#   From: 2010.05.17/outbox.cif.g08.bks.cpg/sg14_14_cif.got.tgz:27951.got - 2010.06.03 17:49:19.
