data_PCOD9247557
_publ_section_title
;
Structure prediction by ZEFSAII (Michael W. Deem and Ramdas Pophale) SiO2 
 PCOD9247557
Probable space group: P 21/C
;
_chemical_formula_sum "Si O2"
_cell_formula_units_Z 24
_cell_length_a 5.155411
_cell_length_b 17.582606
_cell_length_c 11.277714
_cell_angle_alpha 90.000000
_cell_angle_beta 81.796358
_cell_angle_gamma 90.000000
_cell_volume 1011.813935
_symmetry_space_group_name_H-M "P 21/C"
_symmetry_group_IT_number 14
_symmetry_cell_setting 'monoclinic'
loop_
_space_group_symop_operation_xyz
x,y,z
-x,1/2+y,1/2-z
-x,-y,-z
x,1/2-y,1/2+z
loop_
_atom_site_type_symbol
_atom_site_label
_atom_site_fract_x
_atom_site_fract_y
_atom_site_fract_z
Si Si1 0.837299 0.511904 0.892047
Si Si2 0.729420 0.288412 0.348200
Si Si3 0.581197 0.584148 0.527873
Si Si4 0.073373 0.101522 0.217873
Si Si5 0.726511 0.649694 0.757108
Si Si6 0.454297 0.633721 0.153006
O O1 0.754652 0.598118 0.871288
O O2 0.607689 0.448056 0.901639
O O3 0.029061 0.484049 0.771552
O O4 0.000000 0.500000 0.000000
O O5 0.656983 0.356782 0.442085
O O6 0.538856 0.303638 0.247026
O O7 0.627946 0.209522 0.410932
O O8 0.024370 0.297794 0.285549
O O9 0.500000 0.500000 0.500000
O O10 0.781964 0.609211 0.414270
O O11 0.708299 0.589262 0.649477
O O12 0.262560 0.136174 0.307040
O O13 0.780925 0.134320 0.233797
#
# Coordination Sequence:
#
# PCOD9247557 Si02
#       6
#     4   4   4   4   4   4
#     4  10  24  43  69  93 135 180 223 264 326 400
#     4  10  23  42  65  92 137 163 220 271 334 388
#     4  10  22  38  70  97 130 163 217 279 336 381
#     4  10  23  39  68  93 131 167 220 267 334 383
#     4  10  23  40  66  97 126 164 224 264 329 386
#     4  10  23  44  61  93 138 170 220 265 330 397
#
# _framework density 23.719777000000001
#
# number of rings (size 3 to 8) (size 9 to 14) (size 15 to 20)
#    2.000    0.000    0.000    3.000    4.667    2.000 
#    3.000    3.333    0.000    0.000    0.000    0.000 
#    0.000    0.000    0.000    0.000    0.000    0.000 
#
# Total GULP energy -133832.264920 kJ/mol
# GULP energy per Si atom -5576.344372 kJ/mol
# Density = 2.366579 g / cm^3
# Si number density = 23.719777 Si / 1000 Ang^3
#
#
#
# Elastic Constant Matrix: (Units=GPa)
#
#
# Indices 1 2 3 4 5 6 
#
# 1 109.3542 22.8568 2.9633 0.0000 10.9972 0.0000
# 2 22.8568 113.0812 -6.9353 0.0000 7.2977 0.0000
# 3 2.9633 -6.9353 48.7728 0.0000 9.0509 0.0000
# 4 0.0000 0.0000 0.0000 14.6309 0.0000 2.6548
# 5 10.9972 7.2977 9.0509 0.0000 31.6579 0.0000
# 6 0.0000 0.0000 0.0000 2.6548 0.0000 42.4762
#
#
#
# Elastic Compliance Matrix: (Units=1/GPa)
#
#
# Indices 1 2 3 4 5 6 
#
# 1 0.009825 -0.001818 -0.000317 0.000000 -0.002903 0.000000
# 2 -0.001818 0.009457 0.001840 0.000000 -0.002075 0.000000
# 3 -0.000317 0.001840 0.022010 0.000000 -0.006607 0.000000
# 4 0.000000 0.000000 0.000000 0.069133 0.000000 -0.004321
# 5 -0.002903 -0.002075 -0.006607 0.000000 0.034963 0.000000
# 6 0.000000 0.000000 0.000000 -0.004321 0.000000 0.023813
#
#
# Mechanical properties :
#
#
# Convention : Reuss Voigt Hill
#
# Bulk Modulus (GPa) = 24.56763 34.33089 29.44926
# Shear Modulus (GPa) = 27.26904 34.57457 30.92181
#
# Velocity S-wave (km/s) = 3.39430 3.82203 3.61450
# Velocity P-wave (km/s) = 5.07362 5.82942 5.46460
#
# Compressibility (1/GPa) = 0.04070397
#
# Stress axis : x y z
#
# Youngs Moduli (GPa) = 101.77973 105.73709 45.43351
#
# Poissons Ratio (x) = 0.19223 0.01439
# Poissons Ratio (y) = 0.18503 -0.08361
# Poissons Ratio (z) = 0.03223 -0.19458
#
# Static dielectric constant tensor:
#      x y z
#    x 1.898260 0.000000 -0.036370 
#    y 0.000000 2.033990 0.000000 
#    z -0.036370 0.000000 1.925760 
# 
# From -- ./inp_files/21218.got.cif
#   From: 2010.05.17/outbox.cif.g08.bks.cpg/sg14_11_cif.got.tgz:21218.got - 2010.06.03 17:49:19.
