data_PCOD9247692
_publ_section_title
;
Structure prediction by ZEFSAII (Michael W. Deem and Ramdas Pophale) SiO2 
 PCOD9247692
Probable space group: P 21/C
;
_chemical_formula_sum "Si O2"
_cell_formula_units_Z 24
_cell_length_a 12.711829
_cell_length_b 10.819156
_cell_length_c 14.655083
_cell_angle_alpha 90.000000
_cell_angle_beta 151.701637
_cell_angle_gamma 90.000000
_cell_volume 955.489274
_symmetry_space_group_name_H-M "P 21/C"
_symmetry_group_IT_number 14
_symmetry_cell_setting 'monoclinic'
loop_
_space_group_symop_operation_xyz
x,y,z
-x,1/2+y,1/2-z
-x,-y,-z
x,1/2-y,1/2+z
loop_
_atom_site_type_symbol
_atom_site_label
_atom_site_fract_x
_atom_site_fract_y
_atom_site_fract_z
Si Si1 0.386548 0.226571 0.363015
Si Si2 0.917627 0.263572 0.610363
Si Si3 0.718927 0.242849 0.773665
Si Si4 0.744844 0.985377 0.268530
Si Si5 0.083348 0.484440 0.298253
Si Si6 0.129775 0.400046 0.536412
O O1 0.560650 0.191462 0.573661
O O2 0.391053 0.360367 0.316029
O O3 0.151455 0.231371 0.235565
O O4 0.357927 0.127489 0.261741
O O5 0.738342 0.296517 0.394509
O O6 0.951555 0.369610 0.711092
O O7 0.900703 0.122417 0.633336
O O8 0.647295 0.385237 0.724869
O O9 0.964033 0.217809 0.918559
O O10 0.763885 0.984297 0.173757
O O11 0.000000 0.000000 0.500000
O O12 0.159646 0.438119 0.455656
O O13 0.000000 0.500000 0.500000
#
# Coordination Sequence:
#
# PCOD9247692 Si02
#       6
#     4   4   4   4   4   4
#     4  10  22  39  65  93 123 163 210 255 313 376
#     4  10  22  40  63  93 125 169 208 259 315 371
#     4  11  21  41  66  91 127 164 209 256 316 373
#     4  11  20  41  66  88 122 170 201 253 317 372
#     4  11  21  40  67  89 126 166 212 254 316 376
#     4  11  21  40  63  87 122 166 204 254 314 363
#
# _framework density 25.118020999999999
#
# number of rings (size 3 to 8) (size 9 to 14) (size 15 to 20)
#    0.000    1.333    8.333    1.500    0.000    0.667 
#    0.000   10.000    0.000    0.000    0.000    0.000 
#    0.000    0.000    0.000    0.000    0.000    0.000 
#
# Total GULP energy -133797.910921 kJ/mol
# GULP energy per Si atom -5574.912955 kJ/mol
# Density = 2.506085 g / cm^3
# Si number density = 25.118021 Si / 1000 Ang^3
#
#
#
# Elastic Constant Matrix: (Units=GPa)
#
#
# Indices 1 2 3 4 5 6 
#
# 1 72.3684 12.4858 26.3907 0.0000 -24.8684 0.0000
# 2 12.4858 112.4749 22.7395 0.0000 -20.0392 0.0000
# 3 26.3907 22.7395 184.4793 0.0000 -30.2446 0.0000
# 4 0.0000 0.0000 0.0000 37.8504 0.0000 -20.5476
# 5 -24.8684 -20.0392 -30.2446 0.0000 38.1844 0.0000
# 6 0.0000 0.0000 0.0000 -20.5476 0.0000 30.6355
#
#
#
# Elastic Compliance Matrix: (Units=1/GPa)
#
#
# Indices 1 2 3 4 5 6 
#
# 1 0.017894 0.000150 -0.000753 0.000000 0.011136 0.000000
# 2 0.000150 0.009838 -0.000427 0.000000 0.004922 0.000000
# 3 -0.000753 -0.000427 0.006279 0.000000 0.004259 0.000000
# 4 0.000000 0.000000 0.000000 0.041548 0.000000 0.027866
# 5 0.011136 0.004922 0.004259 0.000000 0.039398 0.000000
# 6 0.000000 0.000000 0.000000 0.027866 0.000000 0.051332
#
#
# Mechanical properties :
#
#
# Convention : Reuss Voigt Hill
#
# Bulk Modulus (GPa) = 31.29806 54.72828 43.01317
# Shear Modulus (GPa) = 27.93326 41.84782 34.89054
#
# Velocity S-wave (km/s) = 3.33840 4.08615 3.73106
# Velocity P-wave (km/s) = 5.22947 6.64063 5.97684
#
# Compressibility (1/GPa) = 0.03195087
#
# Stress axis : x y z
#
# Youngs Moduli (GPa) = 55.88611 101.65151 159.25440
#
# Poissons Ratio (x) = -0.01523 0.11984
# Poissons Ratio (y) = -0.00838 0.06802
# Poissons Ratio (z) = 0.04205 0.04341
#
# Static dielectric constant tensor:
#      x y z
#    x 1.997640 0.000000 0.058590 
#    y 0.000000 2.181980 0.000000 
#    z 0.058590 0.000000 2.099570 
# 
# From -- ./inp_files/47202.got.cif
#   From: 2010.05.17/outbox.cif.g08.bks.cpg/sg14_24_cif.got.tgz:47202.got - 2010.06.03 17:49:19.
