data_PCOD9247968
_publ_section_title
;
Structure prediction by ZEFSAII (Michael W. Deem and Ramdas Pophale) SiO2 
 PCOD9247968
Probable space group: P 21/C
;
_chemical_formula_sum "Si O2"
_cell_formula_units_Z 20
_cell_length_a 19.151797
_cell_length_b 8.700063
_cell_length_c 8.922421
_cell_angle_alpha 90.000000
_cell_angle_beta 29.126717
_cell_angle_gamma 90.000000
_cell_volume 723.625971
_symmetry_space_group_name_H-M "P 21/C"
_symmetry_group_IT_number 14
_symmetry_cell_setting 'monoclinic'
loop_
_space_group_symop_operation_xyz
x,y,z
-x,1/2+y,1/2-z
-x,-y,-z
x,1/2-y,1/2+z
loop_
_atom_site_type_symbol
_atom_site_label
_atom_site_fract_x
_atom_site_fract_y
_atom_site_fract_z
Si Si1 0.116017 0.970918 0.576942
Si Si2 0.975863 0.245158 0.981373
Si Si3 0.283632 0.188178 0.448194
Si Si4 0.364705 0.536514 0.036614
Si Si5 0.421101 0.822952 0.723037
O O1 0.256837 0.060252 0.368895
O O2 0.108578 0.883086 0.435694
O O3 0.997447 0.105285 0.820069
O O4 0.083243 0.843577 0.764721
O O5 0.858789 0.709174 0.293775
O O6 0.279678 0.100006 0.614298
O O7 0.434877 0.264328 0.134083
O O8 0.368269 0.678159 0.915764
O O9 0.517852 0.454293 0.782134
O O10 0.324840 0.605491 0.272466
#
# Coordination Sequence:
#
# PCOD9247968 Si02
#       5
#     4   4   4   4   4
#     4   9  21  40  65  91 130 159 214 260 312 387
#     4   9  21  40  63  96 127 163 207 268 306 396
#     4  10  22  40  69  89 135 171 212 262 334 372
#     4  11  24  43  66  98 128 178 221 271 317 390
#     4  11  24  43  68  94 137 169 223 272 320 386
#
# _framework density 27.638587000000001
#
# number of rings (size 3 to 8) (size 9 to 14) (size 15 to 20)
#    1.200    0.800    2.000    0.600    2.800    2.400 
#    0.000    0.000    0.000    0.000    0.000    0.000 
#    0.000    0.000    0.000    0.000    0.000    0.000 
#
# Total GULP energy -112009.710555 kJ/mol
# GULP energy per Si atom -5600.485528 kJ/mol
# Density = 2.757568 g / cm^3
# Si number density = 27.638587 Si / 1000 Ang^3
#
#
#
# Elastic Constant Matrix: (Units=GPa)
#
#
# Indices 1 2 3 4 5 6 
#
# 1 137.1501 67.8914 16.7252 0.0000 4.8028 0.0000
# 2 67.8914 141.3418 41.2556 0.0000 22.6396 0.0000
# 3 16.7252 41.2556 76.5523 0.0000 -0.8105 0.0000
# 4 0.0000 0.0000 0.0000 43.8755 0.0000 12.2506
# 5 4.8028 22.6396 -0.8105 0.0000 15.2178 0.0000
# 6 0.0000 0.0000 0.0000 12.2506 0.0000 47.3684
#
#
#
# Elastic Compliance Matrix: (Units=1/GPa)
#
#
# Indices 1 2 3 4 5 6 
#
# 1 0.009946 -0.006070 0.001161 0.000000 0.005953 0.000000
# 2 -0.006070 0.015596 -0.007308 0.000000 -0.021675 0.000000
# 3 0.001161 -0.007308 0.016869 0.000000 0.011404 0.000000
# 4 0.000000 0.000000 0.000000 0.024566 0.000000 -0.006353
# 5 0.005953 -0.021675 0.011404 0.000000 0.096687 0.000000
# 6 0.000000 0.000000 0.000000 -0.006353 0.000000 0.022754
#
#
# Mechanical properties :
#
#
# Convention : Reuss Voigt Hill
#
# Bulk Modulus (GPa) = 55.62828 67.42094 61.52461
# Shear Modulus (GPa) = 23.05818 36.57048 29.81433
#
# Velocity S-wave (km/s) = 2.89152 3.64148 3.28795
# Velocity P-wave (km/s) = 5.59630 6.49055 6.05994
#
# Compressibility (1/GPa) = 0.01797647
#
# Stress axis : x y z
#
# Youngs Moduli (GPa) = 100.54443 64.12084 59.28203
#
# Poissons Ratio (x) = 0.38920 -0.06884
# Poissons Ratio (y) = 0.61028 0.43324
# Poissons Ratio (z) = -0.11675 0.46860
#
# Static dielectric constant tensor:
#      x y z
#    x 2.155960 0.000000 -0.042430 
#    y 0.000000 2.113680 0.000000 
#    z -0.042430 0.000000 2.142290 
# 
# From -- ./inp_files/19354.got.cif
#   From: 2010.05.17/outbox.cif.g08.bks.cpg/sg14_10_cif.got.tgz:19354.got - 2010.06.03 17:49:19.
