data_PCOD9247035
_publ_section_title
;
Structure prediction by ZEFSAII (Michael W. Deem and Ramdas Pophale) SiO2 
 PCOD9247035
Probable space group: P 21/C
;
_chemical_formula_sum "Si O2"
_cell_formula_units_Z 20
_cell_length_a 6.666375
_cell_length_b 23.632052
_cell_length_c 5.453783
_cell_angle_alpha 90.000000
_cell_angle_beta 106.708544
_cell_angle_gamma 90.000000
_cell_volume 822.914330
_symmetry_space_group_name_H-M "P 21/C"
_symmetry_group_IT_number 14
_symmetry_cell_setting 'monoclinic'
loop_
_space_group_symop_operation_xyz
x,y,z
-x,1/2+y,1/2-z
-x,-y,-z
x,1/2-y,1/2+z
loop_
_atom_site_type_symbol
_atom_site_label
_atom_site_fract_x
_atom_site_fract_y
_atom_site_fract_z
Si Si1 0.220417 0.430081 0.619284
Si Si2 0.075658 0.870492 0.655517
Si Si3 0.456968 0.866900 0.109273
Si Si4 0.168270 0.215263 0.697197
Si Si5 0.202329 0.952433 0.337264
O O1 0.404516 0.407522 0.515942
O O2 0.276624 0.484796 0.800567
O O3 0.134376 0.380797 0.764662
O O4 0.019511 0.445214 0.381187
O O5 0.258957 0.845351 0.883431
O O6 0.152194 0.932769 0.594978
O O7 0.012079 0.831853 0.405736
O O8 0.608984 0.816567 0.238680
O O9 0.364144 0.906253 0.289827
O O10 0.148761 0.255575 0.453847
#
# Coordination Sequence:
#
# PCOD9247035 Si02
#       5
#     4   4   4   4   4
#     4  10  21  43  68 108 153 189 226 285 364 435
#     4  11  25  44  72 104 145 186 241 297 356 439
#     4  11  25  44  73 104 144 186 242 294 360 436
#     4  12  29  51  75 101 142 192 248 315 371 418
#     4  10  22  40  72 107 147 190 233 284 357 444
#
# _framework density 24.303867
#
# number of rings (size 3 to 8) (size 9 to 14) (size 15 to 20)
#    0.000    1.200    2.000    2.400    8.400    2.400 
#    0.000    0.000    0.000    0.000    0.000    0.000 
#    0.000    0.000    0.000    0.000    0.000    0.000 
#
# Total GULP energy -112076.439144 kJ/mol
# GULP energy per Si atom -5603.821957 kJ/mol
# Density = 2.424855 g / cm^3
# Si number density = 24.303867 Si / 1000 Ang^3
#
#
#
# Elastic Constant Matrix: (Units=GPa)
#
#
# Indices 1 2 3 4 5 6 
#
# 1 86.2531 23.6797 15.1914 0.0000 -20.7146 0.0000
# 2 23.6797 86.8667 33.5675 0.0000 9.6537 0.0000
# 3 15.1914 33.5675 84.5517 0.0000 7.3729 0.0000
# 4 0.0000 0.0000 0.0000 49.9241 0.0000 -1.5371
# 5 -20.7146 9.6537 7.3729 0.0000 34.8865 0.0000
# 6 0.0000 0.0000 0.0000 -1.5371 0.0000 33.8887
#
#
#
# Elastic Compliance Matrix: (Units=1/GPa)
#
#
# Indices 1 2 3 4 5 6 
#
# 1 0.015962 -0.004857 -0.001918 0.000000 0.011227 0.000000
# 2 -0.004857 0.015325 -0.004676 0.000000 -0.006137 0.000000
# 3 -0.001918 -0.004676 0.014278 0.000000 -0.002863 0.000000
# 4 0.000000 0.000000 0.000000 0.020058 0.000000 0.000910
# 5 0.011227 -0.006137 -0.002863 0.000000 0.037634 0.000000
# 6 0.000000 0.000000 0.000000 0.000910 0.000000 0.029550
#
#
# Mechanical properties :
#
#
# Convention : Reuss Voigt Hill
#
# Bulk Modulus (GPa) = 44.13016 44.72761 44.42889
# Shear Modulus (GPa) = 30.62526 36.08872 33.35699
#
# Velocity S-wave (km/s) = 3.55364 3.85762 3.70874
# Velocity P-wave (km/s) = 5.91903 6.18749 6.05475
#
# Compressibility (1/GPa) = 0.02266024
#
# Stress axis : x y z
#
# Youngs Moduli (GPa) = 62.65064 65.25267 70.03847
#
# Poissons Ratio (x) = 0.31696 0.13436
# Poissons Ratio (y) = 0.30432 0.32752
# Poissons Ratio (z) = 0.12019 0.30514
#
# Static dielectric constant tensor:
#      x y z
#    x 1.878780 0.000000 0.001570 
#    y 0.000000 1.965130 0.000000 
#    z 0.001570 0.000000 1.944900 
# 
# From -- ./inp_files/609.got.cif
#   From: 2010.05.17/outbox.cif.g08.bks.cpg/sg14_1_cif.got.tgz:609.got - 2010.06.03 17:49:19.
