data_PCOD9247883
_publ_section_title
;
Structure prediction by ZEFSAII (Michael W. Deem and Ramdas Pophale) SiO2 
 PCOD9247883
Probable space group: P 21/C
;
_chemical_formula_sum "Si O2"
_cell_formula_units_Z 32
_cell_length_a 15.014416
_cell_length_b 10.688147
_cell_length_c 9.441017
_cell_angle_alpha 90.000000
_cell_angle_beta 89.827119
_cell_angle_gamma 90.000000
_cell_volume 1515.052441
_symmetry_space_group_name_H-M "P 21/C"
_symmetry_group_IT_number 14
_symmetry_cell_setting 'monoclinic'
loop_
_space_group_symop_operation_xyz
x,y,z
-x,1/2+y,1/2-z
-x,-y,-z
x,1/2-y,1/2+z
loop_
_atom_site_type_symbol
_atom_site_label
_atom_site_fract_x
_atom_site_fract_y
_atom_site_fract_z
Si Si1 0.599546 0.491192 0.063575
Si Si2 0.506958 0.362669 0.562354
Si Si3 0.751799 0.373361 0.859519
Si Si4 0.043797 0.656265 0.111300
Si Si5 0.322469 0.240594 0.526210
Si Si6 0.019655 0.120299 0.701706
Si Si7 0.222157 0.384155 0.290248
Si Si8 0.606009 0.218692 0.789779
O O1 0.638673 0.630615 0.074276
O O2 0.590859 0.408591 0.204035
O O3 0.500000 0.500000 0.000000
O O4 0.675971 0.425189 0.966326
O O5 0.500000 0.500000 0.500000
O O6 0.408186 0.312573 0.582502
O O7 0.564343 0.333481 0.700616
O O8 0.555984 0.287297 0.437794
O O9 0.851180 0.367841 0.920101
O O10 0.758480 0.468790 0.727908
O O11 0.710513 0.242962 0.809760
O O12 0.036999 0.783823 0.201781
O O13 0.006855 0.531770 0.194145
O O14 0.992598 0.662016 0.961886
O O15 0.258891 0.328098 0.434470
O O16 0.272783 0.179714 0.658513
O O17 0.118639 0.137547 0.762366
#
# Coordination Sequence:
#
# PCOD9247883 Si02
#       8
#     4   4   4   4   4   4   4   4
#     4  11  23  41  64  89 128 173 212 264 326 370
#     4  12  27  38  62  89 126 168 217 263 320 379
#     4  10  23  43  63  95 128 170 211 268 316 384
#     4  10  23  42  72  95 137 167 222 268 339 398
#     4  11  22  39  62  87 121 168 211 259 315 381
#     4  10  22  44  67 101 128 174 208 279 334 399
#     4  10  22  40  65  89 129 160 213 260 321 384
#     4  12  24  42  61  88 127 165 215 264 315 381
#
# _framework density 21.121381
#
# number of rings (size 3 to 8) (size 9 to 14) (size 15 to 20)
#    0.000    1.250    2.500    2.250    8.750    1.500 
#    0.000    0.000    0.000    0.000    0.000    0.000 
#    0.000    0.000    0.000    0.000    0.000    0.000 
#
# Total GULP energy -178738.091879 kJ/mol
# GULP energy per Si atom -5585.565371 kJ/mol
# Density = 2.107331 g / cm^3
# Si number density = 21.121381 Si / 1000 Ang^3
#
#
#
# Elastic Constant Matrix: (Units=GPa)
#
#
# Indices 1 2 3 4 5 6 
#
# 1 80.7631 19.0676 6.8894 0.0000 -0.1821 0.0000
# 2 19.0676 39.5239 2.5128 0.0000 -5.7448 0.0000
# 3 6.8894 2.5128 55.1999 0.0000 -0.4413 0.0000
# 4 0.0000 0.0000 0.0000 37.0705 0.0000 0.4799
# 5 -0.1821 -5.7448 -0.4413 0.0000 26.0102 0.0000
# 6 0.0000 0.0000 0.0000 0.4799 0.0000 29.7940
#
#
#
# Elastic Compliance Matrix: (Units=1/GPa)
#
#
# Indices 1 2 3 4 5 6 
#
# 1 0.014142 -0.006942 -0.001461 0.000000 -0.001459 0.000000
# 2 -0.006942 0.029620 -0.000430 0.000000 0.006486 0.000000
# 3 -0.001461 -0.000430 0.018319 0.000000 0.000206 0.000000
# 4 0.000000 0.000000 0.000000 0.026981 0.000000 -0.000435
# 5 -0.001459 0.006486 0.000206 0.000000 0.039872 0.000000
# 6 0.000000 0.000000 0.000000 -0.000435 0.000000 0.033571
#
#
# Mechanical properties :
#
#
# Convention : Reuss Voigt Hill
#
# Bulk Modulus (GPa) = 22.51411 25.82516 24.16963
# Shear Modulus (GPa) = 25.64406 28.37608 27.01007
#
# Velocity S-wave (km/s) = 3.48821 3.66932 3.57991
# Velocity P-wave (km/s) = 5.18710 5.49595 5.34376
#
# Compressibility (1/GPa) = 0.04441659
#
# Stress axis : x y z
#
# Youngs Moduli (GPa) = 70.71077 33.76076 54.58665
#
# Poissons Ratio (x) = 0.23436 0.07974
# Poissons Ratio (y) = 0.49086 0.02348
# Poissons Ratio (z) = 0.10329 0.01452
#
# Static dielectric constant tensor:
#      x y z
#    x 1.738750 0.000000 -0.000090 
#    y 0.000000 1.832070 0.000000 
#    z -0.000090 0.000000 1.770390 
# 
# From -- ./inp_files/15797.got.cif
#   From: 2010.05.17/outbox.cif.g08.bks.cpg/sg14_8_cif.got.tgz:15797.got - 2010.06.03 17:49:19.
