data_PCOD9247427
_publ_section_title
;
Structure prediction by ZEFSAII (Michael W. Deem and Ramdas Pophale) SiO2 
 PCOD9247427
Probable space group: P 21/C
;
_chemical_formula_sum "Si O2"
_cell_formula_units_Z 32
_cell_length_a 17.565262
_cell_length_b 7.937380
_cell_length_c 25.105462
_cell_angle_alpha 90.000000
_cell_angle_beta 160.246124
_cell_angle_gamma 90.000000
_cell_volume 1183.018459
_symmetry_space_group_name_H-M "P 21/C"
_symmetry_group_IT_number 14
_symmetry_cell_setting 'monoclinic'
loop_
_space_group_symop_operation_xyz
x,y,z
-x,1/2+y,1/2-z
-x,-y,-z
x,1/2-y,1/2+z
loop_
_atom_site_type_symbol
_atom_site_label
_atom_site_fract_x
_atom_site_fract_y
_atom_site_fract_z
Si Si1 0.506644 0.429854 0.563336
Si Si2 0.060484 0.411161 0.096468
Si Si3 0.881533 0.885699 0.573300
Si Si4 0.859022 0.409578 0.604839
Si Si5 0.756891 0.157183 0.860555
Si Si6 0.624571 0.918146 0.860302
Si Si7 0.525684 0.434569 0.109827
Si Si8 0.218447 0.833177 0.360018
O O1 0.500000 0.500000 0.500000
O O2 0.695409 0.524105 0.723540
O O3 0.279670 0.471459 0.445734
O O4 0.528252 0.229331 0.574706
O O5 0.923120 0.465519 0.059204
O O6 0.000000 0.500000 0.000000
O O7 0.996752 0.218182 0.040983
O O8 0.803099 0.730602 0.484654
O O9 0.686938 0.911570 0.489163
O O10 0.104286 0.813392 0.748910
O O11 0.710147 0.429554 0.454267
O O12 0.867346 0.230353 0.638049
O O13 0.099281 0.498604 0.759330
O O14 0.638178 0.002349 0.812372
O O15 0.600830 0.323383 0.769258
O O16 0.740656 0.103326 0.788659
O O17 0.471164 0.604986 0.041778
#
# Coordination Sequence:
#
# PCOD9247427 Si02
#       8
#     4   4   4   4   4   4   4   4
#     4  12  25  43  68 102 145 185 239 282 365 434
#     4  12  25  46  72  93 146 192 229 288 365 438
#     4  10  22  42  68 103 134 181 240 290 352 423
#     4  11  21  40  62 104 130 179 225 294 349 420
#     4  11  22  42  65 101 133 188 230 294 357 420
#     4  10  22  37  67  99 138 165 248 294 337 414
#     4  11  22  43  64 102 143 180 239 301 342 428
#     4  11  21  38  72  96 142 173 238 300 352 413
#
# _framework density 27.04945
#
# number of rings (size 3 to 8) (size 9 to 14) (size 15 to 20)
#    0.000    1.000    6.250    2.250    3.500    2.000 
#    0.000    4.375    0.000    0.000    0.000    0.000 
#    0.000    0.000    0.000    0.000    0.000    0.000 
#
# Total GULP energy -178867.940906 kJ/mol
# GULP energy per Si atom -5589.623153 kJ/mol
# Density = 2.698788 g / cm^3
# Si number density = 27.049450 Si / 1000 Ang^3
#
#
#
# Elastic Constant Matrix: (Units=GPa)
#
#
# Indices 1 2 3 4 5 6 
#
# 1 67.1706 3.8984 4.0005 0.0000 -20.8076 0.0000
# 2 3.8984 99.8529 56.4552 0.0000 -15.0346 0.0000
# 3 4.0005 56.4552 120.0124 0.0000 -25.3904 0.0000
# 4 0.0000 0.0000 0.0000 56.1288 0.0000 -5.1720
# 5 -20.8076 -15.0346 -25.3904 0.0000 50.9892 0.0000
# 6 0.0000 0.0000 0.0000 -5.1720 0.0000 45.0101
#
#
#
# Elastic Compliance Matrix: (Units=1/GPa)
#
#
# Indices 1 2 3 4 5 6 
#
# 1 0.017154 -0.000156 0.001087 0.000000 0.007496 0.000000
# 2 -0.000156 0.013684 -0.006250 0.000000 0.000859 0.000000
# 3 0.001087 -0.006250 0.012229 0.000000 0.004690 0.000000
# 4 0.000000 0.000000 0.000000 0.018007 0.000000 0.002069
# 5 0.007496 0.000859 0.004690 0.000000 0.025260 0.000000
# 6 0.000000 0.000000 0.000000 0.002069 0.000000 0.022455
#
#
# Mechanical properties :
#
#
# Convention : Reuss Voigt Hill
#
# Bulk Modulus (GPa) = 30.83684 46.19380 38.51532
# Shear Modulus (GPa) = 38.39229 45.27107 41.83168
#
# Velocity S-wave (km/s) = 3.77150 4.09545 3.93681
# Velocity P-wave (km/s) = 5.51276 6.28317 5.91053
#
# Compressibility (1/GPa) = 0.03242874
#
# Stress axis : x y z
#
# Youngs Moduli (GPa) = 58.29661 73.07874 81.77526
#
# Poissons Ratio (x) = 0.01139 -0.08892
# Poissons Ratio (y) = 0.00909 0.51111
# Poissons Ratio (z) = -0.06339 0.45675
#
# Static dielectric constant tensor:
#      x y z
#    x 2.146930 0.000000 0.053170 
#    y 0.000000 2.078020 0.000000 
#    z 0.053170 0.000000 2.222340 
# 
# From -- ./inp_files/78013.got.cif
#   From: 2010.05.17/outbox.cif.g08.bks.cpg/sg14_40_cif.got.tgz:78013.got - 2010.06.03 17:49:19.
