data_PCOD9247582
_publ_section_title
;
Structure prediction by ZEFSAII (Michael W. Deem and Ramdas Pophale) SiO2 
 PCOD9247582
Probable space group: P 21/C
;
_chemical_formula_sum "Si O2"
_cell_formula_units_Z 20
_cell_length_a 7.809604
_cell_length_b 5.416727
_cell_length_c 21.758651
_cell_angle_alpha 90.000000
_cell_angle_beta 70.185597
_cell_angle_gamma 90.000000
_cell_volume 865.950762
_symmetry_space_group_name_H-M "P 21/C"
_symmetry_group_IT_number 14
_symmetry_cell_setting 'monoclinic'
loop_
_space_group_symop_operation_xyz
x,y,z
-x,1/2+y,1/2-z
-x,-y,-z
x,1/2-y,1/2+z
loop_
_atom_site_type_symbol
_atom_site_label
_atom_site_fract_x
_atom_site_fract_y
_atom_site_fract_z
Si Si1 0.834778 0.866135 0.210140
Si Si2 0.710245 0.554204 0.984022
Si Si3 0.240006 0.864087 0.206949
Si Si4 0.173163 0.552325 0.521135
Si Si5 0.638063 0.845521 0.104828
O O1 0.761501 0.618389 0.253179
O O2 0.757950 0.875220 0.150678
O O3 0.053188 0.864583 0.190836
O O4 0.769765 0.118636 0.250136
O O5 0.826227 0.320101 0.950507
O O6 0.718035 0.615464 0.056007
O O7 0.782983 0.808299 0.945175
O O8 0.500000 0.500000 0.000000
O O9 0.427253 0.837341 0.147106
O O10 0.335480 0.554642 0.450517
O O11 0.000000 0.500000 0.500000
#
# Coordination Sequence:
#
# PCOD9247582 Si02
#       5
#     4   4   4   4   4
#     4  10  22  39  59  90 124 156 199 254 310 377
#     4  10  23  41  61  89 123 163 211 257 310 366
#     4  10  22  39  59  90 124 156 199 254 310 377
#     4  10  23  41  61  89 123 163 211 257 310 366
#     4  10  24  36  68  86 122 160 212 244 326 356
#
# _framework density 23.096001000000001
#
# number of rings (size 3 to 8) (size 9 to 14) (size 15 to 20)
#    1.200    0.800    0.000    2.400    5.600    1.600 
#    0.000    0.000    0.000    0.000    0.000    0.000 
#    0.000    0.000    0.000    0.000    0.000    0.000 
#
# Total GULP energy -111636.664800 kJ/mol
# GULP energy per Si atom -5581.833240 kJ/mol
# Density = 2.304343 g / cm^3
# Si number density = 23.096001 Si / 1000 Ang^3
#
#
#
# Elastic Constant Matrix: (Units=GPa)
#
#
# Indices 1 2 3 4 5 6 
#
# 1 57.6225 30.5601 -9.3554 0.0000 7.7502 0.0000
# 2 30.5601 187.5458 25.7323 0.0000 -3.4668 0.0000
# 3 -9.3554 25.7323 78.8046 0.0000 0.3171 0.0000
# 4 0.0000 0.0000 0.0000 17.2183 0.0000 1.2152
# 5 7.7502 -3.4668 0.3171 0.0000 17.7661 0.0000
# 6 0.0000 0.0000 0.0000 1.2152 0.0000 24.6241
#
#
#
# Elastic Compliance Matrix: (Units=1/GPa)
#
#
# Indices 1 2 3 4 5 6 
#
# 1 0.021663 -0.004271 0.004008 0.000000 -0.010355 0.000000
# 2 -0.004271 0.006447 -0.002625 0.000000 0.003168 0.000000
# 3 0.004008 -0.002625 0.014033 0.000000 -0.002511 0.000000
# 4 0.000000 0.000000 0.000000 0.058281 0.000000 -0.002876
# 5 -0.010355 0.003168 -0.002511 0.000000 0.061467 0.000000
# 6 0.000000 0.000000 0.000000 -0.002876 0.000000 0.040753
#
#
# Mechanical properties :
#
#
# Convention : Reuss Voigt Hill
#
# Bulk Modulus (GPa) = 27.49788 46.42744 36.96266
# Shear Modulus (GPa) = 22.67152 30.39078 26.53115
#
# Velocity S-wave (km/s) = 3.13648 3.63139 3.39297
# Velocity P-wave (km/s) = 5.00484 6.14234 5.60253
#
# Compressibility (1/GPa) = 0.03636645
#
# Stress axis : x y z
#
# Youngs Moduli (GPa) = 46.16133 155.11712 71.26232
#
# Poissons Ratio (x) = 0.66255 -0.28563
# Poissons Ratio (y) = 0.19717 0.18706
# Poissons Ratio (z) = -0.18502 0.40717
#
# Static dielectric constant tensor:
#      x y z
#    x 1.893570 0.000000 -0.015660 
#    y 0.000000 2.060080 0.000000 
#    z -0.015660 0.000000 1.850530 
# 
# From -- ./inp_files/71521.got.cif
#   From: 2010.05.17/outbox.cif.g08.bks.cpg/sg14_36_cif.got.tgz:71521.got - 2010.06.03 17:49:19.
