data_PCOD9247814
_publ_section_title
;
Structure prediction by ZEFSAII (Michael W. Deem and Ramdas Pophale) SiO2 
 PCOD9247814
Probable space group: P 21/C
;
_chemical_formula_sum "Si O2"
_cell_formula_units_Z 32
_cell_length_a 10.231647
_cell_length_b 8.402841
_cell_length_c 25.851477
_cell_angle_alpha 90.000000
_cell_angle_beta 37.464416
_cell_angle_gamma 90.000000
_cell_volume 1351.924530
_symmetry_space_group_name_H-M "P 21/C"
_symmetry_group_IT_number 14
_symmetry_cell_setting 'monoclinic'
loop_
_space_group_symop_operation_xyz
x,y,z
-x,1/2+y,1/2-z
-x,-y,-z
x,1/2-y,1/2+z
loop_
_atom_site_type_symbol
_atom_site_label
_atom_site_fract_x
_atom_site_fract_y
_atom_site_fract_z
Si Si1 0.841415 0.629653 0.073604
Si Si2 0.092959 0.029795 0.217001
Si Si3 0.110199 0.808444 0.808708
Si Si4 0.233855 0.231207 0.013796
Si Si5 0.440345 0.047507 0.750594
Si Si6 0.455453 0.125819 0.184534
Si Si7 0.121406 0.594125 0.508143
Si Si8 0.705526 0.206488 0.355263
O O1 0.770142 0.721379 0.044612
O O2 0.644874 0.538703 0.160860
O O3 0.000000 0.500000 0.000000
O O4 0.967549 0.757448 0.069849
O O5 0.258995 0.086304 0.208277
O O6 0.079797 0.141922 0.171092
O O7 0.850442 0.048655 0.315935
O O8 0.151301 0.859009 0.175448
O O9 0.229203 0.945993 0.803152
O O10 0.289263 0.766846 0.709198
O O11 0.978387 0.700910 0.890474
O O12 0.473619 0.284216 0.953999
O O13 0.199030 0.039585 0.024473
O O14 0.484275 0.023305 0.797494
O O15 0.423502 0.222406 0.731914
O O16 0.661419 0.163218 0.084729
O O17 0.000000 0.500000 0.500000
#
# Coordination Sequence:
#
# PCOD9247814 Si02
#       8
#     4   4   4   4   4   4   4   4
#     4  11  22  40  61  97 139 180 223 296 345 408
#     4  10  23  45  69  95 142 176 230 282 354 413
#     4  10  25  44  72  98 136 184 235 281 355 415
#     4  11  22  43  72  96 136 183 237 286 349 419
#     4  12  26  41  69 103 141 181 241 284 356 414
#     4  12  26  42  69 103 138 186 230 294 349 417
#     4  10  22  40  62  94 137 178 227 279 349 411
#     4  10  22  44  71  94 137 182 228 288 345 415
#
# _framework density 23.669961000000001
#
# number of rings (size 3 to 8) (size 9 to 14) (size 15 to 20)
#    0.750    0.500    3.750    2.250    7.000    0.500 
#    0.000    0.625    0.000    0.000    0.000    0.000 
#    0.000    0.000    0.000    0.000    0.000    0.000 
#
# Total GULP energy -178419.646221 kJ/mol
# GULP energy per Si atom -5575.613944 kJ/mol
# Density = 2.361609 g / cm^3
# Si number density = 23.669961 Si / 1000 Ang^3
#
#
#
# Elastic Constant Matrix: (Units=GPa)
#
#
# Indices 1 2 3 4 5 6 
#
# 1 97.5298 11.1453 11.2391 0.0000 -7.7139 0.0000
# 2 11.1453 43.8127 9.0238 0.0000 -12.4246 0.0000
# 3 11.2391 9.0238 144.6990 0.0000 -21.2229 0.0000
# 4 0.0000 0.0000 0.0000 32.3063 0.0000 1.7332
# 5 -7.7139 -12.4246 -21.2229 0.0000 35.8977 0.0000
# 6 0.0000 0.0000 0.0000 1.7332 0.0000 24.3228
#
#
#
# Elastic Compliance Matrix: (Units=1/GPa)
#
#
# Indices 1 2 3 4 5 6 
#
# 1 0.010666 -0.002266 -0.000510 0.000000 0.001206 0.000000
# 2 -0.002266 0.025804 -0.000213 0.000000 0.008318 0.000000
# 3 -0.000510 -0.000213 0.007596 0.000000 0.004307 0.000000
# 4 0.000000 0.000000 0.000000 0.031072 0.000000 -0.002214
# 5 0.001206 0.008318 0.004307 0.000000 0.033541 0.000000
# 6 0.000000 0.000000 0.000000 -0.002214 0.000000 0.041271
#
#
# Mechanical properties :
#
#
# Convention : Reuss Voigt Hill
#
# Bulk Modulus (GPa) = 26.25620 38.76200 32.50910
# Shear Modulus (GPa) = 29.65143 35.48091 32.56617
#
# Velocity S-wave (km/s) = 3.54319 3.87587 3.71326
# Velocity P-wave (km/s) = 5.27785 6.03667 5.66997
#
# Compressibility (1/GPa) = 0.03808624
#
# Stress axis : x y z
#
# Youngs Moduli (GPa) = 93.75194 38.75412 131.65610
#
# Poissons Ratio (x) = 0.08783 0.06718
# Poissons Ratio (y) = 0.21247 0.02807
# Poissons Ratio (z) = 0.04784 0.00826
#
# Static dielectric constant tensor:
#      x y z
#    x 1.942060 0.000000 0.013300 
#    y 0.000000 2.025630 0.000000 
#    z 0.013300 0.000000 1.962100 
# 
# From -- ./inp_files/80002.got.cif
#   From: 2010.05.17/outbox.cif.g08.bks.cpg/sg14_41_cif.got.tgz:80002.got - 2010.06.03 17:49:19.
