data_PCOD9247646
_publ_section_title
;
Structure prediction by ZEFSAII (Michael W. Deem and Ramdas Pophale) SiO2 
 PCOD9247646
Probable space group: P 21/C
;
_chemical_formula_sum "Si O2"
_cell_formula_units_Z 26
_cell_length_a 5.488515
_cell_length_b 23.440903
_cell_length_c 8.441729
_cell_angle_alpha 90.000000
_cell_angle_beta 84.063481
_cell_angle_gamma 90.000000
_cell_volume 1080.252432
_symmetry_space_group_name_H-M "P 21/C"
_symmetry_group_IT_number 14
_symmetry_cell_setting 'monoclinic'
loop_
_space_group_symop_operation_xyz
x,y,z
-x,1/2+y,1/2-z
-x,-y,-z
x,1/2-y,1/2+z
loop_
_atom_site_type_symbol
_atom_site_label
_atom_site_fract_x
_atom_site_fract_y
_atom_site_fract_z
Si Si1 0.064367 0.582788 0.135719
Si Si2 0.889040 0.702499 0.041511
Si Si3 0.223363 0.925026 0.984672
Si Si4 0.244832 0.803749 0.109700
Si Si5 0.500000 0.000000 0.500000
Si Si6 0.658325 0.517715 0.291875
Si Si7 0.563948 0.746804 0.326439
O O1 0.034384 0.645227 0.066519
O O2 0.086702 0.584111 0.326248
O O3 0.806970 0.547687 0.135680
O O4 0.292025 0.550296 0.047185
O O5 0.042375 0.759327 0.065707
O O6 0.669756 0.705690 0.184898
O O7 0.766493 0.709925 0.879553
O O8 0.502572 0.938134 0.906448
O O9 0.180565 0.868834 0.090024
O O10 0.182075 0.978312 0.104849
O O11 0.341759 0.783504 0.272055
O O12 0.472178 0.791886 0.975758
O O13 0.524139 0.981163 0.305180
#
# Coordination Sequence:
#
# PCOD9247646 Si02
#       7
#     4   4   4   4   2   4   4
#     4  11  22  41  63  86 124 161 202 253 301 365
#     4  11  23  40  63  93 124 164 204 248 311 368
#     4  10  22  39  63  88 116 158 205 251 306 363
#     4  11  22  41  62  91 128 157 200 259 303 366
#     4  10  24  40  60  90 118 158 202 248 308 356
#     4  10  22  41  62  87 117 158 206 253 304 361
#     4  10  23  39  61  93 124 162 204 243 311 371
#
# _framework density 24.068451
#
# number of rings (size 3 to 8) (size 9 to 14) (size 15 to 20)
#    0.000    1.538    0.000    4.615    0.000    8.615 
#    0.000    3.077    0.000    0.000    0.000    0.000 
#    0.000    0.000    0.000    0.000    0.000    0.000 
#
# Total GULP energy -144871.775249 kJ/mol
# GULP energy per Si atom -5571.991356 kJ/mol
# Density = 2.401367 g / cm^3
# Si number density = 24.068451 Si / 1000 Ang^3
#
#
#
# Elastic Constant Matrix: (Units=GPa)
#
#
# Indices 1 2 3 4 5 6 
#
# 1 30.2094 -7.9534 -15.0010 0.0000 -9.5208 0.0000
# 2 -7.9534 72.2416 -3.1865 0.0000 -5.4335 0.0000
# 3 -15.0010 -3.1865 78.7830 0.0000 7.9756 0.0000
# 4 0.0000 0.0000 0.0000 31.1531 0.0000 -2.1797
# 5 -9.5208 -5.4335 7.9756 0.0000 42.5538 0.0000
# 6 0.0000 0.0000 0.0000 -2.1797 0.0000 20.3291
#
#
#
# Elastic Compliance Matrix: (Units=1/GPa)
#
#
# Indices 1 2 3 4 5 6 
#
# 1 0.040740 0.005437 0.007119 0.000000 0.008475 0.000000
# 2 0.005437 0.014714 0.001342 0.000000 0.002844 0.000000
# 3 0.007119 0.001342 0.014194 0.000000 -0.000896 0.000000
# 4 0.000000 0.000000 0.000000 0.032342 0.000000 0.003468
# 5 0.008475 0.002844 -0.000896 0.000000 0.025927 0.000000
# 6 0.000000 0.000000 0.000000 0.003468 0.000000 0.049562
#
#
# Mechanical properties :
#
#
# Convention : Reuss Voigt Hill
#
# Bulk Modulus (GPa) = 10.26233 14.32802 12.29518
# Shear Modulus (GPa) = 27.44787 32.63218 30.04003
#
# Velocity S-wave (km/s) = 3.38066 3.68612 3.53669
# Velocity P-wave (km/s) = 4.41719 4.90741 4.66873
#
# Compressibility (1/GPa) = 0.09744374
#
# Stress axis : x y z
#
# Youngs Moduli (GPa) = 24.54616 67.96217 70.45399
#
# Poissons Ratio (x) = -0.36948 -0.50157
# Poissons Ratio (y) = -0.13345 -0.09458
# Poissons Ratio (z) = -0.17475 -0.09124
#
# Static dielectric constant tensor:
#      x y z
#    x 0.629370 0.000000 -0.840610 
#    y 0.000000 -0.686180 0.000000 
#    z -0.840610 0.000000 1.507030 
# 
# From -- ./inp_files/6282.got.cif
#   From: 2010.05.17/outbox.cif.g08.bks.cpg/sg14_4_cif.got.tgz:6282.got - 2010.06.03 17:49:19.
