data_PCOD9247995
_publ_section_title
;
Structure prediction by ZEFSAII (Michael W. Deem and Ramdas Pophale) SiO2 
 PCOD9247995
Probable space group: P 21/C
;
_chemical_formula_sum "Si O2"
_cell_formula_units_Z 20
_cell_length_a 18.281565
_cell_length_b 8.702436
_cell_length_c 13.389856
_cell_angle_alpha 90.000000
_cell_angle_beta 20.139441
_cell_angle_gamma 90.000000
_cell_volume 733.457215
_symmetry_space_group_name_H-M "P 21/C"
_symmetry_group_IT_number 14
_symmetry_cell_setting 'monoclinic'
loop_
_space_group_symop_operation_xyz
x,y,z
-x,1/2+y,1/2-z
-x,-y,-z
x,1/2-y,1/2+z
loop_
_atom_site_type_symbol
_atom_site_label
_atom_site_fract_x
_atom_site_fract_y
_atom_site_fract_z
Si Si1 0.490678 0.666266 0.621467
Si Si2 0.582304 0.356782 0.957786
Si Si3 0.933324 0.560826 0.976468
Si Si4 0.714746 0.945843 0.453703
Si Si5 0.891435 0.722273 0.366597
O O1 0.346724 0.735654 0.717041
O O2 0.576985 0.811369 0.575718
O O3 0.401573 0.538763 0.809175
O O4 0.686360 0.590612 0.312003
O O5 0.743682 0.423972 0.832067
O O6 0.500000 0.500000 0.000000
O O7 0.364563 0.298725 0.289334
O O8 0.022988 0.435753 0.785416
O O9 0.992266 0.719891 0.842059
O O10 0.000000 0.500000 0.000000
O O11 0.901500 0.854258 0.269070
#
# Coordination Sequence:
#
# PCOD9247995 Si02
#       5
#     4   4   4   4   4
#     4  10  22  40  74 102 137 177 229 290 352 404
#     4   9  20  39  68 101 135 169 225 294 341 398
#     4  11  23  49  70  96 148 191 226 289 346 417
#     4  11  19  43  68 108 134 173 234 289 341 416
#     4  11  24  45  69 104 137 186 243 271 347 433
#
# _framework density 27.26812
#
# number of rings (size 3 to 8) (size 9 to 14) (size 15 to 20)
#    0.000    1.600    4.000    0.000    0.000    3.200 
#   14.400    1.000    0.000    0.000    0.000    0.000 
#    0.000    0.000    0.000    0.000    0.000    0.000 
#
# Total GULP energy -111926.246465 kJ/mol
# GULP energy per Si atom -5596.312323 kJ/mol
# Density = 2.720606 g / cm^3
# Si number density = 27.268120 Si / 1000 Ang^3
#
#
#
# Elastic Constant Matrix: (Units=GPa)
#
#
# Indices 1 2 3 4 5 6 
#
# 1 176.9243 85.0548 35.3036 0.0000 9.1509 0.0000
# 2 85.0548 154.3539 44.4527 0.0000 22.1077 0.0000
# 3 35.3036 44.4527 80.5786 0.0000 23.7951 0.0000
# 4 0.0000 0.0000 0.0000 48.4375 0.0000 11.0728
# 5 9.1509 22.1077 23.7951 0.0000 44.9230 0.0000
# 6 0.0000 0.0000 0.0000 11.0728 0.0000 88.4863
#
#
#
# Elastic Compliance Matrix: (Units=1/GPa)
#
#
# Indices 1 2 3 4 5 6 
#
# 1 0.007848 -0.004049 -0.001566 0.000000 0.001223 0.000000
# 2 -0.004049 0.009919 -0.002964 0.000000 -0.002487 0.000000
# 3 -0.001566 -0.002964 0.016841 0.000000 -0.007143 0.000000
# 4 0.000000 0.000000 0.000000 0.021253 0.000000 -0.002660
# 5 0.001223 -0.002487 -0.007143 0.000000 0.027018 0.000000
# 6 0.000000 0.000000 0.000000 -0.002660 0.000000 0.011634
#
#
# Mechanical properties :
#
#
# Convention : Reuss Voigt Hill
#
# Bulk Modulus (GPa) = 57.30502 82.38658 69.84580
# Shear Modulus (GPa) = 42.55777 52.83906 47.69842
#
# Velocity S-wave (km/s) = 3.95487 4.40677 4.18693
# Velocity P-wave (km/s) = 6.47424 7.49480 7.00313
#
# Compressibility (1/GPa) = 0.01745048
#
# Stress axis : x y z
#
# Youngs Moduli (GPa) = 127.42644 100.81323 59.37967
#
# Poissons Ratio (x) = 0.40815 0.09299
# Poissons Ratio (y) = 0.51589 0.17600
# Poissons Ratio (z) = 0.19956 0.29881
#
# Static dielectric constant tensor:
#      x y z
#    x 2.186230 0.000000 -0.005590 
#    y 0.000000 2.527110 0.000000 
#    z -0.005590 0.000000 2.228190 
# 
# From -- ./inp_files/49991.got.cif
#   From: 2010.05.17/outbox.cif.g08.bks.cpg/sg14_25_cif.got.tgz:49991.got - 2010.06.03 17:49:19.
