data_PCOD9247472
_publ_section_title
;
Structure prediction by ZEFSAII (Michael W. Deem and Ramdas Pophale) SiO2 
 PCOD9247472
Probable space group: P 21/C
;
_chemical_formula_sum "Si O2"
_cell_formula_units_Z 20
_cell_length_a 7.072024
_cell_length_b 9.300640
_cell_length_c 17.134560
_cell_angle_alpha 90.000000
_cell_angle_beta 137.000450
_cell_angle_gamma 90.000000
_cell_volume 768.615591
_symmetry_space_group_name_H-M "P 21/C"
_symmetry_group_IT_number 14
_symmetry_cell_setting 'monoclinic'
loop_
_space_group_symop_operation_xyz
x,y,z
-x,1/2+y,1/2-z
-x,-y,-z
x,1/2-y,1/2+z
loop_
_atom_site_type_symbol
_atom_site_label
_atom_site_fract_x
_atom_site_fract_y
_atom_site_fract_z
Si Si1 0.523585 0.326444 0.779637
Si Si2 0.829586 0.372175 0.671362
Si Si3 0.148063 0.135241 0.406774
Si Si4 0.461512 0.888538 0.341924
Si Si5 0.468646 0.856051 0.061178
O O1 0.393138 0.231818 0.670700
O O2 0.401077 0.481902 0.764327
O O3 0.526307 0.232883 0.858798
O O4 0.846463 0.347090 0.853452
O O5 0.767605 0.213692 0.686440
O O6 0.816735 0.360576 0.574063
O O7 0.586881 0.486916 0.614474
O O8 0.081827 0.428151 0.800925
O O9 0.336654 0.057455 0.527909
O O10 0.318786 0.278192 0.435332
#
# Coordination Sequence:
#
# PCOD9247472 Si02
#       5
#     4   4   4   4   4
#     4  11  22  39  62  87 120 159 200 247 299 358
#     4   9  21  42  60  89 125 154 200 250 297 361
#     4  10  22  38  61  90 118 153 201 247 295 357
#     4  10  22  40  61  88 122 157 201 251 297 357
#     4  10  22  40  63  87 122 160 195 249 302 354
#
# _framework density 26.020807000000001
#
# number of rings (size 3 to 8) (size 9 to 14) (size 15 to 20)
#    0.000    2.000    0.000    3.000    0.000    9.600 
#    0.000   21.000    0.000    0.000    0.000    0.000 
#    0.000    0.000    0.000    0.000    0.000    0.000 
#
# Total GULP energy -111685.252234 kJ/mol
# GULP energy per Si atom -5584.262612 kJ/mol
# Density = 2.596158 g / cm^3
# Si number density = 26.020807 Si / 1000 Ang^3
#
#
#
# Elastic Constant Matrix: (Units=GPa)
#
#
# Indices 1 2 3 4 5 6 
#
# 1 88.7811 11.8062 -12.9406 0.0000 -0.1565 0.0000
# 2 11.8062 143.7134 23.3915 0.0000 -7.5968 0.0000
# 3 -12.9406 23.3915 162.3619 0.0000 -3.9601 0.0000
# 4 0.0000 0.0000 0.0000 37.1959 0.0000 -9.2090
# 5 -0.1565 -7.5968 -3.9601 0.0000 30.6683 0.0000
# 6 0.0000 0.0000 0.0000 -9.2090 0.0000 21.1423
#
#
#
# Elastic Compliance Matrix: (Units=1/GPa)
#
#
# Indices 1 2 3 4 5 6 
#
# 1 0.011572 -0.001131 0.001083 0.000000 -0.000081 0.000000
# 2 -0.001131 0.007319 -0.001104 0.000000 0.001665 0.000000
# 3 0.001083 -0.001104 0.006418 0.000000 0.000561 0.000000
# 4 0.000000 0.000000 0.000000 0.030134 0.000000 0.013126
# 5 -0.000081 0.001665 0.000561 0.000000 0.033091 0.000000
# 6 0.000000 0.000000 0.000000 0.013126 0.000000 0.053016
#
#
# Mechanical properties :
#
#
# Convention : Reuss Voigt Hill
#
# Bulk Modulus (GPa) = 43.46882 48.81897 46.14389
# Shear Modulus (GPa) = 32.99838 42.64125 37.81982
#
# Velocity S-wave (km/s) = 3.56498 4.05252 3.81654
# Velocity P-wave (km/s) = 5.80406 6.37962 6.09863
#
# Compressibility (1/GPa) = 0.02300499
#
# Stress axis : x y z
#
# Youngs Moduli (GPa) = 86.41659 136.63231 155.80810
#
# Poissons Ratio (x) = 0.15457 -0.16879
# Poissons Ratio (y) = 0.09776 0.17201
# Poissons Ratio (z) = -0.09361 0.15084
#
# Static dielectric constant tensor:
#      x y z
#    x 2.092690 0.000000 0.015860 
#    y 0.000000 2.019200 0.000000 
#    z 0.015860 0.000000 2.133530 
# 
# From -- ./inp_files/54408.got.cif
#   From: 2010.05.17/outbox.cif.g08.bks.cpg/sg14_28_cif.got.tgz:54408.got - 2010.06.03 17:49:19.
