data_PCOD9247512
_publ_section_title
;
Structure prediction by ZEFSAII (Michael W. Deem and Ramdas Pophale) SiO2 
 PCOD9247512
Probable space group: P 21/C
;
_chemical_formula_sum "Si O2"
_cell_formula_units_Z 20
_cell_length_a 7.205632
_cell_length_b 8.279342
_cell_length_c 16.219428
_cell_angle_alpha 90.000000
_cell_angle_beta 120.097305
_cell_angle_gamma 90.000000
_cell_volume 837.157941
_symmetry_space_group_name_H-M "P 21/C"
_symmetry_group_IT_number 14
_symmetry_cell_setting 'monoclinic'
loop_
_space_group_symop_operation_xyz
x,y,z
-x,1/2+y,1/2-z
-x,-y,-z
x,1/2-y,1/2+z
loop_
_atom_site_type_symbol
_atom_site_label
_atom_site_fract_x
_atom_site_fract_y
_atom_site_fract_z
Si Si1 0.104385 0.697256 0.749837
Si Si2 0.313535 0.094098 0.341719
Si Si3 0.961012 0.580632 0.403984
Si Si4 0.419156 0.852020 0.036520
Si Si5 0.502912 0.577439 0.292558
O O1 0.200278 0.572640 0.836856
O O2 0.053317 0.570119 0.663656
O O3 0.288448 0.826433 0.766976
O O4 0.887771 0.787994 0.726444
O O5 0.440770 0.192116 0.438051
O O6 0.473112 0.053547 0.300519
O O7 0.731167 0.668124 0.358782
O O8 0.000000 0.500000 0.500000
O O9 0.180684 0.677799 0.450346
O O10 0.462624 0.919794 0.140636
O O11 0.500000 0.000000 0.000000
#
# Coordination Sequence:
#
# PCOD9247512 Si02
#       5
#     4   4   4   4   4
#     4  11  22  38  64  91 125 167 213 262 313 385
#     4  11  22  39  64  95 125 167 217 261 319 382
#     4   9  19  37  63  90 121 163 209 251 317 376
#     4  11  21  41  69  92 125 173 212 259 319 387
#     4  10  22  38  64  92 126 160 213 264 312 381
#
# _framework density 23.890355
#
# number of rings (size 3 to 8) (size 9 to 14) (size 15 to 20)
#    0.000    1.600    2.000    4.800    2.800    0.000 
#    0.000    2.000    0.000    0.000    0.000    0.000 
#    0.000    0.000    0.000    0.000    0.000    0.000 
#
# Total GULP energy -111477.390334 kJ/mol
# GULP energy per Si atom -5573.869517 kJ/mol
# Density = 2.383598 g / cm^3
# Si number density = 23.890355 Si / 1000 Ang^3
#
#
#
# Elastic Constant Matrix: (Units=GPa)
#
#
# Indices 1 2 3 4 5 6 
#
# 1 101.2001 35.7205 29.0318 0.0000 21.3083 0.0000
# 2 35.7205 87.7363 33.2323 0.0000 -6.4092 0.0000
# 3 29.0318 33.2323 80.9463 0.0000 16.1138 0.0000
# 4 0.0000 0.0000 0.0000 44.4567 0.0000 6.0916
# 5 21.3083 -6.4092 16.1138 0.0000 55.1524 0.0000
# 6 0.0000 0.0000 0.0000 6.0916 0.0000 36.9207
#
#
#
# Elastic Compliance Matrix: (Units=1/GPa)
#
#
# Indices 1 2 3 4 5 6 
#
# 1 0.013277 -0.005192 -0.001581 0.000000 -0.005271 0.000000
# 2 -0.005192 0.016149 -0.005883 0.000000 0.005601 0.000000
# 3 -0.001581 -0.005883 0.016299 0.000000 -0.004835 0.000000
# 4 0.000000 0.000000 0.000000 0.023014 0.000000 -0.003797
# 5 -0.005271 0.005601 -0.004835 0.000000 0.022232 0.000000
# 6 0.000000 0.000000 0.000000 -0.003797 0.000000 0.027712
#
#
# Mechanical properties :
#
#
# Convention : Reuss Voigt Hill
#
# Bulk Modulus (GPa) = 48.98798 51.76133 50.37465
# Shear Modulus (GPa) = 33.15678 38.76582 35.96130
#
# Velocity S-wave (km/s) = 3.72946 4.03259 3.88398
# Velocity P-wave (km/s) = 6.25260 6.58753 6.42225
#
# Compressibility (1/GPa) = 0.02041317
#
# Stress axis : x y z
#
# Youngs Moduli (GPa) = 75.31559 61.92317 61.35493
#
# Poissons Ratio (x) = 0.32150 0.09702
# Poissons Ratio (y) = 0.39103 0.36095
# Poissons Ratio (z) = 0.11909 0.36429
#
# Static dielectric constant tensor:
#      x y z
#    x 2.139920 0.000000 -0.015530 
#    y 0.000000 1.925740 0.000000 
#    z -0.015530 0.000000 2.061590 
# 
# From -- ./inp_files/64424.got.cif
#   From: 2010.05.17/outbox.cif.g08.bks.cpg/sg14_33_cif.got.tgz:64424.got - 2010.06.03 17:49:19.
