data_PCOD9247014
_publ_section_title
;
Structure prediction by ZEFSAII (Michael W. Deem and Ramdas Pophale) SiO2 
 PCOD9247014
Probable space group: P 21/C
;
_chemical_formula_sum "Si O2"
_cell_formula_units_Z 30
_cell_length_a 14.501864
_cell_length_b 7.767804
_cell_length_c 22.472216
_cell_angle_alpha 90.000000
_cell_angle_beta 152.189525
_cell_angle_gamma 90.000000
_cell_volume 1181.040116
_symmetry_space_group_name_H-M "P 21/C"
_symmetry_group_IT_number 14
_symmetry_cell_setting 'monoclinic'
loop_
_space_group_symop_operation_xyz
x,y,z
-x,1/2+y,1/2-z
-x,-y,-z
x,1/2-y,1/2+z
loop_
_atom_site_type_symbol
_atom_site_label
_atom_site_fract_x
_atom_site_fract_y
_atom_site_fract_z
Si Si1 0.622178 0.797671 0.754071
Si Si2 0.216628 0.657800 0.523021
Si Si3 0.526081 0.292211 0.083382
Si Si4 0.000000 0.000000 0.000000
Si Si5 0.892734 0.193401 0.651843
Si Si6 0.704101 0.766220 0.929304
Si Si7 0.064254 0.843285 0.699226
Si Si8 0.418803 0.317890 0.897537
O O1 0.381734 0.806874 0.618358
O O2 0.659841 0.699406 0.838061
O O3 0.658921 0.732656 0.707434
O O4 0.766781 0.960054 0.845665
O O5 0.076113 0.653172 0.499305
O O6 0.090437 0.664222 0.390189
O O7 0.325249 0.472523 0.584814
O O8 0.411634 0.302617 0.079948
O O9 0.705492 0.158924 0.185074
O O10 0.625991 0.479090 0.130560
O O11 0.385613 0.254671 0.945931
O O12 0.973081 0.231983 0.762605
O O13 0.657343 0.186501 0.528534
O O14 0.982173 0.026867 0.672050
O O15 0.936994 0.735684 0.073040
#
# Coordination Sequence:
#
# PCOD9247014 Si02
#       8
#     4   4   4   2   4   4   4   4
#     4  10  24  41  67  97 142 186 236 289 352 435
#     4  10  24  43  66 100 140 187 236 289 359 422
#     4  10  22  39  70  97 132 178 235 288 348 415
#     4  10  24  42  68 102 136 194 236 286 362 432
#     4  10  21  43  66  97 140 184 222 296 353 421
#     4  11  24  39  65 103 137 179 231 292 352 422
#     4  11  23  39  67 101 137 176 232 288 353 428
#     4   9  20  42  67  94 131 186 227 283 357 409
#
# _framework density 25.401339
#
# number of rings (size 3 to 8) (size 9 to 14) (size 15 to 20)
#    0.000    1.867    1.333    0.800    7.467    2.133 
#    0.000    9.333    0.000    8.800    0.000    1.867 
#    0.000    0.000    0.000    0.000    0.000    0.000 
#
# Total GULP energy -167002.120295 kJ/mol
# GULP energy per Si atom -5566.737343 kJ/mol
# Density = 2.534352 g / cm^3
# Si number density = 25.401339 Si / 1000 Ang^3
#
#
#
# Elastic Constant Matrix: (Units=GPa)
#
#
# Indices 1 2 3 4 5 6 
#
# 1 141.0704 16.3464 65.8415 0.0000 -29.1131 0.0000
# 2 16.3464 49.3087 19.3859 0.0000 -1.4294 0.0000
# 3 65.8415 19.3859 124.2279 0.0000 -46.1545 0.0000
# 4 0.0000 0.0000 0.0000 21.8547 0.0000 -8.7137
# 5 -29.1131 -1.4294 -46.1545 0.0000 49.6567 0.0000
# 6 0.0000 0.0000 0.0000 -8.7137 0.0000 17.6049
#
#
#
# Elastic Compliance Matrix: (Units=1/GPa)
#
#
# Indices 1 2 3 4 5 6 
#
# 1 0.009573 -0.001459 -0.004241 0.000000 0.001629 0.000000
# 2 -0.001459 0.022318 -0.004259 0.000000 -0.004172 0.000000
# 3 -0.004241 -0.004259 0.015264 0.000000 0.011578 0.000000
# 4 0.000000 0.000000 0.000000 0.057007 0.000000 0.028216
# 5 0.001629 -0.004172 0.011578 0.000000 0.031735 0.000000
# 6 0.000000 0.000000 0.000000 0.028216 0.000000 0.070768
#
#
# Mechanical properties :
#
#
# Convention : Reuss Voigt Hill
#
# Bulk Modulus (GPa) = 36.71640 57.52829 47.12235
# Shear Modulus (GPa) = 21.21675 32.02547 26.62111
#
# Velocity S-wave (km/s) = 2.89322 3.55460 3.24083
# Velocity P-wave (km/s) = 5.06428 6.28838 5.70923
#
# Compressibility (1/GPa) = 0.02723579
#
# Stress axis : x y z
#
# Youngs Moduli (GPa) = 104.45739 44.80742 65.51404
#
# Poissons Ratio (x) = 0.06538 0.27785
# Poissons Ratio (y) = 0.15241 0.27905
# Poissons Ratio (z) = 0.44301 0.19085
#
# Static dielectric constant tensor:
#      x y z
#    x 2.080100 0.000000 -0.019530 
#    y 0.000000 2.092830 0.000000 
#    z -0.019530 0.000000 2.048230 
# 
# From -- ./inp_files/68382.got.cif
#   From: 2010.05.17/outbox.cif.g08.bks.cpg/sg14_35_cif.got.tgz:68382.got - 2010.06.03 17:49:19.
