data_PCOD9247329
_publ_section_title
;
Structure prediction by ZEFSAII (Michael W. Deem and Ramdas Pophale) SiO2 
 PCOD9247329
Probable space group: P 21/C
;
_chemical_formula_sum "Si O2"
_cell_formula_units_Z 26
_cell_length_a 8.346744
_cell_length_b 14.845541
_cell_length_c 14.928980
_cell_angle_alpha 90.000000
_cell_angle_beta 34.654659
_cell_angle_gamma 90.000000
_cell_volume 1051.894214
_symmetry_space_group_name_H-M "P 21/C"
_symmetry_group_IT_number 14
_symmetry_cell_setting 'monoclinic'
loop_
_space_group_symop_operation_xyz
x,y,z
-x,1/2+y,1/2-z
-x,-y,-z
x,1/2-y,1/2+z
loop_
_atom_site_type_symbol
_atom_site_label
_atom_site_fract_x
_atom_site_fract_y
_atom_site_fract_z
Si Si1 0.225605 0.040158 0.775169
Si Si2 0.791026 0.709114 0.107467
Si Si3 0.395205 0.807504 0.411647
Si Si4 0.662332 0.127296 0.971625
Si Si5 0.009266 0.615279 0.856637
Si Si6 0.500000 0.500000 0.000000
Si Si7 0.573947 0.521145 0.271258
O O1 0.499576 0.094941 0.602922
O O2 0.955732 0.102615 0.888781
O O3 0.244339 0.962387 0.693633
O O4 0.311339 0.017760 0.836143
O O5 0.583817 0.786587 0.236759
O O6 0.632983 0.614939 0.195089
O O7 0.903179 0.705047 0.955096
O O8 0.068953 0.700830 0.040887
O O9 0.462417 0.724121 0.444725
O O10 0.759529 0.132365 0.825722
O O11 0.469487 0.050574 0.105449
O O12 0.749104 0.561168 0.936283
O O13 0.176302 0.550581 0.848953
#
# Coordination Sequence:
#
# PCOD9247329 Si02
#       7
#     4   4   4   4   4   2   4
#     4  11  20  40  65  89 129 161 215 257 314 365
#     4  11  22  40  64  90 124 166 219 244 320 380
#     4  11  22  41  63  89 126 174 202 257 312 382
#     4  10  24  39  60  96 131 158 204 265 317 365
#     4  11  21  41  62  93 123 160 211 264 306 378
#     4  10  22  36  60  92 118 158 204 274 306 356
#     4  11  21  39  69  91 119 168 213 256 314 377
#
# _framework density 24.717314999999999
#
# number of rings (size 3 to 8) (size 9 to 14) (size 15 to 20)
#    0.000    1.231    4.615    2.308    0.000    0.000 
#    5.538    0.000    0.000    0.000    0.000    0.000 
#    0.000    0.000    0.000    0.000    0.000    0.000 
#
# Total GULP energy -144788.606522 kJ/mol
# GULP energy per Si atom -5568.792559 kJ/mol
# Density = 2.466106 g / cm^3
# Si number density = 24.717315 Si / 1000 Ang^3
#
#
#
# Elastic Constant Matrix: (Units=GPa)
#
#
# Indices 1 2 3 4 5 6 
#
# 1 56.5230 -14.8337 -14.5736 0.0000 -1.2595 0.0000
# 2 -14.8337 57.2977 22.2121 0.0000 0.9758 0.0000
# 3 -14.5736 22.2121 95.6286 0.0000 20.3529 0.0000
# 4 0.0000 0.0000 0.0000 34.4808 0.0000 -4.7239
# 5 -1.2595 0.9758 20.3529 0.0000 49.4345 0.0000
# 6 0.0000 0.0000 0.0000 -4.7239 0.0000 11.8779
#
#
#
# Elastic Compliance Matrix: (Units=1/GPa)
#
#
# Indices 1 2 3 4 5 6 
#
# 1 0.019318 0.004210 0.002059 0.000000 -0.000439 0.000000
# 2 0.004210 0.020213 -0.004375 0.000000 0.001509 0.000000
# 3 0.002059 -0.004375 0.012887 0.000000 -0.005167 0.000000
# 4 0.000000 0.000000 0.000000 0.030673 0.000000 0.012199
# 5 -0.000439 0.001509 -0.005167 0.000000 0.022315 0.000000
# 6 0.000000 0.000000 0.000000 0.012199 0.000000 0.089042
#
#
# Mechanical properties :
#
#
# Convention : Reuss Voigt Hill
#
# Bulk Modulus (GPa) = 17.79099 21.67321 19.73210
# Shear Modulus (GPa) = 23.87858 33.60162 28.74010
#
# Velocity S-wave (km/s) = 3.11153 3.69105 3.41361
# Velocity P-wave (km/s) = 4.48578 5.19159 4.85154
#
# Compressibility (1/GPa) = 0.05620824
#
# Stress axis : x y z
#
# Youngs Moduli (GPa) = 51.76500 49.47349 77.59919
#
# Poissons Ratio (x) = -0.20830 -0.15981
# Poissons Ratio (y) = -0.21795 0.33946
# Poissons Ratio (z) = -0.10661 0.21642
#
# Static dielectric constant tensor:
#      x y z
#    x 1.377850 0.000000 -0.534260 
#    y 0.000000 1.405250 0.000000 
#    z -0.534260 0.000000 1.483020 
# 
# From -- ./inp_files/41087.got.cif
#   From: 2010.05.17/outbox.cif.g08.bks.cpg/sg14_21_cif.got.tgz:41087.got - 2010.06.03 17:49:19.
