data_PCOD9247836
_publ_section_title
;
Structure prediction by ZEFSAII (Michael W. Deem and Ramdas Pophale) SiO2 
 PCOD9247836
Probable space group: P 21/C
;
_chemical_formula_sum "Si O2"
_cell_formula_units_Z 28
_cell_length_a 9.714468
_cell_length_b 8.692675
_cell_length_c 13.843655
_cell_angle_alpha 90.000000
_cell_angle_beta 110.883036
_cell_angle_gamma 90.000000
_cell_volume 1092.230388
_symmetry_space_group_name_H-M "P 21/C"
_symmetry_group_IT_number 14
_symmetry_cell_setting 'monoclinic'
loop_
_space_group_symop_operation_xyz
x,y,z
-x,1/2+y,1/2-z
-x,-y,-z
x,1/2-y,1/2+z
loop_
_atom_site_type_symbol
_atom_site_label
_atom_site_fract_x
_atom_site_fract_y
_atom_site_fract_z
Si Si1 0.178985 0.750863 0.510689
Si Si2 0.648698 0.038673 0.310941
Si Si3 0.598195 0.458115 0.376893
Si Si4 0.916017 0.652588 0.848082
Si Si5 0.866965 0.904660 0.677254
Si Si6 0.312392 0.802645 0.341578
Si Si7 0.587548 0.742309 0.518728
O O1 0.276807 0.892286 0.574886
O O2 0.238818 0.609910 0.586688
O O3 0.229089 0.724906 0.412790
O O4 0.006834 0.783969 0.462255
O O5 0.674907 0.173187 0.237045
O O6 0.480979 0.996044 0.243550
O O7 0.746482 0.888019 0.318393
O O8 0.608254 0.601116 0.450649
O O9 0.492278 0.332921 0.406292
O O10 0.923975 0.776832 0.764962
O O11 0.999664 0.492361 0.843265
O O12 0.739482 0.823601 0.582289
O O13 0.783157 0.048420 0.705057
O O14 0.470117 0.843794 0.429514
#
# Coordination Sequence:
#
# PCOD9247836 Si02
#       7
#     4   4   4   4   4   4   4
#     4  10  22  40  63  93 132 158 215 259 310 385
#     4  11  21  44  66  91 131 170 210 263 318 374
#     4   9  19  38  62  93 117 166 209 266 315 366
#     4  11  23  37  62  94 131 172 210 257 320 378
#     4  11  21  36  63  95 126 167 213 257 314 384
#     4   9  21  40  66  97 119 166 212 261 318 373
#     4   9  17  35  66  89 123 156 216 261 315 366
#
# _framework density 25.635618999999998
#
# number of rings (size 3 to 8) (size 9 to 14) (size 15 to 20)
#    0.000    2.000    1.429    3.429    2.000    0.000 
#   15.429    0.714    0.000    0.000    0.000    0.000 
#    0.000    0.000    0.000    0.000    0.000    0.000 
#
# Total GULP energy -156601.577624 kJ/mol
# GULP energy per Si atom -5592.913487 kJ/mol
# Density = 2.557727 g / cm^3
# Si number density = 25.635619 Si / 1000 Ang^3
#
#
#
# Elastic Constant Matrix: (Units=GPa)
#
#
# Indices 1 2 3 4 5 6 
#
# 1 51.4709 12.1210 35.7126 0.0000 28.5413 0.0000
# 2 12.1210 54.7636 25.3935 0.0000 20.1442 0.0000
# 3 35.7126 25.3935 136.0280 0.0000 34.0863 0.0000
# 4 0.0000 0.0000 0.0000 47.4812 0.0000 17.2105
# 5 28.5413 20.1442 34.0863 0.0000 50.5988 0.0000
# 6 0.0000 0.0000 0.0000 17.2105 0.0000 35.2177
#
#
#
# Elastic Compliance Matrix: (Units=1/GPa)
#
#
# Indices 1 2 3 4 5 6 
#
# 1 0.030351 0.000644 -0.004493 0.000000 -0.014350 0.000000
# 2 0.000644 0.021988 -0.002393 0.000000 -0.007505 0.000000
# 3 -0.004493 -0.002393 0.009750 0.000000 -0.003081 0.000000
# 4 0.000000 0.000000 0.000000 0.025595 0.000000 -0.012508
# 5 -0.014350 -0.007505 -0.003081 0.000000 0.032921 0.000000
# 6 0.000000 0.000000 0.000000 -0.012508 0.000000 0.034507
#
#
# Mechanical properties :
#
#
# Convention : Reuss Voigt Hill
#
# Bulk Modulus (GPa) = 20.15909 43.19075 31.67492
# Shear Modulus (GPa) = 27.15453 37.92855 32.54154
#
# Velocity S-wave (km/s) = 3.25814 3.85063 3.56671
# Velocity P-wave (km/s) = 4.69412 6.05428 5.41706
#
# Compressibility (1/GPa) = 0.04960542
#
# Stress axis : x y z
#
# Youngs Moduli (GPa) = 32.94742 45.47920 102.56670
#
# Poissons Ratio (x) = -0.02929 0.46081
# Poissons Ratio (y) = -0.02122 0.24546
# Poissons Ratio (z) = 0.14802 0.10884
#
# Static dielectric constant tensor:
#      x y z
#    x 2.069290 0.000000 -0.029390 
#    y 0.000000 2.022340 0.000000 
#    z -0.029390 0.000000 1.985480 
# 
# From -- ./inp_files/43532.got.cif
#   From: 2010.05.17/outbox.cif.g08.bks.cpg/sg14_22_cif.got.tgz:43532.got - 2010.06.03 17:49:19.
