data_PCOD9247803
_publ_section_title
;
Structure prediction by ZEFSAII (Michael W. Deem and Ramdas Pophale) SiO2 
 PCOD9247803
Probable space group: P 21/C
;
_chemical_formula_sum "Si O2"
_cell_formula_units_Z 16
_cell_length_a 12.336224
_cell_length_b 4.908743
_cell_length_c 30.228984
_cell_angle_alpha 90.000000
_cell_angle_beta 20.417629
_cell_angle_gamma 90.000000
_cell_volume 638.598345
_symmetry_space_group_name_H-M "P 21/C"
_symmetry_group_IT_number 14
_symmetry_cell_setting 'monoclinic'
loop_
_space_group_symop_operation_xyz
x,y,z
-x,1/2+y,1/2-z
-x,-y,-z
x,1/2-y,1/2+z
loop_
_atom_site_type_symbol
_atom_site_label
_atom_site_fract_x
_atom_site_fract_y
_atom_site_fract_z
Si Si1 0.112591 0.883027 0.731544
Si Si2 0.860495 0.289151 0.588006
Si Si3 0.723443 0.618136 0.953340
Si Si4 0.877015 0.723690 0.136033
O O1 0.469321 0.794904 0.587519
O O2 0.927471 0.697008 0.766577
O O3 0.952380 0.820309 0.839458
O O4 0.494086 0.296709 0.717846
O O5 0.956691 0.982186 0.564117
O O6 0.000000 0.500000 0.500000
O O7 0.928635 0.460344 0.606713
O O8 0.934680 0.390141 0.895114
O O9 0.500000 0.500000 0.000000
#
# Coordination Sequence:
#
# PCOD9247803 Si02
#       4
#     4   4   4   4
#     4  10  22  40  62  88 131 173 209 254 309 379
#     4  10  22  43  65  89 126 161 217 261 315 370
#     4  10  23  43  64  98 133 167 212 259 321 386
#     4  10  23  40  64  96 120 168 208 262 320 372
#
# _framework density 25.054870000000001
#
# number of rings (size 3 to 8) (size 9 to 14) (size 15 to 20)
#    0.000    2.000    0.000    1.500    3.500    8.000 
#    9.000    0.000    0.000    0.000    0.000    0.000 
#    0.000    0.000    0.000    0.000    0.000    0.000 
#
# Total GULP energy -89368.150787 kJ/mol
# GULP energy per Si atom -5585.509424 kJ/mol
# Density = 2.499784 g / cm^3
# Si number density = 25.054870 Si / 1000 Ang^3
#
#
#
# Elastic Constant Matrix: (Units=GPa)
#
#
# Indices 1 2 3 4 5 6 
#
# 1 88.9500 11.1117 23.0594 -0.0006 -25.7058 -0.0001
# 2 11.1117 125.2784 30.8712 -0.0011 -3.5684 -0.0002
# 3 23.0594 30.8712 97.2058 0.0070 8.0329 0.0007
# 4 -0.0006 -0.0011 0.0070 12.5301 0.0003 -10.3232
# 5 -25.7058 -3.5684 8.0329 0.0003 40.0292 -0.0001
# 6 -0.0001 -0.0002 0.0007 -10.3232 -0.0001 27.2724
#
#
#
# Elastic Compliance Matrix: (Units=1/GPa)
#
#
# Indices 1 2 3 4 5 6 
#
# 1 0.015598 0.000069 -0.004627 0.000005 0.010951 0.000002
# 2 0.000069 0.008732 -0.002906 0.000004 0.001406 0.000002
# 3 -0.004627 -0.002906 0.012787 -0.000011 -0.005796 -0.000005
# 4 0.000005 0.000004 -0.000011 0.115975 0.000005 0.043899
# 5 0.010951 0.001406 -0.005796 0.000005 0.033303 0.000002
# 6 0.000002 0.000002 -0.000005 0.043899 0.000002 0.053284
#
#
# Mechanical properties :
#
#
# Convention : Reuss Voigt Hill
#
# Bulk Modulus (GPa) = 45.06726 49.05766 47.06246
# Shear Modulus (GPa) = 19.08376 32.39248 25.73812
#
# Velocity S-wave (km/s) = 2.76285 3.59954 3.20858
# Velocity P-wave (km/s) = 5.31077 6.07439 5.70537
#
# Compressibility (1/GPa) = 0.02218906
#
# Stress axis : x y z
#
# Youngs Moduli (GPa) = 64.11059 114.51884 78.20513
#
# Poissons Ratio (x) = -0.00786 0.36186
# Poissons Ratio (y) = -0.00440 0.22724
# Poissons Ratio (z) = 0.29664 0.33275
#
# Static dielectric constant tensor:
#      x y z
#    x 2.042210 0.000000 0.111210 
#    y 0.000000 1.881650 -0.000010 
#    z 0.111210 -0.000010 2.029020 
# 
# From -- ./inp_files/27242.got.cif
#   From: 2010.05.17/outbox.cif.g08.bks.cpg/sg14_14_cif.got.tgz:27242.got - 2010.06.03 17:49:19.
