data_PCOD9247493
_publ_section_title
;
Structure prediction by ZEFSAII (Michael W. Deem and Ramdas Pophale) SiO2 
 PCOD9247493
Probable space group: P 21/C
;
_chemical_formula_sum "Si O2"
_cell_formula_units_Z 28
_cell_length_a 11.793465
_cell_length_b 17.416630
_cell_length_c 11.371728
_cell_angle_alpha 90.000000
_cell_angle_beta 33.249345
_cell_angle_gamma 90.000000
_cell_volume 1280.670253
_symmetry_space_group_name_H-M "P 21/C"
_symmetry_group_IT_number 14
_symmetry_cell_setting 'monoclinic'
loop_
_space_group_symop_operation_xyz
x,y,z
-x,1/2+y,1/2-z
-x,-y,-z
x,1/2-y,1/2+z
loop_
_atom_site_type_symbol
_atom_site_label
_atom_site_fract_x
_atom_site_fract_y
_atom_site_fract_z
Si Si1 0.215695 0.075910 0.535642
Si Si2 0.209093 0.431304 0.294538
Si Si3 0.305047 0.572683 0.092829
Si Si4 0.879121 0.349198 0.174584
Si Si5 0.162006 0.206881 0.995546
Si Si6 0.868366 0.307403 0.931119
Si Si7 0.446454 0.809969 0.853372
O O1 0.131570 0.101918 0.737109
O O2 0.417026 0.123989 0.324538
O O3 0.033915 0.089812 0.600236
O O4 0.282059 0.989571 0.507302
O O5 0.192364 0.524719 0.296805
O O6 0.146519 0.378237 0.456593
O O7 0.458799 0.419682 0.074476
O O8 0.223784 0.649866 0.104395
O O9 0.668161 0.340955 0.430904
O O10 0.003127 0.268426 0.078625
O O11 0.848257 0.358576 0.063449
O O12 0.103158 0.206742 0.184963
O O13 0.385317 0.242490 0.775697
O O14 0.737592 0.229704 0.060976
#
# Coordination Sequence:
#
# PCOD9247493 Si02
#       7
#     4   4   4   4   4   4   4
#     4   9  21  41  61  85 125 161 199 251 308 357
#     4   9  19  40  65  86 123 153 206 255 303 352
#     4   9  20  40  62  92 122 161 204 258 300 366
#     4  10  24  38  58  92 123 162 200 253 305 370
#     4  10  22  38  63  90 118 162 200 262 301 355
#     4  11  23  38  61  95 123 153 212 248 313 365
#     4  10  22  39  60  90 119 166 202 245 309 358
#
# _framework density 21.863551000000001
#
# number of rings (size 3 to 8) (size 9 to 14) (size 15 to 20)
#    0.857    1.429    1.429    0.000    8.000    2.286 
#    2.571    0.714    0.000    0.000    0.000    0.000 
#    0.000    0.000    0.000    0.000    0.000    0.000 
#
# Total GULP energy -155939.680623 kJ/mol
# GULP energy per Si atom -5569.274308 kJ/mol
# Density = 2.181379 g / cm^3
# Si number density = 21.863551 Si / 1000 Ang^3
#
#
#
# Elastic Constant Matrix: (Units=GPa)
#
#
# Indices 1 2 3 4 5 6 
#
# 1 49.7169 -17.3083 7.8067 0.0000 8.3374 0.0000
# 2 -17.3083 40.4473 6.0527 0.0000 -8.6744 0.0000
# 3 7.8067 6.0527 99.9765 0.0000 6.7819 0.0000
# 4 0.0000 0.0000 0.0000 23.7783 0.0000 3.7967
# 5 8.3374 -8.6744 6.7819 0.0000 22.6832 0.0000
# 6 0.0000 0.0000 0.0000 3.7967 0.0000 33.3749
#
#
#
# Elastic Compliance Matrix: (Units=1/GPa)
#
#
# Indices 1 2 3 4 5 6 
#
# 1 0.024684 0.009902 -0.002213 0.000000 -0.004624 0.000000
# 2 0.009902 0.031470 -0.003315 0.000000 0.009386 0.000000
# 3 -0.002213 -0.003315 0.010622 0.000000 -0.003630 0.000000
# 4 0.000000 0.000000 0.000000 0.042833 0.000000 -0.004873
# 5 -0.004624 0.009386 -0.003630 0.000000 0.050460 0.000000
# 6 0.000000 0.000000 0.000000 -0.004873 0.000000 0.030517
#
#
# Mechanical properties :
#
#
# Convention : Reuss Voigt Hill
#
# Bulk Modulus (GPa) = 13.24074 20.36031 16.80052
# Shear Modulus (GPa) = 24.15303 28.87325 26.51314
#
# Velocity S-wave (km/s) = 3.32733 3.63796 3.48611
# Velocity P-wave (km/s) = 4.56407 5.19413 4.88926
#
# Compressibility (1/GPa) = 0.07552447
#
# Stress axis : x y z
#
# Youngs Moduli (GPa) = 40.51157 31.77624 94.14316
#
# Poissons Ratio (x) = -0.31466 0.20837
# Poissons Ratio (y) = -0.40116 0.31210
# Poissons Ratio (z) = 0.08966 0.10534
#
# Static dielectric constant tensor:
#      x y z
#    x 1.811750 0.000000 -0.002610 
#    y 0.000000 1.832250 0.000000 
#    z -0.002610 0.000000 1.871610 
# 
# From -- ./inp_files/30657.got.cif
#   From: 2010.05.17/outbox.cif.g08.bks.cpg/sg14_16_cif.got.tgz:30657.got - 2010.06.03 17:49:19.
