data_PCOD9247447
_publ_section_title
;
Structure prediction by ZEFSAII (Michael W. Deem and Ramdas Pophale) SiO2 
 PCOD9247447
Probable space group: P 21/C
;
_chemical_formula_sum "Si O2"
_cell_formula_units_Z 28
_cell_length_a 15.179609
_cell_length_b 7.145280
_cell_length_c 10.146165
_cell_angle_alpha 90.000000
_cell_angle_beta 107.081455
_cell_angle_gamma 90.000000
_cell_volume 1051.934817
_symmetry_space_group_name_H-M "P 21/C"
_symmetry_group_IT_number 14
_symmetry_cell_setting 'monoclinic'
loop_
_space_group_symop_operation_xyz
x,y,z
-x,1/2+y,1/2-z
-x,-y,-z
x,1/2-y,1/2+z
loop_
_atom_site_type_symbol
_atom_site_label
_atom_site_fract_x
_atom_site_fract_y
_atom_site_fract_z
Si Si1 0.173423 0.608924 0.717689
Si Si2 0.097642 0.407404 0.288734
Si Si3 0.791260 0.769623 0.942154
Si Si4 0.401033 0.430819 0.627927
Si Si5 0.936064 0.265444 0.077628
Si Si6 0.454025 0.200272 0.890039
Si Si7 0.716988 0.444752 0.761223
O O1 0.179563 0.392174 0.674762
O O2 0.108351 0.717514 0.581889
O O3 0.133411 0.642584 0.845541
O O4 0.270227 0.721846 0.738814
O O5 0.127638 0.264780 0.416619
O O6 0.044049 0.564054 0.348091
O O7 0.194820 0.490478 0.286011
O O8 0.033093 0.367982 0.135979
O O9 0.705982 0.901994 0.946734
O O10 0.744624 0.567803 0.901562
O O11 0.422938 0.370284 0.786083
O O12 0.446789 0.627236 0.612237
O O13 0.448145 0.284786 0.544405
O O14 0.379691 0.033831 0.824126
#
# Coordination Sequence:
#
# PCOD9247447 Si02
#       7
#     4   4   4   4   4   4   4
#     4  10  24  42  58  92 120 166 210 256 314 372
#     4  10  22  38  59  88 124 159 207 264 307 360
#     4  10  22  39  63  88 125 165 205 254 315 370
#     4  10  22  42  66  96 130 165 208 260 319 381
#     4  10  24  38  60  88 120 158 217 252 316 367
#     4  10  22  42  66  96 130 165 208 260 319 381
#     4  10  22  39  63  88 125 165 205 254 315 370
#
# _framework density 26.617616999999999
#
# number of rings (size 3 to 8) (size 9 to 14) (size 15 to 20)
#    0.000    2.000    1.429    0.000    8.000    2.857 
#    2.571    0.000    0.000    0.000    0.000    0.000 
#    0.000    0.000    0.000    0.000    0.000    0.000 
#
# Total GULP energy -156400.126096 kJ/mol
# GULP energy per Si atom -5585.718789 kJ/mol
# Density = 2.655703 g / cm^3
# Si number density = 26.617617 Si / 1000 Ang^3
#
#
#
# Elastic Constant Matrix: (Units=GPa)
#
#
# Indices 1 2 3 4 5 6 
#
# 1 86.2284 6.8974 1.5781 0.0000 0.8883 0.0000
# 2 6.8974 77.5548 10.2462 0.0000 7.5657 0.0000
# 3 1.5781 10.2462 86.2832 0.0000 6.7498 0.0000
# 4 0.0000 0.0000 0.0000 39.5128 0.0000 5.1539
# 5 0.8883 7.5657 6.7498 0.0000 29.9906 0.0000
# 6 0.0000 0.0000 0.0000 5.1539 0.0000 31.2632
#
#
#
# Elastic Compliance Matrix: (Units=1/GPa)
#
#
# Indices 1 2 3 4 5 6 
#
# 1 0.011681 -0.001021 -0.000087 0.000000 -0.000069 0.000000
# 2 -0.001021 0.013461 -0.001340 0.000000 -0.003064 0.000000
# 3 -0.000087 -0.001340 0.011934 0.000000 -0.002345 0.000000
# 4 0.000000 0.000000 0.000000 0.025864 0.000000 -0.004264
# 5 -0.000069 -0.003064 -0.002345 0.000000 0.034647 0.000000
# 6 0.000000 0.000000 0.000000 -0.004264 0.000000 0.032689
#
#
# Mechanical properties :
#
#
# Convention : Reuss Voigt Hill
#
# Bulk Modulus (GPa) = 31.07505 31.94554 31.51030
# Shear Modulus (GPa) = 34.27039 35.57630 34.92334
#
# Velocity S-wave (km/s) = 3.59208 3.65988 3.62614
# Velocity P-wave (km/s) = 5.37624 5.46693 5.42178
#
# Compressibility (1/GPa) = 0.03218016
#
# Stress axis : x y z
#
# Youngs Moduli (GPa) = 85.60875 74.28962 83.79462
#
# Poissons Ratio (x) = 0.07582 0.00729
# Poissons Ratio (y) = 0.08738 0.11230
# Poissons Ratio (z) = 0.00745 0.09956
#
# Static dielectric constant tensor:
#      x y z
#    x 2.120500 0.000000 -0.075970 
#    y 0.000000 2.149540 0.000000 
#    z -0.075970 0.000000 2.090850 
# 
# From -- ./inp_files/31603.got.cif
#   From: 2010.05.17/outbox.cif.g08.bks.cpg/sg14_16_cif.got.tgz:31603.got - 2010.06.03 17:49:19.
