data_PCOD9247375
_publ_section_title
;
Structure prediction by ZEFSAII (Michael W. Deem and Ramdas Pophale) SiO2 
 PCOD9247375
Probable space group: P 21/C
;
_chemical_formula_sum "Si O2"
_cell_formula_units_Z 24
_cell_length_a 8.836041
_cell_length_b 5.074896
_cell_length_c 27.607599
_cell_angle_alpha 90.000000
_cell_angle_beta 123.520391
_cell_angle_gamma 90.000000
_cell_volume 1032.090441
_symmetry_space_group_name_H-M "P 21/C"
_symmetry_group_IT_number 14
_symmetry_cell_setting 'monoclinic'
loop_
_space_group_symop_operation_xyz
x,y,z
-x,1/2+y,1/2-z
-x,-y,-z
x,1/2-y,1/2+z
loop_
_atom_site_type_symbol
_atom_site_label
_atom_site_fract_x
_atom_site_fract_y
_atom_site_fract_z
Si Si1 0.672046 0.569600 0.125699
Si Si2 0.311943 0.563482 0.436668
Si Si3 0.615362 0.559656 0.322912
Si Si4 0.964359 0.682982 0.539772
Si Si5 0.649441 0.943617 0.724935
Si Si6 0.739240 0.931207 0.422876
O O1 0.709043 0.352786 0.090576
O O2 0.763291 0.548199 0.195212
O O3 0.461571 0.523885 0.101192
O O4 0.691223 0.859319 0.108214
O O5 0.500000 0.500000 0.500000
O O6 0.142495 0.483405 0.439860
O O7 0.497887 0.294083 0.305475
O O8 0.730934 0.576175 0.293512
O O9 0.724520 0.664498 0.388719
O O10 0.461983 0.785730 0.291944
O O11 0.826080 0.892842 0.491011
O O12 0.000000 0.500000 0.500000
O O13 0.137874 0.858851 0.584203
#
# Coordination Sequence:
#
# PCOD9247375 Si02
#       6
#     4   4   4   4   4   4
#     4  11  22  38  61  88 120 155 198 256 308 359
#     4  12  24  38  58  86 123 163 201 246 306 364
#     4   9  18  33  57  89 119 151 193 253 311 356
#     4  11  25  38  57  85 125 166 206 246 301 375
#     4   9  18  33  57  90 120 146 193 256 313 357
#     4  10  22  37  59  87 123 161 202 254 306 364
#
# _framework density 23.253779000000002
#
# number of rings (size 3 to 8) (size 9 to 14) (size 15 to 20)
#    0.000    1.667    1.667    3.500    9.333    0.000 
#    0.000    0.000    0.000    0.000    4.333    0.000 
#    0.000    0.000    0.000    0.000    0.000    0.000 
#
# Total GULP energy -133958.189046 kJ/mol
# GULP energy per Si atom -5581.591210 kJ/mol
# Density = 2.320085 g / cm^3
# Si number density = 23.253779 Si / 1000 Ang^3
#
#
#
# Elastic Constant Matrix: (Units=GPa)
#
#
# Indices 1 2 3 4 5 6 
#
# 1 71.7125 -5.2697 18.8169 0.0000 -15.5073 0.0000
# 2 -5.2697 73.8651 -1.7164 0.0000 9.6407 0.0000
# 3 18.8169 -1.7164 69.2650 0.0000 -22.5140 0.0000
# 4 0.0000 0.0000 0.0000 -69.0312 0.0000 -30.0814
# 5 -15.5073 9.6407 -22.5140 0.0000 27.8863 0.0000
# 6 0.0000 0.0000 0.0000 -30.0814 0.0000 33.3402
#
#
#
# Elastic Compliance Matrix: (Units=1/GPa)
#
#
# Indices 1 2 3 4 5 6 
#
# 1 0.016050 0.000151 -0.001996 0.000000 0.007261 0.000000
# 2 0.000151 0.014326 -0.001720 0.000000 -0.006257 0.000000
# 3 -0.001996 -0.001720 0.020024 0.000000 0.015651 0.000000
# 4 0.000000 0.000000 0.000000 -0.010398 0.000000 -0.009382
# 5 0.007261 -0.006257 0.015651 0.000000 0.054697 0.000000
# 6 0.000000 0.000000 0.000000 -0.009382 0.000000 0.021529
#
#
# Mechanical properties :
#
#
# Convention : Reuss Voigt Hill
#
# Bulk Modulus (GPa) = 23.11108 26.50045 24.80576
# Shear Modulus (GPa) = 36.28954 11.97321 24.13137
#
# Velocity S-wave (km/s) = 3.95471 2.27159 3.22489
# Velocity P-wave (km/s) = 5.55096 4.27798 4.95552
#
# Compressibility (1/GPa) = 0.04326929
#
# Stress axis : x y z
#
# Youngs Moduli (GPa) = 62.30677 69.80478 49.93951
#
# Poissons Ratio (x) = -0.01054 0.09969
# Poissons Ratio (y) = -0.00940 0.08589
# Poissons Ratio (z) = 0.12438 0.12005
#
# Static dielectric constant tensor:
#      x y z
#    x 1.861750 0.000000 0.027500 
#    y 0.000000 1.880200 0.000000 
#    z 0.027500 0.000000 2.062860 
# 
# From -- ./inp_files/75959.got.cif
#   From: 2010.05.17/outbox.cif.g08.bks.cpg/sg14_38_cif.got.tgz:75959.got - 2010.06.03 17:49:19.
