data_PCOD9247485
_publ_section_title
;
Structure prediction by ZEFSAII (Michael W. Deem and Ramdas Pophale) SiO2 
 PCOD9247485
Probable space group: P 21/C
;
_chemical_formula_sum "Si O2"
_cell_formula_units_Z 20
_cell_length_a 8.427787
_cell_length_b 5.121301
_cell_length_c 20.409043
_cell_angle_alpha 90.000000
_cell_angle_beta 65.610078
_cell_angle_gamma 90.000000
_cell_volume 802.266545
_symmetry_space_group_name_H-M "P 21/C"
_symmetry_group_IT_number 14
_symmetry_cell_setting 'monoclinic'
loop_
_space_group_symop_operation_xyz
x,y,z
-x,1/2+y,1/2-z
-x,-y,-z
x,1/2-y,1/2+z
loop_
_atom_site_type_symbol
_atom_site_label
_atom_site_fract_x
_atom_site_fract_y
_atom_site_fract_z
Si Si1 0.551773 0.753771 0.948227
Si Si2 0.605725 0.782330 0.214969
Si Si3 0.908958 0.566059 0.915638
Si Si4 0.035664 0.217669 0.785031
Si Si5 0.259765 0.566059 0.915638
O O1 0.760070 0.734045 0.905200
O O2 0.429531 0.734045 0.905200
O O3 0.500000 0.500000 0.000000
O O4 0.500000 0.000000 0.000000
O O5 0.467738 0.011849 0.243158
O O6 0.772135 0.869589 0.227865
O O7 0.671147 0.692975 0.132191
O O8 0.935529 0.307025 0.867809
O O9 0.103825 0.676961 0.896175
O O10 0.831669 0.499999 1.000000
O O11 0.954053 0.988150 0.756843
#
# Coordination Sequence:
#
# PCOD9247485 Si02
#       5
#     4   4   4   4   4
#     4  10  22  38  62  96 126 164 211 266 331 382
#     4  11  25  44  69  99 136 182 226 282 345 406
#     4   9  21  43  68  96 133 176 225 277 333 401
#     4  11  25  44  69  99 136 182 226 282 345 406
#     4   9  21  43  68  96 133 176 225 277 333 401
#
# _framework density 24.929372999999998
#
# number of rings (size 3 to 8) (size 9 to 14) (size 15 to 20)
#    0.000    2.000    0.000    1.200    5.600    7.200 
#    0.000   12.000    0.000    0.000    0.000    0.000 
#    0.000    0.000    0.000    0.000    0.000    0.000 
#
# Total GULP energy -111915.375552 kJ/mol
# GULP energy per Si atom -5595.768778 kJ/mol
# Density = 2.487263 g / cm^3
# Si number density = 24.929373 Si / 1000 Ang^3
#
#
#
# Elastic Constant Matrix: (Units=GPa)
#
#
# Indices 1 2 3 4 5 6 
#
# 1 199.3877 26.7302 -0.7849 0.0000 6.4968 0.0000
# 2 26.7302 114.1417 33.0336 0.0000 -0.2900 0.0000
# 3 -0.7849 33.0336 128.7110 0.0000 -3.2446 0.0000
# 4 0.0000 0.0000 0.0000 46.4377 0.0000 -0.9492
# 5 6.4968 -0.2900 -3.2446 0.0000 29.9396 0.0000
# 6 0.0000 0.0000 0.0000 -0.9492 0.0000 25.7993
#
#
#
# Elastic Compliance Matrix: (Units=1/GPa)
#
#
# Indices 1 2 3 4 5 6 
#
# 1 0.005231 -0.001328 0.000345 0.000000 -0.001111 0.000000
# 2 -0.001328 0.009802 -0.002521 0.000000 0.000110 0.000000
# 3 0.000345 -0.002521 0.008439 0.000000 0.000815 0.000000
# 4 0.000000 0.000000 0.000000 0.021550 0.000000 0.000793
# 5 -0.001111 0.000110 0.000815 0.000000 0.033731 0.000000
# 6 0.000000 0.000000 0.000000 0.000793 0.000000 0.038790
#
#
# Mechanical properties :
#
#
# Convention : Reuss Voigt Hill
#
# Bulk Modulus (GPa) = 60.73893 62.24423 61.49158
# Shear Modulus (GPa) = 38.45009 45.98610 42.21809
#
# Velocity S-wave (km/s) = 3.93155 4.29960 4.11969
# Velocity P-wave (km/s) = 6.71020 7.04778 6.88106
#
# Compressibility (1/GPa) = 0.01646391
#
# Stress axis : x y z
#
# Youngs Moduli (GPa) = 191.17276 102.02215 118.49750
#
# Poissons Ratio (x) = 0.13544 -0.04084
# Poissons Ratio (y) = 0.25379 0.29873
# Poissons Ratio (z) = -0.06588 0.25719
#
# Static dielectric constant tensor:
#      x y z
#    x 2.023730 0.000000 0.001860 
#    y 0.000000 1.866300 0.000000 
#    z 0.001860 0.000000 1.983330 
# 
# From -- ./inp_files/6054.got.cif
#   From: 2010.05.17/outbox.cif.g08.bks.cpg/sg14_4_cif.got.tgz:6054.got - 2010.06.03 17:49:19.
