data_PCOD9247144
_publ_section_title
;
Structure prediction by ZEFSAII (Michael W. Deem and Ramdas Pophale) SiO2 
 PCOD9247144
Probable space group: P 21/C
;
_chemical_formula_sum "Si O2"
_cell_formula_units_Z 24
_cell_length_a 14.903199
_cell_length_b 6.599558
_cell_length_c 11.295092
_cell_angle_alpha 90.000000
_cell_angle_beta 117.656869
_cell_angle_gamma 90.000000
_cell_volume 983.992975
_symmetry_space_group_name_H-M "P 21/C"
_symmetry_group_IT_number 14
_symmetry_cell_setting 'monoclinic'
loop_
_space_group_symop_operation_xyz
x,y,z
-x,1/2+y,1/2-z
-x,-y,-z
x,1/2-y,1/2+z
loop_
_atom_site_type_symbol
_atom_site_label
_atom_site_fract_x
_atom_site_fract_y
_atom_site_fract_z
Si Si1 0.326840 0.046385 0.080051
Si Si2 0.516254 0.193059 0.923825
Si Si3 0.146097 0.880903 0.827770
Si Si4 0.993611 0.667064 0.893729
Si Si5 0.831604 0.005358 0.807940
Si Si6 0.648157 0.586734 0.057109
O O1 0.247925 0.019863 0.135896
O O2 0.426378 0.905913 0.152127
O O3 0.361099 0.271136 0.063746
O O4 0.257366 0.964076 0.926745
O O5 0.407846 0.300048 0.867710
O O6 0.592526 0.371992 0.011083
O O7 0.500000 0.000000 0.000000
O O8 0.145207 0.735266 0.712610
O O9 0.098625 0.750651 0.906105
O O10 0.067684 0.060418 0.751533
O O11 0.925310 0.859129 0.887839
O O12 0.000000 0.500000 0.000000
O O13 0.766251 0.934966 0.654295
#
# Coordination Sequence:
#
# PCOD9247144 Si02
#       6
#     4   4   4   4   4   4
#     4  11  24  42  68  98 133 178 230 281 340 414
#     4   9  20  43  69  96 139 179 218 283 344 403
#     4  12  25  46  67  97 138 174 229 293 351 419
#     4  12  28  44  70  99 133 181 232 292 356 420
#     4  12  26  43  71 102 132 186 231 284 354 421
#     4  10  21  44  68  97 140 175 223 286 340 411
#
# _framework density 24.390421
#
# number of rings (size 3 to 8) (size 9 to 14) (size 15 to 20)
#    0.000    1.000    5.000    1.000    4.667    2.667 
#    9.000    0.000    0.000    0.000    0.000    0.000 
#    0.000    0.000    0.000    0.000    0.000    0.000 
#
# Total GULP energy -134132.018812 kJ/mol
# GULP energy per Si atom -5588.834117 kJ/mol
# Density = 2.433491 g / cm^3
# Si number density = 24.390421 Si / 1000 Ang^3
#
#
#
# Elastic Constant Matrix: (Units=GPa)
#
#
# Indices 1 2 3 4 5 6 
#
# 1 133.5103 54.0319 11.6906 0.0000 -10.9156 0.0000
# 2 54.0319 137.0437 29.8840 0.0000 7.3117 0.0000
# 3 11.6906 29.8840 46.8201 0.0000 10.1239 0.0000
# 4 0.0000 0.0000 0.0000 40.5940 0.0000 16.2195
# 5 -10.9156 7.3117 10.1239 0.0000 43.2540 0.0000
# 6 0.0000 0.0000 0.0000 16.2195 0.0000 59.1412
#
#
#
# Elastic Compliance Matrix: (Units=1/GPa)
#
#
# Indices 1 2 3 4 5 6 
#
# 1 0.009295 -0.003692 -0.000639 0.000000 0.003119 0.000000
# 2 -0.003692 0.009944 -0.005120 0.000000 -0.001414 0.000000
# 3 -0.000639 -0.005120 0.025946 0.000000 -0.005369 0.000000
# 4 0.000000 0.000000 0.000000 0.027666 0.000000 -0.007587
# 5 0.003119 -0.001414 -0.005369 0.000000 0.025402 0.000000
# 6 0.000000 0.000000 0.000000 -0.007587 0.000000 0.018989
#
#
# Mechanical properties :
#
#
# Convention : Reuss Voigt Hill
#
# Bulk Modulus (GPa) = 38.04432 56.50968 47.27700
# Shear Modulus (GPa) = 34.50514 43.38234 38.94374
#
# Velocity S-wave (km/s) = 3.76533 4.22200 4.00018
# Velocity P-wave (km/s) = 5.87669 6.85464 6.38442
#
# Compressibility (1/GPa) = 0.02628514
#
# Stress axis : x y z
#
# Youngs Moduli (GPa) = 107.58290 100.55936 38.54091
#
# Poissons Ratio (x) = 0.37125 0.02463
# Poissons Ratio (y) = 0.39718 0.19731
# Poissons Ratio (z) = 0.06875 0.51482
#
# Static dielectric constant tensor:
#      x y z
#    x 1.896120 0.000000 -0.014130 
#    y 0.000000 1.943420 0.000000 
#    z -0.014130 0.000000 2.035340 
# 
# From -- ./inp_files/45978.got.cif
#   From: 2010.05.17/outbox.cif.g08.bks.cpg/sg14_23_cif.got.tgz:45978.got - 2010.06.03 17:49:19.
