data_PCOD9247099
_publ_section_title
;
Structure prediction by ZEFSAII (Michael W. Deem and Ramdas Pophale) SiO2 
 PCOD9247099
Probable space group: P 21/C
;
_chemical_formula_sum "Si O2"
_cell_formula_units_Z 20
_cell_length_a 7.550123
_cell_length_b 13.070234
_cell_length_c 13.004895
_cell_angle_alpha 90.000000
_cell_angle_beta 38.127310
_cell_angle_gamma 90.000000
_cell_volume 792.352678
_symmetry_space_group_name_H-M "P 21/C"
_symmetry_group_IT_number 14
_symmetry_cell_setting 'monoclinic'
loop_
_space_group_symop_operation_xyz
x,y,z
-x,1/2+y,1/2-z
-x,-y,-z
x,1/2-y,1/2+z
loop_
_atom_site_type_symbol
_atom_site_label
_atom_site_fract_x
_atom_site_fract_y
_atom_site_fract_z
Si Si1 0.036324 0.686629 0.702676
Si Si2 0.766870 0.177885 0.208061
Si Si3 0.225343 0.013191 0.021566
Si Si4 0.156865 0.187663 0.384567
Si Si5 0.154311 0.509477 0.780088
O O1 0.210832 0.771964 0.687632
O O2 0.195930 0.609003 0.550146
O O3 0.236349 0.451056 0.635935
O O4 0.810914 0.743809 0.733369
O O5 0.449040 0.171614 0.311587
O O6 0.040403 0.398819 0.174895
O O7 0.938850 0.070785 0.117053
O O8 0.938042 0.255440 0.057571
O O9 0.524951 0.045596 0.832679
O O10 0.035175 0.077205 0.407276
#
# Coordination Sequence:
#
# PCOD9247099 Si02
#       5
#     4   4   4   4   4
#     4  10  21  44  63  93 137 171 216 285 324 392
#     4  12  26  42  70 104 133 176 229 279 334 399
#     4   9  20  43  71  90 134 185 220 262 341 405
#     4  12  26  41  69 104 131 176 233 276 334 398
#     4   9  20  42  69  92 133 179 222 266 337 398
#
# _framework density 25.241287
#
# number of rings (size 3 to 8) (size 9 to 14) (size 15 to 20)
#    1.200    0.400    2.000    2.400    0.000    7.200 
#    0.000    2.000    0.000    0.000    0.000    0.000 
#    0.000    0.000    0.000    0.000    0.000    0.000 
#
# Total GULP energy -111516.231089 kJ/mol
# GULP energy per Si atom -5575.811554 kJ/mol
# Density = 2.518384 g / cm^3
# Si number density = 25.241287 Si / 1000 Ang^3
#
#
#
# Elastic Constant Matrix: (Units=GPa)
#
#
# Indices 1 2 3 4 5 6 
#
# 1 141.4798 52.6546 30.2358 0.0000 -6.7261 0.0000
# 2 52.6546 116.9019 38.4359 0.0000 11.7206 0.0000
# 3 30.2358 38.4359 63.9843 0.0000 2.8385 0.0000
# 4 0.0000 0.0000 0.0000 40.7125 0.0000 10.9234
# 5 -6.7261 11.7206 2.8385 0.0000 11.7274 0.0000
# 6 0.0000 0.0000 0.0000 10.9234 0.0000 61.5426
#
#
#
# Elastic Compliance Matrix: (Units=1/GPa)
#
#
# Indices 1 2 3 4 5 6 
#
# 1 0.009862 -0.004800 -0.002265 0.000000 0.011002 0.000000
# 2 -0.004800 0.014078 -0.005501 0.000000 -0.015492 0.000000
# 3 -0.002265 -0.005501 0.020032 0.000000 -0.000649 0.000000
# 4 0.000000 0.000000 0.000000 0.025791 0.000000 -0.004578
# 5 0.011002 -0.015492 -0.000649 0.000000 0.107220 0.000000
# 6 0.000000 0.000000 0.000000 -0.004578 0.000000 0.017061
#
#
# Mechanical properties :
#
#
# Convention : Reuss Voigt Hill
#
# Bulk Modulus (GPa) = 53.07862 62.77983 57.92923
# Shear Modulus (GPa) = 22.17714 36.19916 29.18815
#
# Velocity S-wave (km/s) = 2.96734 3.79109 3.40423
# Velocity P-wave (km/s) = 5.72838 6.63996 6.20094
#
# Compressibility (1/GPa) = 0.01883998
#
# Stress axis : x y z
#
# Youngs Moduli (GPa) = 101.40249 71.03126 49.91901
#
# Poissons Ratio (x) = 0.34097 0.11305
# Poissons Ratio (y) = 0.48677 0.27462
# Poissons Ratio (z) = 0.22964 0.39076
#
# Static dielectric constant tensor:
#      x y z
#    x 2.131010 0.000000 0.078720 
#    y 0.000000 2.031630 0.000000 
#    z 0.078720 0.000000 2.084670 
# 
# From -- ./inp_files/55066.got.cif
#   From: 2010.05.17/outbox.cif.g08.bks.cpg/sg14_28_cif.got.tgz:55066.got - 2010.06.03 17:49:19.
