data_PCOD9247262
_publ_section_title
;
Structure prediction by ZEFSAII (Michael W. Deem and Ramdas Pophale) SiO2 
 PCOD9247262
Probable space group: P 21/C
;
_chemical_formula_sum "Si O2"
_cell_formula_units_Z 22
_cell_length_a 4.935979
_cell_length_b 16.191410
_cell_length_c 11.478047
_cell_angle_alpha 90.000000
_cell_angle_beta 58.636066
_cell_angle_gamma 90.000000
_cell_volume 783.289123
_symmetry_space_group_name_H-M "P 21/C"
_symmetry_group_IT_number 14
_symmetry_cell_setting 'monoclinic'
loop_
_space_group_symop_operation_xyz
x,y,z
-x,1/2+y,1/2-z
-x,-y,-z
x,1/2-y,1/2+z
loop_
_atom_site_type_symbol
_atom_site_label
_atom_site_fract_x
_atom_site_fract_y
_atom_site_fract_z
Si Si1 0.309257 0.388482 0.182380
Si Si2 0.876486 0.970730 0.815280
Si Si3 0.500000 0.500000 0.000000
Si Si4 0.340161 0.133266 0.348725
Si Si5 0.589288 0.619463 0.565543
Si Si6 0.864117 0.254455 0.829526
O O1 0.628081 0.411504 0.045788
O O2 0.353935 0.379461 0.310013
O O3 0.188541 0.487284 0.187686
O O4 0.074501 0.312665 0.208414
O O5 0.681834 0.920410 0.764355
O O6 0.689703 0.053114 0.890317
O O7 0.884373 0.916841 0.929649
O O8 0.702850 0.569531 0.037239
O O9 0.682167 0.177009 0.294741
O O10 0.096956 0.207226 0.372838
O O11 0.432564 0.702624 0.553176
#
# Coordination Sequence:
#
# PCOD9247262 Si02
#       6
#     4   4   2   4   4   4
#     4  11  23  49  73 111 145 202 245 318 370 463
#     4  10  23  41  78 101 142 184 260 301 370 430
#     4  12  28  48  80 108 162 200 258 298 390 462
#     4  12  26  48  69 114 145 209 239 312 371 462
#     4  10  21  47  71 109 137 194 243 322 358 448
#     4  11  26  47  73 107 159 185 258 301 394 431
#
# _framework density 28.086693
#
# number of rings (size 3 to 8) (size 9 to 14) (size 15 to 20)
#    0.000    1.091    3.636    1.636    0.000    5.818 
#    0.000    0.000    0.000    0.000    0.000    0.000 
#    0.000    0.000    0.000    0.000    0.000    0.000 
#
# Total GULP energy -122703.666329 kJ/mol
# GULP energy per Si atom -5577.439379 kJ/mol
# Density = 2.802277 g / cm^3
# Si number density = 28.086693 Si / 1000 Ang^3
#
#
#
# Elastic Constant Matrix: (Units=GPa)
#
#
# Indices 1 2 3 4 5 6 
#
# 1 155.9604 68.0623 50.1809 0.0000 13.4635 0.0000
# 2 68.0623 136.2964 69.6059 0.0000 -5.3300 0.0000
# 3 50.1809 69.6059 106.9605 0.0000 7.5200 0.0000
# 4 0.0000 0.0000 0.0000 56.5157 0.0000 2.2177
# 5 13.4635 -5.3300 7.5200 0.0000 46.1562 0.0000
# 6 0.0000 0.0000 0.0000 2.2177 0.0000 38.9330
#
#
#
# Elastic Compliance Matrix: (Units=1/GPa)
#
#
# Indices 1 2 3 4 5 6 
#
# 1 0.008750 -0.003712 -0.001497 0.000000 -0.002737 0.000000
# 2 -0.003712 0.012848 -0.006878 0.000000 0.003687 0.000000
# 3 -0.001497 -0.006878 0.014722 0.000000 -0.002756 0.000000
# 4 0.000000 0.000000 0.000000 0.017734 0.000000 -0.001010
# 5 -0.002737 0.003687 -0.002756 0.000000 0.023339 0.000000
# 6 0.000000 0.000000 0.000000 -0.001010 0.000000 0.025743
#
#
# Mechanical properties :
#
#
# Convention : Reuss Voigt Hill
#
# Bulk Modulus (GPa) = 82.34403 86.10173 84.22288
# Shear Modulus (GPa) = 38.06428 42.41221 40.23824
#
# Velocity S-wave (km/s) = 3.68536 3.89015 3.78914
# Velocity P-wave (km/s) = 6.89134 7.13442 7.01393
#
# Compressibility (1/GPa) = 0.01214417
#
# Stress axis : x y z
#
# Youngs Moduli (GPa) = 114.28963 77.83598 67.92744
#
# Poissons Ratio (x) = 0.28892 0.10169
# Poissons Ratio (y) = 0.42423 0.46724
# Poissons Ratio (z) = 0.17109 0.53539
#
# Static dielectric constant tensor:
#      x y z
#    x 2.315350 0.000000 -0.015020 
#    y 0.000000 2.301620 0.000000 
#    z -0.015020 0.000000 2.488680 
# 
# From -- ./inp_files/20771.got.cif
#   From: 2010.05.17/outbox.cif.g08.bks.cpg/sg14_11_cif.got.tgz:20771.got - 2010.06.03 17:49:19.
