data_PCOD9247209
_publ_section_title
;
Structure prediction by ZEFSAII (Michael W. Deem and Ramdas Pophale) SiO2 
 PCOD9247209
Probable space group: P 21/C
;
_chemical_formula_sum "Si O2"
_cell_formula_units_Z 18
_cell_length_a 12.699724
_cell_length_b 4.759142
_cell_length_c 24.444847
_cell_angle_alpha 90.000000
_cell_angle_beta 156.233735
_cell_angle_gamma 90.000000
_cell_volume 595.418509
_symmetry_space_group_name_H-M "P 21/C"
_symmetry_group_IT_number 14
_symmetry_cell_setting 'monoclinic'
loop_
_space_group_symop_operation_xyz
x,y,z
-x,1/2+y,1/2-z
-x,-y,-z
x,1/2-y,1/2+z
loop_
_atom_site_type_symbol
_atom_site_label
_atom_site_fract_x
_atom_site_fract_y
_atom_site_fract_z
Si Si1 0.546583 0.020533 0.399674
Si Si2 0.500000 0.000000 0.500000
Si Si3 0.040845 0.776594 0.626252
Si Si4 0.329038 0.598781 0.155543
Si Si5 0.133394 0.503934 0.285068
O O1 0.555888 0.138868 0.464291
O O2 0.684290 0.181334 0.414520
O O3 0.253004 0.956475 0.241744
O O4 0.733595 0.743619 0.488540
O O5 0.637167 0.282003 0.593667
O O6 0.107028 0.849554 0.594958
O O7 0.099445 0.000054 0.703738
O O8 0.425840 0.280625 0.206041
O O9 0.116105 0.201999 0.309096
#
# Coordination Sequence:
#
# PCOD9247209 Si02
#       5
#     4   2   4   4   4
#     4  10  21  45  69 107 140 187 235 292 351 421
#     4  10  22  44  70 104 140 188 230 290 350 422
#     4  10  22  44  73 102 141 186 234 292 348 418
#     4  10  23  46  72 106 140 186 236 292 350 418
#     4  11  24  44  67 101 140 179 234 286 349 416
#
# _framework density 30.230834999999999
#
# number of rings (size 3 to 8) (size 9 to 14) (size 15 to 20)
#    0.000    1.778    2.222    0.667    0.000    6.222 
#    8.000   18.889    0.000    0.000    0.000    0.000 
#    0.000    0.000    0.000    0.000    0.000    0.000 
#
# Total GULP energy -100435.896908 kJ/mol
# GULP energy per Si atom -5579.772050 kJ/mol
# Density = 3.016203 g / cm^3
# Si number density = 30.230835 Si / 1000 Ang^3
#
#
#
# Elastic Constant Matrix: (Units=GPa)
#
#
# Indices 1 2 3 4 5 6 
#
# 1 328.7284 55.6374 72.0346 0.0000 -49.9545 0.0000
# 2 55.6374 152.0817 33.7923 0.0000 -9.9206 0.0000
# 3 72.0346 33.7923 106.2725 0.0000 -6.7821 0.0000
# 4 0.0000 0.0000 0.0000 11.6644 0.0000 -11.7501
# 5 -49.9545 -9.9206 -6.7821 0.0000 88.7707 0.0000
# 6 0.0000 0.0000 0.0000 -11.7501 0.0000 41.7285
#
#
#
# Elastic Compliance Matrix: (Units=1/GPa)
#
#
# Indices 1 2 3 4 5 6 
#
# 1 0.003988 -0.000815 -0.002318 0.000000 0.001976 0.000000
# 2 -0.000815 0.007276 -0.001747 0.000000 0.000221 0.000000
# 3 -0.002318 -0.001747 0.011497 0.000000 -0.000621 0.000000
# 4 0.000000 0.000000 0.000000 0.119677 0.000000 0.033699
# 5 0.001976 0.000221 -0.000621 0.000000 0.012354 0.000000
# 6 0.000000 0.000000 0.000000 0.033699 0.000000 0.033454
#
#
# Mechanical properties :
#
#
# Convention : Reuss Voigt Hill
#
# Bulk Modulus (GPa) = 76.91767 101.11236 89.01501
# Shear Modulus (GPa) = 24.71083 56.80728 40.75906
#
# Velocity S-wave (km/s) = 2.86213 4.33958 3.67585
# Velocity P-wave (km/s) = 6.03499 7.65694 6.89383
#
# Compressibility (1/GPa) = 0.01300091
#
# Stress axis : x y z
#
# Youngs Moduli (GPa) = 250.73754 137.43403 86.97992
#
# Poissons Ratio (x) = 0.11202 0.20162
# Poissons Ratio (y) = 0.20437 0.15196
# Poissons Ratio (z) = 0.58122 0.24011
#
# Static dielectric constant tensor:
#      x y z
#    x 2.190070 0.000000 -0.076780 
#    y 0.000000 2.385200 0.000000 
#    z -0.076780 0.000000 2.459720 
# 
# From -- ./inp_files/35441.got.cif
#   From: 2010.05.17/outbox.cif.g08.bks.cpg/sg14_18_cif.got.tgz:35441.got - 2010.06.03 17:49:19.
