data_PCOD9247832
_publ_section_title
;
Structure prediction by ZEFSAII (Michael W. Deem and Ramdas Pophale) SiO2 
 PCOD9247832
Probable space group: P 21/C
;
_chemical_formula_sum "Si O2"
_cell_formula_units_Z 28
_cell_length_a 20.307812
_cell_length_b 9.456043
_cell_length_c 14.474158
_cell_angle_alpha 90.000000
_cell_angle_beta 151.998938
_cell_angle_gamma 90.000000
_cell_volume 1304.939304
_symmetry_space_group_name_H-M "P 21/C"
_symmetry_group_IT_number 14
_symmetry_cell_setting 'monoclinic'
loop_
_space_group_symop_operation_xyz
x,y,z
-x,1/2+y,1/2-z
-x,-y,-z
x,1/2-y,1/2+z
loop_
_atom_site_type_symbol
_atom_site_label
_atom_site_fract_x
_atom_site_fract_y
_atom_site_fract_z
Si Si1 0.105711 0.865078 0.130131
Si Si2 0.913915 0.147748 0.220322
Si Si3 0.569711 0.466889 0.987677
Si Si4 0.029337 0.662225 0.865386
Si Si5 0.479536 0.830179 0.070620
Si Si6 0.660293 0.091446 0.292628
Si Si7 0.606529 0.333938 0.343128
O O1 0.098037 0.763373 0.211453
O O2 0.265513 0.924228 0.312434
O O3 0.059660 0.759692 0.991156
O O4 0.000000 0.000000 0.000000
O O5 0.013834 0.225509 0.268572
O O6 0.756211 0.127948 0.983403
O O7 0.952576 0.985778 0.292846
O O8 0.483816 0.326646 0.854621
O O9 0.526897 0.592166 0.867083
O O10 0.500000 0.500000 0.000000
O O11 0.175427 0.603500 0.006431
O O12 0.383979 0.877031 0.038284
O O13 0.609317 0.932488 0.224392
O O14 0.401328 0.833925 0.875903
O O15 0.599373 0.169081 0.306958
#
# Coordination Sequence:
#
# PCOD9247832 Si02
#       7
#     4   4   4   4   4   4   4
#     4  12  26  48  69  98 141 184 232 284 341 409
#     4  11  24  44  69 100 136 182 226 285 342 410
#     4  12  23  44  69  98 135 177 221 282 339 398
#     4  11  23  45  68  98 139 180 226 284 344 410
#     4  11  21  39  63  93 127 168 217 269 332 398
#     4  10  22  40  63  92 133 170 212 282 337 391
#     4  11  22  41  66  94 131 168 220 273 336 393
#
# _framework density 21.456935999999999
#
# number of rings (size 3 to 8) (size 9 to 14) (size 15 to 20)
#    0.000    0.857    4.286    3.000    2.000    2.286 
#    5.143    0.000    0.000    0.000    0.000    0.000 
#    0.000    0.000    0.000    0.000    0.000    0.000 
#
# Total GULP energy -155998.168503 kJ/mol
# GULP energy per Si atom -5571.363161 kJ/mol
# Density = 2.140810 g / cm^3
# Si number density = 21.456936 Si / 1000 Ang^3
#
#
#
# Elastic Constant Matrix: (Units=GPa)
#
#
# Indices 1 2 3 4 5 6 
#
# 1 99.0284 27.9655 31.4954 0.0000 -18.2306 0.0000
# 2 27.9655 119.8874 50.8653 0.0000 16.0281 0.0000
# 3 31.4954 50.8653 63.0273 0.0000 -0.6477 0.0000
# 4 0.0000 0.0000 0.0000 38.4943 0.0000 -2.0169
# 5 -18.2306 16.0281 -0.6477 0.0000 28.1469 0.0000
# 6 0.0000 0.0000 0.0000 -2.0169 0.0000 34.6220
#
#
#
# Elastic Compliance Matrix: (Units=1/GPa)
#
#
# Indices 1 2 3 4 5 6 
#
# 1 0.014405 -0.002727 -0.004887 0.000000 0.010770 0.000000
# 2 -0.002727 0.014987 -0.010841 0.000000 -0.010550 0.000000
# 3 -0.004887 -0.010841 0.027095 0.000000 0.003631 0.000000
# 4 0.000000 0.000000 0.000000 0.026057 0.000000 0.001518
# 5 0.010770 -0.010550 0.003631 0.000000 0.048595 0.000000
# 6 0.000000 0.000000 0.000000 0.001518 0.000000 0.028972
#
#
# Mechanical properties :
#
#
# Convention : Reuss Voigt Hill
#
# Bulk Modulus (GPa) = 51.07964 55.84394 53.46179
# Shear Modulus (GPa) = 24.56433 31.69380 28.12906
#
# Velocity S-wave (km/s) = 3.38719 3.84746 3.62464
# Velocity P-wave (km/s) = 6.25737 6.76903 6.51823
#
# Compressibility (1/GPa) = 0.01957727
#
# Stress axis : x y z
#
# Youngs Moduli (GPa) = 69.41916 66.72343 36.90731
#
# Poissons Ratio (x) = 0.18193 0.18038
# Poissons Ratio (y) = 0.18928 0.40012
# Poissons Ratio (z) = 0.33927 0.72336
#
# Static dielectric constant tensor:
#      x y z
#    x 1.895760 0.000000 -0.024130 
#    y 0.000000 1.835450 0.000000 
#    z -0.024130 0.000000 1.797870 
# 
# From -- ./inp_files/50208.got.cif
#   From: 2010.05.17/outbox.cif.g08.bks.cpg/sg14_26_cif.got.tgz:50208.got - 2010.06.03 17:49:19.
