data_PCOD9247475
_publ_section_title
;
Structure prediction by ZEFSAII (Michael W. Deem and Ramdas Pophale) SiO2 
 PCOD9247475
Probable space group: P 21/C
;
_chemical_formula_sum "Si O2"
_cell_formula_units_Z 32
_cell_length_a 8.725482
_cell_length_b 12.537524
_cell_length_c 21.922808
_cell_angle_alpha 90.000000
_cell_angle_beta 35.824453
_cell_angle_gamma 90.000000
_cell_volume 1403.714246
_symmetry_space_group_name_H-M "P 21/C"
_symmetry_group_IT_number 14
_symmetry_cell_setting 'monoclinic'
loop_
_space_group_symop_operation_xyz
x,y,z
-x,1/2+y,1/2-z
-x,-y,-z
x,1/2-y,1/2+z
loop_
_atom_site_type_symbol
_atom_site_label
_atom_site_fract_x
_atom_site_fract_y
_atom_site_fract_z
Si Si1 0.972614 0.340056 0.215402
Si Si2 0.568642 0.125678 0.548011
Si Si3 0.683622 0.947839 0.807779
Si Si4 0.703642 0.913494 0.566803
Si Si5 0.812946 0.164500 0.018294
Si Si6 0.812346 0.155058 0.337283
Si Si7 0.288662 0.218307 0.312822
Si Si8 0.128068 0.768536 0.376818
O O1 0.765905 0.432149 0.265709
O O2 0.887481 0.278465 0.303761
O O3 0.970215 0.254701 0.160635
O O4 0.263910 0.385514 0.129812
O O5 0.619129 0.238068 0.563407
O O6 0.729224 0.123224 0.432840
O O7 0.667743 0.036728 0.562785
O O8 0.382066 0.935565 0.926319
O O9 0.711540 0.860017 0.744986
O O10 0.933231 0.910495 0.767610
O O11 0.447537 0.862813 0.618119
O O12 0.719117 0.866120 0.629052
O O13 0.964280 0.870668 0.450556
O O14 0.908791 0.180180 0.057662
O O15 0.061033 0.194405 0.896323
O O16 0.561893 0.279578 0.225898
#
# Coordination Sequence:
#
# PCOD9247475 Si02
#       8
#     4   4   4   4   4   4   4   4
#     4  12  24  40  66  97 129 170 215 266 326 388
#     4  12  23  39  67  97 125 168 216 274 324 377
#     4  11  23  41  65  96 130 170 214 268 323 383
#     4  11  22  38  66 100 126 163 219 269 317 382
#     4  10  23  40  64  91 132 170 215 265 322 381
#     4  12  22  39  63  95 133 162 209 269 327 378
#     4  10  22  41  65  92 133 176 212 265 321 379
#     4  10  22  38  61  92 128 167 213 264 317 373
#
# _framework density 22.796662999999999
#
# number of rings (size 3 to 8) (size 9 to 14) (size 15 to 20)
#    0.000    1.000    6.250    1.125    1.750    1.000 
#    0.000    1.250    0.000    0.000    0.000    0.000 
#    0.000    0.000    0.000    0.000    0.000    0.000 
#
# Total GULP energy -178603.764090 kJ/mol
# GULP energy per Si atom -5581.367628 kJ/mol
# Density = 2.274478 g / cm^3
# Si number density = 22.796663 Si / 1000 Ang^3
#
#
#
# Elastic Constant Matrix: (Units=GPa)
#
#
# Indices 1 2 3 4 5 6 
#
# 1 53.2229 1.3715 13.7522 0.0000 -8.6907 0.0000
# 2 1.3715 28.6333 8.5925 0.0000 -5.5838 0.0000
# 3 13.7522 8.5925 79.2764 0.0000 -8.9866 0.0000
# 4 0.0000 0.0000 0.0000 23.8865 0.0000 -9.8724
# 5 -8.6907 -5.5838 -8.9866 0.0000 28.3284 0.0000
# 6 0.0000 0.0000 0.0000 -9.8724 0.0000 30.2948
#
#
#
# Elastic Compliance Matrix: (Units=1/GPa)
#
#
# Indices 1 2 3 4 5 6 
#
# 1 0.020446 0.001005 -0.003031 0.000000 0.005509 0.000000
# 2 0.001005 0.037191 -0.003464 0.000000 0.006540 0.000000
# 3 -0.003031 -0.003464 0.013830 0.000000 0.002775 0.000000
# 4 0.000000 0.000000 0.000000 0.048381 0.000000 0.015766
# 5 0.005509 0.006540 0.002775 0.000000 0.039160 0.000000
# 6 0.000000 0.000000 0.000000 0.015766 0.000000 0.038147
#
#
# Mechanical properties :
#
#
# Convention : Reuss Voigt Hill
#
# Bulk Modulus (GPa) = 16.53284 23.17391 19.85338
# Shear Modulus (GPa) = 21.90127 25.66301 23.78214
#
# Velocity S-wave (km/s) = 3.10291 3.35884 3.23341
# Velocity P-wave (km/s) = 4.48392 5.02294 4.76106
#
# Compressibility (1/GPa) = 0.06048566
#
# Stress axis : x y z
#
# Youngs Moduli (GPa) = 48.90986 26.88814 72.30722
#
# Poissons Ratio (x) = -0.02701 0.21918
# Poissons Ratio (y) = -0.04913 0.25047
# Poissons Ratio (z) = 0.14825 0.09314
#
# Static dielectric constant tensor:
#      x y z
#    x 1.921240 0.000000 0.014470 
#    y 0.000000 1.849690 0.000000 
#    z 0.014470 0.000000 1.877300 
# 
# From -- ./inp_files/72471.got.cif
#   From: 2010.05.17/outbox.cif.g08.bks.cpg/sg14_37_cif.got.tgz:72471.got - 2010.06.03 17:49:19.
