data_PCOD9247234
_publ_section_title
;
Structure prediction by ZEFSAII (Michael W. Deem and Ramdas Pophale) SiO2 
 PCOD9247234
Probable space group: P 21/C
;
_chemical_formula_sum "Si O2"
_cell_formula_units_Z 22
_cell_length_a 6.832306
_cell_length_b 5.199275
_cell_length_c 22.696049
_cell_angle_alpha 90.000000
_cell_angle_beta 88.898102
_cell_angle_gamma 90.000000
_cell_volume 806.083514
_symmetry_space_group_name_H-M "P 21/C"
_symmetry_group_IT_number 14
_symmetry_cell_setting 'monoclinic'
loop_
_space_group_symop_operation_xyz
x,y,z
-x,1/2+y,1/2-z
-x,-y,-z
x,1/2-y,1/2+z
loop_
_atom_site_type_symbol
_atom_site_label
_atom_site_fract_x
_atom_site_fract_y
_atom_site_fract_z
Si Si1 0.432428 0.474204 0.920379
Si Si2 0.880445 0.535869 0.771413
Si Si3 0.500000 0.500000 0.500000
Si Si4 0.422017 0.105714 0.822270
Si Si5 0.152783 0.871269 0.925350
Si Si6 0.750317 0.816143 0.879896
O O1 0.538703 0.257804 0.956887
O O2 0.215172 0.573262 0.934653
O O3 0.575644 0.727026 0.925557
O O4 0.426585 0.385640 0.852323
O O5 0.670269 0.565432 0.740461
O O6 0.844334 0.586524 0.840690
O O7 0.985359 0.269196 0.754609
O O8 0.729935 0.507255 0.524008
O O9 0.267369 0.956264 0.865101
O O10 0.636121 0.992214 0.833730
O O11 0.931201 0.928665 0.913257
#
# Coordination Sequence:
#
# PCOD9247234 Si02
#       6
#     4   4   2   4   4   4
#     4  10  23  42  68  99 138 183 232 302 352 438
#     4  12  27  45  73 104 144 198 238 298 369 430
#     4  10  22  42  74  96 140 180 240 296 380 418
#     4  10  24  42  65  98 139 180 236 288 355 429
#     4  10  21  46  65 100 135 182 230 299 359 430
#     4  11  25  41  70  98 141 183 242 293 361 432
#
# _framework density 27.292453999999999
#
# number of rings (size 3 to 8) (size 9 to 14) (size 15 to 20)
#    0.000    1.455    1.818    1.636    7.636    3.636 
#    0.000    9.091    0.000    0.000    0.000    0.000 
#    0.000    0.000    0.000    0.000    0.000    0.000 
#
# Total GULP energy -122783.042131 kJ/mol
# GULP energy per Si atom -5581.047370 kJ/mol
# Density = 2.723034 g / cm^3
# Si number density = 27.292454 Si / 1000 Ang^3
#
#
#
# Elastic Constant Matrix: (Units=GPa)
#
#
# Indices 1 2 3 4 5 6 
#
# 1 180.7456 26.5083 44.7549 0.0000 49.9126 0.0000
# 2 26.5083 95.9032 -14.3537 0.0000 17.8862 0.0000
# 3 44.7549 -14.3537 117.9795 0.0000 28.5985 0.0000
# 4 0.0000 0.0000 0.0000 38.6236 0.0000 -2.6074
# 5 49.9126 17.8862 28.5985 0.0000 73.7467 0.0000
# 6 0.0000 0.0000 0.0000 -2.6074 0.0000 32.3707
#
#
#
# Elastic Compliance Matrix: (Units=1/GPa)
#
#
# Indices 1 2 3 4 5 6 
#
# 1 0.007321 -0.001632 -0.002065 0.000000 -0.003759 0.000000
# 2 -0.001632 0.011815 0.002741 0.000000 -0.002824 0.000000
# 3 -0.002065 0.002741 0.010392 0.000000 -0.003297 0.000000
# 4 0.000000 0.000000 0.000000 0.026032 0.000000 0.002097
# 5 -0.003759 -0.002824 -0.003297 0.000000 0.018068 0.000000
# 6 0.000000 0.000000 0.000000 0.002097 0.000000 0.031061
#
#
# Mechanical properties :
#
#
# Convention : Reuss Voigt Hill
#
# Bulk Modulus (GPa) = 36.20851 56.49414 46.35132
# Shear Modulus (GPa) = 43.17575 51.46277 47.31926
#
# Velocity S-wave (km/s) = 3.98171 4.34707 4.16839
# Velocity P-wave (km/s) = 5.86808 6.77794 6.33935
#
# Compressibility (1/GPa) = 0.02761782
#
# Stress axis : x y z
#
# Youngs Moduli (GPa) = 136.59155 84.63712 96.22757
#
# Poissons Ratio (x) = 0.13810 0.19867
# Poissons Ratio (y) = 0.22287 -0.26376
# Poissons Ratio (z) = 0.28201 -0.23199
#
# Static dielectric constant tensor:
#      x y z
#    x 2.033740 0.000000 -0.006200 
#    y 0.000000 1.940430 0.000000 
#    z -0.006200 0.000000 1.942910 
# 
# From -- ./inp_files/78505.got.cif
#   From: 2010.05.17/outbox.cif.g08.bks.cpg/sg14_40_cif.got.tgz:78505.got - 2010.06.03 17:49:19.
