data_PCOD9247644
_publ_section_title
;
Structure prediction by ZEFSAII (Michael W. Deem and Ramdas Pophale) SiO2 
 PCOD9247644
Probable space group: P 21/C
;
_chemical_formula_sum "Si O2"
_cell_formula_units_Z 28
_cell_length_a 9.977366
_cell_length_b 9.734411
_cell_length_c 21.949323
_cell_angle_alpha 90.000000
_cell_angle_beta 33.686272
_cell_angle_gamma 90.000000
_cell_volume 1182.393066
_symmetry_space_group_name_H-M "P 21/C"
_symmetry_group_IT_number 14
_symmetry_cell_setting 'monoclinic'
loop_
_space_group_symop_operation_xyz
x,y,z
-x,1/2+y,1/2-z
-x,-y,-z
x,1/2-y,1/2+z
loop_
_atom_site_type_symbol
_atom_site_label
_atom_site_fract_x
_atom_site_fract_y
_atom_site_fract_z
Si Si1 0.977898 0.218468 0.237119
Si Si2 0.871656 0.630822 0.632571
Si Si3 0.692798 0.037583 0.875265
Si Si4 0.734331 0.586971 0.547955
Si Si5 0.859442 0.632078 0.935703
Si Si6 0.165098 0.062862 0.383744
Si Si7 0.568859 0.455699 0.826147
O O1 0.843806 0.324034 0.332539
O O2 0.774730 0.148924 0.270240
O O3 0.145392 0.313930 0.130949
O O4 0.132725 0.091298 0.202352
O O5 0.744288 0.587626 0.616790
O O6 0.920893 0.791061 0.608201
O O7 0.703830 0.593108 0.753321
O O8 0.107060 0.535128 0.541033
O O9 0.529133 0.072949 0.879495
O O10 0.500000 0.000000 0.000000
O O11 0.844427 0.731024 0.482931
O O12 0.105145 0.549804 0.855573
O O13 0.629836 0.542413 0.044893
O O14 0.421314 0.085234 0.320423
O O15 0.000000 0.000000 0.500000
#
# Coordination Sequence:
#
# PCOD9247644 Si02
#       7
#     4   4   4   4   4   4   4
#     4  12  25  49  77 102 142 197 253 302 373 425
#     4  11  22  40  69 110 143 189 232 289 371 446
#     4  12  25  52  77 103 143 195 251 310 365 432
#     4  11  22  43  73 102 146 190 236 302 367 426
#     4  11  22  46  71 104 141 190 236 298 365 436
#     4  10  22  39  63 103 145 178 228 283 353 434
#     4  11  22  41  72 103 149 185 231 292 368 433
#
# _framework density 23.680786999999999
#
# number of rings (size 3 to 8) (size 9 to 14) (size 15 to 20)
#    0.000    0.857    7.143    0.000    4.000    0.000 
#   12.857    1.429    0.000    0.000    0.000    0.000 
#    0.000    0.000    0.000    0.000    0.000    0.000 
#
# Total GULP energy -156526.270969 kJ/mol
# GULP energy per Si atom -5590.223963 kJ/mol
# Density = 2.362689 g / cm^3
# Si number density = 23.680787 Si / 1000 Ang^3
#
#
#
# Elastic Constant Matrix: (Units=GPa)
#
#
# Indices 1 2 3 4 5 6 
#
# 1 61.8963 36.1806 18.4905 0.0000 -23.0649 0.0000
# 2 36.1806 173.1706 52.3695 0.0000 -14.1071 0.0000
# 3 18.4905 52.3695 101.5382 0.0000 8.6017 0.0000
# 4 0.0000 0.0000 0.0000 41.0541 0.0000 9.9021
# 5 -23.0649 -14.1071 8.6017 0.0000 35.6201 0.0000
# 6 0.0000 0.0000 0.0000 9.9021 0.0000 27.7920
#
#
#
# Elastic Compliance Matrix: (Units=1/GPa)
#
#
# Indices 1 2 3 4 5 6 
#
# 1 0.025130 -0.002499 -0.004678 0.000000 0.016412 0.000000
# 2 -0.002499 0.007585 -0.003649 0.000000 0.002267 0.000000
# 3 -0.004678 -0.003649 0.013232 0.000000 -0.007670 0.000000
# 4 0.000000 0.000000 0.000000 0.026648 0.000000 -0.009495
# 5 0.016412 0.002267 -0.007670 0.000000 0.041451 0.000000
# 6 0.000000 0.000000 0.000000 -0.009495 0.000000 0.039364
#
#
# Mechanical properties :
#
#
# Convention : Reuss Voigt Hill
#
# Bulk Modulus (GPa) = 41.15957 61.18738 51.17348
# Shear Modulus (GPa) = 27.29843 36.19754 31.74798
#
# Velocity S-wave (km/s) = 3.39893 3.91392 3.66548
# Velocity P-wave (km/s) = 5.72908 6.80585 6.29054
#
# Compressibility (1/GPa) = 0.02429569
#
# Stress axis : x y z
#
# Youngs Moduli (GPa) = 39.79319 131.84026 75.57367
#
# Poissons Ratio (x) = 0.32944 0.35352
# Poissons Ratio (y) = 0.09943 0.27577
# Poissons Ratio (z) = 0.18615 0.48109
#
# Static dielectric constant tensor:
#      x y z
#    x 1.981180 0.000000 0.009530 
#    y 0.000000 1.884680 0.000000 
#    z 0.009530 0.000000 1.941530 
# 
# From -- ./inp_files/77090.got.cif
#   From: 2010.05.17/outbox.cif.g08.bks.cpg/sg14_39_cif.got.tgz:77090.got - 2010.06.03 17:49:19.
