data_PCOD9247226
_publ_section_title
;
Structure prediction by ZEFSAII (Michael W. Deem and Ramdas Pophale) SiO2 
 PCOD9247226
Probable space group: P 21/C
;
_chemical_formula_sum "Si O2"
_cell_formula_units_Z 16
_cell_length_a 5.197259
_cell_length_b 10.680246
_cell_length_c 14.538970
_cell_angle_alpha 90.000000
_cell_angle_beta 129.274508
_cell_angle_gamma 90.000000
_cell_volume 624.739018
_symmetry_space_group_name_H-M "P 21/C"
_symmetry_group_IT_number 14
_symmetry_cell_setting 'monoclinic'
loop_
_space_group_symop_operation_xyz
x,y,z
-x,1/2+y,1/2-z
-x,-y,-z
x,1/2-y,1/2+z
loop_
_atom_site_type_symbol
_atom_site_label
_atom_site_fract_x
_atom_site_fract_y
_atom_site_fract_z
Si Si1 0.447706 0.164512 0.208873
Si Si2 0.294029 0.629766 0.847065
Si Si3 0.719873 0.394640 0.954459
Si Si4 0.184043 0.511071 0.362924
O O1 0.432929 0.290565 0.145396
O O2 0.644868 0.188547 0.348637
O O3 0.681776 0.079440 0.197786
O O4 0.111385 0.088054 0.153313
O O5 0.397789 0.485778 0.884234
O O6 0.971221 0.619758 0.709509
O O7 0.248869 0.673795 0.941046
O O8 0.000000 0.500000 0.000000
O O9 0.500000 0.500000 0.500000
#
# Coordination Sequence:
#
# PCOD9247226 Si02
#       4
#     4   4   4   4
#     4  11  25  45  75 109 140 200 255 302 387 446
#     4  10  24  45  73 105 147 196 253 311 369 455
#     4  10  21  45  73 101 147 192 252 315 365 447
#     4  11  25  48  71 109 156 194 246 317 377 448
#
# _framework density 25.610693999999999
#
# number of rings (size 3 to 8) (size 9 to 14) (size 15 to 20)
#    0.000    1.500    2.500    0.750    3.500    2.000 
#    9.000    0.000    0.000    0.000    0.000    0.000 
#    0.000    0.000    0.000    0.000    0.000    0.000 
#
# Total GULP energy -89470.960582 kJ/mol
# GULP energy per Si atom -5591.935036 kJ/mol
# Density = 2.555240 g / cm^3
# Si number density = 25.610694 Si / 1000 Ang^3
#
#
#
# Elastic Constant Matrix: (Units=GPa)
#
#
# Indices 1 2 3 4 5 6 
#
# 1 197.1125 49.4129 97.4357 0.0000 -11.4977 0.0000
# 2 49.4129 61.1194 35.8123 0.0000 -15.8641 0.0000
# 3 97.4357 35.8123 185.6315 0.0000 -24.9796 0.0000
# 4 0.0000 0.0000 0.0000 22.5905 0.0000 -2.1409
# 5 -11.4977 -15.8641 -24.9796 0.0000 51.4183 0.0000
# 6 0.0000 0.0000 0.0000 -2.1409 0.0000 58.7837
#
#
#
# Elastic Compliance Matrix: (Units=1/GPa)
#
#
# Indices 1 2 3 4 5 6 
#
# 1 0.007853 -0.004709 -0.003395 0.000000 -0.001346 0.000000
# 2 -0.004709 0.022177 -0.001099 0.000000 0.005255 0.000000
# 3 -0.003395 -0.001099 0.007739 0.000000 0.002661 0.000000
# 4 0.000000 0.000000 0.000000 0.044420 0.000000 0.001618
# 5 -0.001346 0.005255 0.002661 0.000000 0.022062 0.000000
# 6 0.000000 0.000000 0.000000 0.001618 0.000000 0.017070
#
#
# Mechanical properties :
#
#
# Convention : Reuss Voigt Hill
#
# Bulk Modulus (GPa) = 51.64633 89.90946 70.77790
# Shear Modulus (GPa) = 34.20382 43.97199 39.08791
#
# Velocity S-wave (km/s) = 3.65845 4.14809 3.91094
# Velocity P-wave (km/s) = 6.16891 7.62395 6.93470
#
# Compressibility (1/GPa) = 0.01936246
#
# Stress axis : x y z
#
# Youngs Moduli (GPa) = 127.33377 45.09171 129.21422
#
# Poissons Ratio (x) = 0.21236 0.43865
# Poissons Ratio (y) = 0.59968 0.14205
# Poissons Ratio (z) = 0.43226 0.04957
#
# Static dielectric constant tensor:
#      x y z
#    x 2.018520 0.000000 0.056680 
#    y 0.000000 2.112880 0.000000 
#    z 0.056680 0.000000 2.184320 
# 
# From -- ./inp_files/36939.got.cif
#   From: 2010.05.17/outbox.cif.g08.bks.cpg/sg14_19_cif.got.tgz:36939.got - 2010.06.03 17:49:19.
