data_PCOD9247332
_publ_section_title
;
Structure prediction by ZEFSAII (Michael W. Deem and Ramdas Pophale) SiO2 
 PCOD9247332
Probable space group: P 21/C
;
_chemical_formula_sum "Si O2"
_cell_formula_units_Z 28
_cell_length_a 12.126328
_cell_length_b 5.255744
_cell_length_c 20.992658
_cell_angle_alpha 90.000000
_cell_angle_beta 46.798661
_cell_angle_gamma 90.000000
_cell_volume 975.282096
_symmetry_space_group_name_H-M "P 21/C"
_symmetry_group_IT_number 14
_symmetry_cell_setting 'monoclinic'
loop_
_space_group_symop_operation_xyz
x,y,z
-x,1/2+y,1/2-z
-x,-y,-z
x,1/2-y,1/2+z
loop_
_atom_site_type_symbol
_atom_site_label
_atom_site_fract_x
_atom_site_fract_y
_atom_site_fract_z
Si Si1 0.744282 0.765744 0.698224
Si Si2 0.303854 0.753931 0.856634
Si Si3 0.012931 0.629018 0.919995
Si Si4 0.074753 0.780109 0.751825
Si Si5 0.319387 0.731764 0.062549
Si Si6 0.714564 0.772482 0.999154
Si Si7 0.523288 0.627055 0.383161
O O1 0.657480 0.007379 0.700647
O O2 0.919376 0.847375 0.622414
O O3 0.683771 0.787471 0.793994
O O4 0.688023 0.514081 0.686143
O O5 0.399999 0.752529 0.882653
O O6 0.121886 0.721067 0.933599
O O7 0.058133 0.766412 0.834735
O O8 0.841852 0.712153 0.000741
O O9 0.249895 0.757962 0.659683
O O10 0.991287 0.537048 0.753142
O O11 0.270245 0.470271 0.050857
O O12 0.245870 0.971919 0.054829
O O13 0.490682 0.768886 0.967507
O O14 0.545715 0.839630 0.089271
#
# Coordination Sequence:
#
# PCOD9247332 Si02
#       7
#     4   4   4   4   4   4   4
#     4  10  24  38  63  88 123 160 214 246 300 361
#     4  10  24  38  63  87 123 161 211 246 303 361
#     4  10  24  39  63  96 121 156 209 262 295 357
#     4  12  21  38  66  87 123 160 204 250 307 368
#     4  10  22  36  61  91 114 164 197 247 300 375
#     4  10  22  36  62  88 124 149 206 243 320 346
#     4  10  23  41  63  86 126 170 199 249 311 370
#
# _framework density 28.709638000000002
#
# number of rings (size 3 to 8) (size 9 to 14) (size 15 to 20)
#    1.714    0.000    2.857    0.857    8.000    0.571 
#    0.000    2.143    0.000    1.714    0.000    0.000 
#    0.000    0.000    0.000    0.000    0.000    0.000 
#
# Total GULP energy -156560.343459 kJ/mol
# GULP energy per Si atom -5591.440838 kJ/mol
# Density = 2.864429 g / cm^3
# Si number density = 28.709638 Si / 1000 Ang^3
#
#
#
# Elastic Constant Matrix: (Units=GPa)
#
#
# Indices 1 2 3 4 5 6 
#
# 1 114.1738 41.9934 12.3533 0.0000 -13.8405 0.0000
# 2 41.9934 195.9224 12.7171 0.0000 12.0493 0.0000
# 3 12.3533 12.7171 176.9068 0.0000 2.3229 0.0000
# 4 0.0000 0.0000 0.0000 14.8617 0.0000 23.0973
# 5 -13.8405 12.0493 2.3229 0.0000 52.2801 0.0000
# 6 0.0000 0.0000 0.0000 23.0973 0.0000 36.9552
#
#
#
# Elastic Compliance Matrix: (Units=1/GPa)
#
#
# Indices 1 2 3 4 5 6 
#
# 1 0.010065 -0.002318 -0.000579 0.000000 0.003224 0.000000
# 2 -0.002318 0.005734 -0.000225 0.000000 -0.001925 0.000000
# 3 -0.000579 -0.000225 0.005714 0.000000 -0.000355 0.000000
# 4 0.000000 0.000000 0.000000 2.348870 0.000000 -1.468063
# 5 0.003224 -0.001925 -0.000355 0.000000 0.020441 0.000000
# 6 0.000000 0.000000 0.000000 -1.468063 0.000000 0.944611
#
#
# Mechanical properties :
#
#
# Convention : Reuss Voigt Hill
#
# Bulk Modulus (GPa) = 65.49057 69.01449 67.25253
# Shear Modulus (GPa) = 1.49398 48.81533 25.15466
#
# Velocity S-wave (km/s) = 0.72215 4.12796 2.96324
# Velocity P-wave (km/s) = 4.85347 6.84186 5.93158
#
# Compressibility (1/GPa) = 0.01526937
#
# Stress axis : x y z
#
# Youngs Moduli (GPa) = 99.35814 174.40153 175.01080
#
# Poissons Ratio (x) = 0.40426 0.10125
# Poissons Ratio (y) = 0.23031 0.03939
# Poissons Ratio (z) = 0.05748 0.03925
#
# Static dielectric constant tensor:
#      x y z
#    x 2.258040 0.000000 -0.072470 
#    y 0.000000 2.281050 0.000000 
#    z -0.072470 0.000000 2.380600 
# 
# From -- ./inp_files/80089.got.cif
#   From: 2010.05.17/outbox.cif.g08.bks.cpg/sg14_41_cif.got.tgz:80089.got - 2010.06.03 17:49:19.
