data_PCOD9247896
_publ_section_title
;
Structure prediction by ZEFSAII (Michael W. Deem and Ramdas Pophale) SiO2 
 PCOD9247896
Probable space group: P 21/C
;
_chemical_formula_sum "Si O2"
_cell_formula_units_Z 28
_cell_length_a 9.284352
_cell_length_b 13.947097
_cell_length_c 11.624271
_cell_angle_alpha 90.000000
_cell_angle_beta 119.922558
_cell_angle_gamma 90.000000
_cell_volume 1304.578308
_symmetry_space_group_name_H-M "P 21/C"
_symmetry_group_IT_number 14
_symmetry_cell_setting 'monoclinic'
loop_
_space_group_symop_operation_xyz
x,y,z
-x,1/2+y,1/2-z
-x,-y,-z
x,1/2-y,1/2+z
loop_
_atom_site_type_symbol
_atom_site_label
_atom_site_fract_x
_atom_site_fract_y
_atom_site_fract_z
Si Si1 0.670228 0.042353 0.116010
Si Si2 0.223543 0.057356 0.182843
Si Si3 0.544279 0.686773 0.357904
Si Si4 0.348763 0.799629 0.567957
Si Si5 0.799987 0.499083 0.908218
Si Si6 0.355500 0.356557 0.971432
Si Si7 0.136183 0.613167 0.513823
O O1 0.613138 0.149095 0.132859
O O2 0.744699 0.987397 0.254295
O O3 0.803893 0.047915 0.069091
O O4 0.500000 0.000000 0.000000
O O5 0.374318 0.092205 0.163855
O O6 0.258381 0.099085 0.323428
O O7 0.198804 0.943649 0.152619
O O8 0.060972 0.109595 0.068717
O O9 0.480776 0.738810 0.216930
O O10 0.667919 0.750352 0.483440
O O11 0.258892 0.893381 0.580069
O O12 0.456513 0.839942 0.502897
O O13 0.214147 0.715358 0.515493
O O14 0.696412 0.572052 0.947155
O O15 0.000000 0.500000 0.000000
#
# Coordination Sequence:
#
# PCOD9247896 Si02
#       7
#     4   4   4   4   4   4   4
#     4  11  22  42  69  95 131 176 222 268 333 411
#     4  10  24  42  67  96 136 178 223 281 344 404
#     4  10  22  40  65  97 128 171 222 276 331 406
#     4  10  24  41  66  97 129 178 223 274 340 404
#     4  11  26  44  66 101 138 169 222 290 341 399
#     4  11  23  44  68  98 134 178 226 278 339 408
#     4  11  22  44  66  95 135 176 223 278 340 408
#
# _framework density 21.462873999999999
#
# number of rings (size 3 to 8) (size 9 to 14) (size 15 to 20)
#    0.000    1.429    2.857    1.286    4.000    1.143 
#    0.000    0.000    0.000    0.000    0.000    0.000 
#    0.000    0.000    0.000    0.000    0.000    0.000 
#
# Total GULP energy -155984.637338 kJ/mol
# GULP energy per Si atom -5570.879905 kJ/mol
# Density = 2.141402 g / cm^3
# Si number density = 21.462874 Si / 1000 Ang^3
#
#
#
# Elastic Constant Matrix: (Units=GPa)
#
#
# Indices 1 2 3 4 5 6 
#
# 1 75.9959 10.9637 26.1054 0.0000 8.2243 0.0000
# 2 10.9637 65.4054 25.5185 0.0000 1.5868 0.0000
# 3 26.1054 25.5185 94.0997 0.0000 -4.4506 0.0000
# 4 0.0000 0.0000 0.0000 26.7370 0.0000 1.9084
# 5 8.2243 1.5868 -4.4506 0.0000 30.4773 0.0000
# 6 0.0000 0.0000 0.0000 1.9084 0.0000 33.1787
#
#
#
# Elastic Compliance Matrix: (Units=1/GPa)
#
#
# Indices 1 2 3 4 5 6 
#
# 1 0.015234 -0.000788 -0.004234 0.000000 -0.004688 0.000000
# 2 -0.000788 0.017215 -0.004513 0.000000 -0.001343 0.000000
# 3 -0.004234 -0.004513 0.013182 0.000000 0.003303 0.000000
# 4 0.000000 0.000000 0.000000 0.037555 0.000000 -0.002160
# 5 -0.004688 -0.001343 0.003303 0.000000 0.034629 0.000000
# 6 0.000000 0.000000 0.000000 -0.002160 0.000000 0.030264
#
#
# Mechanical properties :
#
#
# Convention : Reuss Voigt Hill
#
# Bulk Modulus (GPa) = 37.65100 40.07515 38.86307
# Shear Modulus (GPa) = 28.40851 29.60615 29.00733
#
# Velocity S-wave (km/s) = 3.64209 3.71807 3.68028
# Velocity P-wave (km/s) = 5.93860 6.09463 6.01712
#
# Compressibility (1/GPa) = 0.02655972
#
# Stress axis : x y z
#
# Youngs Moduli (GPa) = 65.64183 58.08944 75.86146
#
# Poissons Ratio (x) = 0.04576 0.32123
# Poissons Ratio (y) = 0.05171 0.34239
# Poissons Ratio (z) = 0.27795 0.26218
#
# Static dielectric constant tensor:
#      x y z
#    x 1.786860 0.000000 -0.109130 
#    y 0.000000 1.855250 0.000000 
#    z -0.109130 0.000000 2.007560 
# 
# From -- ./inp_files/25383.got.cif
#   From: 2010.05.17/outbox.cif.g08.bks.cpg/sg14_13_cif.got.tgz:25383.got - 2010.06.03 17:49:19.
