data_PCOD9247869
_publ_section_title
;
Structure prediction by ZEFSAII (Michael W. Deem and Ramdas Pophale) SiO2 
 PCOD9247869
Probable space group: P 21/C
;
_chemical_formula_sum "Si O2"
_cell_formula_units_Z 30
_cell_length_a 13.776236
_cell_length_b 12.553320
_cell_length_c 24.023433
_cell_angle_alpha 90.000000
_cell_angle_beta 18.985554
_cell_angle_gamma 90.000000
_cell_volume 1351.599501
_symmetry_space_group_name_H-M "P 21/C"
_symmetry_group_IT_number 14
_symmetry_cell_setting 'monoclinic'
loop_
_space_group_symop_operation_xyz
x,y,z
-x,1/2+y,1/2-z
-x,-y,-z
x,1/2-y,1/2+z
loop_
_atom_site_type_symbol
_atom_site_label
_atom_site_fract_x
_atom_site_fract_y
_atom_site_fract_z
Si Si1 0.988621 0.510893 0.712581
Si Si2 0.134028 0.666266 0.004818
Si Si3 0.549399 0.885977 0.543470
Si Si4 0.000000 0.500000 0.500000
Si Si5 0.252929 0.267851 0.367000
Si Si6 0.726594 0.276202 0.458017
Si Si7 0.279921 0.180225 0.105055
Si Si8 0.313214 0.437047 0.904789
O O1 0.770690 0.440561 0.792956
O O2 0.126193 0.610861 0.605386
O O3 0.245254 0.437726 0.600114
O O4 0.780403 0.558950 0.874606
O O5 0.396586 0.707957 0.822420
O O6 0.101363 0.540409 0.016314
O O7 0.253054 0.696593 0.001470
O O8 0.844574 0.729976 0.142289
O O9 0.555560 0.761216 0.525430
O O10 0.651909 0.907515 0.549759
O O11 0.080213 0.375868 0.473258
O O12 0.362811 0.524822 0.293140
O O13 0.195741 0.165663 0.436056
O O14 0.430893 0.304215 0.583722
O O15 0.942733 0.221396 0.295495
#
# Coordination Sequence:
#
# PCOD9247869 Si02
#       8
#     4   4   4   2   4   4   4   4
#     4  10  22  40  64  94 141 171 222 272 330 402
#     4  11  24  41  69  99 128 173 226 276 340 401
#     4  10  23  39  64  98 129 179 210 274 338 394
#     4  10  24  44  70  98 130 176 228 280 334 404
#     4  11  23  46  65  99 132 169 225 282 336 400
#     4  11  23  38  68  96 131 175 220 273 330 408
#     4  11  21  42  61  96 136 169 220 269 328 404
#     4  11  24  43  70  94 139 173 228 280 345 403
#
# _framework density 22.195923000000001
#
# number of rings (size 3 to 8) (size 9 to 14) (size 15 to 20)
#    0.000    1.333    2.667    2.400    7.467    1.067 
#    0.000    0.000    0.000    0.000    0.000    0.000 
#    0.000    0.000    0.000    0.000    0.000    0.000 
#
# Total GULP energy -167110.824287 kJ/mol
# GULP energy per Si atom -5570.360810 kJ/mol
# Density = 2.214540 g / cm^3
# Si number density = 22.195923 Si / 1000 Ang^3
#
#
#
# Elastic Constant Matrix: (Units=GPa)
#
#
# Indices 1 2 3 4 5 6 
#
# 1 73.2099 25.8474 -9.0700 0.0000 -11.7670 0.0000
# 2 25.8474 151.8244 10.7676 0.0000 -0.9790 0.0000
# 3 -9.0700 10.7676 30.6160 0.0000 -12.7391 0.0000
# 4 0.0000 0.0000 0.0000 24.3528 0.0000 -8.3974
# 5 -11.7670 -0.9790 -12.7391 0.0000 16.1872 0.0000
# 6 0.0000 0.0000 0.0000 -8.3974 0.0000 33.3582
#
#
#
# Elastic Compliance Matrix: (Units=1/GPa)
#
#
# Indices 1 2 3 4 5 6 
#
# 1 0.024721 -0.005727 0.024788 0.000000 0.037132 0.000000
# 2 -0.005727 0.008134 -0.009048 0.000000 -0.010792 0.000000
# 3 0.024788 -0.009048 0.075026 0.000000 0.076517 0.000000
# 4 0.000000 0.000000 0.000000 0.044966 0.000000 0.011319
# 5 0.037132 -0.010792 0.076517 0.000000 0.148334 0.000000
# 6 0.000000 0.000000 0.000000 0.011319 0.000000 0.032827
#
#
# Mechanical properties :
#
#
# Convention : Reuss Voigt Hill
#
# Bulk Modulus (GPa) = 7.81820 34.52671 21.17245
# Shear Modulus (GPa) = 14.02064 29.98666 22.00365
#
# Velocity S-wave (km/s) = 2.51604 3.67958 3.15197
# Velocity P-wave (km/s) = 3.45986 5.80014 4.77558
#
# Compressibility (1/GPa) = 0.12790672
#
# Stress axis : x y z
#
# Youngs Moduli (GPa) = 40.45224 122.94598 13.32868
#
# Poissons Ratio (x) = 0.70413 -0.33039
# Poissons Ratio (y) = 0.23167 0.12059
# Poissons Ratio (z) = -1.00273 1.11237
#
# Static dielectric constant tensor:
#      x y z
#    x 1.809030 0.000000 0.002600 
#    y 0.000000 1.810720 0.000000 
#    z 0.002600 0.000000 1.818720 
# 
# From -- ./inp_files/77580.got.cif
#   From: 2010.05.17/outbox.cif.g08.bks.cpg/sg14_39_cif.got.tgz:77580.got - 2010.06.03 17:49:19.
