data_PCOD9247920
_publ_section_title
;
Structure prediction by ZEFSAII (Michael W. Deem and Ramdas Pophale) SiO2 
 PCOD9247920
Probable space group: P 21/C
;
_chemical_formula_sum "Si O2"
_cell_formula_units_Z 28
_cell_length_a 9.895792
_cell_length_b 9.650385
_cell_length_c 12.404195
_cell_angle_alpha 90.000000
_cell_angle_beta 79.656976
_cell_angle_gamma 90.000000
_cell_volume 1165.329518
_symmetry_space_group_name_H-M "P 21/C"
_symmetry_group_IT_number 14
_symmetry_cell_setting 'monoclinic'
loop_
_space_group_symop_operation_xyz
x,y,z
-x,1/2+y,1/2-z
-x,-y,-z
x,1/2-y,1/2+z
loop_
_atom_site_type_symbol
_atom_site_label
_atom_site_fract_x
_atom_site_fract_y
_atom_site_fract_z
Si Si1 0.754155 0.861048 0.951134
Si Si2 0.806430 0.999805 0.589920
Si Si3 0.181023 0.612698 0.689574
Si Si4 0.492815 0.076560 0.320185
Si Si5 0.493417 0.882507 0.121668
Si Si6 0.904877 0.806252 0.141678
Si Si7 0.230064 0.447722 0.132765
O O1 0.734440 0.704189 0.917849
O O2 0.819500 0.953280 0.849040
O O3 0.602623 0.904463 0.011717
O O4 0.855706 0.874772 0.037630
O O5 0.639700 0.996850 0.608603
O O6 0.851377 0.850388 0.630958
O O7 0.851340 0.012418 0.458554
O O8 0.839121 0.112640 0.677983
O O9 0.333411 0.652219 0.629130
O O10 0.065319 0.695584 0.644710
O O11 0.460064 0.239803 0.325367
O O12 0.501225 0.012399 0.200208
O O13 0.634546 0.034370 0.357091
O O14 0.847423 0.904696 0.246317
#
# Coordination Sequence:
#
# PCOD9247920 Si02
#       7
#     4   4   4   4   4   4   4
#     4  11  22  45  71  98 132 187 231 286 345 411
#     4  10  22  40  66  96 134 180 230 279 347 397
#     4  11  25  42  66 101 141 175 232 291 335 425
#     4  11  21  43  69 105 134 183 233 294 335 413
#     4  11  24  42  71 104 138 178 239 284 350 400
#     4  11  22  43  65  96 137 186 220 279 354 409
#     4  11  21  39  76  94 136 179 230 287 348 413
#
# _framework density 24.027539999999998
#
# number of rings (size 3 to 8) (size 9 to 14) (size 15 to 20)
#    0.000    1.143    5.714    1.286    2.000    1.714 
#    0.000    1.429    0.000    0.000    0.000    0.000 
#    0.000    0.000    0.000    0.000    0.000    0.000 
#
# Total GULP energy -156433.633407 kJ/mol
# GULP energy per Si atom -5586.915479 kJ/mol
# Density = 2.397285 g / cm^3
# Si number density = 24.027540 Si / 1000 Ang^3
#
#
#
# Elastic Constant Matrix: (Units=GPa)
#
#
# Indices 1 2 3 4 5 6 
#
# 1 119.5596 9.9403 26.4506 0.0000 26.8482 0.0000
# 2 9.9403 49.5708 21.8780 0.0000 3.4051 0.0000
# 3 26.4506 21.8780 119.6005 0.0000 11.4638 0.0000
# 4 0.0000 0.0000 0.0000 25.3604 0.0000 3.2424
# 5 26.8482 3.4051 11.4638 0.0000 24.9308 0.0000
# 6 0.0000 0.0000 0.0000 3.2424 0.0000 26.7664
#
#
#
# Elastic Compliance Matrix: (Units=1/GPa)
#
#
# Indices 1 2 3 4 5 6 
#
# 1 0.011287 -0.000935 -0.001227 0.000000 -0.011464 0.000000
# 2 -0.000935 0.022057 -0.003803 0.000000 -0.000257 0.000000
# 3 -0.001227 -0.003803 0.009574 0.000000 -0.002562 0.000000
# 4 0.000000 0.000000 0.000000 0.040052 0.000000 -0.004852
# 5 -0.011464 -0.000257 -0.002562 0.000000 0.053670 0.000000
# 6 0.000000 0.000000 0.000000 -0.004852 0.000000 0.037948
#
#
# Mechanical properties :
#
#
# Convention : Reuss Voigt Hill
#
# Bulk Modulus (GPa) = 32.26965 45.02988 38.64976
# Shear Modulus (GPa) = 25.40053 30.77565 28.08809
#
# Velocity S-wave (km/s) = 3.25490 3.58278 3.42277
# Velocity P-wave (km/s) = 5.25217 5.99138 5.63391
#
# Compressibility (1/GPa) = 0.03098887
#
# Stress axis : x y z
#
# Youngs Moduli (GPa) = 88.59449 45.33727 104.45250
#
# Poissons Ratio (x) = 0.04237 0.12811
# Poissons Ratio (y) = 0.08280 0.39728
# Poissons Ratio (z) = 0.10866 0.17244
#
# Static dielectric constant tensor:
#      x y z
#    x 1.965410 0.000000 -0.017340 
#    y 0.000000 1.913180 0.000000 
#    z -0.017340 0.000000 1.969360 
# 
# From -- ./inp_files/28610.got.cif
#   From: 2010.05.17/outbox.cif.g08.bks.cpg/sg14_15_cif.got.tgz:28610.got - 2010.06.03 17:49:19.
