data_PCOD9247314
_publ_section_title
;
Structure prediction by ZEFSAII (Michael W. Deem and Ramdas Pophale) SiO2 
 PCOD9247314
Probable space group: P 21/C
;
_chemical_formula_sum "Si O2"
_cell_formula_units_Z 30
_cell_length_a 22.660710
_cell_length_b 5.378224
_cell_length_c 15.202088
_cell_angle_alpha 90.000000
_cell_angle_beta 37.398752
_cell_angle_gamma 90.000000
_cell_volume 1125.280469
_symmetry_space_group_name_H-M "P 21/C"
_symmetry_group_IT_number 14
_symmetry_cell_setting 'monoclinic'
loop_
_space_group_symop_operation_xyz
x,y,z
-x,1/2+y,1/2-z
-x,-y,-z
x,1/2-y,1/2+z
loop_
_atom_site_type_symbol
_atom_site_label
_atom_site_fract_x
_atom_site_fract_y
_atom_site_fract_z
Si Si1 0.181049 0.326545 0.404778
Si Si2 0.344006 0.126750 0.105225
Si Si3 0.500000 0.500000 0.500000
Si Si4 0.170206 0.825147 0.523653
Si Si5 0.495367 0.985024 0.370257
Si Si6 0.045579 0.767613 0.877083
Si Si7 0.015551 0.271043 0.855718
Si Si8 0.341349 0.709788 0.442019
O O1 0.257914 0.300616 0.235663
O O2 0.197931 0.584404 0.432586
O O3 0.070590 0.292819 0.502490
O O4 0.190734 0.094208 0.458293
O O5 0.379581 0.953657 0.142507
O O6 0.451762 0.264129 0.970835
O O7 0.321444 0.976476 0.045941
O O8 0.508552 0.737093 0.411384
O O9 0.051655 0.794161 0.650408
O O10 0.241832 0.803824 0.520516
O O11 0.410781 0.924786 0.399698
O O12 0.592672 0.065964 0.206879
O O13 0.078292 0.517985 0.791499
O O14 0.078477 0.024960 0.795190
O O15 0.052360 0.730477 0.974140
#
# Coordination Sequence:
#
# PCOD9247314 Si02
#       8
#     4   4   2   4   4   4   4   4
#     4  10  22  36  57  88 117 146 193 237 294 332
#     4  11  24  38  56  81 110 154 189 245 290 351
#     4  10  24  38  60  80 106 142 194 250 286 342
#     4  10  22  36  59  87 114 150 189 244 280 346
#     4  11  23  41  57  80 108 154 197 240 296 344
#     4   8  14  28  50  79 113 142 174 232 275 338
#     4   8  14  28  50  81 110 140 183 222 284 324
#     4  11  24  39  58  78 113 153 197 237 293 356
#
# _framework density 26.660018999999998
#
# number of rings (size 3 to 8) (size 9 to 14) (size 15 to 20)
#    0.000    2.133    1.333    1.200    7.467    0.000 
#    0.000    0.000    0.000    0.000    3.467    0.000 
#    0.000    0.000    0.000    0.000    0.000    0.000 
#
# Total GULP energy -167436.325820 kJ/mol
# GULP energy per Si atom -5581.210861 kJ/mol
# Density = 2.659934 g / cm^3
# Si number density = 26.660019 Si / 1000 Ang^3
#
#
#
# Elastic Constant Matrix: (Units=GPa)
#
#
# Indices 1 2 3 4 5 6 
#
# 1 184.5752 52.3976 44.5716 0.0000 13.9243 0.0000
# 2 52.3976 176.5839 18.7350 0.0000 3.5843 0.0000
# 3 44.5716 18.7350 56.4067 0.0000 -23.6776 0.0000
# 4 0.0000 0.0000 0.0000 29.7915 0.0000 6.3927
# 5 13.9243 3.5843 -23.6776 0.0000 28.2269 0.0000
# 6 0.0000 0.0000 0.0000 6.3927 0.0000 36.7174
#
#
#
# Elastic Compliance Matrix: (Units=1/GPa)
#
#
# Indices 1 2 3 4 5 6 
#
# 1 0.011196 -0.001178 -0.016533 0.000000 -0.019242 0.000000
# 2 -0.001178 0.006252 -0.001907 0.000000 -0.001812 0.000000
# 3 -0.016533 -0.001907 0.053946 0.000000 0.053649 0.000000
# 4 0.000000 0.000000 0.000000 0.034869 0.000000 -0.006071
# 5 -0.019242 -0.001812 0.053649 0.000000 0.090151 0.000000
# 6 0.000000 0.000000 0.000000 -0.006071 0.000000 0.028292
#
#
# Mechanical properties :
#
#
# Convention : Reuss Voigt Hill
#
# Bulk Modulus (GPa) = 31.09538 72.10824 51.60181
# Shear Modulus (GPa) = 18.20432 39.07127 28.63780
#
# Velocity S-wave (km/s) = 2.61594 3.83239 3.28103
# Velocity P-wave (km/s) = 4.56215 6.83293 5.80957
#
# Compressibility (1/GPa) = 0.03215912
#
# Stress axis : x y z
#
# Youngs Moduli (GPa) = 89.31667 159.96116 18.53717
#
# Poissons Ratio (x) = 0.18836 0.30647
# Poissons Ratio (y) = 0.10518 0.03534
# Poissons Ratio (z) = 1.47666 0.30499
#
# Static dielectric constant tensor:
#      x y z
#    x -7.406100 0.000000 -4.984320 
#    y 0.000000 5.032400 0.000000 
#    z -4.984320 0.000000 -0.518110 
# 
# From -- ./inp_files/50988.got.cif
#   From: 2010.05.17/outbox.cif.g08.bks.cpg/sg14_26_cif.got.tgz:50988.got - 2010.06.03 17:49:19.
