data_PCOD9247816
_publ_section_title
;
Structure prediction by ZEFSAII (Michael W. Deem and Ramdas Pophale) SiO2 
 PCOD9247816
Probable space group: P 21/C
;
_chemical_formula_sum "Si O2"
_cell_formula_units_Z 32
_cell_length_a 26.498493
_cell_length_b 9.161388
_cell_length_c 20.077769
_cell_angle_alpha 90.000000
_cell_angle_beta 18.380006
_cell_angle_gamma 90.000000
_cell_volume 1536.903243
_symmetry_space_group_name_H-M "P 21/C"
_symmetry_group_IT_number 14
_symmetry_cell_setting 'monoclinic'
loop_
_space_group_symop_operation_xyz
x,y,z
-x,1/2+y,1/2-z
-x,-y,-z
x,1/2-y,1/2+z
loop_
_atom_site_type_symbol
_atom_site_label
_atom_site_fract_x
_atom_site_fract_y
_atom_site_fract_z
Si Si1 0.400878 0.292790 0.810445
Si Si2 0.388468 0.993828 0.444280
Si Si3 0.022017 0.935388 0.899274
Si Si4 0.183827 0.287050 0.902952
Si Si5 0.619104 0.492671 0.288901
Si Si6 0.154170 0.606280 0.498433
Si Si7 0.508744 0.816014 0.561081
Si Si8 0.916128 0.657898 0.329647
O O1 0.510923 0.151577 0.670585
O O2 0.446481 0.403053 0.811840
O O3 0.406206 0.385157 0.735669
O O4 0.221771 0.227230 0.043830
O O5 0.209718 0.943817 0.650458
O O6 0.404800 0.092863 0.489665
O O7 0.932450 0.035956 0.956972
O O8 0.000000 0.000000 0.000000
O O9 0.945892 0.773560 0.986873
O O10 0.216913 0.456096 0.879160
O O11 0.354381 0.220142 0.664509
O O12 0.126133 0.219914 0.044355
O O13 0.500000 0.500000 0.500000
O O14 0.570542 0.338536 0.317116
O O15 0.344561 0.601846 0.246779
O O16 0.107060 0.512774 0.623933
O O17 0.081962 0.767838 0.600616
#
# Coordination Sequence:
#
# PCOD9247816 Si02
#       8
#     4   4   4   4   4   4   4   4
#     4  11  23  43  63  99 134 174 225 273 344 409
#     4  12  24  41  70  99 140 181 222 287 348 415
#     4  11  23  41  65  98 138 174 217 283 343 400
#     4   9  21  39  65  92 132 170 227 271 337 401
#     4   9  21  41  65  95 132 174 224 284 327 403
#     4  11  24  40  69  99 128 174 227 277 335 402
#     4  11  22  41  70  98 127 181 230 277 344 406
#     4  10  22  40  62  96 130 166 216 282 326 395
#
# _framework density 20.821089000000001
#
# number of rings (size 3 to 8) (size 9 to 14) (size 15 to 20)
#    0.000    1.500    3.750    0.750    3.500    7.000 
#    0.000    0.000    0.000    2.250    0.000    0.000 
#    0.000    0.000    0.000    0.000    0.000    0.000 
#
# Total GULP energy -178287.960618 kJ/mol
# GULP energy per Si atom -5571.498769 kJ/mol
# Density = 2.077370 g / cm^3
# Si number density = 20.821089 Si / 1000 Ang^3
#
#
#
# Elastic Constant Matrix: (Units=GPa)
#
#
# Indices 1 2 3 4 5 6 
#
# 1 60.9771 22.6820 17.7441 0.0000 -10.6289 0.0000
# 2 22.6820 127.1197 23.2627 0.0000 -9.4729 0.0000
# 3 17.7441 23.2627 81.0198 0.0000 -13.6907 0.0000
# 4 0.0000 0.0000 0.0000 36.1292 0.0000 -6.6576
# 5 -10.6289 -9.4729 -13.6907 0.0000 32.2829 0.0000
# 6 0.0000 0.0000 0.0000 -6.6576 0.0000 33.8750
#
#
#
# Elastic Compliance Matrix: (Units=1/GPa)
#
#
# Indices 1 2 3 4 5 6 
#
# 1 0.018883 -0.002558 -0.002669 0.000000 0.004335 0.000000
# 2 -0.002558 0.008721 -0.001781 0.000000 0.000961 0.000000
# 3 -0.002669 -0.001781 0.014221 0.000000 0.004630 0.000000
# 4 0.000000 0.000000 0.000000 0.028718 0.000000 0.005644
# 5 0.004335 0.000961 0.004630 0.000000 0.034649 0.000000
# 6 0.000000 0.000000 0.000000 0.005644 0.000000 0.030630
#
#
# Mechanical properties :
#
#
# Convention : Reuss Voigt Hill
#
# Bulk Modulus (GPa) = 35.95950 44.05492 40.00721
# Shear Modulus (GPa) = 31.42541 34.15262 32.78902
#
# Velocity S-wave (km/s) = 3.88919 4.05444 3.97268
# Velocity P-wave (km/s) = 6.12176 6.56679 6.34818
#
# Compressibility (1/GPa) = 0.02780906
#
# Stress axis : x y z
#
# Youngs Moduli (GPa) = 52.95692 114.67077 70.31927
#
# Poissons Ratio (x) = 0.29332 0.18766
# Poissons Ratio (y) = 0.13546 0.12525
# Poissons Ratio (z) = 0.14132 0.20426
#
# Static dielectric constant tensor:
#      x y z
#    x 1.730050 0.000000 -0.022500 
#    y 0.000000 1.864200 0.000000 
#    z -0.022500 0.000000 1.776280 
# 
# From -- ./inp_files/70498.got.cif
#   From: 2010.05.17/outbox.cif.g08.bks.cpg/sg14_36_cif.got.tgz:70498.got - 2010.06.03 17:49:19.
