data_PCOD9247982
_publ_section_title
;
Structure prediction by ZEFSAII (Michael W. Deem and Ramdas Pophale) SiO2 
 PCOD9247982
Probable space group: P 21/C
;
_chemical_formula_sum "Si O2"
_cell_formula_units_Z 20
_cell_length_a 9.383220
_cell_length_b 5.077015
_cell_length_c 24.023631
_cell_angle_alpha 90.000000
_cell_angle_beta 131.818809
_cell_angle_gamma 90.000000
_cell_volume 852.913809
_symmetry_space_group_name_H-M "P 21/C"
_symmetry_group_IT_number 14
_symmetry_cell_setting 'monoclinic'
loop_
_space_group_symop_operation_xyz
x,y,z
-x,1/2+y,1/2-z
-x,-y,-z
x,1/2-y,1/2+z
loop_
_atom_site_type_symbol
_atom_site_label
_atom_site_fract_x
_atom_site_fract_y
_atom_site_fract_z
Si Si1 0.177459 0.456633 0.343920
Si Si2 0.014758 0.467719 0.177568
Si Si3 0.543479 0.249540 0.473024
Si Si4 0.380745 0.920217 0.704515
Si Si5 0.139319 0.747330 0.034871
O O1 0.082303 0.481908 0.259058
O O2 0.376981 0.310882 0.384571
O O3 0.144800 0.740119 0.363514
O O4 0.072715 0.252175 0.357515
O O5 0.201567 0.441161 0.189059
O O6 0.500000 0.500000 0.500000
O O7 0.737707 0.244106 0.489573
O O8 0.500000 0.000000 0.500000
O O9 0.469367 0.666102 0.760716
O O10 0.290433 0.795816 0.624778
O O11 0.000000 0.500000 0.000000
O O12 0.000000 0.000000 0.000000
#
# Coordination Sequence:
#
# PCOD9247982 Si02
#       5
#     4   4   4   4   4
#     4  10  22  41  66 101 140 175 242 295 360 423
#     4  10  22  40  71 101 134 183 234 306 357 434
#     4  12  27  45  73 103 147 196 246 294 363 444
#     4  12  26  46  76 104 147 194 251 302 380 444
#     4  12  29  50  76 112 155 199 251 311 379 453
#
# _framework density 23.449028999999999
#
# number of rings (size 3 to 8) (size 9 to 14) (size 15 to 20)
#    0.000    0.800    0.000    6.000    8.400    4.800 
#    0.000    0.000    0.000    0.000    0.000    0.000 
#    0.000    0.000    0.000    0.000    0.000    0.000 
#
# Total GULP energy -111693.386539 kJ/mol
# GULP energy per Si atom -5584.669327 kJ/mol
# Density = 2.339566 g / cm^3
# Si number density = 23.449029 Si / 1000 Ang^3
#
#
#
# Elastic Constant Matrix: (Units=GPa)
#
#
# Indices 1 2 3 4 5 6 
#
# 1 183.4308 72.4381 34.8528 0.0000 13.6960 0.0000
# 2 72.4381 202.0748 55.2887 0.0000 5.1399 0.0000
# 3 34.8528 55.2887 101.6851 0.0000 -0.5218 0.0000
# 4 0.0000 0.0000 0.0000 40.4227 0.0000 13.3285
# 5 13.6960 5.1399 -0.5218 0.0000 31.9586 0.0000
# 6 0.0000 0.0000 0.0000 13.3285 0.0000 34.4059
#
#
#
# Elastic Compliance Matrix: (Units=1/GPa)
#
#
# Indices 1 2 3 4 5 6 
#
# 1 0.006659 -0.001990 -0.001213 0.000000 -0.002553 0.000000
# 2 -0.001990 0.006440 -0.002820 0.000000 -0.000229 0.000000
# 3 -0.001213 -0.002820 0.011790 0.000000 0.001166 0.000000
# 4 0.000000 0.000000 0.000000 0.028361 0.000000 -0.010987
# 5 -0.002553 -0.000229 0.001166 0.000000 0.032441 0.000000
# 6 0.000000 0.000000 0.000000 -0.010987 0.000000 0.033321
#
#
# Mechanical properties :
#
#
# Convention : Reuss Voigt Hill
#
# Bulk Modulus (GPa) = 77.87980 90.26112 84.07046
# Shear Modulus (GPa) = 36.94439 42.99818 39.97128
#
# Velocity S-wave (km/s) = 3.97359 4.28680 4.13316
# Velocity P-wave (km/s) = 7.37136 7.94218 7.66209
#
# Compressibility (1/GPa) = 0.01284030
#
# Stress axis : x y z
#
# Youngs Moduli (GPa) = 150.17900 155.29062 84.81990
#
# Poissons Ratio (x) = 0.30903 0.10292
# Poissons Ratio (y) = 0.29886 0.23923
# Poissons Ratio (z) = 0.18222 0.43799
#
# Static dielectric constant tensor:
#      x y z
#    x 1.885020 0.000000 0.186530 
#    y 0.000000 1.875890 0.000000 
#    z 0.186530 0.000000 2.455840 
# 
# From -- ./inp_files/76120.got.cif
#   From: 2010.05.17/outbox.cif.g08.bks.cpg/sg14_39_cif.got.tgz:76120.got - 2010.06.03 17:49:19.
