data_PCOD9247354
_publ_section_title
;
Structure prediction by ZEFSAII (Michael W. Deem and Ramdas Pophale) SiO2 
 PCOD9247354
Probable space group: P 21/C
;
_chemical_formula_sum "Si O2"
_cell_formula_units_Z 22
_cell_length_a 7.177706
_cell_length_b 16.348247
_cell_length_c 8.990315
_cell_angle_alpha 90.000000
_cell_angle_beta 129.792951
_cell_angle_gamma 90.000000
_cell_volume 810.583568
_symmetry_space_group_name_H-M "P 21/C"
_symmetry_group_IT_number 14
_symmetry_cell_setting 'monoclinic'
loop_
_space_group_symop_operation_xyz
x,y,z
-x,1/2+y,1/2-z
-x,-y,-z
x,1/2-y,1/2+z
loop_
_atom_site_type_symbol
_atom_site_label
_atom_site_fract_x
_atom_site_fract_y
_atom_site_fract_z
Si Si1 0.918407 0.694193 0.585283
Si Si2 0.370193 0.154630 0.632032
Si Si3 0.102516 0.450823 0.225109
Si Si4 0.500000 0.000000 0.500000
Si Si5 0.756405 0.246390 0.990773
Si Si6 0.361280 0.575680 0.169751
O O1 0.720196 0.764873 0.498055
O O2 0.844565 0.605633 0.607982
O O3 0.012446 0.703152 0.467122
O O4 0.147618 0.722838 0.802855
O O5 0.153136 0.109206 0.609763
O O6 0.480945 0.091648 0.575002
O O7 0.545617 0.181892 0.855818
O O8 0.261696 0.530008 0.265147
O O9 0.810936 0.465111 0.058352
O O10 0.401009 0.041650 0.284697
O O11 0.672179 0.328601 0.859754
#
# Coordination Sequence:
#
# PCOD9247354 Si02
#       6
#     4   4   4   2   4   4
#     4  11  22  40  61  95 124 172 207 271 318 384
#     4  11  22  40  65  92 128 168 215 266 316 390
#     4   9  19  36  62  86 125 166 208 254 324 371
#     4  10  22  36  68  92 126 176 214 252 338 380
#     4  11  24  39  67  95 129 166 221 260 326 381
#     4   9  18  38  58  93 123 169 209 263 309 389
#
# _framework density 27.140940000000001
#
# number of rings (size 3 to 8) (size 9 to 14) (size 15 to 20)
#    0.000    1.818    3.636    2.182    5.091    0.000 
#    0.000    1.818    0.000    0.000    0.000    0.000 
#    0.000    0.000    0.000    0.000    0.000    0.000 
#
# Total GULP energy -122644.320821 kJ/mol
# GULP energy per Si atom -5574.741855 kJ/mol
# Density = 2.707917 g / cm^3
# Si number density = 27.140940 Si / 1000 Ang^3
#
#
#
# Elastic Constant Matrix: (Units=GPa)
#
#
# Indices 1 2 3 4 5 6 
#
# 1 87.6591 33.5168 18.2707 0.0000 -11.1571 0.0000
# 2 33.5168 73.7830 38.7873 0.0000 15.2086 0.0000
# 3 18.2707 38.7873 89.8038 0.0000 2.7772 0.0000
# 4 0.0000 0.0000 0.0000 36.6429 0.0000 -16.3920
# 5 -11.1571 15.2086 2.7772 0.0000 25.1253 0.0000
# 6 0.0000 0.0000 0.0000 -16.3920 0.0000 46.4663
#
#
#
# Elastic Compliance Matrix: (Units=1/GPa)
#
#
# Indices 1 2 3 4 5 6 
#
# 1 0.017422 -0.011398 0.000929 0.000000 0.014533 0.000000
# 2 -0.011398 0.027786 -0.009036 0.000000 -0.020882 0.000000
# 3 0.000929 -0.009036 0.014718 0.000000 0.004255 0.000000
# 4 0.000000 0.000000 0.000000 0.032404 0.000000 0.011431
# 5 0.014533 -0.020882 0.004255 0.000000 0.058424 0.000000
# 6 0.000000 0.000000 0.000000 0.011431 0.000000 0.025554
#
#
# Mechanical properties :
#
#
# Convention : Reuss Voigt Hill
#
# Bulk Modulus (GPa) = 47.81368 48.04395 47.92882
# Shear Modulus (GPa) = 22.49323 32.35831 27.42577
#
# Velocity S-wave (km/s) = 2.88194 3.45662 3.18228
# Velocity P-wave (km/s) = 5.35996 5.80267 5.58570
#
# Compressibility (1/GPa) = 0.02091452
#
# Stress axis : x y z
#
# Youngs Moduli (GPa) = 57.39815 35.98989 67.94593
#
# Poissons Ratio (x) = 0.41022 -0.06313
# Poissons Ratio (y) = 0.65424 0.61397
# Poissons Ratio (z) = -0.05333 0.32521
#
# Static dielectric constant tensor:
#      x y z
#    x 3.522810 0.000000 0.010920 
#    y 0.000000 2.205140 0.000000 
#    z 0.010920 0.000000 2.201560 
# 
# From -- ./inp_files/9330.got.cif
#   From: 2010.05.17/outbox.cif.g08.bks.cpg/sg14_5_cif.got.tgz:9330.got - 2010.06.03 17:49:19.
