data_PCOD9247988
_publ_section_title
;
Structure prediction by ZEFSAII (Michael W. Deem and Ramdas Pophale) SiO2 
 PCOD9247988
Probable space group: P 21/C
;
_chemical_formula_sum "Si O2"
_cell_formula_units_Z 30
_cell_length_a 8.670006
_cell_length_b 12.716185
_cell_length_c 15.242062
_cell_angle_alpha 90.000000
_cell_angle_beta 116.898959
_cell_angle_gamma 90.000000
_cell_volume 1498.615525
_symmetry_space_group_name_H-M "P 21/C"
_symmetry_group_IT_number 14
_symmetry_cell_setting 'monoclinic'
loop_
_space_group_symop_operation_xyz
x,y,z
-x,1/2+y,1/2-z
-x,-y,-z
x,1/2-y,1/2+z
loop_
_atom_site_type_symbol
_atom_site_label
_atom_site_fract_x
_atom_site_fract_y
_atom_site_fract_z
Si Si1 0.000000 0.500000 0.500000
Si Si2 0.714306 0.293694 0.625823
Si Si3 0.643839 0.119705 0.914807
Si Si4 0.864530 0.916051 0.429501
Si Si5 0.927067 0.793933 0.863013
Si Si6 0.379556 0.534020 0.258984
Si Si7 0.437868 0.315835 0.819583
Si Si8 0.552705 0.616358 0.984104
O O1 0.823063 0.432232 0.432770
O O2 0.939828 0.596390 0.417486
O O3 0.657290 0.355434 0.522063
O O4 0.672820 0.364655 0.698396
O O5 0.605500 0.185321 0.596048
O O6 0.920556 0.283815 0.668975
O O7 0.587979 0.228132 0.854186
O O8 0.493710 0.038632 0.851285
O O9 0.955965 0.805746 0.433383
O O10 0.710186 0.891768 0.457441
O O11 0.777966 0.967206 0.320794
O O12 0.000000 0.000000 0.500000
O O13 0.735120 0.783336 0.775062
O O14 0.490059 0.577771 0.205289
O O15 0.394770 0.328700 0.910948
O O16 0.500000 0.500000 0.000000
#
# Coordination Sequence:
#
# PCOD9247988 Si02
#       8
#     2   4   4   4   4   4   4   4
#     4  10  22  40  72  96 142 172 234 290 344 406
#     4  10  25  42  68  98 141 172 234 286 351 415
#     4  10  22  43  66 102 135 180 223 291 349 416
#     4  12  27  44  71  98 142 182 237 285 353 417
#     4  11  23  46  64 103 135 181 231 290 340 426
#     4  12  23  43  69  99 132 187 228 284 350 422
#     4  11  23  41  69  96 139 178 233 279 354 417
#     4  11  23  45  68  98 135 183 220 293 348 415
#
# _framework density 20.018478000000002
#
# number of rings (size 3 to 8) (size 9 to 14) (size 15 to 20)
#    0.000    1.067    4.000    2.000    5.600    0.000 
#    2.400    1.333    0.000    0.000    0.000    0.000 
#    0.000    0.000    0.000    0.000    0.000    0.000 
#
# Total GULP energy -167030.890529 kJ/mol
# GULP energy per Si atom -5567.696351 kJ/mol
# Density = 1.997292 g / cm^3
# Si number density = 20.018478 Si / 1000 Ang^3
#
#
#
# Elastic Constant Matrix: (Units=GPa)
#
#
# Indices 1 2 3 4 5 6 
#
# 1 40.3510 19.4213 20.1802 0.0000 13.8184 0.0000
# 2 19.4213 91.8313 19.2853 0.0000 5.2503 0.0000
# 3 20.1802 19.2853 51.7233 0.0000 18.9883 0.0000
# 4 0.0000 0.0000 0.0000 27.3365 0.0000 0.1491
# 5 13.8184 5.2503 18.9883 0.0000 35.0273 0.0000
# 6 0.0000 0.0000 0.0000 0.1491 0.0000 36.1375
#
#
#
# Elastic Compliance Matrix: (Units=1/GPa)
#
#
# Indices 1 2 3 4 5 6 
#
# 1 0.034225 -0.004987 -0.008504 0.000000 -0.008144 0.000000
# 2 -0.004987 0.012558 -0.003456 0.000000 0.001958 0.000000
# 3 -0.008504 -0.003456 0.028113 0.000000 -0.011367 0.000000
# 4 0.000000 0.000000 0.000000 0.036582 0.000000 -0.000151
# 5 -0.008144 0.001958 -0.011367 0.000000 0.037631 0.000000
# 6 0.000000 0.000000 0.000000 -0.000151 0.000000 0.027673
#
#
# Mechanical properties :
#
#
# Convention : Reuss Voigt Hill
#
# Bulk Modulus (GPa) = 24.38817 33.51992 28.95404
# Shear Modulus (GPa) = 22.28751 28.03484 25.16117
#
# Velocity S-wave (km/s) = 3.34030 3.74632 3.54912
# Velocity P-wave (km/s) = 5.20443 5.95769 5.59375
#
# Compressibility (1/GPa) = 0.04100349
#
# Stress axis : x y z
#
# Youngs Moduli (GPa) = 29.21871 79.63118 35.57073
#
# Poissons Ratio (x) = 0.39709 0.30249
# Poissons Ratio (y) = 0.14570 0.12292
# Poissons Ratio (z) = 0.24847 0.27517
#
# Static dielectric constant tensor:
#      x y z
#    x 1.708310 0.000000 -0.013240 
#    y 0.000000 1.714550 0.000000 
#    z -0.013240 0.000000 1.704680 
# 
# From -- ./inp_files/40444.got.cif
#   From: 2010.05.17/outbox.cif.g08.bks.cpg/sg14_21_cif.got.tgz:40444.got - 2010.06.03 17:49:19.
