data_PCOD9247539
_publ_section_title
;
Structure prediction by ZEFSAII (Michael W. Deem and Ramdas Pophale) SiO2 
 PCOD9247539
Probable space group: P 21/C
;
_chemical_formula_sum "Si O2"
_cell_formula_units_Z 26
_cell_length_a 7.630088
_cell_length_b 15.559386
_cell_length_c 13.545423
_cell_angle_alpha 90.000000
_cell_angle_beta 41.933488
_cell_angle_gamma 90.000000
_cell_volume 1074.644690
_symmetry_space_group_name_H-M "P 21/C"
_symmetry_group_IT_number 14
_symmetry_cell_setting 'monoclinic'
loop_
_space_group_symop_operation_xyz
x,y,z
-x,1/2+y,1/2-z
-x,-y,-z
x,1/2-y,1/2+z
loop_
_atom_site_type_symbol
_atom_site_label
_atom_site_fract_x
_atom_site_fract_y
_atom_site_fract_z
Si Si1 0.500000 0.000000 0.000000
Si Si2 0.311976 0.319970 0.537591
Si Si3 0.019303 0.201239 0.367630
Si Si4 0.394116 0.443228 0.759753
Si Si5 0.020414 0.879038 0.008407
Si Si6 0.299144 0.483803 0.208876
Si Si7 0.533678 0.354407 0.971910
O O1 0.486659 0.893500 0.013234
O O2 0.628141 0.990841 0.835042
O O3 0.142493 0.297811 0.705958
O O4 0.145881 0.366892 0.521870
O O5 0.432670 0.228320 0.455252
O O6 0.163755 0.125193 0.365551
O O7 0.046297 0.292449 0.406112
O O8 0.713163 0.183236 0.483016
O O9 0.440474 0.507734 0.831751
O O10 0.673191 0.392347 0.639987
O O11 0.927462 0.955913 0.120605
O O12 0.290853 0.576384 0.160556
O O13 0.317879 0.413685 0.115040
#
# Coordination Sequence:
#
# PCOD9247539 Si02
#       7
#     2   4   4   4   4   4   4
#     4  10  22  38  66  98 130 162 234 270 340 386
#     4  11  23  44  67 101 129 182 225 288 338 406
#     4  11  24  44  68 100 140 175 228 289 339 416
#     4  11  24  42  69 100 134 182 228 286 337 408
#     4  12  24  42  72 101 137 178 235 282 347 403
#     4  11  24  45  69  99 138 182 228 285 341 414
#     4  11  25  47  68  99 142 181 227 280 358 401
#
# _framework density 24.194046
#
# number of rings (size 3 to 8) (size 9 to 14) (size 15 to 20)
#    0.000    0.923    3.077    4.154    4.308    0.615 
#    0.000    0.000    0.000    0.000    0.000    0.000 
#    0.000    0.000    0.000    0.000    0.000    0.000 
#
# Total GULP energy -144907.634056 kJ/mol
# GULP energy per Si atom -5573.370541 kJ/mol
# Density = 2.413898 g / cm^3
# Si number density = 24.194046 Si / 1000 Ang^3
#
#
#
# Elastic Constant Matrix: (Units=GPa)
#
#
# Indices 1 2 3 4 5 6 
#
# 1 50.9160 15.5289 4.7953 0.0000 1.9420 0.0000
# 2 15.5289 161.3957 32.2616 0.0000 7.9710 0.0000
# 3 4.7953 32.2616 46.3365 0.0000 4.2052 0.0000
# 4 0.0000 0.0000 0.0000 29.7331 0.0000 11.1416
# 5 1.9420 7.9710 4.2052 0.0000 33.9890 0.0000
# 6 0.0000 0.0000 0.0000 11.1416 0.0000 42.7241
#
#
#
# Elastic Compliance Matrix: (Units=1/GPa)
#
#
# Indices 1 2 3 4 5 6 
#
# 1 0.020277 -0.001756 -0.000817 0.000000 -0.000646 0.000000
# 2 -0.001756 0.007389 -0.004869 0.000000 -0.001030 0.000000
# 3 -0.000817 -0.004869 0.025232 0.000000 -0.001933 0.000000
# 4 0.000000 0.000000 0.000000 0.037275 0.000000 -0.009721
# 5 -0.000646 -0.001030 -0.001933 0.000000 0.029939 0.000000
# 6 0.000000 0.000000 0.000000 -0.009721 0.000000 0.025941
#
#
# Mechanical properties :
#
#
# Convention : Reuss Voigt Hill
#
# Bulk Modulus (GPa) = 26.30695 40.42439 33.36567
# Shear Modulus (GPa) = 28.80032 35.02673 31.91352
#
# Velocity S-wave (km/s) = 3.45394 3.80905 3.63583
# Velocity P-wave (km/s) = 5.17718 6.00748 5.60772
#
# Compressibility (1/GPa) = 0.03801277
#
# Stress axis : x y z
#
# Youngs Moduli (GPa) = 49.31625 135.33418 39.63283
#
# Poissons Ratio (x) = 0.23761 0.03240
# Poissons Ratio (y) = 0.08659 0.19299
# Poissons Ratio (z) = 0.04031 0.65900
#
# Static dielectric constant tensor:
#      x y z
#    x 2.015350 0.000000 -0.000810 
#    y 0.000000 1.939620 0.000000 
#    z -0.000810 0.000000 1.959510 
# 
# From -- ./inp_files/41097.got.cif
#   From: 2010.05.17/outbox.cif.g08.bks.cpg/sg14_21_cif.got.tgz:41097.got - 2010.06.03 17:49:19.
