data_PCOD9247418
_publ_section_title
;
Structure prediction by ZEFSAII (Michael W. Deem and Ramdas Pophale) SiO2 
 PCOD9247418
Probable space group: P 21/C
;
_chemical_formula_sum "Si O2"
_cell_formula_units_Z 28
_cell_length_a 11.927126
_cell_length_b 15.861122
_cell_length_c 9.613662
_cell_angle_alpha 90.000000
_cell_angle_beta 37.092558
_cell_angle_gamma 90.000000
_cell_volume 1096.859621
_symmetry_space_group_name_H-M "P 21/C"
_symmetry_group_IT_number 14
_symmetry_cell_setting 'monoclinic'
loop_
_space_group_symop_operation_xyz
x,y,z
-x,1/2+y,1/2-z
-x,-y,-z
x,1/2-y,1/2+z
loop_
_atom_site_type_symbol
_atom_site_label
_atom_site_fract_x
_atom_site_fract_y
_atom_site_fract_z
Si Si1 0.606168 0.374591 0.961166
Si Si2 0.305452 0.918497 0.333090
Si Si3 0.771498 0.547917 0.696107
Si Si4 0.944106 0.176640 0.972294
Si Si5 0.592031 0.599997 0.328474
Si Si6 0.132529 0.266395 0.029149
Si Si7 0.870348 0.911910 0.810804
O O1 0.692644 0.467943 0.853415
O O2 0.733934 0.320145 0.733554
O O3 0.635564 0.359366 0.095899
O O4 0.392360 0.381874 0.133885
O O5 0.083409 0.925221 0.556792
O O6 0.393347 0.012171 0.268211
O O7 0.395229 0.888239 0.099181
O O8 0.953423 0.590919 0.579358
O O9 0.806633 0.526987 0.499100
O O10 0.982455 0.185570 0.772649
O O11 0.052118 0.247358 0.956393
O O12 0.735739 0.584356 0.313971
O O13 0.679330 0.679350 0.163084
O O14 0.149081 0.177652 0.091485
#
# Coordination Sequence:
#
# PCOD9247418 Si02
#       7
#     4   4   4   4   4   4   4
#     4  11  21  40  66  98 128 166 224 275 330 398
#     4  11  23  41  69  95 131 176 223 276 334 396
#     4  10  22  37  65  94 129 167 217 271 329 388
#     4  11  23  43  65  93 131 176 213 278 327 403
#     4  11  24  43  64  97 134 174 222 275 332 400
#     4  11  23  43  69  92 133 174 222 266 342 391
#     4  11  22  43  61  93 132 175 214 278 327 395
#
# _framework density 25.527424
#
# number of rings (size 3 to 8) (size 9 to 14) (size 15 to 20)
#    0.000    1.143    5.714    1.714    2.000    0.000 
#    5.143    4.286    0.000    0.000    0.000    0.000 
#    0.000    0.000    0.000    0.000    0.000    0.000 
#
# Total GULP energy -156814.382927 kJ/mol
# GULP energy per Si atom -5600.513676 kJ/mol
# Density = 2.546932 g / cm^3
# Si number density = 25.527424 Si / 1000 Ang^3
#
#
#
# Elastic Constant Matrix: (Units=GPa)
#
#
# Indices 1 2 3 4 5 6 
#
# 1 64.0607 -6.5358 23.3361 0.0000 3.8062 0.0000
# 2 -6.5358 60.1450 35.8111 0.0000 7.6222 0.0000
# 3 23.3361 35.8111 211.0375 0.0000 1.8291 0.0000
# 4 0.0000 0.0000 0.0000 36.7180 0.0000 4.6903
# 5 3.8062 7.6222 1.8291 0.0000 48.1507 0.0000
# 6 0.0000 0.0000 0.0000 4.6903 0.0000 22.5163
#
#
#
# Elastic Compliance Matrix: (Units=1/GPa)
#
#
# Indices 1 2 3 4 5 6 
#
# 1 0.016976 0.003540 -0.002462 0.000000 -0.001809 0.000000
# 2 0.003540 0.019621 -0.003693 0.000000 -0.003246 0.000000
# 3 -0.002462 -0.003693 0.005633 0.000000 0.000565 0.000000
# 4 0.000000 0.000000 0.000000 0.027979 0.000000 -0.005828
# 5 -0.001809 -0.003246 0.000565 0.000000 0.021403 0.000000
# 6 0.000000 0.000000 0.000000 -0.005828 0.000000 0.045626
#
#
# Mechanical properties :
#
#
# Convention : Reuss Voigt Hill
#
# Bulk Modulus (GPa) = 27.02750 48.94066 37.98408
# Shear Modulus (GPa) = 32.29941 40.31912 36.30927
#
# Velocity S-wave (km/s) = 3.56094 3.97853 3.77551
# Velocity P-wave (km/s) = 5.24573 6.34968 5.82392
#
# Compressibility (1/GPa) = 0.03699935
#
# Stress axis : x y z
#
# Youngs Moduli (GPa) = 58.90756 50.96515 177.54105
#
# Poissons Ratio (x) = -0.18041 0.43714
# Poissons Ratio (y) = -0.20853 0.65563
# Poissons Ratio (z) = 0.14504 0.18821
#
# Static dielectric constant tensor:
#      x y z
#    x 1.962400 0.000000 0.019940 
#    y 0.000000 2.122780 0.000000 
#    z 0.019940 0.000000 2.029870 
# 
# From -- ./inp_files/32912.got.cif
#   From: 2010.05.17/outbox.cif.g08.bks.cpg/sg14_17_cif.got.tgz:32912.got - 2010.06.03 17:49:19.
