data_PCOD9247707
_publ_section_title
;
Structure prediction by ZEFSAII (Michael W. Deem and Ramdas Pophale) SiO2 
 PCOD9247707
Probable space group: P 21/C
;
_chemical_formula_sum "Si O2"
_cell_formula_units_Z 28
_cell_length_a 16.935675
_cell_length_b 14.981831
_cell_length_c 7.458899
_cell_angle_alpha 90.000000
_cell_angle_beta 147.551255
_cell_angle_gamma 90.000000
_cell_volume 1015.425861
_symmetry_space_group_name_H-M "P 21/C"
_symmetry_group_IT_number 14
_symmetry_cell_setting 'monoclinic'
loop_
_space_group_symop_operation_xyz
x,y,z
-x,1/2+y,1/2-z
-x,-y,-z
x,1/2-y,1/2+z
loop_
_atom_site_type_symbol
_atom_site_label
_atom_site_fract_x
_atom_site_fract_y
_atom_site_fract_z
Si Si1 0.045558 0.866811 0.151680
Si Si2 0.359032 0.348641 0.358741
Si Si3 0.248068 0.396976 0.793987
Si Si4 0.336148 0.686629 0.130851
Si Si5 0.434010 0.544273 0.609630
Si Si6 0.105294 0.327045 0.157224
Si Si7 0.188253 0.875381 0.825131
O O1 0.188370 0.868831 0.295896
O O2 0.118061 0.865504 0.489659
O O3 0.902005 0.930193 0.893817
O O4 0.973327 0.769177 0.981585
O O5 0.516982 0.305892 0.707820
O O6 0.390334 0.454435 0.426059
O O7 0.311580 0.328370 0.064985
O O8 0.221076 0.334009 0.220806
O O9 0.190787 0.353244 0.501864
O O10 0.391904 0.454588 0.024104
O O11 0.397302 0.629318 0.414681
O O12 0.272050 0.784737 0.043158
O O13 0.319624 0.554138 0.554468
O O14 0.962313 0.391470 0.854741
#
# Coordination Sequence:
#
# PCOD9247707 Si02
#       7
#     4   4   4   4   4   4   4
#     4   9  20  39  63  97 129 167 224 277 324 389
#     4  11  24  42  68  97 134 177 219 269 338 403
#     4  10  22  39  66  90 132 167 213 278 317 391
#     4   9  19  39  65  92 132 174 214 274 336 379
#     4  10  22  42  64  98 134 173 223 269 331 408
#     4  10  23  40  63  98 129 171 223 271 334 390
#     4   9  20  41  66  94 138 170 220 282 328 393
#
# _framework density 27.574636000000002
#
# number of rings (size 3 to 8) (size 9 to 14) (size 15 to 20)
#    0.000    2.286    0.000    1.714    8.000    2.286 
#    5.143   11.429    0.000    0.000    0.000    0.000 
#    0.000    0.000    0.000    0.000    0.000    0.000 
#
# Total GULP energy -156414.509413 kJ/mol
# GULP energy per Si atom -5586.232479 kJ/mol
# Density = 2.751187 g / cm^3
# Si number density = 27.574636 Si / 1000 Ang^3
#
#
#
# Elastic Constant Matrix: (Units=GPa)
#
#
# Indices 1 2 3 4 5 6 
#
# 1 147.1462 22.4555 123.3861 0.0000 51.3434 0.0000
# 2 22.4555 61.7364 27.9055 0.0000 -1.9276 0.0000
# 3 123.3861 27.9055 199.3041 0.0000 57.4364 0.0000
# 4 0.0000 0.0000 0.0000 24.9061 0.0000 -3.0495
# 5 51.3434 -1.9276 57.4364 0.0000 78.5082 0.0000
# 6 0.0000 0.0000 0.0000 -3.0495 0.0000 38.0096
#
#
#
# Elastic Compliance Matrix: (Units=1/GPa)
#
#
# Indices 1 2 3 4 5 6 
#
# 1 0.015226 -0.002091 -0.007918 0.000000 -0.004216 0.000000
# 2 -0.002091 0.018073 -0.002228 0.000000 0.003441 0.000000
# 3 -0.007918 -0.002228 0.011094 0.000000 -0.002992 0.000000
# 4 0.000000 0.000000 0.000000 0.040549 0.000000 0.003253
# 5 -0.004216 0.003441 -0.002992 0.000000 0.017768 0.000000
# 6 0.000000 0.000000 0.000000 0.003253 0.000000 0.026570
#
#
# Mechanical properties :
#
#
# Convention : Reuss Voigt Hill
#
# Bulk Modulus (GPa) = 50.20362 83.96455 67.08408
# Shear Modulus (GPa) = 31.17339 43.91410 37.54374
#
# Velocity S-wave (km/s) = 3.36595 3.99501 3.69390
# Velocity P-wave (km/s) = 5.77513 7.19696 6.52489
#
# Compressibility (1/GPa) = 0.01991888
#
# Stress axis : x y z
#
# Youngs Moduli (GPa) = 65.67801 55.33205 90.13929
#
# Poissons Ratio (x) = 0.11567 0.71376
# Poissons Ratio (y) = 0.13730 0.20081
# Poissons Ratio (z) = 0.52007 0.12327
#
# Static dielectric constant tensor:
#      x y z
#    x 2.339400 0.000000 0.084770 
#    y 0.000000 2.158930 0.000000 
#    z 0.084770 0.000000 2.157480 
# 
# From -- ./inp_files/36271.got.cif
#   From: 2010.05.17/outbox.cif.g08.bks.cpg/sg14_19_cif.got.tgz:36271.got - 2010.06.03 17:49:19.
