data_PCOD9247854
_publ_section_title
;
Structure prediction by ZEFSAII (Michael W. Deem and Ramdas Pophale) SiO2 
 PCOD9247854
Probable space group: P 21/C
;
_chemical_formula_sum "Si O2"
_cell_formula_units_Z 22
_cell_length_a 22.812927
_cell_length_b 4.518161
_cell_length_c 7.814432
_cell_angle_alpha 90.000000
_cell_angle_beta 110.379325
_cell_angle_gamma 90.000000
_cell_volume 755.037724
_symmetry_space_group_name_H-M "P 21/C"
_symmetry_group_IT_number 14
_symmetry_cell_setting 'monoclinic'
loop_
_space_group_symop_operation_xyz
x,y,z
-x,1/2+y,1/2-z
-x,-y,-z
x,1/2-y,1/2+z
loop_
_atom_site_type_symbol
_atom_site_label
_atom_site_fract_x
_atom_site_fract_y
_atom_site_fract_z
Si Si1 0.771897 0.557081 0.564580
Si Si2 0.595950 0.091184 0.889707
Si Si3 0.500000 0.500000 0.000000
Si Si4 0.135554 0.064377 0.108793
Si Si5 0.316357 0.487731 0.247148
Si Si6 0.953620 0.984048 0.703625
O O1 0.821348 0.403415 0.488198
O O2 0.815378 0.772308 0.719145
O O3 0.733843 0.375725 0.669161
O O4 0.722786 0.750106 0.401367
O O5 0.552497 0.289392 0.966394
O O6 0.548266 0.931255 0.714872
O O7 0.645703 0.288484 0.834479
O O8 0.632067 0.879144 0.061390
O O9 0.089248 0.892446 0.186691
O O10 0.092108 0.305265 0.968627
O O11 0.003167 0.742935 0.823150
#
# Coordination Sequence:
#
# PCOD9247854 Si02
#       6
#     4   4   2   4   4   4
#     4   9  20  41  64  88 127 168 219 278 338 406
#     4  10  24  41  61  93 127 168 218 266 334 404
#     4  10  24  42  60  90 126 158 206 268 320 396
#     4   9  20  39  60  91 129 172 222 279 348 414
#     4  10  22  40  64  89 122 169 213 267 328 402
#     4  11  22  40  65  97 136 182 235 290 354 426
#
# _framework density 29.137619000000001
#
# number of rings (size 3 to 8) (size 9 to 14) (size 15 to 20)
#    0.000    2.182    0.000    1.091    0.000   13.091 
#    0.000   27.273    0.000    0.000    0.000    0.000 
#    0.000    0.000    0.000    0.000    0.000    0.000 
#
# Total GULP energy -122776.981035 kJ/mol
# GULP energy per Si atom -5580.771865 kJ/mol
# Density = 2.907130 g / cm^3
# Si number density = 29.137619 Si / 1000 Ang^3
#
#
#
# Elastic Constant Matrix: (Units=GPa)
#
#
# Indices 1 2 3 4 5 6 
#
# 1 231.3951 61.5291 54.6168 0.0000 -33.6293 0.0000
# 2 61.5291 61.3152 55.6782 0.0000 23.2499 0.0000
# 3 54.6168 55.6782 234.6390 0.0000 78.7528 0.0000
# 4 0.0000 0.0000 0.0000 28.8205 0.0000 44.5885
# 5 -33.6293 23.2499 78.7528 0.0000 78.2250 0.0000
# 6 0.0000 0.0000 0.0000 44.5885 0.0000 3.2921
#
#
#
# Elastic Compliance Matrix: (Units=1/GPa)
#
#
# Indices 1 2 3 4 5 6 
#
# 1 0.009316 -0.010379 -0.003149 0.000000 0.010261 0.000000
# 2 -0.010379 0.032528 -0.000846 0.000000 -0.013278 0.000000
# 3 -0.003149 -0.000846 0.008406 0.000000 -0.009565 0.000000
# 4 0.000000 0.000000 0.000000 -0.001739 0.000000 0.023551
# 5 0.010261 -0.013278 -0.009565 0.000000 0.030771 0.000000
# 6 0.000000 0.000000 0.000000 0.023551 0.000000 -0.015223
#
#
# Mechanical properties :
#
#
# Convention : Reuss Voigt Hill
#
# Bulk Modulus (GPa) = 46.51011 96.77751 71.64381
# Shear Modulus (GPa) = 50.01195 45.76921 47.89058
#
# Velocity S-wave (km/s) = 4.14745 3.96762 4.05853
# Velocity P-wave (km/s) = 6.23955 7.36719 6.82669
#
# Compressibility (1/GPa) = 0.02150070
#
# Stress axis : x y z
#
# Youngs Moduli (GPa) = 107.34104 30.74274 118.96101
#
# Poissons Ratio (x) = 0.31909 0.37465
# Poissons Ratio (y) = 1.11414 0.10064
# Poissons Ratio (z) = 0.33805 0.02601
#
# Static dielectric constant tensor:
#      x y z
#    x 2.171500 0.000000 -0.002740 
#    y 0.000000 2.145450 0.000000 
#    z -0.002740 0.000000 2.254110 
# 
# From -- ./inp_files/18392.got.cif
#   From: 2010.05.17/outbox.cif.g08.bks.cpg/sg14_10_cif.got.tgz:18392.got - 2010.06.03 17:49:19.
