data_PCOD9247903
_publ_section_title
;
Structure prediction by ZEFSAII (Michael W. Deem and Ramdas Pophale) SiO2 
 PCOD9247903
Probable space group: P 21/C
;
_chemical_formula_sum "Si O2"
_cell_formula_units_Z 30
_cell_length_a 11.866225
_cell_length_b 21.447261
_cell_length_c 11.424266
_cell_angle_alpha 90.000000
_cell_angle_beta 155.089435
_cell_angle_gamma 90.000000
_cell_volume 1224.628154
_symmetry_space_group_name_H-M "P 21/C"
_symmetry_group_IT_number 14
_symmetry_cell_setting 'monoclinic'
loop_
_space_group_symop_operation_xyz
x,y,z
-x,1/2+y,1/2-z
-x,-y,-z
x,1/2-y,1/2+z
loop_
_atom_site_type_symbol
_atom_site_label
_atom_site_fract_x
_atom_site_fract_y
_atom_site_fract_z
Si Si1 0.645851 0.426846 0.819514
Si Si2 0.179395 0.127587 0.742392
Si Si3 0.459064 0.094642 0.531309
Si Si4 0.890074 0.629213 0.095633
Si Si5 0.000000 0.000000 0.000000
Si Si6 0.593724 0.181482 0.460135
Si Si7 0.231536 0.521706 0.518208
Si Si8 0.120865 0.265158 0.377774
O O1 0.595018 0.378418 0.876528
O O2 0.490833 0.489348 0.710356
O O3 0.468817 0.399591 0.545582
O O4 0.952845 0.422400 0.069220
O O5 0.136764 0.190070 0.779587
O O6 0.148888 0.139720 0.577292
O O7 0.375770 0.109792 0.585019
O O8 0.232558 0.054300 0.258273
O O9 0.508832 0.156403 0.505752
O O10 0.720837 0.050960 0.801415
O O11 0.098975 0.573934 0.314890
O O12 0.962114 0.694444 0.224914
O O13 0.014238 0.025238 0.867281
O O14 0.890226 0.207502 0.742575
O O15 0.395724 0.229629 0.209453
#
# Coordination Sequence:
#
# PCOD9247903 Si02
#       8
#     4   4   4   4   2   4   4   4
#     4  10  23  44  71  96 134 182 230 271 343 409
#     4  10  25  46  69  95 135 183 230 280 335 418
#     4  11  25  40  70 107 139 179 223 296 349 412
#     4  11  28  44  65 102 139 178 233 282 352 406
#     4  10  22  40  66 100 150 172 222 288 346 416
#     4  10  23  43  72  99 131 179 234 283 341 404
#     4  11  25  40  68 105 140 183 224 287 349 419
#     4  10  25  46  70  97 130 186 232 287 340 409
#
# _framework density 24.497232
#
# number of rings (size 3 to 8) (size 9 to 14) (size 15 to 20)
#    0.000    1.600    1.333    0.400   13.067    1.067 
#    2.400    0.000    0.000    0.000    0.000    0.000 
#    0.000    0.000    0.000    0.000    0.000    0.000 
#
# Total GULP energy -167605.044840 kJ/mol
# GULP energy per Si atom -5586.834828 kJ/mol
# Density = 2.444148 g / cm^3
# Si number density = 24.497232 Si / 1000 Ang^3
#
#
#
# Elastic Constant Matrix: (Units=GPa)
#
#
# Indices 1 2 3 4 5 6 
#
# 1 107.7709 29.1838 3.3224 0.0000 -11.2586 0.0000
# 2 29.1838 77.9792 8.0015 0.0000 -5.2155 0.0000
# 3 3.3224 8.0015 59.8671 0.0000 2.9763 0.0000
# 4 0.0000 0.0000 0.0000 18.5384 0.0000 1.6376
# 5 -11.2586 -5.2155 2.9763 0.0000 29.2893 0.0000
# 6 0.0000 0.0000 0.0000 1.6376 0.0000 17.7674
#
#
#
# Elastic Compliance Matrix: (Units=1/GPa)
#
#
# Indices 1 2 3 4 5 6 
#
# 1 0.010659 -0.003730 -0.000265 0.000000 0.003460 0.000000
# 2 -0.003730 0.014493 -0.001796 0.000000 0.001329 0.000000
# 3 -0.000265 -0.001796 0.017066 0.000000 -0.002156 0.000000
# 4 0.000000 0.000000 0.000000 0.054385 0.000000 -0.005013
# 5 0.003460 0.001329 -0.002156 0.000000 0.035928 0.000000
# 6 0.000000 0.000000 0.000000 -0.005013 0.000000 0.056745
#
#
# Mechanical properties :
#
#
# Convention : Reuss Voigt Hill
#
# Bulk Modulus (GPa) = 32.64289 36.29251 34.46770
# Shear Modulus (GPa) = 23.68883 26.79298 25.24091
#
# Velocity S-wave (km/s) = 3.11304 3.31072 3.21340
# Velocity P-wave (km/s) = 5.12595 5.42786 5.27906
#
# Compressibility (1/GPa) = 0.03063455
#
# Stress axis : x y z
#
# Youngs Moduli (GPa) = 93.81982 68.99755 58.59733
#
# Poissons Ratio (x) = 0.25739 0.01552
# Poissons Ratio (y) = 0.34999 0.10525
# Poissons Ratio (z) = 0.02486 0.12393
#
# Static dielectric constant tensor:
#      x y z
#    x 2.029290 0.000000 0.052980 
#    y 0.000000 2.079520 0.000000 
#    z 0.052980 0.000000 2.003660 
# 
# From -- ./inp_files/21782.got.cif
#   From: 2010.05.17/outbox.cif.g08.bks.cpg/sg14_11_cif.got.tgz:21782.got - 2010.06.03 17:49:19.
