data_PCOD9247873
_publ_section_title
;
Structure prediction by ZEFSAII (Michael W. Deem and Ramdas Pophale) SiO2 
 PCOD9247873
Probable space group: P 21/C
;
_chemical_formula_sum "Si O2"
_cell_formula_units_Z 30
_cell_length_a 8.622402
_cell_length_b 9.055056
_cell_length_c 24.714485
_cell_angle_alpha 90.000000
_cell_angle_beta 136.302696
_cell_angle_gamma 90.000000
_cell_volume 1333.072359
_symmetry_space_group_name_H-M "P 21/C"
_symmetry_group_IT_number 14
_symmetry_cell_setting 'monoclinic'
loop_
_space_group_symop_operation_xyz
x,y,z
-x,1/2+y,1/2-z
-x,-y,-z
x,1/2-y,1/2+z
loop_
_atom_site_type_symbol
_atom_site_label
_atom_site_fract_x
_atom_site_fract_y
_atom_site_fract_z
Si Si1 0.799872 0.279633 0.055614
Si Si2 0.203984 0.897891 0.334395
Si Si3 0.765695 0.045523 0.172659
Si Si4 0.693619 0.809979 0.801893
Si Si5 0.500000 0.500000 0.500000
Si Si6 0.347881 0.093233 0.610878
Si Si7 0.576623 0.411033 0.331638
Si Si8 0.094123 0.811694 0.542846
O O1 0.779093 0.405922 0.096058
O O2 0.597703 0.165021 0.009104
O O3 0.038951 0.202829 0.130278
O O4 0.828587 0.323783 0.000377
O O5 0.203950 0.722041 0.321891
O O6 0.426961 0.956090 0.361508
O O7 0.984362 0.973531 0.254666
O O8 0.549122 0.002252 0.153929
O O9 0.699519 0.988181 0.096864
O O10 0.613428 0.712758 0.832968
O O11 0.583590 0.725265 0.724319
O O12 0.619173 0.976728 0.793212
O O13 0.173329 0.171675 0.525163
O O14 0.210289 0.953279 0.599412
O O15 0.810202 0.339652 0.409701
#
# Coordination Sequence:
#
# PCOD9247873 Si02
#       8
#     4   4   4   4   2   4   4   4
#     4  10  22  40  64  97 132 174 219 280 335 411
#     4  11  24  43  70  97 137 176 225 280 338 416
#     4  11  24  43  69 104 138 177 227 284 344 412
#     4  11  24  41  68  95 131 174 232 274 338 409
#     4  10  22  40  66  98 134 168 224 268 342 404
#     4  10  23  44  66 101 135 176 231 278 339 421
#     4  12  23  43  68  98 134 182 227 289 338 407
#     4  10  23  42  69  95 140 178 219 288 347 400
#
# _framework density 22.504405999999999
#
# number of rings (size 3 to 8) (size 9 to 14) (size 15 to 20)
#    0.000    1.333    4.000    0.800    1.867    6.933 
#    0.000    1.333    0.000    0.000    0.000    0.000 
#    0.000    0.000    0.000    0.000    0.000    0.000 
#
# Total GULP energy -167160.207916 kJ/mol
# GULP energy per Si atom -5572.006931 kJ/mol
# Density = 2.245318 g / cm^3
# Si number density = 22.504406 Si / 1000 Ang^3
#
#
#
# Elastic Constant Matrix: (Units=GPa)
#
#
# Indices 1 2 3 4 5 6 
#
# 1 36.5151 -8.5186 -14.9231 0.0000 -1.8021 0.0000
# 2 -8.5186 60.0447 6.4991 0.0000 -5.3905 0.0000
# 3 -14.9231 6.4991 49.9254 0.0000 -5.9361 0.0000
# 4 0.0000 0.0000 0.0000 43.4997 0.0000 7.9905
# 5 -1.8021 -5.3905 -5.9361 0.0000 27.2764 0.0000
# 6 0.0000 0.0000 0.0000 7.9905 0.0000 27.0952
#
#
#
# Elastic Compliance Matrix: (Units=1/GPa)
#
#
# Indices 1 2 3 4 5 6 
#
# 1 0.032588 0.004017 0.009823 0.000000 0.005084 0.000000
# 2 0.004017 0.017619 -0.000665 0.000000 0.003603 0.000000
# 3 0.009823 -0.000665 0.023728 0.000000 0.005681 0.000000
# 4 0.000000 0.000000 0.000000 0.024305 0.000000 -0.007168
# 5 0.005084 0.003603 0.005681 0.000000 0.038946 0.000000
# 6 0.000000 0.000000 0.000000 -0.007168 0.000000 0.039021
#
#
# Mechanical properties :
#
#
# Convention : Reuss Voigt Hill
#
# Bulk Modulus (GPa) = 9.97163 12.51112 11.24137
# Shear Modulus (GPa) = 27.27962 30.46944 28.87453
#
# Velocity S-wave (km/s) = 3.48543 3.68357 3.58587
# Velocity P-wave (km/s) = 4.54293 4.86447 4.70645
#
# Compressibility (1/GPa) = 0.10028449
#
# Stress axis : x y z
#
# Youngs Moduli (GPa) = 30.68597 56.75534 42.14436
#
# Poissons Ratio (x) = -0.22796 -0.41396
# Poissons Ratio (y) = -0.12325 0.02801
# Poissons Ratio (z) = -0.30141 0.03773
#
# Static dielectric constant tensor:
#      x y z
#    x 1.859370 0.000000 -0.039960 
#    y 0.000000 1.826490 0.000000 
#    z -0.039960 0.000000 1.826900 
# 
# From -- ./inp_files/76528.got.cif
#   From: 2010.05.17/outbox.cif.g08.bks.cpg/sg14_39_cif.got.tgz:76528.got - 2010.06.03 17:49:19.
