data_PCOD9247038
_publ_section_title
;
Structure prediction by ZEFSAII (Michael W. Deem and Ramdas Pophale) SiO2 
 PCOD9247038
Probable space group: P 21/C
;
_chemical_formula_sum "Si O2"
_cell_formula_units_Z 28
_cell_length_a 10.075020
_cell_length_b 6.990948
_cell_length_c 20.263742
_cell_angle_alpha 90.000000
_cell_angle_beta 119.365367
_cell_angle_gamma 90.000000
_cell_volume 1243.867733
_symmetry_space_group_name_H-M "P 21/C"
_symmetry_group_IT_number 14
_symmetry_cell_setting 'monoclinic'
loop_
_space_group_symop_operation_xyz
x,y,z
-x,1/2+y,1/2-z
-x,-y,-z
x,1/2-y,1/2+z
loop_
_atom_site_type_symbol
_atom_site_label
_atom_site_fract_x
_atom_site_fract_y
_atom_site_fract_z
Si Si1 0.620866 0.580678 0.199682
Si Si2 0.752496 0.596185 0.422972
Si Si3 0.655872 0.919357 0.296861
Si Si4 0.166627 0.767380 0.734295
Si Si5 0.739594 0.099534 0.100432
Si Si6 0.476734 0.696565 0.556496
Si Si7 0.979034 0.897680 0.088958
O O1 0.667399 0.788385 0.235471
O O2 0.512892 0.490607 0.229288
O O3 0.761659 0.439978 0.232431
O O4 0.519122 0.620332 0.110584
O O5 0.697266 0.775096 0.366220
O O6 0.621775 0.461125 0.424166
O O7 0.865169 0.681388 0.506274
O O8 0.862305 0.461173 0.405218
O O9 0.750383 0.107267 0.302014
O O10 0.005331 0.728735 0.660519
O O11 0.197752 0.864934 0.811647
O O12 0.634484 0.908462 0.075761
O O13 0.888095 0.083537 0.091299
O O14 0.623249 0.239130 0.033129
#
# Coordination Sequence:
#
# PCOD9247038 Si02
#       7
#     4   4   4   4   4   4   4
#     4  12  22  38  66 100 129 165 218 280 327 378
#     4  10  21  43  68  91 128 173 219 273 321 379
#     4  12  22  38  66 100 129 165 218 280 327 378
#     4  12  24  38  64  98 130 172 218 264 330 398
#     4  10  23  42  64  93 131 174 216 266 325 391
#     4  10  21  43  68  91 128 173 219 273 321 379
#     4  10  23  42  64  93 131 174 216 266 325 391
#
# _framework density 22.510431000000001
#
# number of rings (size 3 to 8) (size 9 to 14) (size 15 to 20)
#    0.000    1.143    4.286    2.571    0.000    3.429 
#    0.000    1.429    0.000    0.000    0.000    0.000 
#    0.000    0.000    0.000    0.000    0.000    0.000 
#
# Total GULP energy -156146.745362 kJ/mol
# GULP energy per Si atom -5576.669477 kJ/mol
# Density = 2.245920 g / cm^3
# Si number density = 22.510431 Si / 1000 Ang^3
#
#
#
# Elastic Constant Matrix: (Units=GPa)
#
#
# Indices 1 2 3 4 5 6 
#
# 1 62.6353 8.2160 5.7903 0.0000 -1.9415 0.0000
# 2 8.2160 53.8189 31.7029 0.0000 3.7962 0.0000
# 3 5.7903 31.7029 160.1493 0.0000 3.6692 0.0000
# 4 0.0000 0.0000 0.0000 31.5836 0.0000 -3.1208
# 5 -1.9415 3.7962 3.6692 0.0000 23.9826 0.0000
# 6 0.0000 0.0000 0.0000 -3.1208 0.0000 11.3790
#
#
#
# Elastic Compliance Matrix: (Units=1/GPa)
#
#
# Indices 1 2 3 4 5 6 
#
# 1 0.016365 -0.002546 -0.000128 0.000000 0.001747 0.000000
# 2 -0.002546 0.021606 -0.004116 0.000000 -0.002996 0.000000
# 3 -0.000128 -0.004116 0.007074 0.000000 -0.000441 0.000000
# 4 0.000000 0.000000 0.000000 0.032544 0.000000 0.008925
# 5 0.001747 -0.002996 -0.000441 0.000000 0.042380 0.000000
# 6 0.000000 0.000000 0.000000 0.008925 0.000000 0.090329
#
#
# Mechanical properties :
#
#
# Convention : Reuss Voigt Hill
#
# Bulk Modulus (GPa) = 31.78224 40.89134 36.33679
# Shear Modulus (GPa) = 21.33408 28.78199 25.05803
#
# Velocity S-wave (km/s) = 3.08188 3.57964 3.34005
# Velocity P-wave (km/s) = 5.17818 5.94054 5.57241
#
# Compressibility (1/GPa) = 0.03146411
#
# Stress axis : x y z
#
# Youngs Moduli (GPa) = 61.10442 46.28406 141.36766
#
# Poissons Ratio (x) = 0.11786 0.01805
# Poissons Ratio (y) = 0.15560 0.58191
# Poissons Ratio (z) = 0.00780 0.19052
#
# Static dielectric constant tensor:
#      x y z
#    x 1.834940 0.000000 -0.049520 
#    y 0.000000 1.856190 0.000000 
#    z -0.049520 0.000000 1.927910 
# 
# From -- ./inp_files/66543.got.cif
#   From: 2010.05.17/outbox.cif.g08.bks.cpg/sg14_34_cif.got.tgz:66543.got - 2010.06.03 17:49:19.
