data_PCOD9247779
_publ_section_title
;
Structure prediction by ZEFSAII (Michael W. Deem and Ramdas Pophale) SiO2 
 PCOD9247779
Probable space group: P 21/C
;
_chemical_formula_sum "Si O2"
_cell_formula_units_Z 32
_cell_length_a 20.663123
_cell_length_b 12.672530
_cell_length_c 12.184082
_cell_angle_alpha 90.000000
_cell_angle_beta 148.852460
_cell_angle_gamma 90.000000
_cell_volume 1650.240516
_symmetry_space_group_name_H-M "P 21/C"
_symmetry_group_IT_number 14
_symmetry_cell_setting 'monoclinic'
loop_
_space_group_symop_operation_xyz
x,y,z
-x,1/2+y,1/2-z
-x,-y,-z
x,1/2-y,1/2+z
loop_
_atom_site_type_symbol
_atom_site_label
_atom_site_fract_x
_atom_site_fract_y
_atom_site_fract_z
Si Si1 0.388073 0.452796 0.765420
Si Si2 0.256088 0.197302 0.246131
Si Si3 0.127799 0.045425 0.235654
Si Si4 0.577481 0.614039 0.428903
Si Si5 0.208415 0.859537 0.924229
Si Si6 0.791315 0.449863 0.810214
Si Si7 0.299595 0.868404 0.596673
Si Si8 0.940137 0.864916 0.630779
O O1 0.316896 0.365725 0.733906
O O2 0.436076 0.402848 0.721129
O O3 0.293137 0.546810 0.595638
O O4 0.500000 0.500000 0.000000
O O5 0.201312 0.114794 0.253720
O O6 0.358908 0.274052 0.450304
O O7 0.144286 0.271462 0.040367
O O8 0.092667 0.116455 0.290005
O O9 0.215177 0.950302 0.405343
O O10 0.000000 0.000000 0.000000
O O11 0.674273 0.525732 0.611778
O O12 0.444438 0.602155 0.294020
O O13 0.172187 0.890069 0.747289
O O14 0.084635 0.845396 0.816973
O O15 0.282176 0.750113 0.029886
O O16 0.747913 0.376821 0.847237
O O17 0.900031 0.527040 0.010935
#
# Coordination Sequence:
#
# PCOD9247779 Si02
#       8
#     4   4   4   4   4   4   4   4
#     4  11  23  40  60  87 120 155 195 241 289 346
#     4  11  22  39  62  88 116 153 194 243 294 346
#     4  11  23  40  60  87 120 155 195 241 289 346
#     4  10  22  40  61  85 116 154 194 237 292 348
#     4  11  23  38  60  88 116 152 194 240 289 342
#     4   9  22  41  60  82 116 155 192 235 288 348
#     4  11  23  38  60  88 116 152 194 240 289 342
#     4  10  22  40  61  85 116 154 194 237 292 348
#
# _framework density 19.391112
#
# number of rings (size 3 to 8) (size 9 to 14) (size 15 to 20)
#    0.000    1.500    0.000    4.500    0.000    7.000 
#    0.000    0.000    0.000    0.000    0.000    0.000 
#    0.000    0.000    0.000    0.000    0.000    0.000 
#
# Total GULP energy -178947.442812 kJ/mol
# GULP energy per Si atom -5592.107588 kJ/mol
# Density = 1.934698 g / cm^3
# Si number density = 19.391112 Si / 1000 Ang^3
#
#
#
# Elastic Constant Matrix: (Units=GPa)
#
#
# Indices 1 2 3 4 5 6 
#
# 1 60.7349 17.9557 8.6685 0.0000 -9.5265 0.0000
# 2 17.9557 66.6604 3.9084 0.0000 -9.3961 0.0000
# 3 8.6685 3.9084 68.7185 0.0000 -0.3810 0.0000
# 4 0.0000 0.0000 0.0000 17.9738 0.0000 -0.4761
# 5 -9.5265 -9.3961 -0.3810 0.0000 39.6151 0.0000
# 6 0.0000 0.0000 0.0000 -0.4761 0.0000 29.5490
#
#
#
# Elastic Compliance Matrix: (Units=1/GPa)
#
#
# Indices 1 2 3 4 5 6 
#
# 1 0.018599 -0.004408 -0.002077 0.000000 0.003407 0.000000
# 2 -0.004408 0.016616 -0.000373 0.000000 0.002878 0.000000
# 3 -0.002077 -0.000373 0.014833 0.000000 -0.000445 0.000000
# 4 0.000000 0.000000 0.000000 0.055660 0.000000 0.000897
# 5 0.003407 0.002878 -0.000445 0.000000 0.026740 0.000000
# 6 0.000000 0.000000 0.000000 0.000897 0.000000 0.033857
#
#
# Mechanical properties :
#
#
# Convention : Reuss Voigt Hill
#
# Bulk Modulus (GPa) = 27.52320 28.57546 28.04933
# Shear Modulus (GPa) = 26.02388 28.46634 27.24511
#
# Velocity S-wave (km/s) = 3.66738 3.83562 3.75244
# Velocity P-wave (km/s) = 5.67075 5.86381 5.76809
#
# Compressibility (1/GPa) = 0.03633299
#
# Stress axis : x y z
#
# Youngs Moduli (GPa) = 53.76656 60.18231 67.41808
#
# Poissons Ratio (x) = 0.26527 0.14000
# Poissons Ratio (y) = 0.23699 0.02515
# Poissons Ratio (z) = 0.11165 0.02245
#
# Static dielectric constant tensor:
#      x y z
#    x 1.636540 0.000000 -0.014180 
#    y 0.000000 1.654910 0.000000 
#    z -0.014180 0.000000 1.652630 
# 
# From -- ./inp_files/35267.got.cif
#   From: 2010.05.17/outbox.cif.g08.bks.cpg/sg14_18_cif.got.tgz:35267.got - 2010.06.03 17:49:19.
