data_PCOD9247273
_publ_section_title
;
Structure prediction by ZEFSAII (Michael W. Deem and Ramdas Pophale) SiO2 
 PCOD9247273
Probable space group: P 21/C
;
_chemical_formula_sum "Si O2"
_cell_formula_units_Z 32
_cell_length_a 23.702152
_cell_length_b 7.935780
_cell_length_c 14.234646
_cell_angle_alpha 90.000000
_cell_angle_beta 152.573547
_cell_angle_gamma 90.000000
_cell_volume 1233.266930
_symmetry_space_group_name_H-M "P 21/C"
_symmetry_group_IT_number 14
_symmetry_cell_setting 'monoclinic'
loop_
_space_group_symop_operation_xyz
x,y,z
-x,1/2+y,1/2-z
-x,-y,-z
x,1/2-y,1/2+z
loop_
_atom_site_type_symbol
_atom_site_label
_atom_site_fract_x
_atom_site_fract_y
_atom_site_fract_z
Si Si1 0.626646 0.420270 0.966353
Si Si2 0.384498 0.582905 0.668292
Si Si3 0.305051 0.225738 0.157999
Si Si4 0.957263 0.332820 0.385271
Si Si5 0.580035 0.253051 0.587558
Si Si6 0.762489 0.736366 0.225871
Si Si7 0.181820 0.949732 0.496998
Si Si8 0.882696 0.047174 0.391491
O O1 0.486872 0.488290 0.757884
O O2 0.641595 0.263350 0.918391
O O3 0.880453 0.344642 0.176618
O O4 0.640474 0.347684 0.091693
O O5 0.292328 0.442184 0.576453
O O6 0.443487 0.641462 0.855150
O O7 0.443643 0.297988 0.349658
O O8 0.288172 0.204521 0.245221
O O9 0.201902 0.364050 0.985373
O O10 0.707832 0.590835 0.079560
O O11 0.875782 0.235921 0.341596
O O12 0.000000 0.500000 0.500000
O O13 0.090532 0.265341 0.552101
O O14 0.683395 0.385903 0.772018
O O15 0.758803 0.935669 0.192481
O O16 0.101754 0.948193 0.473471
O O17 0.000000 0.000000 0.500000
#
# Coordination Sequence:
#
# PCOD9247273 Si02
#       8
#     4   4   4   4   4   4   4   4
#     4  11  24  47  73 117 152 212 256 331 403 487
#     4  11  24  44  77 109 158 202 259 320 408 484
#     4  10  21  49  77 112 148 212 256 330 400 485
#     4  11  27  48  74 113 160 201 262 342 402 469
#     4  11  23  46  74 108 159 195 261 323 394 482
#     4  10  21  49  79  99 155 203 262 325 388 474
#     4  11  26  45  78 114 152 212 266 327 409 480
#     4   9  23  49  76 108 146 209 270 326 389 480
#
# _framework density 25.947344999999999
#
# number of rings (size 3 to 8) (size 9 to 14) (size 15 to 20)
#    0.000    1.500    2.500    1.125    3.500    6.000 
#    2.250    5.000    0.000    0.000    0.000    0.000 
#    0.000    0.000    0.000    0.000    0.000    0.000 
#
# Total GULP energy -178740.504636 kJ/mol
# GULP energy per Si atom -5585.640770 kJ/mol
# Density = 2.588829 g / cm^3
# Si number density = 25.947345 Si / 1000 Ang^3
#
#
#
# Elastic Constant Matrix: (Units=GPa)
#
#
# Indices 1 2 3 4 5 6 
#
# 1 202.6708 70.6174 47.3499 0.0000 3.8644 0.0000
# 2 70.6174 151.2013 31.5360 0.0000 4.5792 0.0000
# 3 47.3499 31.5360 70.1755 0.0000 9.8156 0.0000
# 4 0.0000 0.0000 0.0000 21.9636 0.0000 1.0200
# 5 3.8644 4.5792 9.8156 0.0000 37.2083 0.0000
# 6 0.0000 0.0000 0.0000 1.0200 0.0000 67.7440
#
#
#
# Elastic Compliance Matrix: (Units=1/GPa)
#
#
# Indices 1 2 3 4 5 6 
#
# 1 0.006547 -0.002358 -0.003430 0.000000 0.000515 0.000000
# 2 -0.002358 0.008147 -0.002039 0.000000 -0.000220 0.000000
# 3 -0.003430 -0.002039 0.018062 0.000000 -0.004158 0.000000
# 4 0.000000 0.000000 0.000000 0.045562 0.000000 -0.000686
# 5 0.000515 -0.000220 -0.004158 0.000000 0.027946 0.000000
# 6 0.000000 0.000000 0.000000 -0.000686 0.000000 0.014772
#
#
# Mechanical properties :
#
#
# Convention : Reuss Voigt Hill
#
# Bulk Modulus (GPa) = 58.47362 80.33934 69.40648
# Shear Modulus (GPa) = 35.11443 43.68616 39.40029
#
# Velocity S-wave (km/s) = 3.68271 4.10768 3.90098
# Velocity P-wave (km/s) = 6.37711 7.31622 6.86275
#
# Compressibility (1/GPa) = 0.01710173
#
# Stress axis : x y z
#
# Youngs Moduli (GPa) = 152.73540 122.74434 55.36378
#
# Poissons Ratio (x) = 0.28944 0.18990
# Poissons Ratio (y) = 0.36016 0.11291
# Poissons Ratio (z) = 0.52389 0.25032
#
# Static dielectric constant tensor:
#      x y z
#    x 1.999470 0.000000 0.046850 
#    y 0.000000 3.118150 0.000000 
#    z 0.046850 0.000000 2.207800 
# 
# From -- ./inp_files/48432.got.cif
#   From: 2010.05.17/outbox.cif.g08.bks.cpg/sg14_25_cif.got.tgz:48432.got - 2010.06.03 17:49:19.
