data_PCOD9247296
_publ_section_title
;
Structure prediction by ZEFSAII (Michael W. Deem and Ramdas Pophale) SiO2 
 PCOD9247296
Probable space group: P 21/C
;
_chemical_formula_sum "Si O2"
_cell_formula_units_Z 24
_cell_length_a 7.472278
_cell_length_b 9.895243
_cell_length_c 16.799116
_cell_angle_alpha 90.000000
_cell_angle_beta 90.702175
_cell_angle_gamma 90.000000
_cell_volume 1242.033470
_symmetry_space_group_name_H-M "P 21/C"
_symmetry_group_IT_number 14
_symmetry_cell_setting 'monoclinic'
loop_
_space_group_symop_operation_xyz
x,y,z
-x,1/2+y,1/2-z
-x,-y,-z
x,1/2-y,1/2+z
loop_
_atom_site_type_symbol
_atom_site_label
_atom_site_fract_x
_atom_site_fract_y
_atom_site_fract_z
Si Si1 0.748348 0.391894 0.029680
Si Si2 0.046005 0.202564 0.657318
Si Si3 0.839923 0.352653 0.436371
Si Si4 0.759228 0.578824 0.547461
Si Si5 0.037032 0.006658 0.803306
Si Si6 0.345499 0.327282 0.034141
O O1 0.544698 0.371983 0.057454
O O2 0.887496 0.339894 0.095952
O O3 0.778220 0.298788 0.951434
O O4 0.760798 0.548063 0.006233
O O5 0.063510 0.082782 0.721255
O O6 0.229142 0.218004 0.608755
O O7 0.723248 0.454553 0.488945
O O8 0.041099 0.365468 0.474184
O O9 0.875769 0.414461 0.349650
O O10 0.002498 0.152655 0.197437
O O11 0.791753 0.530355 0.637344
O O12 0.638264 0.706102 0.529074
#
# Coordination Sequence:
#
# PCOD9247296 Si02
#       6
#     4   4   4   4   4   4
#     4  11  23  38  62  90 116 155 201 244 292 342
#     4  12  22  42  58  87 127 153 189 247 291 356
#     4   9  16  38  60  83 110 147 204 238 282 347
#     4   9  16  38  60  83 110 147 204 238 282 347
#     4  10  22  35  64  89 113 162 195 229 315 350
#     4  11  23  38  62  90 116 155 201 244 292 342
#
# _framework density 19.323152
#
# number of rings (size 3 to 8) (size 9 to 14) (size 15 to 20)
#    1.000    0.667    5.000    0.500    4.667    0.667 
#    0.000    3.333    0.000    0.000    0.000    0.000 
#    0.000    0.000    0.000    0.000    0.000    0.000 
#
# Total GULP energy -133692.813667 kJ/mol
# GULP energy per Si atom -5570.533903 kJ/mol
# Density = 1.927917 g / cm^3
# Si number density = 19.323152 Si / 1000 Ang^3
#
#
#
# Elastic Constant Matrix: (Units=GPa)
#
#
# Indices 1 2 3 4 5 6 
#
# 1 42.9803 13.6592 13.0215 0.0000 -3.8346 0.0000
# 2 13.6592 91.7270 7.5697 0.0000 0.2749 0.0000
# 3 13.0215 7.5697 35.6981 0.0000 -0.7608 0.0000
# 4 0.0000 0.0000 0.0000 34.0444 0.0000 -3.2316
# 5 -3.8346 0.2749 -0.7608 0.0000 4.6613 0.0000
# 6 0.0000 0.0000 0.0000 -3.2316 0.0000 27.3535
#
#
#
# Elastic Compliance Matrix: (Units=1/GPa)
#
#
# Indices 1 2 3 4 5 6 
#
# 1 0.029320 -0.003656 -0.009434 0.000000 0.022796 0.000000
# 2 -0.003656 0.011557 -0.001200 0.000000 -0.003885 0.000000
# 3 -0.009434 -0.001200 0.031655 0.000000 -0.002524 0.000000
# 4 0.000000 0.000000 0.000000 0.029707 0.000000 0.003510
# 5 0.022796 -0.003885 -0.002524 0.000000 0.233101 0.000000
# 6 0.000000 0.000000 0.000000 0.003510 0.000000 0.036973
#
#
# Mechanical properties :
#
#
# Convention : Reuss Voigt Hill
#
# Bulk Modulus (GPa) = 22.75200 26.54514 24.64857
# Shear Modulus (GPa) = 12.03244 22.28886 17.16065
#
# Velocity S-wave (km/s) = 2.49809 3.39998 2.98331
# Velocity P-wave (km/s) = 4.48561 5.40189 4.96493
#
# Compressibility (1/GPa) = 0.04395218
#
# Stress axis : x y z
#
# Youngs Moduli (GPa) = 34.10596 86.52773 31.59103
#
# Poissons Ratio (x) = 0.31634 0.29803
# Poissons Ratio (y) = 0.12469 0.03790
# Poissons Ratio (z) = 0.32176 0.10382
#
# Static dielectric constant tensor:
#      x y z
#    x 1.694440 0.000000 -0.002920 
#    y 0.000000 1.710910 0.000000 
#    z -0.002920 0.000000 1.663660 
# 
# From -- ./inp_files/54578.got.cif
#   From: 2010.05.17/outbox.cif.g08.bks.cpg/sg14_28_cif.got.tgz:54578.got - 2010.06.03 17:49:19.
