data_PCOD9247984
_publ_section_title
;
Structure prediction by ZEFSAII (Michael W. Deem and Ramdas Pophale) SiO2 
 PCOD9247984
Probable space group: P 21/C
;
_chemical_formula_sum "Si O2"
_cell_formula_units_Z 20
_cell_length_a 10.782457
_cell_length_b 15.741452
_cell_length_c 5.299501
_cell_angle_alpha 90.000000
_cell_angle_beta 57.055634
_cell_angle_gamma 90.000000
_cell_volume 754.853144
_symmetry_space_group_name_H-M "P 21/C"
_symmetry_group_IT_number 14
_symmetry_cell_setting 'monoclinic'
loop_
_space_group_symop_operation_xyz
x,y,z
-x,1/2+y,1/2-z
-x,-y,-z
x,1/2-y,1/2+z
loop_
_atom_site_type_symbol
_atom_site_label
_atom_site_fract_x
_atom_site_fract_y
_atom_site_fract_z
Si Si1 0.092700 0.297763 0.129305
Si Si2 0.412775 0.936560 0.420208
Si Si3 0.244740 0.642085 0.508166
Si Si4 0.173386 0.021416 0.346960
Si Si5 0.492984 0.297738 0.483679
O O1 0.123186 0.275552 0.387844
O O2 0.916960 0.319336 0.328341
O O3 0.170893 0.379394 0.918472
O O4 0.527145 0.895960 0.088882
O O5 0.500000 0.000000 0.500000
O O6 0.267249 0.979367 0.467908
O O7 0.353967 0.857004 0.649119
O O8 0.233859 0.539886 0.559210
O O9 0.332005 0.686119 0.640774
O O10 0.000000 0.000000 0.500000
O O11 0.437699 0.260008 0.810953
#
# Coordination Sequence:
#
# PCOD9247984 Si02
#       5
#     4   4   4   4   4
#     4  11  25  39  68 103 137 178 234 297 357 410
#     4  11  25  44  72 102 149 191 240 282 357 431
#     4  10  22  40  71  98 141 180 241 288 350 416
#     4   9  23  42  67 101 138 185 235 293 350 425
#     4  11  21  39  65  99 133 174 232 292 339 395
#
# _framework density 26.495221999999998
#
# number of rings (size 3 to 8) (size 9 to 14) (size 15 to 20)
#    0.000    1.600    2.000    1.200   11.200    4.800 
#    0.000    2.000    0.000    0.000    0.000    0.000 
#    0.000    0.000    0.000    0.000    0.000    0.000 
#
# Total GULP energy -111541.268934 kJ/mol
# GULP energy per Si atom -5577.063447 kJ/mol
# Density = 2.643492 g / cm^3
# Si number density = 26.495222 Si / 1000 Ang^3
#
#
#
# Elastic Constant Matrix: (Units=GPa)
#
#
# Indices 1 2 3 4 5 6 
#
# 1 132.4531 18.8444 59.5145 0.0000 5.3088 0.0000
# 2 18.8444 101.9067 18.3657 0.0000 -2.9554 0.0000
# 3 59.5145 18.3657 140.1910 0.0000 10.9598 0.0000
# 4 0.0000 0.0000 0.0000 44.8709 0.0000 10.8436
# 5 5.3088 -2.9554 10.9598 0.0000 50.3062 0.0000
# 6 0.0000 0.0000 0.0000 10.8436 0.0000 44.9794
#
#
#
# Elastic Compliance Matrix: (Units=1/GPa)
#
#
# Indices 1 2 3 4 5 6 
#
# 1 0.009440 -0.001058 -0.003852 0.000000 -0.000219 0.000000
# 2 -0.001058 0.010208 -0.000960 0.000000 0.000921 0.000000
# 3 -0.003852 -0.000960 0.009020 0.000000 -0.001615 0.000000
# 4 0.000000 0.000000 0.000000 0.023665 0.000000 -0.005705
# 5 -0.000219 0.000921 -0.001615 0.000000 0.020307 0.000000
# 6 0.000000 0.000000 0.000000 -0.005705 0.000000 0.023608
#
#
# Mechanical properties :
#
#
# Convention : Reuss Voigt Hill
#
# Bulk Modulus (GPa) = 59.07060 63.11113 61.09086
# Shear Modulus (GPa) = 44.00215 46.55306 45.27760
#
# Velocity S-wave (km/s) = 4.07966 4.19625 4.13837
# Velocity P-wave (km/s) = 6.67343 6.88110 6.77806
#
# Compressibility (1/GPa) = 0.01692890
#
# Stress axis : x y z
#
# Youngs Moduli (GPa) = 105.93460 97.95998 110.86066
#
# Poissons Ratio (x) = 0.10362 0.42700
# Poissons Ratio (y) = 0.11206 0.10645
# Poissons Ratio (z) = 0.40803 0.09407
#
# Static dielectric constant tensor:
#      x y z
#    x 2.005410 0.000000 -0.016770 
#    y 0.000000 2.142740 0.000000 
#    z -0.016770 0.000000 2.179730 
# 
# From -- ./inp_files/2540.got.cif
#   From: 2010.05.17/outbox.cif.g08.bks.cpg/sg14_2_cif.got.tgz:2540.got - 2010.06.03 17:49:19.
