data_PCOD9247495
_publ_section_title
;
Structure prediction by ZEFSAII (Michael W. Deem and Ramdas Pophale) SiO2 
 PCOD9247495
Probable space group: P 21/C
;
_chemical_formula_sum "Si O2"
_cell_formula_units_Z 24
_cell_length_a 7.105028
_cell_length_b 9.521110
_cell_length_c 25.999832
_cell_angle_alpha 90.000000
_cell_angle_beta 145.338869
_cell_angle_gamma 90.000000
_cell_volume 1000.284834
_symmetry_space_group_name_H-M "P 21/C"
_symmetry_group_IT_number 14
_symmetry_cell_setting 'monoclinic'
loop_
_space_group_symop_operation_xyz
x,y,z
-x,1/2+y,1/2-z
-x,-y,-z
x,1/2-y,1/2+z
loop_
_atom_site_type_symbol
_atom_site_label
_atom_site_fract_x
_atom_site_fract_y
_atom_site_fract_z
Si Si1 0.115132 0.296393 0.646953
Si Si2 0.784597 0.011576 0.206514
Si Si3 0.441946 0.470955 0.228936
Si Si4 0.502907 0.374072 0.459052
Si Si5 0.328551 0.682649 0.860480
Si Si6 0.775035 0.885797 0.544013
O O1 0.230996 0.436798 0.701684
O O2 0.886495 0.324787 0.546629
O O3 0.878387 0.217118 0.633861
O O4 0.416271 0.189549 0.705435
O O5 0.614458 0.927524 0.122007
O O6 0.158968 0.953340 0.297247
O O7 0.612888 0.974798 0.221874
O O8 0.732750 0.175986 0.184939
O O9 0.136795 0.550591 0.133356
O O10 0.500000 0.500000 0.500000
O O11 0.278040 0.249183 0.431272
O O12 0.687881 0.654268 0.965440
O O13 0.500000 0.000000 0.500000
#
# Coordination Sequence:
#
# PCOD9247495 Si02
#       6
#     4   4   4   4   4   4
#     4  10  23  40  57  91 120 165 193 245 310 363
#     4  11  21  37  62  96 115 159 205 261 283 362
#     4  11  24  39  64  88 126 159 203 249 306 359
#     4  11  21  38  65  89 121 159 206 248 300 365
#     4  10  22  38  63  91 121 155 211 241 305 358
#     4  11  19  41  61  89 119 168 197 245 303 367
#
# _framework density 23.993167
#
# number of rings (size 3 to 8) (size 9 to 14) (size 15 to 20)
#    0.000    1.333    8.333    1.000    2.333    2.000 
#    0.000    1.667    0.000    6.000    0.000    0.000 
#    0.000    0.000    0.000    0.000    0.000    0.000 
#
# Total GULP energy -134243.367015 kJ/mol
# GULP energy per Si atom -5593.473626 kJ/mol
# Density = 2.393856 g / cm^3
# Si number density = 23.993167 Si / 1000 Ang^3
#
#
#
# Elastic Constant Matrix: (Units=GPa)
#
#
# Indices 1 2 3 4 5 6 
#
# 1 30.3529 30.2799 41.5927 0.0000 -16.1553 0.0000
# 2 30.2799 108.5244 33.6413 0.0000 -21.4443 0.0000
# 3 41.5927 33.6413 168.5343 0.0000 -29.0040 0.0000
# 4 0.0000 0.0000 0.0000 52.9920 0.0000 -6.2973
# 5 -16.1553 -21.4443 -29.0040 0.0000 29.2749 0.0000
# 6 0.0000 0.0000 0.0000 -6.2973 0.0000 29.9885
#
#
#
# Elastic Compliance Matrix: (Units=1/GPa)
#
#
# Indices 1 2 3 4 5 6 
#
# 1 0.071937 -0.012688 -0.012041 0.000000 0.018474 0.000000
# 2 -0.012688 0.013141 0.001157 0.000000 0.003770 0.000000
# 3 -0.012041 0.001157 0.009254 0.000000 0.003371 0.000000
# 4 0.000000 0.000000 0.000000 0.019354 0.000000 0.004064
# 5 0.018474 0.003770 0.003371 0.000000 0.050456 0.000000
# 6 0.000000 0.000000 0.000000 0.004064 0.000000 0.034200
#
#
# Mechanical properties :
#
#
# Convention : Reuss Voigt Hill
#
# Bulk Modulus (GPa) = 21.19218 57.60439 39.39828
# Shear Modulus (GPa) = 19.14131 35.91093 27.52612
#
# Velocity S-wave (km/s) = 2.82757 3.87294 3.39078
# Velocity P-wave (km/s) = 4.41723 6.63779 5.63792
#
# Compressibility (1/GPa) = 0.04718722
#
# Stress axis : x y z
#
# Youngs Moduli (GPa) = 13.90113 76.09736 108.05647
#
# Poissons Ratio (x) = 0.96554 1.30114
# Poissons Ratio (y) = 0.17638 -0.12503
# Poissons Ratio (z) = 0.16739 -0.08805
#
# Static dielectric constant tensor:
#      x y z
#    x 2.009420 0.000000 0.031900 
#    y 0.000000 1.970560 0.000000 
#    z 0.031900 0.000000 1.940100 
# 
# From -- ./inp_files/66918.got.cif
#   From: 2010.05.17/outbox.cif.g08.bks.cpg/sg14_34_cif.got.tgz:66918.got - 2010.06.03 17:49:19.
