data_PCOD9247532
_publ_section_title
;
Structure prediction by ZEFSAII (Michael W. Deem and Ramdas Pophale) SiO2 
 PCOD9247532
Probable space group: P 21/C
;
_chemical_formula_sum "Si O2"
_cell_formula_units_Z 20
_cell_length_a 12.210308
_cell_length_b 5.679958
_cell_length_c 24.965015
_cell_angle_alpha 90.000000
_cell_angle_beta 149.294913
_cell_angle_gamma 90.000000
_cell_volume 884.098726
_symmetry_space_group_name_H-M "P 21/C"
_symmetry_group_IT_number 14
_symmetry_cell_setting 'monoclinic'
loop_
_space_group_symop_operation_xyz
x,y,z
-x,1/2+y,1/2-z
-x,-y,-z
x,1/2-y,1/2+z
loop_
_atom_site_type_symbol
_atom_site_label
_atom_site_fract_x
_atom_site_fract_y
_atom_site_fract_z
Si Si1 0.304268 0.834288 0.729267
Si Si2 0.306872 0.854339 0.116514
Si Si3 0.531792 0.964545 0.630314
Si Si4 0.915977 0.186777 0.577372
Si Si5 0.942695 0.678056 0.253092
O O1 0.235802 0.707292 0.645789
O O2 0.329621 0.687968 0.794267
O O3 0.550255 0.914108 0.823125
O O4 0.130664 0.037182 0.663192
O O5 0.474743 0.660857 0.163002
O O6 0.127430 0.835070 0.995089
O O7 0.294178 0.981826 0.505968
O O8 0.687397 0.815132 0.658219
O O9 0.937742 0.341699 0.639241
O O10 0.991750 0.435460 0.242179
#
# Coordination Sequence:
#
# PCOD9247532 Si02
#       5
#     4   4   4   4   4
#     4  12  20  44  67 102 149 179 218 278 349 419
#     4  10  22  38  66 101 137 179 220 271 339 430
#     4  10  25  43  66 102 133 178 230 283 336 425
#     4  10  23  44  67 103 134 177 236 277 350 417
#     4  12  27  48  73  97 137 186 239 303 352 393
#
# _framework density 22.621907
#
# number of rings (size 3 to 8) (size 9 to 14) (size 15 to 20)
#    1.200    0.000    4.000    1.800    0.000    4.800 
#    0.000    3.000    0.000    0.000    0.000    0.000 
#    0.000    0.000    0.000    0.000    0.000    0.000 
#
# Total GULP energy -111478.781728 kJ/mol
# GULP energy per Si atom -5573.939086 kJ/mol
# Density = 2.257042 g / cm^3
# Si number density = 22.621907 Si / 1000 Ang^3
#
#
#
# Elastic Constant Matrix: (Units=GPa)
#
#
# Indices 1 2 3 4 5 6 
#
# 1 -7.2720 12.5095 -49.5712 0.0000 52.1673 0.0000
# 2 12.5095 68.9940 20.3953 0.0000 10.9651 0.0000
# 3 -49.5712 20.3953 29.7550 0.0000 53.9167 0.0000
# 4 0.0000 0.0000 0.0000 507.7130 0.0000 -696.3853
# 5 52.1673 10.9651 53.9167 0.0000 7.4055 0.0000
# 6 0.0000 0.0000 0.0000 -696.3853 0.0000 1063.0163
#
#
#
# Elastic Compliance Matrix: (Units=1/GPa)
#
#
# Indices 1 2 3 4 5 6 
#
# 1 0.007523 -0.000676 -0.008793 0.000000 0.012025 0.000000
# 2 -0.000676 0.016062 -0.001832 0.000000 -0.005686 0.000000
# 3 -0.008793 -0.001832 0.007950 0.000000 0.006768 0.000000
# 4 0.000000 0.000000 0.000000 0.019414 0.000000 0.012718
# 5 0.012025 -0.005686 0.006768 0.000000 0.009471 0.000000
# 6 0.000000 0.000000 0.000000 0.012718 0.000000 0.009272
#
#
# Mechanical properties :
#
#
# Convention : Reuss Voigt Hill
#
# Bulk Modulus (GPa) = 111.92675 6.46046 59.19360
# Shear Modulus (GPa) = 52.48174 322.83651 187.65913
#
# Velocity S-wave (km/s) = 4.82181 11.95908 9.11782
# Velocity P-wave (km/s) = 8.97688 13.91239 11.70767
#
# Compressibility (1/GPa) = 0.00893442
#
# Stress axis : x y z
#
# Youngs Moduli (GPa) = 132.92987 62.25991 125.78004
#
# Poissons Ratio (x) = 0.04207 1.10596
# Poissons Ratio (y) = 0.08983 0.23038
# Poissons Ratio (z) = 1.16883 0.11404
#
# Static dielectric constant tensor:
#      x y z
#    x 1.886940 0.000000 0.010180 
#    y 0.000000 1.917670 0.000000 
#    z 0.010180 0.000000 1.817890 
# 
# From -- ./inp_files/77329.got.cif
#   From: 2010.05.17/outbox.cif.g08.bks.cpg/sg14_39_cif.got.tgz:77329.got - 2010.06.03 17:49:19.
