data_PCOD9247908
_publ_section_title
;
Structure prediction by ZEFSAII (Michael W. Deem and Ramdas Pophale) SiO2 
 PCOD9247908
Probable space group: P 21/C
;
_chemical_formula_sum "Si O2"
_cell_formula_units_Z 28
_cell_length_a 15.255053
_cell_length_b 11.661536
_cell_length_c 9.346688
_cell_angle_alpha 90.000000
_cell_angle_beta 122.007170
_cell_angle_gamma 90.000000
_cell_volume 1409.982565
_symmetry_space_group_name_H-M "P 21/C"
_symmetry_group_IT_number 14
_symmetry_cell_setting 'monoclinic'
loop_
_space_group_symop_operation_xyz
x,y,z
-x,1/2+y,1/2-z
-x,-y,-z
x,1/2-y,1/2+z
loop_
_atom_site_type_symbol
_atom_site_label
_atom_site_fract_x
_atom_site_fract_y
_atom_site_fract_z
Si Si1 0.496203 0.340145 0.387457
Si Si2 0.667813 0.466660 0.719536
Si Si3 0.928748 0.665729 0.009280
Si Si4 0.119568 0.979154 0.760661
Si Si5 0.894055 0.563507 0.439859
Si Si6 0.532316 0.621059 0.961912
Si Si7 0.249097 0.057206 0.446158
O O1 0.582574 0.390112 0.569074
O O2 0.389147 0.408758 0.327486
O O3 0.486357 0.210904 0.428742
O O4 0.520244 0.356836 0.239510
O O5 0.773218 0.453059 0.724283
O O6 0.701801 0.455234 0.915093
O O7 0.831465 0.624574 0.021486
O O8 0.034980 0.623049 0.177043
O O9 0.926524 0.589836 0.862805
O O10 0.914939 0.799663 0.964769
O O11 0.142986 0.018422 0.939995
O O12 0.815562 0.526832 0.248644
O O13 0.000000 0.500000 0.500000
O O14 0.500000 0.500000 0.000000
O O15 0.653262 0.627704 0.025601
#
# Coordination Sequence:
#
# PCOD9247908 Si02
#       7
#     4   4   4   4   4   4   4
#     4  10  24  44  72  97 137 172 229 281 335 398
#     4   9  22  45  67  94 129 180 216 269 342 391
#     4  10  22  43  62  93 130 172 218 269 336 401
#     4  10  22  40  66  88 128 175 212 267 334 395
#     4  12  24  39  65  98 131 166 225 275 323 396
#     4  11  27  44  69 101 136 180 229 278 341 405
#     4  10  23  42  67  96 129 168 223 276 325 402
#
# _framework density 19.858401000000001
#
# number of rings (size 3 to 8) (size 9 to 14) (size 15 to 20)
#    0.000    1.714    1.429    0.857   16.000    0.000 
#    2.571    0.000    0.000    0.000    0.000    0.000 
#    0.000    0.000    0.000    0.000    0.000    0.000 
#
# Total GULP energy -156146.787276 kJ/mol
# GULP energy per Si atom -5576.670974 kJ/mol
# Density = 1.981320 g / cm^3
# Si number density = 19.858401 Si / 1000 Ang^3
#
#
#
# Elastic Constant Matrix: (Units=GPa)
#
#
# Indices 1 2 3 4 5 6 
#
# 1 70.3008 37.7119 38.3800 0.0000 -0.5038 0.0000
# 2 37.7119 53.9294 37.8021 0.0000 -6.0238 0.0000
# 3 38.3800 37.8021 183.2776 0.0000 -5.2048 0.0000
# 4 0.0000 0.0000 0.0000 12.6844 0.0000 -11.5002
# 5 -0.5038 -6.0238 -5.2048 0.0000 41.6993 0.0000
# 6 0.0000 0.0000 0.0000 -11.5002 0.0000 11.6352
#
#
#
# Elastic Compliance Matrix: (Units=1/GPa)
#
#
# Indices 1 2 3 4 5 6 
#
# 1 0.023435 -0.015368 -0.001799 0.000000 -0.002162 0.000000
# 2 -0.015368 0.032035 -0.003275 0.000000 0.004033 0.000000
# 3 -0.001799 -0.003275 0.006517 0.000000 0.000319 0.000000
# 4 0.000000 0.000000 0.000000 0.759014 0.000000 0.750212
# 5 -0.002162 0.004033 0.000319 0.000000 0.024578 0.000000
# 6 0.000000 0.000000 0.000000 0.750212 0.000000 0.827459
#
#
# Mechanical properties :
#
#
# Convention : Reuss Voigt Hill
#
# Bulk Modulus (GPa) = 47.38431 59.47731 53.43081
# Shear Modulus (GPa) = 2.90536 26.11136 14.50836
#
# Velocity S-wave (km/s) = 1.21087 3.63006 2.70588
# Velocity P-wave (km/s) = 5.08604 6.89822 6.06025
#
# Compressibility (1/GPa) = 0.02110403
#
# Stress axis : x y z
#
# Youngs Moduli (GPa) = 42.67043 31.21537 153.43426
#
# Poissons Ratio (x) = 0.47973 0.27606
# Poissons Ratio (y) = 0.65577 0.50245
# Poissons Ratio (z) = 0.07677 0.10222
#
# Static dielectric constant tensor:
#      x y z
#    x 1.714090 0.000000 0.009850 
#    y 0.000000 1.712370 0.000000 
#    z 0.009850 0.000000 1.691190 
# 
# From -- ./inp_files/15441.got.cif
#   From: 2010.05.17/outbox.cif.g08.bks.cpg/sg14_8_cif.got.tgz:15441.got - 2010.06.03 17:49:19.
