data_PCOD9247051
_publ_section_title
;
Structure prediction by ZEFSAII (Michael W. Deem and Ramdas Pophale) SiO2 
 PCOD9247051
Probable space group: P 21/C
;
_chemical_formula_sum "Si O2"
_cell_formula_units_Z 20
_cell_length_a 10.958509
_cell_length_b 13.145777
_cell_length_c 10.559377
_cell_angle_alpha 90.000000
_cell_angle_beta 31.838556
_cell_angle_gamma 90.000000
_cell_volume 802.455959
_symmetry_space_group_name_H-M "P 21/C"
_symmetry_group_IT_number 14
_symmetry_cell_setting 'monoclinic'
loop_
_space_group_symop_operation_xyz
x,y,z
-x,1/2+y,1/2-z
-x,-y,-z
x,1/2-y,1/2+z
loop_
_atom_site_type_symbol
_atom_site_label
_atom_site_fract_x
_atom_site_fract_y
_atom_site_fract_z
Si Si1 0.818357 0.196889 0.436722
Si Si2 0.611236 0.021847 0.766563
Si Si3 0.162955 0.064229 0.021304
Si Si4 0.454780 0.378800 0.053796
Si Si5 0.122167 0.113090 0.650168
O O1 0.695916 0.137829 0.661541
O O2 0.665657 0.171049 0.445231
O O3 0.061885 0.137683 0.215578
O O4 0.906396 0.311180 0.346699
O O5 0.804463 0.941207 0.546592
O O6 0.396228 0.011632 0.860498
O O7 0.500000 0.000000 0.000000
O O8 0.234544 0.132953 0.841003
O O9 0.966169 0.980132 0.183736
O O10 0.355802 0.341632 0.006881
O O11 0.500000 0.500000 0.000000
#
# Coordination Sequence:
#
# PCOD9247051 Si02
#       5
#     4   4   4   4   4
#     4  10  24  43  68 111 138 181 257 295 358 446
#     4  10  23  46  71  98 149 193 235 297 374 436
#     4  10  21  43  68  98 144 181 249 294 369 420
#     4  11  20  44  73 100 136 193 239 306 353 433
#     4  11  23  43  74 104 140 190 242 305 362 427
#
# _framework density 24.923487999999999
#
# number of rings (size 3 to 8) (size 9 to 14) (size 15 to 20)
#    0.000    1.600    6.000    0.600    0.000    6.400 
#   10.800    0.000    0.000    0.000    0.000    0.000 
#    0.000    0.000    0.000    0.000    0.000    0.000 
#
# Total GULP energy -111438.843291 kJ/mol
# GULP energy per Si atom -5571.942165 kJ/mol
# Density = 2.486676 g / cm^3
# Si number density = 24.923488 Si / 1000 Ang^3
#
#
#
# Elastic Constant Matrix: (Units=GPa)
#
#
# Indices 1 2 3 4 5 6 
#
# 1 66.4311 24.9862 17.0248 0.0000 12.1663 0.0000
# 2 24.9862 113.4839 47.8620 0.0000 -5.3169 0.0000
# 3 17.0248 47.8620 132.0447 0.0000 18.5101 0.0000
# 4 0.0000 0.0000 0.0000 42.8347 0.0000 -20.5153
# 5 12.1663 -5.3169 18.5101 0.0000 39.8625 0.0000
# 6 0.0000 0.0000 0.0000 -20.5153 0.0000 23.3433
#
#
#
# Elastic Compliance Matrix: (Units=1/GPa)
#
#
# Indices 1 2 3 4 5 6 
#
# 1 0.017719 -0.004220 0.000088 0.000000 -0.006011 0.000000
# 2 -0.004220 0.011845 -0.004440 0.000000 0.004930 0.000000
# 3 0.000088 -0.004440 0.009903 0.000000 -0.005217 0.000000
# 4 0.000000 0.000000 0.000000 0.040315 0.000000 0.035431
# 5 -0.006011 0.004930 -0.005217 0.000000 0.030001 0.000000
# 6 0.000000 0.000000 0.000000 0.035431 0.000000 0.073977
#
#
# Mechanical properties :
#
#
# Convention : Reuss Voigt Hill
#
# Bulk Modulus (GPa) = 44.80013 54.63395 49.71704
# Shear Modulus (GPa) = 23.99877 36.01390 30.00634
#
# Velocity S-wave (km/s) = 3.10643 3.80541 3.47355
# Velocity P-wave (km/s) = 5.55703 6.42468 6.00654
#
# Compressibility (1/GPa) = 0.02232136
#
# Stress axis : x y z
#
# Youngs Moduli (GPa) = 56.43705 84.42691 100.98265
#
# Poissons Ratio (x) = 0.35627 -0.00886
# Poissons Ratio (y) = 0.23816 0.44839
# Poissons Ratio (z) = -0.00495 0.37488
#
# Static dielectric constant tensor:
#      x y z
#    x 2.051670 0.000000 0.086660 
#    y 0.000000 2.055990 0.000000 
#    z 0.086660 0.000000 2.008400 
# 
# From -- ./inp_files/29686.got.cif
#   From: 2010.05.17/outbox.cif.g08.bks.cpg/sg14_15_cif.got.tgz:29686.got - 2010.06.03 17:49:19.
