data_PCOD9247152
_publ_section_title
;
Structure prediction by ZEFSAII (Michael W. Deem and Ramdas Pophale) SiO2 
 PCOD9247152
Probable space group: P 21/C
;
_chemical_formula_sum "Si O2"
_cell_formula_units_Z 32
_cell_length_a 7.915344
_cell_length_b 11.508542
_cell_length_c 15.811447
_cell_angle_alpha 90.000000
_cell_angle_beta 100.263555
_cell_angle_gamma 90.000000
_cell_volume 1417.281721
_symmetry_space_group_name_H-M "P 21/C"
_symmetry_group_IT_number 14
_symmetry_cell_setting 'monoclinic'
loop_
_space_group_symop_operation_xyz
x,y,z
-x,1/2+y,1/2-z
-x,-y,-z
x,1/2-y,1/2+z
loop_
_atom_site_type_symbol
_atom_site_label
_atom_site_fract_x
_atom_site_fract_y
_atom_site_fract_z
Si Si1 0.156336 0.321183 0.865278
Si Si2 0.859640 0.072396 0.039921
Si Si3 0.796901 0.975811 0.493971
Si Si4 0.604181 0.763515 0.395563
Si Si5 0.789768 0.205862 0.417027
Si Si6 0.403530 0.635582 0.714739
Si Si7 0.162715 0.086731 0.184512
Si Si8 0.400970 0.120034 0.943429
O O1 0.166463 0.336351 0.768033
O O2 0.243318 0.203745 0.902882
O O3 0.966427 0.321016 0.885341
O O4 0.241722 0.435362 0.914848
O O5 0.964794 0.083814 0.136304
O O6 0.685228 0.998348 0.030260
O O7 0.827864 0.191033 0.986580
O O8 0.000000 0.000000 0.000000
O O9 0.733147 0.866111 0.435119
O O10 0.713711 0.094791 0.457330
O O11 0.000000 0.000000 0.500000
O O12 0.490627 0.824593 0.311025
O O13 0.719422 0.658454 0.369748
O O14 0.522476 0.702067 0.472803
O O15 0.667364 0.246291 0.331769
O O16 0.251931 0.538914 0.708377
O O17 0.512793 0.595044 0.640890
#
# Coordination Sequence:
#
# PCOD9247152 Si02
#       8
#     4   4   4   4   4   4   4   4
#     4  10  21  44  69  97 134 182 234 292 345 402
#     4  12  21  45  73  97 133 180 239 291 341 416
#     4   9  21  41  71  97 130 178 232 285 342 401
#     4  11  24  43  70  99 143 185 224 288 354 421
#     4  11  23  46  67 100 137 178 239 289 340 424
#     4  12  27  43  68 105 148 181 229 290 354 434
#     4  12  24  44  68 100 140 180 237 291 344 414
#     4  11  23  45  72  99 140 189 226 289 360 407
#
# _framework density 22.578434000000001
#
# number of rings (size 3 to 8) (size 9 to 14) (size 15 to 20)
#    0.000    1.000    5.000    1.500    1.750    5.000 
#   11.250    2.500    0.000    0.000    0.000    0.000 
#    0.000    0.000    0.000    0.000    0.000    0.000 
#
# Total GULP energy -178549.347634 kJ/mol
# GULP energy per Si atom -5579.667114 kJ/mol
# Density = 2.252704 g / cm^3
# Si number density = 22.578434 Si / 1000 Ang^3
#
#
#
# Elastic Constant Matrix: (Units=GPa)
#
#
# Indices 1 2 3 4 5 6 
#
# 1 50.9970 3.1525 12.5921 0.0000 5.2809 0.0000
# 2 3.1525 97.4482 10.5042 0.0000 11.6450 0.0000
# 3 12.5921 10.5042 84.4899 0.0000 26.6741 0.0000
# 4 0.0000 0.0000 0.0000 13.0480 0.0000 23.1656
# 5 5.2809 11.6450 26.6741 0.0000 37.5406 0.0000
# 6 0.0000 0.0000 0.0000 23.1656 0.0000 -9.9740
#
#
#
# Elastic Compliance Matrix: (Units=1/GPa)
#
#
# Indices 1 2 3 4 5 6 
#
# 1 0.020389 -0.000264 -0.002741 0.000000 -0.000839 0.000000
# 2 -0.000264 0.010669 -0.000327 0.000000 -0.003040 0.000000
# 3 -0.002741 -0.000327 0.015639 0.000000 -0.010625 0.000000
# 4 0.000000 0.000000 0.000000 0.014958 0.000000 0.034742
# 5 -0.000839 -0.003040 -0.010625 0.000000 0.035248 0.000000
# 6 0.000000 0.000000 0.000000 0.034742 0.000000 -0.019569
#
#
# Mechanical properties :
#
#
# Convention : Reuss Voigt Hill
#
# Bulk Modulus (GPa) = 24.97974 31.71475 28.34725
# Shear Modulus (GPa) = 51.36385 21.90201 36.63293
#
# Velocity S-wave (km/s) = 4.77477 3.11793 4.03236
# Velocity P-wave (km/s) = 6.44092 5.19990 5.85339
#
# Compressibility (1/GPa) = 0.04003244
#
# Stress axis : x y z
#
# Youngs Moduli (GPa) = 49.04607 93.73009 63.94079
#
# Poissons Ratio (x) = 0.02474 0.17527
# Poissons Ratio (y) = 0.01294 0.02094
# Poissons Ratio (z) = 0.13444 0.03069
#
# Static dielectric constant tensor:
#      x y z
#    x 1.959900 0.000000 0.078940 
#    y 0.000000 1.679430 0.000000 
#    z 0.078940 0.000000 1.937420 
# 
# From -- ./inp_files/40327.got.cif
#   From: 2010.05.17/outbox.cif.g08.bks.cpg/sg14_21_cif.got.tgz:40327.got - 2010.06.03 17:49:19.
