data_PCOD9247164
_publ_section_title
;
Structure prediction by ZEFSAII (Michael W. Deem and Ramdas Pophale) SiO2 
 PCOD9247164
Probable space group: P 21/C
;
_chemical_formula_sum "Si O2"
_cell_formula_units_Z 26
_cell_length_a 19.327947
_cell_length_b 11.658009
_cell_length_c 14.153611
_cell_angle_alpha 90.000000
_cell_angle_beta 160.931760
_cell_angle_gamma 90.000000
_cell_volume 1041.882131
_symmetry_space_group_name_H-M "P 21/C"
_symmetry_group_IT_number 14
_symmetry_cell_setting 'monoclinic'
loop_
_space_group_symop_operation_xyz
x,y,z
-x,1/2+y,1/2-z
-x,-y,-z
x,1/2-y,1/2+z
loop_
_atom_site_type_symbol
_atom_site_label
_atom_site_fract_x
_atom_site_fract_y
_atom_site_fract_z
Si Si1 0.500000 0.500000 0.500000
Si Si2 0.166970 0.468282 0.580890
Si Si3 0.969500 0.309037 0.696612
Si Si4 0.539621 0.373295 0.929108
Si Si5 0.445570 0.809894 0.769662
Si Si6 0.173198 0.659198 0.147796
Si Si7 0.123985 0.234560 0.580411
O O1 0.582782 0.416263 0.695412
O O2 0.292085 0.540702 0.291166
O O3 0.042728 0.570894 0.371851
O O4 0.330797 0.413497 0.716360
O O5 0.032984 0.362136 0.445508
O O6 0.297290 0.525763 0.833727
O O7 0.749290 0.278702 0.466621
O O8 0.978709 0.207222 0.631724
O O9 0.150190 0.316012 0.009134
O O10 0.519547 0.349579 0.792489
O O11 0.643245 0.257623 0.107256
O O12 0.658042 0.751318 0.083658
O O13 0.036202 0.663051 0.064849
#
# Coordination Sequence:
#
# PCOD9247164 Si02
#       7
#     2   4   4   4   4   4   4
#     4  10  24  44  66  94 144 188 218 288 378 410
#     4  10  23  43  71  99 136 194 239 299 371 427
#     4  10  24  46  64 101 145 181 242 305 355 442
#     4  10  21  44  71  96 138 190 239 292 367 433
#     4  11  24  43  68 100 142 190 237 305 358 435
#     4  10  23  44  68 101 141 181 239 293 354 435
#     4  12  25  43  70 107 137 186 250 298 356 438
#
# _framework density 24.954837000000001
#
# number of rings (size 3 to 8) (size 9 to 14) (size 15 to 20)
#    0.000    1.538    1.538    3.692    4.308    6.769 
#    2.769    0.000    0.000    0.000    0.000    0.000 
#    0.000    0.000    0.000    0.000    0.000    0.000 
#
# Total GULP energy -145127.200233 kJ/mol
# GULP energy per Si atom -5581.815394 kJ/mol
# Density = 2.489804 g / cm^3
# Si number density = 24.954837 Si / 1000 Ang^3
#
#
#
# Elastic Constant Matrix: (Units=GPa)
#
#
# Indices 1 2 3 4 5 6 
#
# 1 113.8053 17.8894 30.4518 0.0000 -23.0958 0.0000
# 2 17.8894 82.5900 30.0562 0.0000 -5.2075 0.0000
# 3 30.4518 30.0562 73.6963 0.0000 -24.1552 0.0000
# 4 0.0000 0.0000 0.0000 27.6997 0.0000 -2.1004
# 5 -23.0958 -5.2075 -24.1552 0.0000 48.9022 0.0000
# 6 0.0000 0.0000 0.0000 -2.1004 0.0000 38.7522
#
#
#
# Elastic Compliance Matrix: (Units=1/GPa)
#
#
# Indices 1 2 3 4 5 6 
#
# 1 0.010381 -0.001034 -0.002740 0.000000 0.003439 0.000000
# 2 -0.001034 0.014429 -0.006101 0.000000 -0.001966 0.000000
# 3 -0.002740 -0.006101 0.019750 0.000000 0.007812 0.000000
# 4 0.000000 0.000000 0.000000 0.036250 0.000000 0.001965
# 5 0.003439 -0.001966 0.007812 0.000000 0.025722 0.000000
# 6 0.000000 0.000000 0.000000 0.001965 0.000000 0.025912
#
#
# Mechanical properties :
#
#
# Convention : Reuss Voigt Hill
#
# Bulk Modulus (GPa) = 40.31087 47.43183 43.87135
# Shear Modulus (GPa) = 31.15936 35.85043 33.50490
#
# Velocity S-wave (km/s) = 3.53743 3.79438 3.66815
# Velocity P-wave (km/s) = 5.73351 6.18423 5.96313
#
# Compressibility (1/GPa) = 0.02480721
#
# Stress axis : x y z
#
# Youngs Moduli (GPa) = 96.33275 69.30696 50.63201
#
# Poissons Ratio (x) = 0.07169 0.13875
# Poissons Ratio (y) = 0.09965 0.30893
# Poissons Ratio (z) = 0.26398 0.42287
#
# Static dielectric constant tensor:
#      x y z
#    x 1.957530 0.000000 -0.002030 
#    y 0.000000 1.989470 0.000000 
#    z -0.002030 0.000000 2.006200 
# 
# From -- ./inp_files/50520.got.cif
#   From: 2010.05.17/outbox.cif.g08.bks.cpg/sg14_26_cif.got.tgz:50520.got - 2010.06.03 17:49:19.
