data_PCOD9247897
_publ_section_title
;
Structure prediction by ZEFSAII (Michael W. Deem and Ramdas Pophale) SiO2 
 PCOD9247897
Probable space group: P 21/C
;
_chemical_formula_sum "Si O2"
_cell_formula_units_Z 28
_cell_length_a 5.375047
_cell_length_b 17.828145
_cell_length_c 11.574247
_cell_angle_alpha 90.000000
_cell_angle_beta 70.698650
_cell_angle_gamma 90.000000
_cell_volume 1046.786221
_symmetry_space_group_name_H-M "P 21/C"
_symmetry_group_IT_number 14
_symmetry_cell_setting 'monoclinic'
loop_
_space_group_symop_operation_xyz
x,y,z
-x,1/2+y,1/2-z
-x,-y,-z
x,1/2-y,1/2+z
loop_
_atom_site_type_symbol
_atom_site_label
_atom_site_fract_x
_atom_site_fract_y
_atom_site_fract_z
Si Si1 0.011777 0.990917 0.673501
Si Si2 0.246361 0.153404 0.348627
Si Si3 0.489320 0.283344 0.015870
Si Si4 0.925039 0.238203 0.767477
Si Si5 0.299986 0.654977 0.380242
Si Si6 0.978409 0.915076 0.132165
Si Si7 0.486335 0.574930 0.835103
O O1 0.982336 0.904925 0.646276
O O2 0.938725 0.007444 0.819428
O O3 0.786223 0.031992 0.635005
O O4 0.300707 0.027000 0.622576
O O5 0.258595 0.175413 0.480345
O O6 0.511778 0.119680 0.247454
O O7 0.180491 0.231010 0.295005
O O8 0.498665 0.200873 0.068603
O O9 0.558937 0.344211 0.101721
O O10 0.690600 0.269443 0.881403
O O11 0.881171 0.281762 0.654535
O O12 0.940294 0.149372 0.785187
O O13 0.120009 0.604708 0.491457
O O14 0.658775 0.915409 0.189791
#
# Coordination Sequence:
#
# PCOD9247897 Si02
#       7
#     4   4   4   4   4   4   4
#     4  10  25  43  68 101 137 180 226 271 343 403
#     4  11  25  41  66  99 137 173 227 283 333 406
#     4  10  23  40  68  97 133 175 228 277 343 393
#     4  10  22  40  65  98 131 174 227 283 336 399
#     4  10  22  41  66  98 132 177 227 283 334 400
#     4   9  22  40  66  97 132 180 226 276 339 406
#     4  10  23  43  67  95 137 175 223 271 338 402
#
# _framework density 26.748536000000001
#
# number of rings (size 3 to 8) (size 9 to 14) (size 15 to 20)
#    0.857    1.143    0.000    1.714    6.000    8.571 
#    0.000    1.429    0.000    0.000    0.000    0.000 
#    0.000    0.000    0.000    0.000    0.000    0.000 
#
# Total GULP energy -156400.547606 kJ/mol
# GULP energy per Si atom -5585.733843 kJ/mol
# Density = 2.668765 g / cm^3
# Si number density = 26.748536 Si / 1000 Ang^3
#
#
#
# Elastic Constant Matrix: (Units=GPa)
#
#
# Indices 1 2 3 4 5 6 
#
# 1 102.3044 22.2927 14.3538 0.0000 1.3771 0.0000
# 2 22.2927 77.9934 -8.3351 0.0000 6.1186 0.0000
# 3 14.3538 -8.3351 74.7369 0.0000 -7.6809 0.0000
# 4 0.0000 0.0000 0.0000 41.7875 0.0000 3.0612
# 5 1.3771 6.1186 -7.6809 0.0000 29.9094 0.0000
# 6 0.0000 0.0000 0.0000 3.0612 0.0000 42.9471
#
#
#
# Elastic Compliance Matrix: (Units=1/GPa)
#
#
# Indices 1 2 3 4 5 6 
#
# 1 0.010859 -0.003335 -0.002505 0.000000 -0.000461 0.000000
# 2 -0.003335 0.014163 0.001991 0.000000 -0.002233 0.000000
# 3 -0.002505 0.001991 0.014434 0.000000 0.003415 0.000000
# 4 0.000000 0.000000 0.000000 0.024056 0.000000 -0.001715
# 5 -0.000461 -0.002233 0.003415 0.000000 0.034789 0.000000
# 6 0.000000 0.000000 0.000000 -0.001715 0.000000 0.023407
#
#
# Mechanical properties :
#
#
# Convention : Reuss Voigt Hill
#
# Bulk Modulus (GPa) = 31.48910 34.62861 33.05885
# Shear Modulus (GPa) = 35.71594 38.04369 36.87982
#
# Velocity S-wave (km/s) = 3.65807 3.77539 3.71719
# Velocity P-wave (km/s) = 5.44424 5.65499 5.55062
#
# Compressibility (1/GPa) = 0.03175702
#
# Stress axis : x y z
#
# Youngs Moduli (GPa) = 92.08769 70.60727 69.27923
#
# Poissons Ratio (x) = 0.23550 0.17354
# Poissons Ratio (y) = 0.30715 -0.13791
# Poissons Ratio (z) = 0.23068 -0.14056
#
# Static dielectric constant tensor:
#      x y z
#    x 2.198270 0.000000 -0.021130 
#    y 0.000000 2.041430 0.000000 
#    z -0.021130 0.000000 2.124250 
# 
# From -- ./inp_files/21747.got.cif
#   From: 2010.05.17/outbox.cif.g08.bks.cpg/sg14_11_cif.got.tgz:21747.got - 2010.06.03 17:49:19.
