data_PCOD9247994
_publ_section_title
;
Structure prediction by ZEFSAII (Michael W. Deem and Ramdas Pophale) SiO2 
 PCOD9247994
Probable space group: P 21/C
;
_chemical_formula_sum "Si O2"
_cell_formula_units_Z 18
_cell_length_a 9.307438
_cell_length_b 5.112198
_cell_length_c 22.193313
_cell_angle_alpha 90.000000
_cell_angle_beta 45.337315
_cell_angle_gamma 90.000000
_cell_volume 751.080986
_symmetry_space_group_name_H-M "P 21/C"
_symmetry_group_IT_number 14
_symmetry_cell_setting 'monoclinic'
loop_
_space_group_symop_operation_xyz
x,y,z
-x,1/2+y,1/2-z
-x,-y,-z
x,1/2-y,1/2+z
loop_
_atom_site_type_symbol
_atom_site_label
_atom_site_fract_x
_atom_site_fract_y
_atom_site_fract_z
Si Si1 0.792254 0.837376 0.297425
Si Si2 0.500000 0.000000 0.000000
Si Si3 0.474051 0.828962 0.140683
Si Si4 0.127082 0.858060 0.618038
Si Si5 0.906195 0.752829 0.561536
O O1 0.653027 0.596055 0.319123
O O2 0.014273 0.796637 0.205516
O O3 0.679740 0.090884 0.305956
O O4 0.809272 0.873484 0.365667
O O5 0.452186 0.161359 0.950180
O O6 0.676361 0.212858 0.962795
O O7 0.666567 0.787232 0.125723
O O8 0.968570 0.824031 0.611281
O O9 0.000000 0.500000 0.500000
O O10 0.000000 0.000000 0.500000
#
# Coordination Sequence:
#
# PCOD9247994 Si02
#       5
#     4   2   4   4   4
#     4  11  26  45  72 107 143 198 244 313 368 450
#     4  10  22  40  74 100 142 186 244 298 352 446
#     4  11  25  45  70 108 146 191 250 299 386 438
#     4  11  25  47  77 107 153 192 261 307 381 448
#     4  12  27  46  73 112 149 194 243 318 378 448
#
# _framework density 23.965458000000002
#
# number of rings (size 3 to 8) (size 9 to 14) (size 15 to 20)
#    0.000    0.889    2.222    4.000    3.111    7.111 
#    0.000    0.000    0.000    0.000    0.000    0.000 
#    0.000    0.000    0.000    0.000    0.000    0.000 
#
# Total GULP energy -100203.067222 kJ/mol
# GULP energy per Si atom -5566.837068 kJ/mol
# Density = 2.391091 g / cm^3
# Si number density = 23.965458 Si / 1000 Ang^3
#
#
#
# Elastic Constant Matrix: (Units=GPa)
#
#
# Indices 1 2 3 4 5 6 
#
# 1 189.6209 33.2477 -14.4533 0.0000 -21.0416 0.0000
# 2 33.2477 173.5974 16.3932 0.0000 -26.7379 0.0000
# 3 -14.4533 16.3932 32.4396 0.0000 -8.9873 0.0000
# 4 0.0000 0.0000 0.0000 25.4976 0.0000 1.5250
# 5 -21.0416 -26.7379 -8.9873 0.0000 37.2901 0.0000
# 6 0.0000 0.0000 0.0000 1.5250 0.0000 24.6111
#
#
#
# Elastic Compliance Matrix: (Units=1/GPa)
#
#
# Indices 1 2 3 4 5 6 
#
# 1 0.006205 -0.001009 0.004333 0.000000 0.003822 0.000000
# 2 -0.001009 0.006780 -0.002879 0.000000 0.003598 0.000000
# 3 0.004333 -0.002879 0.036773 0.000000 0.009244 0.000000
# 4 0.000000 0.000000 0.000000 0.039365 0.000000 -0.002439
# 5 0.003822 0.003598 0.009244 0.000000 0.033781 0.000000
# 6 0.000000 0.000000 0.000000 -0.002439 0.000000 0.040783
#
#
# Mechanical properties :
#
#
# Convention : Reuss Voigt Hill
#
# Bulk Modulus (GPa) = 19.74364 51.78147 35.76256
# Shear Modulus (GPa) = 27.82739 41.51111 34.66925
#
# Velocity S-wave (km/s) = 3.41126 4.16639 3.80759
# Velocity P-wave (km/s) = 4.87563 6.69318 5.85536
#
# Compressibility (1/GPa) = 0.05064922
#
# Stress axis : x y z
#
# Youngs Moduli (GPa) = 161.15956 147.49874 27.19389
#
# Poissons Ratio (x) = 0.14881 -0.11784
# Poissons Ratio (y) = 0.16259 0.07828
# Poissons Ratio (z) = -0.69837 0.42461
#
# Static dielectric constant tensor:
#      x y z
#    x 1.854150 0.000000 -0.024040 
#    y 0.000000 1.999170 0.000000 
#    z -0.024040 0.000000 2.301410 
# 
# From -- ./inp_files/59924.got.cif
#   From: 2010.05.17/outbox.cif.g08.bks.cpg/sg14_30_cif.got.tgz:59924.got - 2010.06.03 17:49:19.
