data_PCOD9247454
_publ_section_title
;
Structure prediction by ZEFSAII (Michael W. Deem and Ramdas Pophale) SiO2 
 PCOD9247454
Probable space group: P 21/C
;
_chemical_formula_sum "Si O2"
_cell_formula_units_Z 28
_cell_length_a 13.488681
_cell_length_b 8.433080
_cell_length_c 11.387940
_cell_angle_alpha 90.000000
_cell_angle_beta 69.950976
_cell_angle_gamma 90.000000
_cell_volume 1216.889829
_symmetry_space_group_name_H-M "P 21/C"
_symmetry_group_IT_number 14
_symmetry_cell_setting 'monoclinic'
loop_
_space_group_symop_operation_xyz
x,y,z
-x,1/2+y,1/2-z
-x,-y,-z
x,1/2-y,1/2+z
loop_
_atom_site_type_symbol
_atom_site_label
_atom_site_fract_x
_atom_site_fract_y
_atom_site_fract_z
Si Si1 0.990879 0.501090 0.803028
Si Si2 0.858910 0.475884 0.479630
Si Si3 0.747167 0.474945 0.865245
Si Si4 0.640120 0.991083 0.154052
Si Si5 0.574960 0.192171 0.568300
Si Si6 0.009511 0.243064 0.498037
Si Si7 0.405413 0.162902 0.430864
O O1 0.872377 0.458626 0.811302
O O2 0.074583 0.518212 0.666455
O O3 0.030150 0.376988 0.884501
O O4 0.981501 0.662938 0.879879
O O5 0.736615 0.503071 0.521666
O O6 0.908665 0.614093 0.539770
O O7 0.892434 0.311903 0.527271
O O8 0.693666 0.493485 0.759964
O O9 0.686606 0.330258 0.954060
O O10 0.708183 0.622958 0.962521
O O11 0.595385 0.814222 0.152955
O O12 0.577864 0.152015 0.146563
O O13 0.485380 0.200233 0.505006
O O14 0.562845 0.014163 0.629714
#
# Coordination Sequence:
#
# PCOD9247454 Si02
#       7
#     4   4   4   4   4   4   4
#     4  11  22  40  62  87 125 165 205 249 303 361
#     4  11  23  37  57  91 125 159 206 249 296 371
#     4  10  22  40  63  97 125 160 219 256 298 391
#     4  12  23  40  68  93 127 169 205 253 319 368
#     4   9  22  46  64  94 129 156 208 266 308 375
#     4  10  22  38  60  82 120 170 202 250 302 350
#     4   9  22  46  64  94 129 156 208 266 308 375
#
# _framework density 23.009478999999999
#
# number of rings (size 3 to 8) (size 9 to 14) (size 15 to 20)
#    0.857    0.857    0.000    4.714    0.000    3.429 
#    2.571    0.000    0.000    0.000    0.000    0.000 
#    0.000    0.000    0.000    0.000    0.000    0.000 
#
# Total GULP energy -156415.311450 kJ/mol
# GULP energy per Si atom -5586.261123 kJ/mol
# Density = 2.295711 g / cm^3
# Si number density = 23.009479 Si / 1000 Ang^3
#
#
#
# Elastic Constant Matrix: (Units=GPa)
#
#
# Indices 1 2 3 4 5 6 
#
# 1 61.7282 16.3856 25.8132 0.0000 -10.6576 0.0000
# 2 16.3856 118.7595 37.2843 0.0000 12.8380 0.0000
# 3 25.8132 37.2843 96.2247 0.0000 -2.4410 0.0000
# 4 0.0000 0.0000 0.0000 33.1728 0.0000 3.8062
# 5 -10.6576 12.8380 -2.4410 0.0000 33.2437 0.0000
# 6 0.0000 0.0000 0.0000 3.8062 0.0000 22.0280
#
#
#
# Elastic Compliance Matrix: (Units=1/GPa)
#
#
# Indices 1 2 3 4 5 6 
#
# 1 0.019739 -0.002110 -0.004304 0.000000 0.006827 0.000000
# 2 -0.002110 0.010369 -0.003577 0.000000 -0.004943 0.000000
# 3 -0.004304 -0.003577 0.012957 0.000000 0.000953 0.000000
# 4 0.000000 0.000000 0.000000 0.030755 0.000000 -0.005314
# 5 0.006827 -0.004943 0.000953 0.000000 0.034248 0.000000
# 6 0.000000 0.000000 0.000000 -0.005314 0.000000 0.046315
#
#
# Mechanical properties :
#
#
# Convention : Reuss Voigt Hill
#
# Bulk Modulus (GPa) = 43.32370 48.40871 45.86621
# Shear Modulus (GPa) = 27.46345 30.83752 29.15049
#
# Velocity S-wave (km/s) = 3.45856 3.66486 3.56320
# Velocity P-wave (km/s) = 5.90071 6.24440 6.07498
#
# Compressibility (1/GPa) = 0.02308205
#
# Stress axis : x y z
#
# Youngs Moduli (GPa) = 50.66159 96.44243 77.17730
#
# Poissons Ratio (x) = 0.20350 0.33220
# Poissons Ratio (y) = 0.10690 0.27606
# Poissons Ratio (z) = 0.21807 0.34497
#
# Static dielectric constant tensor:
#      x y z
#    x 1.851390 0.000000 -0.048320 
#    y 0.000000 1.918790 0.000000 
#    z -0.048320 0.000000 1.872050 
# 
# From -- ./inp_files/31526.got.cif
#   From: 2010.05.17/outbox.cif.g08.bks.cpg/sg14_16_cif.got.tgz:31526.got - 2010.06.03 17:49:19.
