data_PCOD9247125
_publ_section_title
;
Structure prediction by ZEFSAII (Michael W. Deem and Ramdas Pophale) SiO2 
 PCOD9247125
Probable space group: P 21/C
;
_chemical_formula_sum "Si O2"
_cell_formula_units_Z 28
_cell_length_a 8.038640
_cell_length_b 28.902343
_cell_length_c 5.371979
_cell_angle_alpha 90.000000
_cell_angle_beta 118.867796
_cell_angle_gamma 90.000000
_cell_volume 1093.007526
_symmetry_space_group_name_H-M "P 21/C"
_symmetry_group_IT_number 14
_symmetry_cell_setting 'monoclinic'
loop_
_space_group_symop_operation_xyz
x,y,z
-x,1/2+y,1/2-z
-x,-y,-z
x,1/2-y,1/2+z
loop_
_atom_site_type_symbol
_atom_site_label
_atom_site_fract_x
_atom_site_fract_y
_atom_site_fract_z
Si Si1 0.908815 0.559271 0.053589
Si Si2 0.825868 0.379869 0.109600
Si Si3 0.257213 0.985647 0.944214
Si Si4 0.763290 0.274614 0.929122
Si Si5 0.692013 0.768698 0.865137
Si Si6 0.524797 0.567743 0.286562
Si Si7 0.185856 0.368203 0.657546
O O1 0.782246 0.597970 0.089544
O O2 0.048108 0.586056 0.966679
O O3 0.057060 0.537702 0.363333
O O4 0.801305 0.518947 0.831108
O O5 0.791121 0.329945 0.957515
O O6 0.629765 0.407719 0.003416
O O7 0.962254 0.368451 0.438838
O O8 0.404843 0.948834 0.939947
O O9 0.360329 0.021072 0.204679
O O10 0.838485 0.249989 0.734469
O O11 0.535794 0.265974 0.773708
O O12 0.760447 0.732815 0.701548
O O13 0.742917 0.816838 0.772862
O O14 0.683448 0.606412 0.453916
#
# Coordination Sequence:
#
# PCOD9247125 Si02
#       7
#     4   4   4   4   4   4   4
#     4  10  23  42  66 100 136 179 231 297 344 427
#     4  11  24  44  65 100 137 176 234 286 349 425
#     4   9  20  45  67  91 142 184 226 291 359 417
#     4  10  23  45  71 102 141 186 235 291 355 431
#     4  10  24  46  73 104 142 187 235 291 357 431
#     4  10  21  44  66  96 132 184 227 283 349 420
#     4  12  25  42  69 103 134 179 235 293 349 425
#
# _framework density 25.617387999999998
#
# number of rings (size 3 to 8) (size 9 to 14) (size 15 to 20)
#    0.000    1.714    2.857    0.000    4.000    2.286 
#   10.286    0.000    0.000    0.000    0.000    0.000 
#    0.000    0.000    0.000    0.000    0.000    0.000 
#
# Total GULP energy -156530.507911 kJ/mol
# GULP energy per Si atom -5590.375283 kJ/mol
# Density = 2.555908 g / cm^3
# Si number density = 25.617388 Si / 1000 Ang^3
#
#
#
# Elastic Constant Matrix: (Units=GPa)
#
#
# Indices 1 2 3 4 5 6 
#
# 1 83.5859 16.2893 30.6741 0.0000 19.8572 0.0000
# 2 16.2893 66.4547 -0.6126 0.0000 -17.0951 0.0000
# 3 30.6741 -0.6126 87.8417 0.0000 -0.2810 0.0000
# 4 0.0000 0.0000 0.0000 36.6454 0.0000 6.3059
# 5 19.8572 -17.0951 -0.2810 0.0000 26.0528 0.0000
# 6 0.0000 0.0000 0.0000 6.3059 0.0000 42.8348
#
#
#
# Elastic Compliance Matrix: (Units=1/GPa)
#
#
# Indices 1 2 3 4 5 6 
#
# 1 0.023966 -0.012844 -0.008544 0.000000 -0.026786 0.000000
# 2 -0.012844 0.024989 0.004743 0.000000 0.026238 0.000000
# 3 -0.008544 0.004743 0.014432 0.000000 0.009780 0.000000
# 4 0.000000 0.000000 0.000000 0.027998 0.000000 -0.004122
# 5 -0.026786 0.026238 0.009780 0.000000 0.076122 0.000000
# 6 0.000000 0.000000 0.000000 -0.004122 0.000000 0.023952
#
#
# Mechanical properties :
#
#
# Convention : Reuss Voigt Hill
#
# Bulk Modulus (GPa) = 33.22496 36.73154 34.97825
# Shear Modulus (GPa) = 21.29646 33.87538 27.58592
#
# Velocity S-wave (km/s) = 2.88640 3.64037 3.28509
# Velocity P-wave (km/s) = 4.90982 5.66033 5.29838
#
# Compressibility (1/GPa) = 0.03009785
#
# Stress axis : x y z
#
# Youngs Moduli (GPa) = 41.72622 40.01709 69.29038
#
# Poissons Ratio (x) = 0.51397 0.59202
# Poissons Ratio (y) = 0.53592 -0.32866
# Poissons Ratio (z) = 0.35651 -0.18981
#
# Static dielectric constant tensor:
#      x y z
#    x 2.042860 0.000000 0.031860 
#    y 0.000000 1.982480 0.000000 
#    z 0.031860 0.000000 2.145790 
# 
# From -- ./inp_files/2059.got.cif
#   From: 2010.05.17/outbox.cif.g08.bks.cpg/sg14_2_cif.got.tgz:2059.got - 2010.06.03 17:49:19.
