data_PCOD9247625
_publ_section_title
;
Structure prediction by ZEFSAII (Michael W. Deem and Ramdas Pophale) SiO2 
 PCOD9247625
Probable space group: P 21/C
;
_chemical_formula_sum "Si O2"
_cell_formula_units_Z 24
_cell_length_a 10.543615
_cell_length_b 11.234817
_cell_length_c 13.343626
_cell_angle_alpha 90.000000
_cell_angle_beta 140.806570
_cell_angle_gamma 90.000000
_cell_volume 998.862133
_symmetry_space_group_name_H-M "P 21/C"
_symmetry_group_IT_number 14
_symmetry_cell_setting 'monoclinic'
loop_
_space_group_symop_operation_xyz
x,y,z
-x,1/2+y,1/2-z
-x,-y,-z
x,1/2-y,1/2+z
loop_
_atom_site_type_symbol
_atom_site_label
_atom_site_fract_x
_atom_site_fract_y
_atom_site_fract_z
Si Si1 0.949725 0.234372 0.342785
Si Si2 0.075542 0.458152 0.164227
Si Si3 0.698091 0.611113 0.499146
Si Si4 0.551562 0.334220 0.110726
Si Si5 0.552308 0.603586 0.744463
Si Si6 0.714945 0.310197 0.010504
O O1 0.947890 0.097677 0.370936
O O2 0.155743 0.305933 0.477140
O O3 0.777141 0.312341 0.289464
O O4 0.872050 0.238317 0.178885
O O5 0.165573 0.446060 0.331280
O O6 0.245627 0.403335 0.196763
O O7 0.861603 0.391604 0.035015
O O8 0.544092 0.702428 0.456964
O O9 0.578327 0.510862 0.367519
O O10 0.431082 0.397692 0.124755
O O11 0.583717 0.377363 0.016601
O O12 0.429943 0.722502 0.638062
#
# Coordination Sequence:
#
# PCOD9247625 Si02
#       6
#     4   4   4   4   4   4
#     4   9  20  39  66  92 123 163 213 263 319 370
#     4  11  19  42  72  88 125 174 210 261 325 378
#     4  11  20  41  69  90 128 166 214 267 309 384
#     4  10  22  39  61  99 126 164 217 261 317 378
#     4  12  21  40  72  89 127 178 208 256 331 372
#     4   9  21  38  62 100 123 163 220 258 312 387
#
# _framework density 24.027339999999999
#
# number of rings (size 3 to 8) (size 9 to 14) (size 15 to 20)
#    1.000    0.667    5.000    0.500    0.000    2.000 
#    3.000    5.833    0.000    0.000    0.000    0.000 
#    0.000    0.000    0.000    0.000    0.000    0.000 
#
# Total GULP energy -134136.843388 kJ/mol
# GULP energy per Si atom -5589.035141 kJ/mol
# Density = 2.397265 g / cm^3
# Si number density = 24.027340 Si / 1000 Ang^3
#
#
#
# Elastic Constant Matrix: (Units=GPa)
#
#
# Indices 1 2 3 4 5 6 
#
# 1 176.3826 72.2526 11.3432 0.0000 4.3762 0.0000
# 2 72.2526 88.7004 26.9849 0.0000 -2.1951 0.0000
# 3 11.3432 26.9849 54.7992 0.0000 -4.3836 0.0000
# 4 0.0000 0.0000 0.0000 37.3572 0.0000 10.0084
# 5 4.3762 -2.1951 -4.3836 0.0000 46.8341 0.0000
# 6 0.0000 0.0000 0.0000 10.0084 0.0000 35.0718
#
#
#
# Elastic Compliance Matrix: (Units=1/GPa)
#
#
# Indices 1 2 3 4 5 6 
#
# 1 0.008734 -0.007722 0.001915 0.000000 -0.000999 0.000000
# 2 -0.007722 0.020087 -0.008222 0.000000 0.000893 0.000000
# 3 0.001915 -0.008222 0.022021 0.000000 0.001497 0.000000
# 4 0.000000 0.000000 0.000000 0.028985 0.000000 -0.008271
# 5 -0.000999 0.000893 0.001497 0.000000 0.021627 0.000000
# 6 0.000000 0.000000 0.000000 -0.008271 0.000000 0.030873
#
#
# Mechanical properties :
#
#
# Convention : Reuss Voigt Hill
#
# Bulk Modulus (GPa) = 43.89025 60.11594 52.00309
# Shear Modulus (GPa) = 29.76546 37.80605 33.78576
#
# Velocity S-wave (km/s) = 3.52350 3.97099 3.75392
# Velocity P-wave (km/s) = 5.90422 6.78963 6.36235
#
# Compressibility (1/GPa) = 0.02278410
#
# Stress axis : x y z
#
# Youngs Moduli (GPa) = 114.49110 49.78277 45.41222
#
# Poissons Ratio (x) = 0.38442 -0.08695
# Poissons Ratio (y) = 0.88409 0.37337
# Poissons Ratio (z) = -0.21921 0.40930
#
# Static dielectric constant tensor:
#      x y z
#    x 1.922480 0.000000 0.003110 
#    y 0.000000 1.896090 0.000000 
#    z 0.003110 0.000000 1.935330 
# 
# From -- ./inp_files/44476.got.cif
#   From: 2010.05.17/outbox.cif.g08.bks.cpg/sg14_23_cif.got.tgz:44476.got - 2010.06.03 17:49:19.
