data_PCOD9247198
_publ_section_title
;
Structure prediction by ZEFSAII (Michael W. Deem and Ramdas Pophale) SiO2 
 PCOD9247198
Probable space group: P 21/C
;
_chemical_formula_sum "Si O2"
_cell_formula_units_Z 24
_cell_length_a 17.883056
_cell_length_b 12.453689
_cell_length_c 13.125934
_cell_angle_alpha 90.000000
_cell_angle_beta 158.953015
_cell_angle_gamma 90.000000
_cell_volume 1049.846421
_symmetry_space_group_name_H-M "P 21/C"
_symmetry_group_IT_number 14
_symmetry_cell_setting 'monoclinic'
loop_
_space_group_symop_operation_xyz
x,y,z
-x,1/2+y,1/2-z
-x,-y,-z
x,1/2-y,1/2+z
loop_
_atom_site_type_symbol
_atom_site_label
_atom_site_fract_x
_atom_site_fract_y
_atom_site_fract_z
Si Si1 0.088519 0.152868 0.821838
Si Si2 0.024099 0.991108 0.149875
Si Si3 0.222197 0.118647 0.553483
Si Si4 0.654089 0.164949 0.149833
Si Si5 0.380200 0.607238 0.814646
Si Si6 0.781459 0.072447 0.093504
O O1 0.055535 0.117088 0.898194
O O2 0.856305 0.155928 0.478816
O O3 0.198125 0.267354 0.965103
O O4 0.212035 0.056561 0.921217
O O5 0.226083 0.028403 0.468766
O O6 0.000000 0.000000 0.000000
O O7 0.860855 0.079996 0.978288
O O8 0.020640 0.104449 0.369715
O O9 0.430438 0.111093 0.884374
O O10 0.586651 0.290243 0.073745
O O11 0.727146 0.118103 0.134359
O O12 0.384520 0.622648 0.698531
O O13 0.500000 0.500000 0.000000
#
# Coordination Sequence:
#
# PCOD9247198 Si02
#       6
#     4   4   4   4   4   4
#     4  10  21  45  65  97 142 171 227 295 328 416
#     4  10  23  40  67  93 132 176 221 277 338 407
#     4  10  23  44  63 102 133 171 235 281 334 416
#     4  12  22  42  72  93 136 182 217 284 363 390
#     4  10  22  42  64  96 132 173 230 281 324 423
#     4  10  24  42  63  99 137 171 231 281 343 408
#
# _framework density 22.860486999999999
#
# number of rings (size 3 to 8) (size 9 to 14) (size 15 to 20)
#    0.000    2.000    3.333    2.500    4.667    2.667 
#    3.000    0.000    3.667    0.000    0.000    0.000 
#    0.000    0.000    0.000    0.000    0.000    0.000 
#
# Total GULP energy -133704.183488 kJ/mol
# GULP energy per Si atom -5571.007645 kJ/mol
# Density = 2.280846 g / cm^3
# Si number density = 22.860487 Si / 1000 Ang^3
#
#
#
# Elastic Constant Matrix: (Units=GPa)
#
#
# Indices 1 2 3 4 5 6 
#
# 1 86.1163 27.7192 3.7571 0.0000 -10.2834 0.0000
# 2 27.7192 123.2581 7.1391 0.0000 -2.9227 0.0000
# 3 3.7571 7.1391 83.0582 0.0000 -4.0780 0.0000
# 4 0.0000 0.0000 0.0000 35.8538 0.0000 -8.8759
# 5 -10.2834 -2.9227 -4.0780 0.0000 24.7596 0.0000
# 6 0.0000 0.0000 0.0000 -8.8759 0.0000 15.7561
#
#
#
# Elastic Compliance Matrix: (Units=1/GPa)
#
#
# Indices 1 2 3 4 5 6 
#
# 1 0.013136 -0.002827 -0.000101 0.000000 0.005106 0.000000
# 2 -0.002827 0.008780 -0.000639 0.000000 -0.000243 0.000000
# 3 -0.000101 -0.000639 0.012192 0.000000 0.001891 0.000000
# 4 0.000000 0.000000 0.000000 0.032411 0.000000 0.018258
# 5 0.005106 -0.000243 0.001891 0.000000 0.042792 0.000000
# 6 0.000000 0.000000 0.000000 0.018258 0.000000 0.073753
#
#
# Mechanical properties :
#
#
# Convention : Reuss Voigt Hill
#
# Bulk Modulus (GPa) = 37.07085 41.07372 39.07229
# Shear Modulus (GPa) = 25.10181 32.19504 28.64843
#
# Velocity S-wave (km/s) = 3.31727 3.75684 3.54388
# Velocity P-wave (km/s) = 5.56091 6.06833 5.82015
#
# Compressibility (1/GPa) = 0.02697537
#
# Stress axis : x y z
#
# Youngs Moduli (GPa) = 76.12480 113.89374 82.02072
#
# Poissons Ratio (x) = 0.32201 0.00824
# Poissons Ratio (y) = 0.21523 0.05239
# Poissons Ratio (z) = 0.00765 0.07275
#
# Static dielectric constant tensor:
#      x y z
#    x 2.043130 0.000000 -0.152290 
#    y 0.000000 1.928980 0.000000 
#    z -0.152290 0.000000 2.056810 
# 
# From -- ./inp_files/50470.got.cif
#   From: 2010.05.17/outbox.cif.g08.bks.cpg/sg14_26_cif.got.tgz:50470.got - 2010.06.03 17:49:19.
