data_PCOD9247012
_publ_section_title
;
Structure prediction by ZEFSAII (Michael W. Deem and Ramdas Pophale) SiO2 
 PCOD9247012
Probable space group: P 21/C
;
_chemical_formula_sum "Si O2"
_cell_formula_units_Z 32
_cell_length_a 11.683014
_cell_length_b 10.792217
_cell_length_c 18.377554
_cell_angle_alpha 90.000000
_cell_angle_beta 143.892077
_cell_angle_gamma 90.000000
_cell_volume 1365.512473
_symmetry_space_group_name_H-M "P 21/C"
_symmetry_group_IT_number 14
_symmetry_cell_setting 'monoclinic'
loop_
_space_group_symop_operation_xyz
x,y,z
-x,1/2+y,1/2-z
-x,-y,-z
x,1/2-y,1/2+z
loop_
_atom_site_type_symbol
_atom_site_label
_atom_site_fract_x
_atom_site_fract_y
_atom_site_fract_z
Si Si1 0.109420 0.032796 0.980469
Si Si2 0.457839 0.799212 0.339364
Si Si3 0.489059 0.891098 0.194105
Si Si4 0.430646 0.460001 0.885573
Si Si5 0.889611 0.794401 0.596954
Si Si6 0.947614 0.681576 0.294630
Si Si7 0.231401 0.840245 0.523930
Si Si8 0.192862 0.574118 0.169579
O O1 0.076368 0.171469 0.934613
O O2 0.049205 0.937768 0.885133
O O3 0.336726 0.006292 0.116098
O O4 0.000000 0.000000 0.000000
O O5 0.518699 0.832219 0.288598
O O6 0.657083 0.793383 0.485827
O O7 0.331374 0.676673 0.278559
O O8 0.335008 0.917280 0.302522
O O9 0.369123 0.782640 0.094091
O O10 0.690474 0.945623 0.268531
O O11 0.278936 0.348170 0.807722
O O12 0.623475 0.435244 0.938818
O O13 0.500000 0.500000 0.000000
O O14 0.974906 0.801422 0.722248
O O15 0.986769 0.907779 0.602505
O O16 0.042439 0.798991 0.382801
O O17 0.180770 0.881328 0.579531
#
# Coordination Sequence:
#
# PCOD9247012 Si02
#       8
#     4   4   4   4   4   4   4   4
#     4  11  23  46  75 100 136 196 247 285 350 437
#     4  11  23  42  70 100 135 182 237 291 341 425
#     4  10  21  43  66  97 134 177 230 292 340 412
#     4  12  24  45  69  98 137 186 231 283 353 423
#     4  12  25  41  69 107 142 178 234 295 366 422
#     4  11  26  43  69 106 139 183 236 297 350 423
#     4  10  25  44  68 102 136 185 238 283 349 425
#     4  11  23  43  69  99 140 181 228 291 350 419
#
# _framework density 23.434426999999999
#
# number of rings (size 3 to 8) (size 9 to 14) (size 15 to 20)
#    0.000    1.000    3.750    3.750    3.500    2.500 
#    4.500    1.250    0.000    0.000    0.000    0.000 
#    0.000    0.000    0.000    0.000    0.000    0.000 
#
# Total GULP energy -178935.708982 kJ/mol
# GULP energy per Si atom -5591.740906 kJ/mol
# Density = 2.338109 g / cm^3
# Si number density = 23.434427 Si / 1000 Ang^3
#
#
#
# Elastic Constant Matrix: (Units=GPa)
#
#
# Indices 1 2 3 4 5 6 
#
# 1 83.1458 7.5622 27.2854 0.0000 -1.1285 0.0000
# 2 7.5622 68.2474 10.6458 0.0000 -5.1432 0.0000
# 3 27.2854 10.6458 107.1450 0.0000 -2.3972 0.0000
# 4 0.0000 0.0000 0.0000 37.3244 0.0000 10.8840
# 5 -1.1285 -5.1432 -2.3972 0.0000 35.0859 0.0000
# 6 0.0000 0.0000 0.0000 10.8840 0.0000 26.5076
#
#
#
# Elastic Compliance Matrix: (Units=1/GPa)
#
#
# Indices 1 2 3 4 5 6 
#
# 1 0.013185 -0.000947 -0.003262 0.000000 0.000062 0.000000
# 2 -0.000947 0.015105 -0.001213 0.000000 0.002101 0.000000
# 3 -0.003262 -0.001213 0.010294 0.000000 0.000421 0.000000
# 4 0.000000 0.000000 0.000000 0.030436 0.000000 -0.012497
# 5 0.000062 0.002101 0.000421 0.000000 0.028840 0.000000
# 6 0.000000 0.000000 0.000000 -0.012497 0.000000 0.042856
#
#
# Mechanical properties :
#
#
# Convention : Reuss Voigt Hill
#
# Bulk Modulus (GPa) = 36.04986 38.83612 37.44299
# Shear Modulus (GPa) = 31.09326 33.98657 32.53992
#
# Velocity S-wave (km/s) = 3.64651 3.81239 3.73037
# Velocity P-wave (km/s) = 5.75726 5.99894 5.87934
#
# Compressibility (1/GPa) = 0.02773936
#
# Stress axis : x y z
#
# Youngs Moduli (GPa) = 75.84634 66.20320 97.14643
#
# Poissons Ratio (x) = 0.06272 0.31689
# Poissons Ratio (y) = 0.07186 0.11780
# Poissons Ratio (z) = 0.24741 0.08028
#
# Static dielectric constant tensor:
#      x y z
#    x 1.850130 0.000000 0.045570 
#    y 0.000000 1.935500 0.000000 
#    z 0.045570 0.000000 1.856810 
# 
# From -- ./inp_files/57722.got.cif
#   From: 2010.05.17/outbox.cif.g08.bks.cpg/sg14_29_cif.got.tgz:57722.got - 2010.06.03 17:49:19.
