data_PCOD9247401
_publ_section_title
;
Structure prediction by ZEFSAII (Michael W. Deem and Ramdas Pophale) SiO2 
 PCOD9247401
Probable space group: P 21/C
;
_chemical_formula_sum "Si O2"
_cell_formula_units_Z 24
_cell_length_a 8.657033
_cell_length_b 8.178923
_cell_length_c 20.800240
_cell_angle_alpha 90.000000
_cell_angle_beta 38.718295
_cell_angle_gamma 90.000000
_cell_volume 921.202641
_symmetry_space_group_name_H-M "P 21/C"
_symmetry_group_IT_number 14
_symmetry_cell_setting 'monoclinic'
loop_
_space_group_symop_operation_xyz
x,y,z
-x,1/2+y,1/2-z
-x,-y,-z
x,1/2-y,1/2+z
loop_
_atom_site_type_symbol
_atom_site_label
_atom_site_fract_x
_atom_site_fract_y
_atom_site_fract_z
Si Si1 0.703403 0.195933 0.160024
Si Si2 0.088812 0.007602 0.559352
Si Si3 0.259116 0.294246 0.900110
Si Si4 0.018167 0.635849 0.775307
Si Si5 0.579490 0.493054 0.580247
Si Si6 0.016606 0.004063 0.149185
O O1 0.879536 0.353336 0.110612
O O2 0.481381 0.225226 0.280107
O O3 0.832254 0.037372 0.150627
O O4 0.604509 0.154879 0.121861
O O5 0.116749 0.024380 0.626451
O O6 0.300718 0.066490 0.441865
O O7 0.968642 0.844172 0.571241
O O8 0.245986 0.133355 0.946393
O O9 0.302653 0.569699 0.674765
O O10 0.983563 0.819288 0.813464
O O11 0.924502 0.620280 0.733124
O O12 0.716560 0.460082 0.468143
#
# Coordination Sequence:
#
# PCOD9247401 Si02
#       6
#     4   4   4   4   4   4
#     4  11  21  40  64  96 120 156 204 256 302 358
#     4  10  22  37  62  95 124 156 200 256 306 354
#     4  11  19  38  65  90 124 155 201 250 308 350
#     4  11  23  45  59  89 126 165 201 247 307 361
#     4  12  22  42  66  89 125 158 205 252 305 360
#     4  11  25  42  62  90 125 163 202 252 302 362
#
# _framework density 26.052897000000002
#
# number of rings (size 3 to 8) (size 9 to 14) (size 15 to 20)
#    0.000    1.000    8.333    1.000    0.000    1.333 
#    6.000    3.333    0.000    0.000    0.000    0.000 
#    0.000    0.000    0.000    0.000    0.000    0.000 
#
# Total GULP energy -134166.699240 kJ/mol
# GULP energy per Si atom -5590.279135 kJ/mol
# Density = 2.599360 g / cm^3
# Si number density = 26.052897 Si / 1000 Ang^3
#
#
#
# Elastic Constant Matrix: (Units=GPa)
#
#
# Indices 1 2 3 4 5 6 
#
# 1 55.1809 12.7049 25.9255 0.0000 12.3646 0.0000
# 2 12.7049 37.2231 9.9807 0.0000 -7.3300 0.0000
# 3 25.9255 9.9807 172.2383 0.0000 20.9986 0.0000
# 4 0.0000 0.0000 0.0000 43.4232 0.0000 15.1863
# 5 12.3646 -7.3300 20.9986 0.0000 32.3812 0.0000
# 6 0.0000 0.0000 0.0000 15.1863 0.0000 34.7224
#
#
#
# Elastic Compliance Matrix: (Units=1/GPa)
#
#
# Indices 1 2 3 4 5 6 
#
# 1 0.023345 -0.009449 -0.001758 0.000000 -0.009913 0.000000
# 2 -0.009449 0.033068 -0.002005 0.000000 0.012394 0.000000
# 3 -0.001758 -0.002005 0.006689 0.000000 -0.004120 0.000000
# 4 0.000000 0.000000 0.000000 0.027188 0.000000 -0.011891
# 5 -0.009913 0.012394 -0.004120 0.000000 0.040145 0.000000
# 6 0.000000 0.000000 0.000000 -0.011891 0.000000 0.034001
#
#
# Mechanical properties :
#
#
# Convention : Reuss Voigt Hill
#
# Bulk Modulus (GPa) = 27.26354 40.20716 33.73535
# Shear Modulus (GPa) = 24.62028 36.50744 30.56386
#
# Velocity S-wave (km/s) = 3.07744 3.74743 3.42884
# Velocity P-wave (km/s) = 4.80780 5.84728 5.35283
#
# Compressibility (1/GPa) = 0.03667902
#
# Stress axis : x y z
#
# Youngs Moduli (GPa) = 42.83604 30.24055 149.49896
#
# Poissons Ratio (x) = 0.28574 0.26279
# Poissons Ratio (y) = 0.40475 0.29974
# Poissons Ratio (z) = 0.07530 0.06063
#
# Static dielectric constant tensor:
#      x y z
#    x 2.124770 0.000000 -0.007910 
#    y 0.000000 2.097130 0.000000 
#    z -0.007910 0.000000 2.083670 
# 
# From -- ./inp_files/66755.got.cif
#   From: 2010.05.17/outbox.cif.g08.bks.cpg/sg14_34_cif.got.tgz:66755.got - 2010.06.03 17:49:19.
