data_PCOD9247292
_publ_section_title
;
Structure prediction by ZEFSAII (Michael W. Deem and Ramdas Pophale) SiO2 
 PCOD9247292
Probable space group: P 21/C
;
_chemical_formula_sum "Si O2"
_cell_formula_units_Z 32
_cell_length_a 11.854646
_cell_length_b 14.053939
_cell_length_c 18.287659
_cell_angle_alpha 90.000000
_cell_angle_beta 151.275608
_cell_angle_gamma 90.000000
_cell_volume 1464.285325
_symmetry_space_group_name_H-M "P 21/C"
_symmetry_group_IT_number 14
_symmetry_cell_setting 'monoclinic'
loop_
_space_group_symop_operation_xyz
x,y,z
-x,1/2+y,1/2-z
-x,-y,-z
x,1/2-y,1/2+z
loop_
_atom_site_type_symbol
_atom_site_label
_atom_site_fract_x
_atom_site_fract_y
_atom_site_fract_z
Si Si1 0.721277 0.103594 0.806479
Si Si2 0.752800 0.585304 0.712406
Si Si3 0.491830 0.686191 0.184581
Si Si4 0.720268 0.389510 0.639300
Si Si5 0.258284 0.829392 0.699254
Si Si6 0.932136 0.262649 0.655232
Si Si7 0.739220 0.619612 0.873551
Si Si8 0.909667 0.569561 0.353939
O O1 0.740458 0.214987 0.801101
O O2 0.455766 0.080106 0.681376
O O3 0.835412 0.040325 0.807090
O O4 0.881456 0.081584 0.968616
O O5 0.844690 0.490917 0.723367
O O6 0.480746 0.595294 0.535054
O O7 0.767279 0.574246 0.808519
O O8 0.881373 0.680337 0.756733
O O9 0.365156 0.641000 0.182518
O O10 0.640765 0.775646 0.297875
O O11 0.674944 0.616511 0.252525
O O12 0.297588 0.725826 0.018515
O O13 0.605876 0.366888 0.653033
O O14 0.867108 0.296312 0.699682
O O15 0.993610 0.867554 0.552752
O O16 0.016601 0.363922 0.670553
#
# Coordination Sequence:
#
# PCOD9247292 Si02
#       8
#     4   4   4   4   4   4   4   4
#     4  10  22  35  61  98 130 164 212 274 321 377
#     4  11  23  45  65  92 128 179 217 259 324 403
#     4  11  19  38  67  93 124 174 211 263 318 392
#     4  11  27  41  65 100 130 169 219 269 331 377
#     4  11  23  41  64 102 130 162 220 278 324 364
#     4  12  21  44  67  89 130 181 214 257 325 406
#     4  11  19  41  67  90 130 169 219 266 323 382
#     4  11  20  37  63  95 124 172 217 252 325 392
#
# _framework density 21.853664999999999
#
# number of rings (size 3 to 8) (size 9 to 14) (size 15 to 20)
#    0.000    1.000    7.500    0.000    1.750    4.500 
#    2.250    0.000    0.000    3.750    0.000    0.000 
#    0.000    0.000    0.000    0.000    0.000    0.000 
#
# Total GULP energy -178684.843371 kJ/mol
# GULP energy per Si atom -5583.901355 kJ/mol
# Density = 2.180393 g / cm^3
# Si number density = 21.853665 Si / 1000 Ang^3
#
#
#
# Elastic Constant Matrix: (Units=GPa)
#
#
# Indices 1 2 3 4 5 6 
#
# 1 75.6232 22.6789 38.4514 0.0000 -2.4197 0.0000
# 2 22.6789 71.1885 37.3075 0.0000 -8.5175 0.0000
# 3 38.4514 37.3075 80.5046 0.0000 -10.8589 0.0000
# 4 0.0000 0.0000 0.0000 20.9135 0.0000 -3.4007
# 5 -2.4197 -8.5175 -10.8589 0.0000 42.4661 0.0000
# 6 0.0000 0.0000 0.0000 -3.4007 0.0000 24.0535
#
#
#
# Elastic Compliance Matrix: (Units=1/GPa)
#
#
# Indices 1 2 3 4 5 6 
#
# 1 0.017672 -0.001680 -0.007842 0.000000 -0.001335 0.000000
# 2 -0.001680 0.018815 -0.007686 0.000000 0.001713 0.000000
# 3 -0.007842 -0.007686 0.020156 0.000000 0.003166 0.000000
# 4 0.000000 0.000000 0.000000 0.048941 0.000000 0.006919
# 5 -0.001335 0.001713 0.003166 0.000000 0.024625 0.000000
# 6 0.000000 0.000000 0.000000 0.006919 0.000000 0.042552
#
#
# Mechanical properties :
#
#
# Convention : Reuss Voigt Hill
#
# Bulk Modulus (GPa) = 44.98990 47.13247 46.06118
# Shear Modulus (GPa) = 23.30051 26.07852 24.68951
#
# Velocity S-wave (km/s) = 3.26882 3.45820 3.36484
# Velocity P-wave (km/s) = 5.90580 6.12859 6.01823
#
# Compressibility (1/GPa) = 0.02222721
#
# Stress axis : x y z
#
# Youngs Moduli (GPa) = 56.58665 53.14830 49.61226
#
# Poissons Ratio (x) = 0.08927 0.38908
# Poissons Ratio (y) = 0.09505 0.38132
# Poissons Ratio (z) = 0.44377 0.40850
#
# Static dielectric constant tensor:
#      x y z
#    x 1.847090 0.000000 0.015380 
#    y 0.000000 1.844240 0.000000 
#    z 0.015380 0.000000 1.756550 
# 
# From -- ./inp_files/58013.got.cif
#   From: 2010.05.17/outbox.cif.g08.bks.cpg/sg14_30_cif.got.tgz:58013.got - 2010.06.03 17:49:19.
