data_PCOD9247799
_publ_section_title
;
Structure prediction by ZEFSAII (Michael W. Deem and Ramdas Pophale) SiO2 
 PCOD9247799
Probable space group: P 21/C
;
_chemical_formula_sum "Si O2"
_cell_formula_units_Z 32
_cell_length_a 24.375362
_cell_length_b 5.683805
_cell_length_c 17.562976
_cell_angle_alpha 90.000000
_cell_angle_beta 150.427302
_cell_angle_gamma 90.000000
_cell_volume 1200.880238
_symmetry_space_group_name_H-M "P 21/C"
_symmetry_group_IT_number 14
_symmetry_cell_setting 'monoclinic'
loop_
_space_group_symop_operation_xyz
x,y,z
-x,1/2+y,1/2-z
-x,-y,-z
x,1/2-y,1/2+z
loop_
_atom_site_type_symbol
_atom_site_label
_atom_site_fract_x
_atom_site_fract_y
_atom_site_fract_z
Si Si1 0.397122 0.235566 0.296944
Si Si2 0.137933 0.557599 0.673365
Si Si3 0.896007 0.552386 0.787536
Si Si4 0.655108 0.478373 0.425046
Si Si5 0.461597 0.864962 0.802380
Si Si6 0.908663 0.029379 0.603319
Si Si7 0.896848 0.523066 0.546956
Si Si8 0.381339 0.516154 0.928107
O O1 0.388271 0.511732 0.278795
O O2 0.346060 0.093756 0.304544
O O3 0.369437 0.133710 0.180244
O O4 0.530616 0.221873 0.474180
O O5 0.107877 0.310673 0.678221
O O6 0.892001 0.491812 0.450977
O O7 0.095540 0.814765 0.650244
O O8 0.271258 0.578804 0.839260
O O9 0.775894 0.529812 0.602424
O O10 0.996707 0.538604 0.848899
O O11 0.633147 0.216568 0.370067
O O12 0.554667 0.508987 0.363443
O O13 0.539723 0.670761 0.935045
O O14 0.848220 0.280566 0.523182
O O15 0.977684 0.026702 0.765539
O O16 0.850654 0.777778 0.518624
#
# Coordination Sequence:
#
# PCOD9247799 Si02
#       8
#     4   4   4   4   4   4   4   4
#     4  10  22  40  62  85 124 175 224 266 323 384
#     4  12  26  43  67 100 135 173 212 276 324 392
#     4  12  27  42  67 100 136 169 223 267 325 388
#     4  11  23  35  60  91 122 176 212 270 313 381
#     4  11  20  39  61  83 127 173 220 265 323 379
#     4  10  23  47  72  99 131 168 213 270 320 409
#     4  10  23  46  73  98 132 170 211 263 341 385
#     4  10  23  40  60  91 126 167 222 273 323 379
#
# _framework density 26.647119
#
# number of rings (size 3 to 8) (size 9 to 14) (size 15 to 20)
#    0.000    1.250    2.500    2.625    5.250    3.000 
#    0.000    1.250    0.000    0.000    0.000    0.000 
#    0.000    0.000    0.000    0.000    0.000    0.000 
#
# Total GULP energy -179015.608715 kJ/mol
# GULP energy per Si atom -5594.237772 kJ/mol
# Density = 2.658647 g / cm^3
# Si number density = 26.647119 Si / 1000 Ang^3
#
#
#
# Elastic Constant Matrix: (Units=GPa)
#
#
# Indices 1 2 3 4 5 6 
#
# 1 104.2999 42.7495 34.1609 0.0000 -1.8447 0.0000
# 2 42.7495 168.7529 32.5350 0.0000 -12.5809 0.0000
# 3 34.1609 32.5350 106.2417 0.0000 -12.0845 0.0000
# 4 0.0000 0.0000 0.0000 20.5474 0.0000 -20.9165
# 5 -1.8447 -12.5809 -12.0845 0.0000 59.3508 0.0000
# 6 0.0000 0.0000 0.0000 -20.9165 0.0000 43.8377
#
#
#
# Elastic Compliance Matrix: (Units=1/GPa)
#
#
# Indices 1 2 3 4 5 6 
#
# 1 0.011562 -0.002394 -0.003072 0.000000 -0.000774 0.000000
# 2 -0.002394 0.006848 -0.001198 0.000000 0.001133 0.000000
# 3 -0.003072 -0.001198 0.010982 0.000000 0.001887 0.000000
# 4 0.000000 0.000000 0.000000 0.094631 0.000000 0.045152
# 5 -0.000774 0.001133 0.001887 0.000000 0.017449 0.000000
# 6 0.000000 0.000000 0.000000 0.045152 0.000000 0.044355
#
#
# Mechanical properties :
#
#
# Convention : Reuss Voigt Hill
#
# Bulk Modulus (GPa) = 62.26005 66.46505 64.36255
# Shear Modulus (GPa) = 24.44870 42.73711 33.59291
#
# Velocity S-wave (km/s) = 3.03231 4.00911 3.55443
# Velocity P-wave (km/s) = 5.97288 6.81377 6.40713
#
# Compressibility (1/GPa) = 0.01606167
#
# Stress axis : x y z
#
# Youngs Moduli (GPa) = 86.49287 146.03114 91.05856
#
# Poissons Ratio (x) = 0.34963 0.27976
# Poissons Ratio (y) = 0.20708 0.10912
# Poissons Ratio (z) = 0.26574 0.17499
#
# Static dielectric constant tensor:
#      x y z
#    x 2.102380 0.000000 0.002980 
#    y 0.000000 2.271500 0.000000 
#    z 0.002980 0.000000 2.056070 
# 
# From -- ./inp_files/59887.got.cif
#   From: 2010.05.17/outbox.cif.g08.bks.cpg/sg14_30_cif.got.tgz:59887.got - 2010.06.03 17:49:19.
