data_PCOD9247344
_publ_section_title
;
Structure prediction by ZEFSAII (Michael W. Deem and Ramdas Pophale) SiO2 
 PCOD9247344
Probable space group: P 21/C
;
_chemical_formula_sum "Si O2"
_cell_formula_units_Z 32
_cell_length_a 15.769965
_cell_length_b 14.196889
_cell_length_c 21.232925
_cell_angle_alpha 90.000000
_cell_angle_beta 17.097818
_cell_angle_gamma 90.000000
_cell_volume 1397.612805
_symmetry_space_group_name_H-M "P 21/C"
_symmetry_group_IT_number 14
_symmetry_cell_setting 'monoclinic'
loop_
_space_group_symop_operation_xyz
x,y,z
-x,1/2+y,1/2-z
-x,-y,-z
x,1/2-y,1/2+z
loop_
_atom_site_type_symbol
_atom_site_label
_atom_site_fract_x
_atom_site_fract_y
_atom_site_fract_z
Si Si1 0.944486 0.608572 0.553803
Si Si2 0.191557 0.359407 0.138322
Si Si3 0.748241 0.734022 0.583115
Si Si4 0.069322 0.587307 0.796571
Si Si5 0.448179 0.603342 0.010446
Si Si6 0.729459 0.886985 0.831362
Si Si7 0.832211 0.844498 0.897549
Si Si8 0.850817 0.207208 0.982354
O O1 0.910374 0.664406 0.514026
O O2 0.666887 0.620362 0.797258
O O3 0.000000 0.500000 0.500000
O O4 0.189695 0.659634 0.420936
O O5 0.478341 0.341597 0.976459
O O6 0.098822 0.260101 0.175779
O O7 0.141993 0.426607 0.114425
O O8 0.969090 0.375297 0.353015
O O9 0.654164 0.676065 0.587088
O O10 0.928491 0.827559 0.436676
O O11 0.454646 0.761358 0.825793
O O12 0.117890 0.485854 0.794980
O O13 0.397609 0.617718 0.543886
O O14 0.500000 0.500000 0.000000
O O15 0.129625 0.613855 0.211382
O O16 0.708596 0.892712 0.923132
O O17 0.927534 0.796442 0.673152
#
# Coordination Sequence:
#
# PCOD9247344 Si02
#       8
#     4   4   4   4   4   4   4   4
#     4  11  25  42  64  98 136 172 216 274 344 403
#     4   9  21  37  63  91 125 169 216 269 326 391
#     4  11  25  39  65  98 136 176 213 283 344 405
#     4  10  23  41  70  97 130 176 233 279 329 414
#     4  11  22  40  66  94 126 171 222 277 321 394
#     4  10  22  44  68  96 130 180 232 280 332 408
#     4  10  22  36  64  91 128 168 220 272 327 393
#     4  10  24  41  65  93 135 176 212 279 342 400
#
# _framework density 22.896186
#
# number of rings (size 3 to 8) (size 9 to 14) (size 15 to 20)
#    0.000    1.750    0.000    3.000   14.000    6.000 
#    0.000    0.625    0.000    0.000    0.000    0.000 
#    0.000    0.000    0.000    0.000    0.000    0.000 
#
# Total GULP energy -178429.151695 kJ/mol
# GULP energy per Si atom -5575.910990 kJ/mol
# Density = 2.284407 g / cm^3
# Si number density = 22.896186 Si / 1000 Ang^3
#
#
#
# Elastic Constant Matrix: (Units=GPa)
#
#
# Indices 1 2 3 4 5 6 
#
# 1 115.1072 26.7046 4.1453 0.0000 -0.2045 0.0000
# 2 26.7046 117.7989 20.8290 0.0000 -0.9399 0.0000
# 3 4.1453 20.8290 77.9704 0.0000 -2.1443 0.0000
# 4 0.0000 0.0000 0.0000 31.9854 0.0000 1.7131
# 5 -0.2045 -0.9399 -2.1443 0.0000 22.2266 0.0000
# 6 0.0000 0.0000 0.0000 1.7131 0.0000 40.8751
#
#
#
# Elastic Compliance Matrix: (Units=1/GPa)
#
#
# Indices 1 2 3 4 5 6 
#
# 1 0.009170 -0.002091 0.000071 0.000000 0.000003 0.000000
# 2 -0.002091 0.009387 -0.002393 0.000000 0.000147 0.000000
# 3 0.000071 -0.002393 0.013494 0.000000 0.001201 0.000000
# 4 0.000000 0.000000 0.000000 0.031335 0.000000 -0.001313
# 5 0.000003 0.000147 0.001201 0.000000 0.045113 0.000000
# 6 0.000000 0.000000 0.000000 -0.001313 0.000000 0.024520
#
#
# Mechanical properties :
#
#
# Convention : Reuss Voigt Hill
#
# Bulk Modulus (GPa) = 43.05526 46.02601 44.54064
# Shear Modulus (GPa) = 33.42551 36.29726 34.86139
#
# Velocity S-wave (km/s) = 3.82497 3.98590 3.90626
# Velocity P-wave (km/s) = 6.19295 6.42875 6.31195
#
# Compressibility (1/GPa) = 0.02322596
#
# Stress axis : x y z
#
# Youngs Moduli (GPa) = 109.04892 106.52603 74.10826
#
# Poissons Ratio (x) = 0.22279 -0.00528
# Poissons Ratio (y) = 0.22807 0.17730
# Poissons Ratio (z) = -0.00777 0.25486
#
# Static dielectric constant tensor:
#      x y z
#    x 1.590350 0.000000 -0.169970 
#    y 0.000000 1.938030 0.000000 
#    z -0.169970 0.000000 1.947300 
# 
# From -- ./inp_files/68683.got.cif
#   From: 2010.05.17/outbox.cif.g08.bks.cpg/sg14_35_cif.got.tgz:68683.got - 2010.06.03 17:49:19.
