data_PCOD9247838
_publ_section_title
;
Structure prediction by ZEFSAII (Michael W. Deem and Ramdas Pophale) SiO2 
 PCOD9247838
Probable space group: P 21/C
;
_chemical_formula_sum "Si O2"
_cell_formula_units_Z 28
_cell_length_a 5.257258
_cell_length_b 28.084643
_cell_length_c 7.583099
_cell_angle_alpha 90.000000
_cell_angle_beta 68.114161
_cell_angle_gamma 90.000000
_cell_volume 1038.937438
_symmetry_space_group_name_H-M "P 21/C"
_symmetry_group_IT_number 14
_symmetry_cell_setting 'monoclinic'
loop_
_space_group_symop_operation_xyz
x,y,z
-x,1/2+y,1/2-z
-x,-y,-z
x,1/2-y,1/2+z
loop_
_atom_site_type_symbol
_atom_site_label
_atom_site_fract_x
_atom_site_fract_y
_atom_site_fract_z
Si Si1 0.975684 0.063536 0.162935
Si Si2 0.779832 0.915756 0.526420
Si Si3 0.680261 0.352221 0.839145
Si Si4 0.693871 0.392948 0.229670
Si Si5 0.135429 0.732972 0.362865
Si Si6 0.373033 0.022516 0.762479
Si Si7 0.486437 0.197604 0.926272
O O1 0.091420 0.059453 0.332255
O O2 0.894588 0.118293 0.167045
O O3 0.166766 0.044278 0.961585
O O4 0.694745 0.033050 0.217721
O O5 0.612839 0.870765 0.651227
O O6 0.681364 0.957241 0.419022
O O7 0.983469 0.888062 0.336421
O O8 0.802453 0.299966 0.825096
O O9 0.657017 0.376840 0.036503
O O10 0.644021 0.449696 0.254544
O O11 0.497848 0.358873 0.389896
O O12 0.353523 0.707843 0.435289
O O13 0.286508 0.781752 0.271547
O O14 0.814430 0.724026 0.498350
#
# Coordination Sequence:
#
# PCOD9247838 Si02
#       7
#     4   4   4   4   4   4   4
#     4  10  22  40  63  94 135 183 241 296 358 429
#     4  10  23  38  64  94 136 186 236 296 359 430
#     4  10  24  41  66  96 140 178 238 292 365 422
#     4  10  24  41  66  96 140 178 238 292 365 422
#     4  12  28  47  77 107 145 187 238 299 367 442
#     4  10  22  40  63  94 135 183 241 296 358 429
#     4  12  28  47  77 107 145 187 238 299 367 442
#
# _framework density 26.950614999999999
#
# number of rings (size 3 to 8) (size 9 to 14) (size 15 to 20)
#    0.000    1.429    0.000    3.000   14.000    6.286 
#    0.000    2.857    0.000    0.000    0.000    0.000 
#    0.000    0.000    0.000    0.000    0.000    0.000 
#
# Total GULP energy -156062.486842 kJ/mol
# GULP energy per Si atom -5573.660244 kJ/mol
# Density = 2.688927 g / cm^3
# Si number density = 26.950615 Si / 1000 Ang^3
#
#
#
# Elastic Constant Matrix: (Units=GPa)
#
#
# Indices 1 2 3 4 5 6 
#
# 1 92.0417 5.1806 22.9854 0.0000 -28.9625 0.0000
# 2 5.1806 79.9660 -9.7329 0.0000 -12.7639 0.0000
# 3 22.9854 -9.7329 117.9662 0.0000 -18.0652 0.0000
# 4 0.0000 0.0000 0.0000 40.0612 0.0000 -9.6843
# 5 -28.9625 -12.7639 -18.0652 0.0000 43.7390 0.0000
# 6 0.0000 0.0000 0.0000 -9.6843 0.0000 26.4236
#
#
#
# Elastic Compliance Matrix: (Units=1/GPa)
#
#
# Indices 1 2 3 4 5 6 
#
# 1 0.013943 0.000333 -0.001346 0.000000 0.008774 0.000000
# 2 0.000333 0.013484 0.001798 0.000000 0.004898 0.000000
# 3 -0.001346 0.001798 0.009428 0.000000 0.003527 0.000000
# 4 0.000000 0.000000 0.000000 0.027388 0.000000 0.010038
# 5 0.008774 0.004898 0.003527 0.000000 0.031559 0.000000
# 6 0.000000 0.000000 0.000000 0.010038 0.000000 0.041524
#
#
# Mechanical properties :
#
#
# Convention : Reuss Voigt Hill
#
# Bulk Modulus (GPa) = 26.02408 36.31554 31.16981
# Shear Modulus (GPa) = 33.65559 40.14748 36.90153
#
# Velocity S-wave (km/s) = 3.53765 3.86381 3.70432
# Velocity P-wave (km/s) = 5.13457 5.78009 5.46687
#
# Compressibility (1/GPa) = 0.03842594
#
# Stress axis : x y z
#
# Youngs Moduli (GPa) = 71.72176 74.15992 106.07048
#
# Poissons Ratio (x) = -0.02473 0.14272
# Poissons Ratio (y) = -0.02391 -0.19068
# Poissons Ratio (z) = 0.09651 -0.13332
#
# Static dielectric constant tensor:
#      x y z
#    x 2.435930 0.000000 -0.055010 
#    y 0.000000 2.203000 0.000000 
#    z -0.055010 0.000000 2.181310 
# 
# From -- ./inp_files/6913.got.cif
#   From: 2010.05.17/outbox.cif.g08.bks.cpg/sg14_4_cif.got.tgz:6913.got - 2010.06.03 17:49:19.
