data_PCOD9247444
_publ_section_title
;
Structure prediction by ZEFSAII (Michael W. Deem and Ramdas Pophale) SiO2 
 PCOD9247444
Probable space group: P 21/C
;
_chemical_formula_sum "Si O2"
_cell_formula_units_Z 28
_cell_length_a 6.986989
_cell_length_b 15.592215
_cell_length_c 17.738779
_cell_angle_alpha 90.000000
_cell_angle_beta 145.505801
_cell_angle_gamma 90.000000
_cell_volume 1094.424078
_symmetry_space_group_name_H-M "P 21/C"
_symmetry_group_IT_number 14
_symmetry_cell_setting 'monoclinic'
loop_
_space_group_symop_operation_xyz
x,y,z
-x,1/2+y,1/2-z
-x,-y,-z
x,1/2-y,1/2+z
loop_
_atom_site_type_symbol
_atom_site_label
_atom_site_fract_x
_atom_site_fract_y
_atom_site_fract_z
Si Si1 0.369202 0.102293 0.751840
Si Si2 0.342037 0.429173 0.677360
Si Si3 0.113657 0.784237 0.000446
Si Si4 0.640949 0.298124 0.588128
Si Si5 0.869961 0.478041 0.643584
Si Si6 0.883560 0.345855 0.282652
Si Si7 0.860087 0.095694 0.472898
O O1 0.595783 0.128609 0.750779
O O2 0.982190 0.101783 0.599086
O O3 0.457013 0.003632 0.798763
O O4 0.535638 0.169823 0.861746
O O5 0.209278 0.346042 0.591997
O O6 0.011430 0.471095 0.603860
O O7 0.515269 0.408653 0.814386
O O8 0.171268 0.775567 0.929875
O O9 0.049045 0.694183 0.020155
O O10 0.833520 0.387110 0.673223
O O11 0.733592 0.225149 0.678230
O O12 0.241871 0.314498 0.436673
O O13 0.500000 0.500000 0.500000
O O14 0.040533 0.562595 0.733638
O O15 0.000000 0.000000 0.500000
#
# Coordination Sequence:
#
# PCOD9247444 Si02
#       7
#     4   4   4   4   4   4   4
#     4  10  22  39  64  88 127 165 206 256 318 375
#     4   9  19  38  63  94 123 158 213 262 308 370
#     4  11  22  38  66  92 119 165 213 259 306 375
#     4  10  23  39  65  90 123 160 214 258 312 376
#     4   8  17  38  63  85 123 166 202 253 307 377
#     4  10  22  42  60  89 125 165 203 260 318 378
#     4  10  22  38  58  91 128 163 200 264 313 363
#
# _framework density 25.584230999999999
#
# number of rings (size 3 to 8) (size 9 to 14) (size 15 to 20)
#    0.000    2.286    0.000    1.286    8.000    0.000 
#    0.000    2.143    0.000    0.000    0.000    0.000 
#    0.000    0.000    0.000    0.000    0.000    0.000 
#
# Total GULP energy -155931.657686 kJ/mol
# GULP energy per Si atom -5568.987774 kJ/mol
# Density = 2.552600 g / cm^3
# Si number density = 25.584231 Si / 1000 Ang^3
#
#
#
# Elastic Constant Matrix: (Units=GPa)
#
#
# Indices 1 2 3 4 5 6 
#
# 1 52.1729 33.3775 14.4323 0.0000 -19.5098 0.0000
# 2 33.3775 155.3641 12.0425 0.0000 -23.6715 0.0000
# 3 14.4323 12.0425 110.0582 0.0000 -20.3740 0.0000
# 4 0.0000 0.0000 0.0000 35.7125 0.0000 -7.9172
# 5 -19.5098 -23.6715 -20.3740 0.0000 23.4621 0.0000
# 6 0.0000 0.0000 0.0000 -7.9172 0.0000 30.9775
#
#
#
# Elastic Compliance Matrix: (Units=1/GPa)
#
#
# Indices 1 2 3 4 5 6 
#
# 1 0.028990 -0.002986 0.000512 0.000000 0.021539 0.000000
# 2 -0.002986 0.007959 0.000652 0.000000 0.006113 0.000000
# 3 0.000512 0.000652 0.010901 0.000000 0.010550 0.000000
# 4 0.000000 0.000000 0.000000 0.029683 0.000000 0.007586
# 5 0.021539 0.006113 0.010550 0.000000 0.075862 0.000000
# 6 0.000000 0.000000 0.000000 0.007586 0.000000 0.034220
#
#
# Mechanical properties :
#
#
# Convention : Reuss Voigt Hill
#
# Bulk Modulus (GPa) = 22.62079 48.58886 35.60482
# Shear Modulus (GPa) = 24.27262 35.21327 29.74295
#
# Velocity S-wave (km/s) = 3.08349 3.71397 3.41332
# Velocity P-wave (km/s) = 4.64092 6.11754 5.42966
#
# Compressibility (1/GPa) = 0.04420712
#
# Stress axis : x y z
#
# Youngs Moduli (GPa) = 34.49471 125.64584 91.73815
#
# Poissons Ratio (x) = 0.37519 -0.04701
# Poissons Ratio (y) = 0.10300 -0.05985
# Poissons Ratio (z) = -0.01768 -0.08198
#
# Static dielectric constant tensor:
#      x y z
#    x 2.147990 0.000000 0.068650 
#    y 0.000000 2.178220 0.000000 
#    z 0.068650 0.000000 2.078930 
# 
# From -- ./inp_files/65880.got.cif
#   From: 2010.05.17/outbox.cif.g08.bks.cpg/sg14_33_cif.got.tgz:65880.got - 2010.06.03 17:49:19.
