data_PCOD9247996
_publ_section_title
;
Structure prediction by ZEFSAII (Michael W. Deem and Ramdas Pophale) SiO2 
 PCOD9247996
Probable space group: P 21/C
;
_chemical_formula_sum "Si O2"
_cell_formula_units_Z 30
_cell_length_a 10.810350
_cell_length_b 14.198424
_cell_length_c 9.413212
_cell_angle_alpha 90.000000
_cell_angle_beta 67.004175
_cell_angle_gamma 90.000000
_cell_volume 1330.017178
_symmetry_space_group_name_H-M "P 21/C"
_symmetry_group_IT_number 14
_symmetry_cell_setting 'monoclinic'
loop_
_space_group_symop_operation_xyz
x,y,z
-x,1/2+y,1/2-z
-x,-y,-z
x,1/2-y,1/2+z
loop_
_atom_site_type_symbol
_atom_site_label
_atom_site_fract_x
_atom_site_fract_y
_atom_site_fract_z
Si Si1 0.500000 0.500000 0.000000
Si Si2 0.221658 0.545704 0.297024
Si Si3 0.158362 0.195035 0.276213
Si Si4 0.470999 0.642351 0.596234
Si Si5 0.222554 0.140007 0.944050
Si Si6 0.336839 0.725430 0.392572
Si Si7 0.126546 0.880389 0.557772
Si Si8 0.693166 0.987567 0.689939
O O1 0.364845 0.516086 0.162504
O O2 0.598444 0.515278 0.094507
O O3 0.174190 0.462989 0.421629
O O4 0.247962 0.641313 0.371026
O O5 0.124593 0.565130 0.207944
O O6 0.209218 0.293813 0.312783
O O7 0.013591 0.169777 0.405172
O O8 0.259377 0.113578 0.281718
O O9 0.149844 0.188579 0.109902
O O10 0.623410 0.631880 0.575070
O O11 0.445475 0.683426 0.452134
O O12 0.407212 0.717739 0.734646
O O13 0.388084 0.546323 0.655775
O O14 0.243310 0.801209 0.514513
O O15 0.176248 0.951225 0.413485
#
# Coordination Sequence:
#
# PCOD9247996 Si02
#       8
#     2   4   4   4   4   4   4   4
#     4  10  22  40  74 104 136 174 222 296 356 424
#     4  11  24  45  73 104 144 184 233 297 363 415
#     4  12  29  46  68 104 142 194 239 289 351 428
#     4  11  23  41  68 106 135 178 227 290 360 419
#     4  12  29  43  68 107 146 186 230 303 358 423
#     4  11  23  42  74 102 135 182 238 289 345 430
#     4  10  25  48  71 101 134 192 241 294 347 420
#     4  10  23  44  74  97 136 179 235 291 360 416
#
# _framework density 22.556101000000002
#
# number of rings (size 3 to 8) (size 9 to 14) (size 15 to 20)
#    0.000    1.067    2.667    2.000    9.333    1.600 
#    2.400    0.000    0.000    0.000    0.000    0.000 
#    0.000    0.000    0.000    0.000    0.000    0.000 
#
# Total GULP energy -167482.614326 kJ/mol
# GULP energy per Si atom -5582.753811 kJ/mol
# Density = 2.250476 g / cm^3
# Si number density = 22.556101 Si / 1000 Ang^3
#
#
#
# Elastic Constant Matrix: (Units=GPa)
#
#
# Indices 1 2 3 4 5 6 
#
# 1 49.0947 4.9129 -1.3950 0.0000 -6.5127 0.0000
# 2 4.9129 79.2986 11.2006 0.0000 6.3977 0.0000
# 3 -1.3950 11.2006 67.3139 0.0000 10.7997 0.0000
# 4 0.0000 0.0000 0.0000 16.5336 0.0000 8.4649
# 5 -6.5127 6.3977 10.7997 0.0000 22.1453 0.0000
# 6 0.0000 0.0000 0.0000 8.4649 0.0000 19.5740
#
#
#
# Elastic Compliance Matrix: (Units=1/GPa)
#
#
# Indices 1 2 3 4 5 6 
#
# 1 0.021476 -0.001845 -0.000376 0.000000 0.007032 0.000000
# 2 -0.001845 0.013248 -0.001672 0.000000 -0.003554 0.000000
# 3 -0.000376 -0.001672 0.016345 0.000000 -0.007599 0.000000
# 4 0.000000 0.000000 0.000000 0.077683 0.000000 -0.033594
# 5 0.007032 -0.003554 -0.007599 0.000000 0.051957 0.000000
# 6 0.000000 0.000000 0.000000 -0.033594 0.000000 0.065616
#
#
# Mechanical properties :
#
#
# Convention : Reuss Voigt Hill
#
# Bulk Modulus (GPa) = 23.10420 25.01603 24.06011
# Shear Modulus (GPa) = 18.61932 23.71651 21.16791
#
# Velocity S-wave (km/s) = 2.87621 3.24612 3.06675
# Velocity P-wave (km/s) = 4.61469 5.01641 4.81974
#
# Compressibility (1/GPa) = 0.04328218
#
# Stress axis : x y z
#
# Youngs Moduli (GPa) = 46.56460 75.48417 61.17949
#
# Poissons Ratio (x) = 0.13925 0.02302
# Poissons Ratio (y) = 0.08590 0.10231
# Poissons Ratio (z) = 0.01752 0.12624
#
# Static dielectric constant tensor:
#      x y z
#    x 1.789450 0.000000 -0.029760 
#    y 0.000000 1.818590 0.000000 
#    z -0.029760 0.000000 1.852020 
# 
# From -- ./inp_files/13075.got.cif
#   From: 2010.05.17/outbox.cif.g08.bks.cpg/sg14_7_cif.got.tgz:13075.got - 2010.06.03 17:49:19.
