data_PCOD9247730
_publ_section_title
;
Structure prediction by ZEFSAII (Michael W. Deem and Ramdas Pophale) SiO2 
 PCOD9247730
Probable space group: P 21/C
;
_chemical_formula_sum "Si O2"
_cell_formula_units_Z 28
_cell_length_a 21.646316
_cell_length_b 7.335920
_cell_length_c 12.249165
_cell_angle_alpha 90.000000
_cell_angle_beta 38.385506
_cell_angle_gamma 90.000000
_cell_volume 1207.817603
_symmetry_space_group_name_H-M "P 21/C"
_symmetry_group_IT_number 14
_symmetry_cell_setting 'monoclinic'
loop_
_space_group_symop_operation_xyz
x,y,z
-x,1/2+y,1/2-z
-x,-y,-z
x,1/2-y,1/2+z
loop_
_atom_site_type_symbol
_atom_site_label
_atom_site_fract_x
_atom_site_fract_y
_atom_site_fract_z
Si Si1 0.550516 0.984832 0.811308
Si Si2 0.732969 0.271039 0.522155
Si Si3 0.776086 0.830256 0.290397
Si Si4 0.889815 0.019655 0.699977
Si Si5 0.612168 0.874389 0.128904
Si Si6 0.098531 0.366063 0.573026
Si Si7 0.117413 0.980240 0.653422
O O1 0.641424 0.126650 0.660742
O O2 0.472158 0.024802 0.823057
O O3 0.580726 0.772846 0.761563
O O4 0.500000 0.000000 0.000000
O O5 0.814447 0.307652 0.308967
O O6 0.680234 0.469071 0.590057
O O7 0.813535 0.178329 0.492916
O O8 0.832790 0.638933 0.217190
O O9 0.665914 0.763431 0.467913
O O10 0.820388 0.941485 0.330599
O O11 0.809568 0.917862 0.131279
O O12 0.898669 0.965878 0.815137
O O13 0.000000 0.000000 0.500000
O O14 0.992412 0.409678 0.665012
O O15 0.103683 0.153578 0.595664
#
# Coordination Sequence:
#
# PCOD9247730 Si02
#       7
#     4   4   4   4   4   4   4
#     4  12  27  50  79 108 149 192 249 316 385 459
#     4  11  24  46  72 104 147 190 246 308 375 444
#     4  10  22  39  68  94 142 185 239 301 362 440
#     4  10  22  43  66 100 148 189 240 304 365 443
#     4  11  25  50  73 108 147 187 249 315 377 449
#     4  11  23  40  65 101 145 190 242 299 368 444
#     4  11  22  40  64 101 144 187 244 294 367 445
#
# _framework density 23.182309
#
# number of rings (size 3 to 8) (size 9 to 14) (size 15 to 20)
#    0.000    1.143    2.857    3.000    2.000    1.714 
#    5.143    0.000    0.000    0.000    0.000    0.000 
#    0.000    0.000    0.000    0.000    0.000    0.000 
#
# Total GULP energy -155958.135984 kJ/mol
# GULP energy per Si atom -5569.933428 kJ/mol
# Density = 2.312955 g / cm^3
# Si number density = 23.182309 Si / 1000 Ang^3
#
#
#
# Elastic Constant Matrix: (Units=GPa)
#
#
# Indices 1 2 3 4 5 6 
#
# 1 29.3165 15.8352 22.3081 0.0000 -8.0569 0.0000
# 2 15.8352 137.1535 29.7468 0.0000 -8.0852 0.0000
# 3 22.3081 29.7468 100.1884 0.0000 -2.6411 0.0000
# 4 0.0000 0.0000 0.0000 40.2444 0.0000 -20.7427
# 5 -8.0569 -8.0852 -2.6411 0.0000 34.2677 0.0000
# 6 0.0000 0.0000 0.0000 -20.7427 0.0000 22.3859
#
#
#
# Elastic Compliance Matrix: (Units=1/GPa)
#
#
# Indices 1 2 3 4 5 6 
#
# 1 0.044923 -0.002699 -0.008958 0.000000 0.009235 0.000000
# 2 -0.002699 0.008051 -0.001760 0.000000 0.001129 0.000000
# 3 -0.008958 -0.001760 0.012457 0.000000 -0.001561 0.000000
# 4 0.000000 0.000000 0.000000 0.047564 0.000000 0.044072
# 5 0.009235 0.001129 -0.001561 0.000000 0.031499 0.000000
# 6 0.000000 0.000000 0.000000 0.044072 0.000000 0.085508
#
#
# Mechanical properties :
#
#
# Convention : Reuss Voigt Hill
#
# Bulk Modulus (GPa) = 25.90849 44.71537 35.31193
# Shear Modulus (GPa) = 18.53904 32.63083 25.58494
#
# Velocity S-wave (km/s) = 2.83098 3.75584 3.32571
# Velocity P-wave (km/s) = 4.67826 6.17567 5.47837
#
# Compressibility (1/GPa) = 0.03859739
#
# Stress axis : x y z
#
# Youngs Moduli (GPa) = 22.26049 124.20874 80.27622
#
# Poissons Ratio (x) = 0.33529 0.71908
# Poissons Ratio (y) = 0.06009 0.14125
# Poissons Ratio (z) = 0.19940 0.21855
#
# Static dielectric constant tensor:
#      x y z
#    x 1.872180 0.000000 -0.018660 
#    y 0.000000 2.055300 0.000000 
#    z -0.018660 0.000000 2.006230 
# 
# From -- ./inp_files/34940.got.cif
#   From: 2010.05.17/outbox.cif.g08.bks.cpg/sg14_18_cif.got.tgz:34940.got - 2010.06.03 17:49:19.
