data_PCOD9247309
_publ_section_title
;
Structure prediction by ZEFSAII (Michael W. Deem and Ramdas Pophale) SiO2 
 PCOD9247309
Probable space group: P 21/C
;
_chemical_formula_sum "Si O2"
_cell_formula_units_Z 30
_cell_length_a 6.172626
_cell_length_b 11.312671
_cell_length_c 17.956911
_cell_angle_alpha 90.000000
_cell_angle_beta 108.908826
_cell_angle_gamma 90.000000
_cell_volume 1186.244363
_symmetry_space_group_name_H-M "P 21/C"
_symmetry_group_IT_number 14
_symmetry_cell_setting 'monoclinic'
loop_
_space_group_symop_operation_xyz
x,y,z
-x,1/2+y,1/2-z
-x,-y,-z
x,1/2-y,1/2+z
loop_
_atom_site_type_symbol
_atom_site_label
_atom_site_fract_x
_atom_site_fract_y
_atom_site_fract_z
Si Si1 0.172107 0.185965 0.751010
Si Si2 0.517322 0.982042 0.770057
Si Si3 0.857899 0.844771 0.899965
Si Si4 0.106410 0.835143 0.671543
Si Si5 0.767972 0.248967 0.968037
Si Si6 0.428016 0.329396 0.035943
Si Si7 0.000000 0.500000 0.000000
Si Si8 0.205589 0.529659 0.839721
O O1 0.135148 0.256790 0.670314
O O2 0.098345 0.275103 0.806807
O O3 0.402253 0.109451 0.771328
O O4 0.976443 0.087265 0.735711
O O5 0.718723 0.954969 0.850570
O O6 0.312574 0.883495 0.745873
O O7 0.613399 0.971741 0.696527
O O8 0.691208 0.781605 0.939562
O O9 0.103439 0.852333 0.969187
O O10 0.196556 0.751763 0.616615
O O11 0.971903 0.954678 0.625998
O O12 0.513229 0.280878 0.965765
O O13 0.912291 0.365818 0.003570
O O14 0.273126 0.445622 0.025790
O O15 0.655651 0.367877 0.105002
#
# Coordination Sequence:
#
# PCOD9247309 Si02
#       8
#     4   4   4   4   4   4   2   4
#     4  11  23  42  65  99 132 178 236 282 339 415
#     4  11  24  41  67  99 132 181 232 290 347 402
#     4  11  23  41  64  95 132 179 228 279 353 413
#     4  11  25  41  64  99 136 175 231 286 350 414
#     4  11  23  38  62  94 138 180 218 283 355 416
#     4  11  21  38  63  91 140 173 219 271 359 411
#     4  10  22  36  54  98 134 168 212 270 342 420
#     4  11  21  39  67  93 133 175 219 283 342 419
#
# _framework density 25.289898999999998
#
# number of rings (size 3 to 8) (size 9 to 14) (size 15 to 20)
#    0.000    1.067    4.000    2.800    3.733    3.200 
#    0.000    0.667    0.000    1.600    0.000    0.000 
#    0.000    0.000    0.000    0.000    0.000    0.000 
#
# Total GULP energy -167174.067797 kJ/mol
# GULP energy per Si atom -5572.468927 kJ/mol
# Density = 2.523234 g / cm^3
# Si number density = 25.289899 Si / 1000 Ang^3
#
#
#
# Elastic Constant Matrix: (Units=GPa)
#
#
# Indices 1 2 3 4 5 6 
#
# 1 140.2069 25.1757 28.5126 0.0000 -17.0005 0.0000
# 2 25.1757 32.8279 6.2412 0.0000 5.4625 0.0000
# 3 28.5126 6.2412 42.6987 0.0000 0.7864 0.0000
# 4 0.0000 0.0000 0.0000 21.6593 0.0000 12.2564
# 5 -17.0005 5.4625 0.7864 0.0000 50.6327 0.0000
# 6 0.0000 0.0000 0.0000 12.2564 0.0000 37.5729
#
#
#
# Elastic Compliance Matrix: (Units=1/GPa)
#
#
# Indices 1 2 3 4 5 6 
#
# 1 0.010159 -0.007408 -0.005780 0.000000 0.004300 0.000000
# 2 -0.007408 0.037299 -0.000385 0.000000 -0.006505 0.000000
# 3 -0.005780 -0.000385 0.027379 0.000000 -0.002325 0.000000
# 4 0.000000 0.000000 0.000000 0.056621 0.000000 -0.018470
# 5 0.004300 -0.006505 -0.002325 0.000000 0.021932 0.000000
# 6 0.000000 0.000000 0.000000 -0.018470 0.000000 0.032640
#
#
# Mechanical properties :
#
#
# Convention : Reuss Voigt Hill
#
# Bulk Modulus (GPa) = 20.96886 37.28804 29.12845
# Shear Modulus (GPa) = 21.82701 32.35992 27.09346
#
# Velocity S-wave (km/s) = 2.94100 3.58097 3.27665
# Velocity P-wave (km/s) = 4.45444 5.64571 5.08508
#
# Compressibility (1/GPa) = 0.04768977
#
# Stress axis : x y z
#
# Youngs Moduli (GPa) = 98.43113 26.81061 36.52425
#
# Poissons Ratio (x) = 0.19861 0.21113
# Poissons Ratio (y) = 0.72916 0.01408
# Poissons Ratio (z) = 0.56898 0.01033
#
# Static dielectric constant tensor:
#      x y z
#    x 1.998800 0.000000 0.052390 
#    y 0.000000 2.018290 0.000000 
#    z 0.052390 0.000000 1.978530 
# 
# From -- ./inp_files/53495.got.cif
#   From: 2010.05.17/outbox.cif.g08.bks.cpg/sg14_27_cif.got.tgz:53495.got - 2010.06.03 17:49:19.
