data_PCOD9247571
_publ_section_title
;
Structure prediction by ZEFSAII (Michael W. Deem and Ramdas Pophale) SiO2 
 PCOD9247571
Probable space group: P 21/C
;
_chemical_formula_sum "Si O2"
_cell_formula_units_Z 32
_cell_length_a 23.033123
_cell_length_b 11.231492
_cell_length_c 14.185392
_cell_angle_alpha 90.000000
_cell_angle_beta 25.120437
_cell_angle_gamma 90.000000
_cell_volume 1557.873670
_symmetry_space_group_name_H-M "P 21/C"
_symmetry_group_IT_number 14
_symmetry_cell_setting 'monoclinic'
loop_
_space_group_symop_operation_xyz
x,y,z
-x,1/2+y,1/2-z
-x,-y,-z
x,1/2-y,1/2+z
loop_
_atom_site_type_symbol
_atom_site_label
_atom_site_fract_x
_atom_site_fract_y
_atom_site_fract_z
Si Si1 0.966414 0.131102 0.010778
Si Si2 0.100075 0.233260 0.163705
Si Si3 0.004329 0.983875 0.382822
Si Si4 0.713301 0.399751 0.595926
Si Si5 0.669822 0.109196 0.384736
Si Si6 0.387740 0.329977 0.262787
Si Si7 0.159682 0.224410 0.365982
Si Si8 0.569386 0.662595 0.024757
O O1 0.016507 0.157068 0.829925
O O2 0.802637 0.143924 0.248716
O O3 0.053192 0.224267 0.946165
O O4 0.000000 0.000000 0.000000
O O5 0.123016 0.213980 0.019084
O O6 0.026959 0.112032 0.304398
O O7 0.253970 0.246750 0.978556
O O8 0.865737 0.912376 0.568777
O O9 0.131233 0.898698 0.167042
O O10 0.000000 0.000000 0.500000
O O11 0.706599 0.381131 0.718742
O O12 0.664706 0.535090 0.647573
O O13 0.593274 0.325674 0.720437
O O14 0.531407 0.184724 0.603758
O O15 0.626179 0.970530 0.463900
O O16 0.420498 0.322174 0.103487
O O17 0.314824 0.249141 0.107191
#
# Coordination Sequence:
#
# PCOD9247571 Si02
#       8
#     4   4   4   4   4   4   4   4
#     4  12  23  34  56  89 123 148 194 247 298 351
#     4  10  22  39  59  83 117 158 196 248 294 350
#     4  11  21  37  56  84 121 155 198 237 292 358
#     4   8  15  29  57  79 107 148 195 231 282 343
#     4   9  15  30  54  84 112 142 184 244 285 341
#     4   7  14  29  55  79 105 143 193 233 287 335
#     4  11  22  36  58  86 117 154 193 242 299 350
#     4   8  14  30  52  84 106 141 193 242 278 337
#
# _framework density 20.540818000000002
#
# number of rings (size 3 to 8) (size 9 to 14) (size 15 to 20)
#    0.000    2.500    2.500    3.000    1.750    0.000 
#    0.000    1.250    0.000    0.000    0.000    3.500 
#    0.000    0.125    0.000    0.000    0.000    0.000 
#
# Total GULP energy -178167.696105 kJ/mol
# GULP energy per Si atom -5567.740503 kJ/mol
# Density = 2.049407 g / cm^3
# Si number density = 20.540818 Si / 1000 Ang^3
#
#
#
# Elastic Constant Matrix: (Units=GPa)
#
#
# Indices 1 2 3 4 5 6 
#
# 1 58.7238 -5.2585 15.0502 0.0000 -14.0221 0.0000
# 2 -5.2585 29.5974 16.3093 0.0000 -5.9948 0.0000
# 3 15.0502 16.3093 86.6902 0.0000 -29.8590 0.0000
# 4 0.0000 0.0000 0.0000 26.1248 0.0000 0.5886
# 5 -14.0221 -5.9948 -29.8590 0.0000 41.7465 0.0000
# 6 0.0000 0.0000 0.0000 0.5886 0.0000 20.4718
#
#
#
# Elastic Compliance Matrix: (Units=1/GPa)
#
#
# Indices 1 2 3 4 5 6 
#
# 1 0.019571 0.006047 -0.002617 0.000000 0.005570 0.000000
# 2 0.006047 0.039569 -0.007746 0.000000 0.002173 0.000000
# 3 -0.002617 -0.007746 0.016932 0.000000 0.010120 0.000000
# 4 0.000000 0.000000 0.000000 0.038303 0.000000 -0.001101
# 5 0.005570 0.002173 0.010120 0.000000 0.033375 0.000000
# 6 0.000000 0.000000 0.000000 -0.001101 0.000000 0.048879
#
#
# Mechanical properties :
#
#
# Convention : Reuss Voigt Hill
#
# Bulk Modulus (GPa) = 14.82738 25.24593 20.03665
# Shear Modulus (GPa) = 21.95475 27.59599 24.77537
#
# Velocity S-wave (km/s) = 3.27285 3.66932 3.47674
# Velocity P-wave (km/s) = 4.63856 5.50174 5.08849
#
# Compressibility (1/GPa) = 0.06744281
#
# Stress axis : x y z
#
# Youngs Moduli (GPa) = 51.09566 25.27203 59.05859
#
# Poissons Ratio (x) = -0.15283 0.15454
# Poissons Ratio (y) = -0.30899 0.45744
# Poissons Ratio (z) = 0.13371 0.19575
#
# Static dielectric constant tensor:
#      x y z
#    x 1.664370 0.000000 -0.118750 
#    y 0.000000 1.659860 0.000000 
#    z -0.118750 0.000000 1.740010 
# 
# From -- ./inp_files/62355.got.cif
#   From: 2010.05.17/outbox.cif.g08.bks.cpg/sg14_32_cif.got.tgz:62355.got - 2010.06.03 17:49:19.
