data_PCOD9247714
_publ_section_title
;
Structure prediction by ZEFSAII (Michael W. Deem and Ramdas Pophale) SiO2 
 PCOD9247714
Probable space group: P 21/C
;
_chemical_formula_sum "Si O2"
_cell_formula_units_Z 32
_cell_length_a 12.828308
_cell_length_b 10.079934
_cell_length_c 14.407751
_cell_angle_alpha 90.000000
_cell_angle_beta 53.259521
_cell_angle_gamma 90.000000
_cell_volume 1492.956835
_symmetry_space_group_name_H-M "P 21/C"
_symmetry_group_IT_number 14
_symmetry_cell_setting 'monoclinic'
loop_
_space_group_symop_operation_xyz
x,y,z
-x,1/2+y,1/2-z
-x,-y,-z
x,1/2-y,1/2+z
loop_
_atom_site_type_symbol
_atom_site_label
_atom_site_fract_x
_atom_site_fract_y
_atom_site_fract_z
Si Si1 0.425200 0.708790 0.001419
Si Si2 0.052830 0.073627 0.650174
Si Si3 0.540537 0.146381 0.196459
Si Si4 0.029218 0.285230 0.808487
Si Si5 0.095508 0.800555 0.432627
Si Si6 0.276224 0.328789 0.125204
Si Si7 0.371975 0.921748 0.347771
Si Si8 0.738631 0.094782 0.249388
O O1 0.414986 0.831772 0.934381
O O2 0.573102 0.701355 0.957241
O O3 0.396362 0.585747 0.945959
O O4 0.352341 0.582897 0.293091
O O5 0.981834 0.100816 0.592450
O O6 0.988486 0.164743 0.763826
O O7 0.201079 0.126452 0.571772
O O8 0.040107 0.920976 0.682320
O O9 0.865404 0.170690 0.146598
O O10 0.532459 0.299794 0.234326
O O11 0.414640 0.056799 0.277342
O O12 0.185138 0.290227 0.711479
O O13 0.669282 0.308951 0.861938
O O14 0.228205 0.870518 0.398710
O O15 0.989158 0.239803 0.434554
O O16 0.250767 0.452234 0.208506
#
# Coordination Sequence:
#
# PCOD9247714 Si02
#       8
#     4   4   4   4   4   4   4   4
#     4  10  22  39  66  95 130 163 220 267 332 393
#     4  10  24  42  69  97 132 178 221 272 334 382
#     4   9  20  38  60 100 123 172 211 267 334 387
#     4  10  25  46  66  99 128 179 225 276 326 392
#     4  11  24  41  68  95 134 177 223 268 340 396
#     4  10  23  40  68  93 136 167 228 274 317 405
#     4   9  21  35  66  87 132 166 213 273 321 395
#     4  11  21  41  68  97 126 181 211 270 341 406
#
# _framework density 21.433975
#
# number of rings (size 3 to 8) (size 9 to 14) (size 15 to 20)
#    1.500    0.500    1.250    1.500    5.250    0.500 
#    2.250    2.500   11.000    0.000    0.000    0.000 
#    0.000    0.000    0.000    0.000    0.000    0.000 
#
# Total GULP energy -178393.692530 kJ/mol
# GULP energy per Si atom -5574.802892 kJ/mol
# Density = 2.138519 g / cm^3
# Si number density = 21.433975 Si / 1000 Ang^3
#
#
#
# Elastic Constant Matrix: (Units=GPa)
#
#
# Indices 1 2 3 4 5 6 
#
# 1 79.0160 -0.9091 4.2086 0.0000 7.0747 0.0000
# 2 -0.9091 35.9259 19.8121 0.0000 3.7527 0.0000
# 3 4.2086 19.8121 61.6098 0.0000 4.1738 0.0000
# 4 0.0000 0.0000 0.0000 25.5211 0.0000 -1.6685
# 5 7.0747 3.7527 4.1738 0.0000 18.7684 0.0000
# 6 0.0000 0.0000 0.0000 -1.6685 0.0000 22.7057
#
#
#
# Elastic Compliance Matrix: (Units=1/GPa)
#
#
# Indices 1 2 3 4 5 6 
#
# 1 0.013176 0.001418 -0.001016 0.000000 -0.005024 0.000000
# 2 0.001418 0.034352 -0.010805 0.000000 -0.005000 0.000000
# 3 -0.001016 -0.010805 0.019903 0.000000 -0.001883 0.000000
# 4 0.000000 0.000000 0.000000 0.039372 0.000000 0.002893
# 5 -0.005024 -0.005000 -0.001883 0.000000 0.056593 0.000000
# 6 0.000000 0.000000 0.000000 0.002893 0.000000 0.044254
#
#
# Mechanical properties :
#
#
# Convention : Reuss Voigt Hill
#
# Bulk Modulus (GPa) = 21.44723 24.75276 23.10000
# Shear Modulus (GPa) = 20.49206 23.62840 22.06023
#
# Velocity S-wave (km/s) = 3.09537 3.32381 3.21162
# Velocity P-wave (km/s) = 4.77525 5.12872 4.95514
#
# Compressibility (1/GPa) = 0.04662606
#
# Stress axis : x y z
#
# Youngs Moduli (GPa) = 75.89587 29.11056 50.24448
#
# Poissons Ratio (x) = -0.04129 0.05104
# Poissons Ratio (y) = -0.10765 0.54288
# Poissons Ratio (z) = 0.07709 0.31453
#
# Static dielectric constant tensor:
#      x y z
#    x 1.821520 0.000000 0.014730 
#    y 0.000000 1.805270 0.000000 
#    z 0.014730 0.000000 1.777000 
# 
# From -- ./inp_files/44384.got.cif
#   From: 2010.05.17/outbox.cif.g08.bks.cpg/sg14_23_cif.got.tgz:44384.got - 2010.06.03 17:49:19.
