data_PCOD9247771
_publ_section_title
;
Structure prediction by ZEFSAII (Michael W. Deem and Ramdas Pophale) SiO2 
 PCOD9247771
Probable space group: P 21/C
;
_chemical_formula_sum "Si O2"
_cell_formula_units_Z 28
_cell_length_a 19.582552
_cell_length_b 10.597802
_cell_length_c 10.013950
_cell_angle_alpha 90.000000
_cell_angle_beta 35.842953
_cell_angle_gamma 90.000000
_cell_volume 1216.931186
_symmetry_space_group_name_H-M "P 21/C"
_symmetry_group_IT_number 14
_symmetry_cell_setting 'monoclinic'
loop_
_space_group_symop_operation_xyz
x,y,z
-x,1/2+y,1/2-z
-x,-y,-z
x,1/2-y,1/2+z
loop_
_atom_site_type_symbol
_atom_site_label
_atom_site_fract_x
_atom_site_fract_y
_atom_site_fract_z
Si Si1 0.932833 0.016917 0.470364
Si Si2 0.381885 0.541105 0.010582
Si Si3 0.070261 0.915170 0.785891
Si Si4 0.234595 0.781151 0.149846
Si Si5 0.228526 0.191574 0.259853
Si Si6 0.725249 0.889755 0.531650
Si Si7 0.351645 0.014983 0.844912
O O1 0.001432 0.077118 0.238088
O O2 0.828819 0.118887 0.653533
O O3 0.892487 0.873288 0.507515
O O4 0.000000 0.000000 0.500000
O O5 0.515340 0.556786 0.841700
O O6 0.310581 0.669319 0.095006
O O7 0.381332 0.455580 0.877541
O O8 0.324666 0.472952 0.230426
O O9 0.124884 0.784968 0.749076
O O10 0.187907 0.996493 0.572872
O O11 0.000000 0.000000 0.000000
O O12 0.320561 0.868470 0.925517
O O13 0.217714 0.311066 0.180866
O O14 0.296349 0.185199 0.295441
O O15 0.282650 0.095734 0.063729
#
# Coordination Sequence:
#
# PCOD9247771 Si02
#       7
#     4   4   4   4   4   4   4
#     4  10  23  40  62  91 122 165 210 258 320 377
#     4  10  22  40  65  95 125 166 210 257 320 381
#     4  10  23  40  62  91 122 165 210 258 320 377
#     4  10  22  42  64  94 132 166 210 266 316 382
#     4  10  22  40  60  89 125 162 206 259 316 378
#     4  10  22  40  60  89 125 162 206 259 316 378
#     4  10  22  40  65  95 125 166 210 257 320 381
#
# _framework density 23.008694999999999
#
# number of rings (size 3 to 8) (size 9 to 14) (size 15 to 20)
#    0.000    2.000    0.000    1.714    4.000    8.571 
#    0.000    0.000    0.000    0.000    0.000    0.000 
#    0.000    0.000    0.000    0.000    0.000    0.000 
#
# Total GULP energy -155870.263872 kJ/mol
# GULP energy per Si atom -5566.795138 kJ/mol
# Density = 2.295633 g / cm^3
# Si number density = 23.008695 Si / 1000 Ang^3
#
#
#
# Elastic Constant Matrix: (Units=GPa)
#
#
# Indices 1 2 3 4 5 6 
#
# 1 113.8705 42.6321 28.6514 0.0000 34.1566 0.0000
# 2 42.6321 103.6837 23.2649 0.0000 13.7616 0.0000
# 3 28.6514 23.2649 63.0547 0.0000 29.1884 0.0000
# 4 0.0000 0.0000 0.0000 36.3476 0.0000 5.3792
# 5 34.1566 13.7616 29.1884 0.0000 44.4713 0.0000
# 6 0.0000 0.0000 0.0000 5.3792 0.0000 39.7347
#
#
#
# Elastic Compliance Matrix: (Units=1/GPa)
#
#
# Indices 1 2 3 4 5 6 
#
# 1 0.012948 -0.004103 -0.000508 0.000000 -0.008342 0.000000
# 2 -0.004103 0.011847 -0.003259 0.000000 0.001624 0.000000
# 3 -0.000508 -0.003259 0.023909 0.000000 -0.014294 0.000000
# 4 0.000000 0.000000 0.000000 0.028075 0.000000 -0.003801
# 5 -0.008342 0.001624 -0.014294 0.000000 0.037773 0.000000
# 6 0.000000 0.000000 0.000000 -0.003801 0.000000 0.025681
#
#
# Mechanical properties :
#
#
# Convention : Reuss Voigt Hill
#
# Bulk Modulus (GPa) = 30.33493 52.18951 41.26222
# Shear Modulus (GPa) = 29.94715 36.51474 33.23094
#
# Velocity S-wave (km/s) = 3.61162 3.98804 3.80449
# Velocity P-wave (km/s) = 5.53214 6.62855 6.10501
#
# Compressibility (1/GPa) = 0.03296529
#
# Stress axis : x y z
#
# Youngs Moduli (GPa) = 77.23231 84.40747 41.82476
#
# Poissons Ratio (x) = 0.34629 0.02126
# Poissons Ratio (y) = 0.31686 0.13629
# Poissons Ratio (z) = 0.03926 0.27505
#
# Static dielectric constant tensor:
#      x y z
#    x 1.988790 0.000000 0.049890 
#    y 0.000000 1.886410 0.000000 
#    z 0.049890 0.000000 1.907780 
# 
# From -- ./inp_files/18927.got.cif
#   From: 2010.05.17/outbox.cif.g08.bks.cpg/sg14_10_cif.got.tgz:18927.got - 2010.06.03 17:49:19.
