data_PCOD9247822
_publ_section_title
;
Structure prediction by ZEFSAII (Michael W. Deem and Ramdas Pophale) SiO2 
 PCOD9247822
Probable space group: P 21/C
;
_chemical_formula_sum "Si O2"
_cell_formula_units_Z 16
_cell_length_a 8.838987
_cell_length_b 12.825909
_cell_length_c 9.351131
_cell_angle_alpha 90.000000
_cell_angle_beta 45.730058
_cell_angle_gamma 90.000000
_cell_volume 759.108086
_symmetry_space_group_name_H-M "P 21/C"
_symmetry_group_IT_number 14
_symmetry_cell_setting 'monoclinic'
loop_
_space_group_symop_operation_xyz
x,y,z
-x,1/2+y,1/2-z
-x,-y,-z
x,1/2-y,1/2+z
loop_
_atom_site_type_symbol
_atom_site_label
_atom_site_fract_x
_atom_site_fract_y
_atom_site_fract_z
Si Si1 0.817527 0.722193 0.729036
Si Si2 0.605389 0.875435 0.087754
Si Si3 0.870787 0.094670 0.515042
Si Si4 0.982864 0.014225 0.841552
O O1 0.692984 0.671583 0.679326
O O2 0.999115 0.799417 0.553169
O O3 0.934288 0.630407 0.740260
O O4 0.663809 0.791261 0.928452
O O5 0.360837 0.897362 0.268857
O O6 0.743734 0.979246 0.964162
O O7 0.000000 0.000000 0.500000
O O8 0.873042 0.065144 0.344642
O O9 0.000000 0.000000 0.000000
#
# Coordination Sequence:
#
# PCOD9247822 Si02
#       4
#     4   4   4   4
#     4  10  22  40  63  90 121 163 207 245 302 369
#     4  10  23  40  63  90 125 164 199 255 307 353
#     4  11  24  40  61  92 125 158 203 253 303 365
#     4   9  21  40  61  91 123 158 206 249 296 363
#
# _framework density 21.077366999999999
#
# number of rings (size 3 to 8) (size 9 to 14) (size 15 to 20)
#    0.000    2.000    0.000    1.500    0.000   20.000 
#    0.000    0.000    0.000    0.000    0.000    0.000 
#    0.000    0.000    0.000    0.000    0.000    0.000 
#
# Total GULP energy -89392.318199 kJ/mol
# GULP energy per Si atom -5587.019887 kJ/mol
# Density = 2.102939 g / cm^3
# Si number density = 21.077367 Si / 1000 Ang^3
#
#
#
# Elastic Constant Matrix: (Units=GPa)
#
#
# Indices 1 2 3 4 5 6 
#
# 1 75.8933 47.0517 59.1360 0.0000 -16.7551 0.0000
# 2 47.0517 81.2725 23.2352 0.0000 -24.9220 0.0000
# 3 59.1360 23.2352 147.5611 0.0000 -34.1242 0.0000
# 4 0.0000 0.0000 0.0000 34.9208 0.0000 11.1516
# 5 -16.7551 -24.9220 -34.1242 0.0000 54.3620 0.0000
# 6 0.0000 0.0000 0.0000 11.1516 0.0000 36.3060
#
#
#
# Elastic Compliance Matrix: (Units=1/GPa)
#
#
# Indices 1 2 3 4 5 6 
#
# 1 0.030442 -0.015989 -0.010771 0.000000 -0.004709 0.000000
# 2 -0.015989 0.022809 0.004790 0.000000 0.008535 0.000000
# 3 -0.010771 0.004790 0.011791 0.000000 0.006278 0.000000
# 4 0.000000 0.000000 0.000000 0.031751 0.000000 -0.009752
# 5 -0.004709 0.008535 0.006278 0.000000 0.024797 0.000000
# 6 0.000000 0.000000 0.000000 -0.009752 0.000000 0.030539
#
#
# Mechanical properties :
#
#
# Convention : Reuss Voigt Hill
#
# Bulk Modulus (GPa) = 47.38886 62.61918 55.00402
# Shear Modulus (GPa) = 24.61805 36.80469 30.71137
#
# Velocity S-wave (km/s) = 3.42129 4.18325 3.82131
# Velocity P-wave (km/s) = 6.17568 7.28742 6.75446
#
# Compressibility (1/GPa) = 0.02110201
#
# Stress axis : x y z
#
# Youngs Moduli (GPa) = 32.84902 43.84306 84.81065
#
# Poissons Ratio (x) = 0.70099 0.91351
# Poissons Ratio (y) = 0.52521 -0.40623
# Poissons Ratio (z) = 0.35382 -0.21000
#
# Static dielectric constant tensor:
#      x y z
#    x 1.779630 0.000000 0.058380 
#    y 0.000000 1.758980 0.000000 
#    z 0.058380 0.000000 1.773820 
# 
# From -- ./inp_files/4905.got.cif
#   From: 2010.05.17/outbox.cif.g08.bks.cpg/sg14_3_cif.got.tgz:4905.got - 2010.06.03 17:49:19.
