data_PCOD9247643
_publ_section_title
;
Structure prediction by ZEFSAII (Michael W. Deem and Ramdas Pophale) SiO2 
 PCOD9247643
Probable space group: P 21/C
;
_chemical_formula_sum "Si O2"
_cell_formula_units_Z 32
_cell_length_a 11.269856
_cell_length_b 7.997365
_cell_length_c 27.337059
_cell_angle_alpha 90.000000
_cell_angle_beta 32.760645
_cell_angle_gamma 90.000000
_cell_volume 1333.273550
_symmetry_space_group_name_H-M "P 21/C"
_symmetry_group_IT_number 14
_symmetry_cell_setting 'monoclinic'
loop_
_space_group_symop_operation_xyz
x,y,z
-x,1/2+y,1/2-z
-x,-y,-z
x,1/2-y,1/2+z
loop_
_atom_site_type_symbol
_atom_site_label
_atom_site_fract_x
_atom_site_fract_y
_atom_site_fract_z
Si Si1 0.958430 0.157086 0.914303
Si Si2 0.102189 0.648003 0.772783
Si Si3 0.655245 0.681945 0.275703
Si Si4 0.378130 0.217877 0.550743
Si Si5 0.507032 0.347929 0.820640
Si Si6 0.585676 0.093027 0.570982
Si Si7 0.247746 0.914746 0.119715
Si Si8 0.674573 0.512850 0.666562
O O1 0.854488 0.096767 0.899131
O O2 0.172870 0.260380 0.824341
O O3 0.067042 0.016288 0.910773
O O4 0.787813 0.279371 0.998904
O O5 0.233133 0.480906 0.740281
O O6 0.092333 0.645469 0.717225
O O7 0.861533 0.651704 0.879384
O O8 0.255111 0.795755 0.740000
O O9 0.611682 0.822508 0.330420
O O10 0.421424 0.632581 0.334079
O O11 0.500074 0.090563 0.545085
O O12 0.543631 0.289847 0.452860
O O13 0.325735 0.393761 0.598066
O O14 0.371799 0.427676 0.912356
O O15 0.548101 0.476663 0.761808
O O16 0.398491 0.182378 0.835483
#
# Coordination Sequence:
#
# PCOD9247643 Si02
#       8
#     4   4   4   4   4   4   4   4
#     4  11  23  40  68  91 130 170 209 267 328 368
#     4  11  24  38  68  94 125 179 209 263 328 379
#     4  11  23  43  62  95 130 163 224 269 311 384
#     4  10  22  39  62  96 134 169 213 262 317 388
#     4  11  23  41  67  94 125 166 219 264 322 382
#     4  11  23  40  65  95 129 168 209 267 324 384
#     4  10  22  40  63  97 132 167 217 264 313 392
#     4  11  22  43  66  90 125 169 213 272 317 377
#
# _framework density 24.001076999999999
#
# number of rings (size 3 to 8) (size 9 to 14) (size 15 to 20)
#    0.000    1.250    3.750    1.500    1.750    2.000 
#    0.000    2.500    0.000    0.000    0.000    0.000 
#    0.000    0.000    0.000    0.000    0.000    0.000 
#
# Total GULP energy -178932.379840 kJ/mol
# GULP energy per Si atom -5591.636870 kJ/mol
# Density = 2.394645 g / cm^3
# Si number density = 24.001077 Si / 1000 Ang^3
#
#
#
# Elastic Constant Matrix: (Units=GPa)
#
#
# Indices 1 2 3 4 5 6 
#
# 1 98.6902 18.3349 22.5120 0.0000 -2.7531 0.0000
# 2 18.3349 67.0366 1.3371 0.0000 12.5127 0.0000
# 3 22.5120 1.3371 66.0630 0.0000 -9.1285 0.0000
# 4 0.0000 0.0000 0.0000 29.8306 0.0000 0.6610
# 5 -2.7531 12.5127 -9.1285 0.0000 34.8335 0.0000
# 6 0.0000 0.0000 0.0000 0.6610 0.0000 32.4678
#
#
#
# Elastic Compliance Matrix: (Units=1/GPa)
#
#
# Indices 1 2 3 4 5 6 
#
# 1 0.011634 -0.003319 -0.003741 0.000000 0.001131 0.000000
# 2 -0.003319 0.017022 -0.000098 0.000000 -0.006403 0.000000
# 3 -0.003741 -0.000098 0.016993 0.000000 0.004193 0.000000
# 4 0.000000 0.000000 0.000000 0.033538 0.000000 -0.000683
# 5 0.001131 -0.006403 0.004193 0.000000 0.032196 0.000000
# 6 0.000000 0.000000 0.000000 -0.000683 0.000000 0.030814
#
#
# Mechanical properties :
#
#
# Convention : Reuss Voigt Hill
#
# Bulk Modulus (GPa) = 31.91485 35.12865 33.52175
# Shear Modulus (GPa) = 29.94780 32.06677 31.00729
#
# Velocity S-wave (km/s) = 3.53621 3.65917 3.59822
# Velocity P-wave (km/s) = 5.47715 5.70270 5.59106
#
# Compressibility (1/GPa) = 0.03133338
#
# Stress axis : x y z
#
# Youngs Moduli (GPa) = 85.95373 58.74786 58.84687
#
# Poissons Ratio (x) = 0.19496 0.22015
# Poissons Ratio (y) = 0.28524 0.00579
# Poissons Ratio (z) = 0.32156 0.00578
#
# Static dielectric constant tensor:
#      x y z
#    x 1.996600 0.000000 -0.005140 
#    y 0.000000 1.974130 0.000000 
#    z -0.005140 0.000000 1.866880 
# 
# From -- ./inp_files/79937.got.cif
#   From: 2010.05.17/outbox.cif.g08.bks.cpg/sg14_40_cif.got.tgz:79937.got - 2010.06.03 17:49:19.
