data_PCOD9247223
_publ_section_title
;
Structure prediction by ZEFSAII (Michael W. Deem and Ramdas Pophale) SiO2 
 PCOD9247223
Probable space group: P 21/C
;
_chemical_formula_sum "Si O2"
_cell_formula_units_Z 20
_cell_length_a 20.923933
_cell_length_b 8.987407
_cell_length_c 14.680905
_cell_angle_alpha 90.000000
_cell_angle_beta 161.242083
_cell_angle_gamma 90.000000
_cell_volume 887.782334
_symmetry_space_group_name_H-M "P 21/C"
_symmetry_group_IT_number 14
_symmetry_cell_setting 'monoclinic'
loop_
_space_group_symop_operation_xyz
x,y,z
-x,1/2+y,1/2-z
-x,-y,-z
x,1/2-y,1/2+z
loop_
_atom_site_type_symbol
_atom_site_label
_atom_site_fract_x
_atom_site_fract_y
_atom_site_fract_z
Si Si1 0.848236 0.167093 0.367004
Si Si2 0.291532 0.407168 0.214121
Si Si3 0.740561 0.788529 0.532014
Si Si4 0.559429 0.338128 0.111397
Si Si5 0.635299 0.056328 0.898957
O O1 0.686036 0.263987 0.202141
O O2 0.048705 0.260433 0.636432
O O3 0.866367 0.015413 0.451857
O O4 0.765851 0.113277 0.159468
O O5 0.500000 0.500000 0.500000
O O6 0.360763 0.259265 0.359801
O O7 0.236331 0.356874 0.038216
O O8 0.589578 0.897324 0.379189
O O9 0.651363 0.620720 0.407139
O O10 0.682507 0.355066 0.370183
O O11 0.500000 0.500000 0.000000
#
# Coordination Sequence:
#
# PCOD9247223 Si02
#       5
#     4   4   4   4   4
#     4  11  26  47  71 106 147 195 243 297 370 439
#     4  10  21  45  72  95 144 191 232 298 365 420
#     4  12  26  45  75 104 143 198 240 302 366 434
#     4  11  22  44  75 105 146 192 244 295 365 433
#     4  12  24  47  71 108 149 191 240 304 368 429
#
# _framework density 22.528044999999999
#
# number of rings (size 3 to 8) (size 9 to 14) (size 15 to 20)
#    0.000    0.800    6.000    1.800    5.600    0.000 
#    0.000    6.000    0.000    0.000    0.000    0.000 
#    0.000    0.000    0.000    0.000    0.000    0.000 
#
# Total GULP energy -111862.294560 kJ/mol
# GULP energy per Si atom -5593.114728 kJ/mol
# Density = 2.247677 g / cm^3
# Si number density = 22.528045 Si / 1000 Ang^3
#
#
#
# Elastic Constant Matrix: (Units=GPa)
#
#
# Indices 1 2 3 4 5 6 
#
# 1 113.0928 34.2983 38.1106 0.0000 -33.8361 0.0000
# 2 34.2983 105.8905 27.5486 0.0000 -8.5259 0.0000
# 3 38.1106 27.5486 87.6373 0.0000 -1.1728 0.0000
# 4 0.0000 0.0000 0.0000 34.2215 0.0000 -1.8713
# 5 -33.8361 -8.5259 -1.1728 0.0000 38.8181 0.0000
# 6 0.0000 0.0000 0.0000 -1.8713 0.0000 42.1379
#
#
#
# Elastic Compliance Matrix: (Units=1/GPa)
#
#
# Indices 1 2 3 4 5 6 
#
# 1 0.015281 -0.002450 -0.005706 0.000000 0.012609 0.000000
# 2 -0.002450 0.010862 -0.002347 0.000000 0.000180 0.000000
# 3 -0.005706 -0.002347 0.014562 0.000000 -0.005049 0.000000
# 4 0.000000 0.000000 0.000000 0.029293 0.000000 0.001301
# 5 0.012609 0.000180 -0.005049 0.000000 0.036639 0.000000
# 6 0.000000 0.000000 0.000000 0.001301 0.000000 0.023789
#
#
# Mechanical properties :
#
#
# Convention : Reuss Voigt Hill
#
# Bulk Modulus (GPa) = 50.76250 56.28175 53.52213
# Shear Modulus (GPa) = 31.64599 36.81303 34.22951
#
# Velocity S-wave (km/s) = 3.75205 4.04678 3.90220
# Velocity P-wave (km/s) = 6.43059 6.84635 6.64172
#
# Compressibility (1/GPa) = 0.01969958
#
# Stress axis : x y z
#
# Youngs Moduli (GPa) = 65.44231 92.06253 68.67058
#
# Poissons Ratio (x) = 0.22552 0.39185
# Poissons Ratio (y) = 0.16031 0.16116
# Poissons Ratio (z) = 0.37343 0.21605
#
# Static dielectric constant tensor:
#      x y z
#    x 1.814590 0.000000 0.044930 
#    y 0.000000 1.768170 0.000000 
#    z 0.044930 0.000000 1.853970 
# 
# From -- ./inp_files/50003.got.cif
#   From: 2010.05.17/outbox.cif.g08.bks.cpg/sg14_26_cif.got.tgz:50003.got - 2010.06.03 17:49:19.
