data_PCOD9247585
_publ_section_title
;
Structure prediction by ZEFSAII (Michael W. Deem and Ramdas Pophale) SiO2 
 PCOD9247585
Probable space group: P 21/C
;
_chemical_formula_sum "Si O2"
_cell_formula_units_Z 18
_cell_length_a 5.185946
_cell_length_b 6.954171
_cell_length_c 18.745600
_cell_angle_alpha 90.000000
_cell_angle_beta 109.217196
_cell_angle_gamma 90.000000
_cell_volume 638.369900
_symmetry_space_group_name_H-M "P 21/C"
_symmetry_group_IT_number 14
_symmetry_cell_setting 'monoclinic'
loop_
_space_group_symop_operation_xyz
x,y,z
-x,1/2+y,1/2-z
-x,-y,-z
x,1/2-y,1/2+z
loop_
_atom_site_type_symbol
_atom_site_label
_atom_site_fract_x
_atom_site_fract_y
_atom_site_fract_z
Si Si1 0.000000 0.000000 0.500000
Si Si2 0.843795 0.073129 0.271494
Si Si3 0.766797 0.343331 0.401936
Si Si4 0.633589 0.751156 0.850206
Si Si5 0.647251 0.938375 0.606556
O O1 0.186602 0.971656 0.442189
O O2 0.962812 0.231008 0.472355
O O3 0.798537 0.230742 0.329667
O O4 0.664083 0.152430 0.190863
O O5 0.728007 0.870089 0.290068
O O6 0.169817 0.048255 0.304840
O O7 0.470432 0.275724 0.405813
O O8 0.801768 0.564210 0.387733
O O9 0.620309 0.578056 0.907960
#
# Coordination Sequence:
#
# PCOD9247585 Si02
#       5
#     2   4   4   4   4
#     4  10  22  46  64  88 132 170 218 262 304 370
#     4  10  22  39  59  93 131 158 202 264 323 381
#     4  10  22  42  65  90 124 168 208 259 314 376
#     4  11  22  38  62  94 125 164 209 258 327 380
#     4  10  24  39  64  92 124 168 211 261 312 375
#
# _framework density 28.196816999999999
#
# number of rings (size 3 to 8) (size 9 to 14) (size 15 to 20)
#    0.000    1.778    2.222    0.667    3.111    4.444 
#    0.000   11.111    0.000    0.000    0.000    0.000 
#    0.000    0.000    0.000    0.000    0.000    0.000 
#
# Total GULP energy -100332.367972 kJ/mol
# GULP energy per Si atom -5574.020443 kJ/mol
# Density = 2.813264 g / cm^3
# Si number density = 28.196817 Si / 1000 Ang^3
#
#
#
# Elastic Constant Matrix: (Units=GPa)
#
#
# Indices 1 2 3 4 5 6 
#
# 1 73.3624 10.0824 -18.5773 0.0000 -7.0591 0.0000
# 2 10.0824 233.2064 47.0317 0.0000 -5.8690 0.0000
# 3 -18.5773 47.0317 77.7512 0.0000 6.7441 0.0000
# 4 0.0000 0.0000 0.0000 59.2474 0.0000 10.9592
# 5 -7.0591 -5.8690 6.7441 0.0000 55.5434 0.0000
# 6 0.0000 0.0000 0.0000 10.9592 0.0000 32.2254
#
#
#
# Elastic Compliance Matrix: (Units=1/GPa)
#
#
# Indices 1 2 3 4 5 6 
#
# 1 0.015072 -0.001510 0.004409 0.000000 0.001221 0.000000
# 2 -0.001510 0.005078 -0.003500 0.000000 0.000770 0.000000
# 3 0.004409 -0.003500 0.016186 0.000000 -0.001775 0.000000
# 4 0.000000 0.000000 0.000000 0.018011 0.000000 -0.006125
# 5 0.001221 0.000770 -0.001775 0.000000 0.018456 0.000000
# 6 0.000000 0.000000 0.000000 -0.006125 0.000000 0.033114
#
#
# Mechanical properties :
#
#
# Convention : Reuss Voigt Hill
#
# Bulk Modulus (GPa) = 28.46157 51.26598 39.86377
# Shear Modulus (GPa) = 42.07635 52.45545 47.26590
#
# Velocity S-wave (km/s) = 3.86714 4.31784 4.09869
# Velocity P-wave (km/s) = 5.48229 6.56348 6.04710
#
# Compressibility (1/GPa) = 0.03513510
#
# Stress axis : x y z
#
# Youngs Moduli (GPa) = 66.34649 196.90988 61.78269
#
# Poissons Ratio (x) = 0.29735 -0.27239
# Poissons Ratio (y) = 0.10019 0.21621
# Poissons Ratio (z) = -0.29251 0.68909
#
# Static dielectric constant tensor:
#      x y z
#    x 1.915770 0.000000 -0.257150 
#    y 0.000000 2.052620 0.000000 
#    z -0.257150 0.000000 1.942550 
# 
# From -- ./inp_files/70840.got.cif
#   From: 2010.05.17/outbox.cif.g08.bks.cpg/sg14_36_cif.got.tgz:70840.got - 2010.06.03 17:49:19.
