data_PCOD9247287
_publ_section_title
;
Structure prediction by ZEFSAII (Michael W. Deem and Ramdas Pophale) SiO2 
 PCOD9247287
Probable space group: P 21/C
;
_chemical_formula_sum "Si O2"
_cell_formula_units_Z 28
_cell_length_a 17.944461
_cell_length_b 5.454707
_cell_length_c 20.467128
_cell_angle_alpha 90.000000
_cell_angle_beta 40.670169
_cell_angle_gamma 90.000000
_cell_volume 1305.596168
_symmetry_space_group_name_H-M "P 21/C"
_symmetry_group_IT_number 14
_symmetry_cell_setting 'monoclinic'
loop_
_space_group_symop_operation_xyz
x,y,z
-x,1/2+y,1/2-z
-x,-y,-z
x,1/2-y,1/2+z
loop_
_atom_site_type_symbol
_atom_site_label
_atom_site_fract_x
_atom_site_fract_y
_atom_site_fract_z
Si Si1 0.636487 0.978042 0.192829
Si Si2 0.571214 0.267851 0.614746
Si Si3 0.732798 0.625372 0.027689
Si Si4 0.566321 0.831388 0.026055
Si Si5 0.748683 0.766802 0.300403
Si Si6 0.071299 0.266594 0.201381
Si Si7 0.301210 0.728999 0.732676
O O1 0.549967 0.866109 0.303759
O O2 0.717008 0.778783 0.104328
O O3 0.552819 0.049400 0.188556
O O4 0.694133 0.198869 0.194043
O O5 0.588661 0.387440 0.532748
O O6 0.691959 0.154287 0.558220
O O7 0.634166 0.699647 0.040090
O O8 0.850964 0.678744 0.913928
O O9 0.432239 0.789518 0.120106
O O10 0.628004 0.755545 0.919265
O O11 0.844121 0.743715 0.293024
O O12 0.754154 0.532455 0.248588
O O13 0.755844 0.034072 0.263314
O O14 0.993019 0.507318 0.262958
#
# Coordination Sequence:
#
# PCOD9247287 Si02
#       7
#     4   4   4   4   4   4   4
#     4  11  21  34  58  94 138 178 207 246 313 390
#     4  11  19  35  59  92 138 176 218 253 299 380
#     4  10  23  37  66  94 129 171 221 273 306 372
#     4  10  22  35  57  93 137 178 213 252 310 382
#     4  11  26  40  64  92 129 170 220 266 324 389
#     4  11  26  49  74  93 116 159 229 294 332 354
#     4  12  23  38  60  95 141 181 201 244 322 414
#
# _framework density 21.446142999999999
#
# number of rings (size 3 to 8) (size 9 to 14) (size 15 to 20)
#    0.000    1.143    2.857    3.429   12.000    0.000 
#    0.000    0.000    0.000    5.143    0.000    0.000 
#    0.000    0.000    0.000    0.000    0.000    0.000 
#
# Total GULP energy -156189.113561 kJ/mol
# GULP energy per Si atom -5578.182627 kJ/mol
# Density = 2.139733 g / cm^3
# Si number density = 21.446143 Si / 1000 Ang^3
#
#
#
# Elastic Constant Matrix: (Units=GPa)
#
#
# Indices 1 2 3 4 5 6 
#
# 1 64.1246 26.5997 10.5186 0.0000 4.6882 0.0000
# 2 26.5997 95.3238 16.7075 0.0000 0.5838 0.0000
# 3 10.5186 16.7075 60.4043 0.0000 -2.0991 0.0000
# 4 0.0000 0.0000 0.0000 24.0486 0.0000 3.5542
# 5 4.6882 0.5838 -2.0991 0.0000 27.2055 0.0000
# 6 0.0000 0.0000 0.0000 3.5542 0.0000 48.4386
#
#
#
# Elastic Compliance Matrix: (Units=1/GPa)
#
#
# Indices 1 2 3 4 5 6 
#
# 1 0.018092 -0.004685 -0.001965 0.000000 -0.003169 0.000000
# 2 -0.004685 0.012244 -0.002559 0.000000 0.000347 0.000000
# 3 -0.001965 -0.002559 0.017666 0.000000 0.001757 0.000000
# 4 0.000000 0.000000 0.000000 0.042038 0.000000 -0.003085
# 5 -0.003169 0.000347 0.001757 0.000000 0.037431 0.000000
# 6 0.000000 0.000000 0.000000 -0.003085 0.000000 0.020871
#
#
# Mechanical properties :
#
#
# Convention : Reuss Voigt Hill
#
# Bulk Modulus (GPa) = 33.80041 36.38937 35.09489
# Shear Modulus (GPa) = 28.30914 31.00699 29.65807
#
# Velocity S-wave (km/s) = 3.63714 3.80650 3.72278
# Velocity P-wave (km/s) = 5.78214 6.02693 5.90581
#
# Compressibility (1/GPa) = 0.02958544
#
# Stress axis : x y z
#
# Youngs Moduli (GPa) = 55.27336 81.67160 56.60570
#
# Poissons Ratio (x) = 0.38261 0.11122
# Poissons Ratio (y) = 0.25894 0.14484
# Poissons Ratio (z) = 0.10860 0.20898
#
# Static dielectric constant tensor:
#      x y z
#    x 1.763820 0.000000 0.017420 
#    y 0.000000 2.238450 0.000000 
#    z 0.017420 0.000000 1.765330 
# 
# From -- ./inp_files/68945.got.cif
#   From: 2010.05.17/outbox.cif.g08.bks.cpg/sg14_35_cif.got.tgz:68945.got - 2010.06.03 17:49:19.
