data_PCOD9247866
_publ_section_title
;
Structure prediction by ZEFSAII (Michael W. Deem and Ramdas Pophale) SiO2 
 PCOD9247866
Probable space group: P 21/C
;
_chemical_formula_sum "Si O2"
_cell_formula_units_Z 22
_cell_length_a 12.041316
_cell_length_b 4.841843
_cell_length_c 15.361446
_cell_angle_alpha 90.000000
_cell_angle_beta 114.251908
_cell_angle_gamma 90.000000
_cell_volume 816.566857
_symmetry_space_group_name_H-M "P 21/C"
_symmetry_group_IT_number 14
_symmetry_cell_setting 'monoclinic'
loop_
_space_group_symop_operation_xyz
x,y,z
-x,1/2+y,1/2-z
-x,-y,-z
x,1/2-y,1/2+z
loop_
_atom_site_type_symbol
_atom_site_label
_atom_site_fract_x
_atom_site_fract_y
_atom_site_fract_z
Si Si1 0.500000 0.000000 0.000000
Si Si2 0.230864 0.537176 0.315467
Si Si3 0.916616 0.245365 0.869584
Si Si4 0.848962 0.768858 0.954838
Si Si5 0.532862 0.579133 0.707017
Si Si6 0.701910 0.947213 0.559814
O O1 0.420884 0.284832 0.962076
O O2 0.532082 0.007602 0.904102
O O3 0.117259 0.701633 0.240948
O O4 0.326397 0.496794 0.267727
O O5 0.210175 0.237913 0.349246
O O6 0.300619 0.734870 0.409005
O O7 0.907174 0.548099 0.908356
O O8 0.823752 0.036356 0.888164
O O9 0.049318 0.138243 0.940802
O O10 0.749404 0.604858 0.978463
O O11 0.517921 0.892330 0.731584
#
# Coordination Sequence:
#
# PCOD9247866 Si02
#       6
#     2   4   4   4   4   4
#     4  10  26  44  64  98 138 168 228 286 306 426
#     4  11  24  41  62  96 128 162 224 274 318 412
#     4  10  22  40  64  94 131 160 225 269 313 417
#     4  10  22  40  64  95 124 177 210 263 344 388
#     4  11  25  42  66  95 128 179 221 268 344 389
#     4  11  24  41  64  93 129 173 213 268 346 376
#
# _framework density 26.942066000000001
#
# number of rings (size 3 to 8) (size 9 to 14) (size 15 to 20)
#    0.000    1.455    0.000    4.364    5.091    8.000 
#    0.000    0.000    0.000    0.000    0.000    0.000 
#    0.000    0.000    0.000    0.000    0.000    0.000 
#
# Total GULP energy -122736.536850 kJ/mol
# GULP energy per Si atom -5578.933493 kJ/mol
# Density = 2.688074 g / cm^3
# Si number density = 26.942066 Si / 1000 Ang^3
#
#
#
# Elastic Constant Matrix: (Units=GPa)
#
#
# Indices 1 2 3 4 5 6 
#
# 1 35.9858 -5.6147 -8.9520 0.0000 -9.8257 0.0000
# 2 -5.6147 139.6816 10.6531 0.0000 -1.6113 0.0000
# 3 -8.9520 10.6531 99.3540 0.0000 8.0065 0.0000
# 4 0.0000 0.0000 0.0000 50.9647 0.0000 -1.6107
# 5 -9.8257 -1.6113 8.0065 0.0000 37.7785 0.0000
# 6 0.0000 0.0000 0.0000 -1.6107 0.0000 21.5733
#
#
#
# Elastic Compliance Matrix: (Units=1/GPa)
#
#
# Indices 1 2 3 4 5 6 
#
# 1 0.030537 0.001161 0.002017 0.000000 0.007564 0.000000
# 2 0.001161 0.007271 -0.000737 0.000000 0.000768 0.000000
# 3 0.002017 -0.000737 0.010465 0.000000 -0.001725 0.000000
# 4 0.000000 0.000000 0.000000 0.019668 0.000000 0.001468
# 5 0.007564 0.000768 -0.001725 0.000000 0.028836 0.000000
# 6 0.000000 0.000000 0.000000 0.001468 0.000000 0.046463
#
#
# Mechanical properties :
#
#
# Convention : Reuss Voigt Hill
#
# Bulk Modulus (GPa) = 18.81275 29.68826 24.25051
# Shear Modulus (GPa) = 32.03579 40.65895 36.34737
#
# Velocity S-wave (km/s) = 3.45202 3.88896 3.67699
# Velocity P-wave (km/s) = 4.78397 5.58646 5.20072
#
# Compressibility (1/GPa) = 0.05315543
#
# Stress axis : x y z
#
# Youngs Moduli (GPa) = 32.74705 137.53524 95.55859
#
# Poissons Ratio (x) = -0.15966 -0.19278
# Poissons Ratio (y) = -0.03801 0.07042
# Poissons Ratio (z) = -0.06606 0.10135
#
# Static dielectric constant tensor:
#      x y z
#    x 2.006420 0.000000 0.008070 
#    y 0.000000 0.031400 0.000000 
#    z 0.008070 0.000000 2.151030 
# 
# From -- ./inp_files/42597.got.cif
#   From: 2010.05.17/outbox.cif.g08.bks.cpg/sg14_22_cif.got.tgz:42597.got - 2010.06.03 17:49:19.
