data_PCOD9247570
_publ_section_title
;
Structure prediction by ZEFSAII (Michael W. Deem and Ramdas Pophale) SiO2 
 PCOD9247570
Probable space group: P 21/C
;
_chemical_formula_sum "Si O2"
_cell_formula_units_Z 20
_cell_length_a 7.358164
_cell_length_b 8.081217
_cell_length_c 12.598056
_cell_angle_alpha 90.000000
_cell_angle_beta 69.528163
_cell_angle_gamma 90.000000
_cell_volume 701.806112
_symmetry_space_group_name_H-M "P 21/C"
_symmetry_group_IT_number 14
_symmetry_cell_setting 'monoclinic'
loop_
_space_group_symop_operation_xyz
x,y,z
-x,1/2+y,1/2-z
-x,-y,-z
x,1/2-y,1/2+z
loop_
_atom_site_type_symbol
_atom_site_label
_atom_site_fract_x
_atom_site_fract_y
_atom_site_fract_z
Si Si1 0.418759 0.122973 0.106943
Si Si2 0.720638 0.325201 0.278863
Si Si3 0.900667 0.671011 0.931345
Si Si4 0.962127 0.871885 0.104361
Si Si5 0.626358 0.524954 0.836304
O O1 0.207963 0.179426 0.108968
O O2 0.499392 0.304809 0.122131
O O3 0.399354 0.994310 0.206627
O O4 0.500000 0.000000 0.000000
O O5 0.881624 0.322714 0.154956
O O6 0.857516 0.339798 0.355827
O O7 0.583859 0.168452 0.329096
O O8 0.759475 0.527970 0.918168
O O9 0.900871 0.705120 0.055336
O O10 0.786448 0.934042 0.212973
O O11 0.000000 0.000000 0.000000
#
# Coordination Sequence:
#
# PCOD9247570 Si02
#       5
#     4   4   4   4   4
#     4  10  22  39  59  82 125 158 188 250 309 351
#     4  11  19  36  62  87 118 151 207 251 287 365
#     4   9  19  36  57  90 115 154 194 248 302 343
#     4  11  17  34  63  89 123 148 200 261 295 341
#     4   9  21  35  57  89 116 157 201 238 302 367
#
# _framework density 28.497897999999999
#
# number of rings (size 3 to 8) (size 9 to 14) (size 15 to 20)
#    1.200    0.800    4.000    1.200    0.000    1.600 
#    0.000    0.000    8.800    0.000    0.000    0.000 
#    0.000    0.000    0.000    0.000    0.000    0.000 
#
# Total GULP energy -111785.713568 kJ/mol
# GULP energy per Si atom -5589.285678 kJ/mol
# Density = 2.843304 g / cm^3
# Si number density = 28.497898 Si / 1000 Ang^3
#
#
#
# Elastic Constant Matrix: (Units=GPa)
#
#
# Indices 1 2 3 4 5 6 
#
# 1 110.7182 52.7319 -8.1984 0.0000 4.1201 0.0000
# 2 52.7319 212.9950 43.1021 0.0000 -10.4673 0.0000
# 3 -8.1984 43.1021 87.6015 0.0000 -6.0252 0.0000
# 4 0.0000 0.0000 0.0000 53.1872 0.0000 4.5578
# 5 4.1201 -10.4673 -6.0252 0.0000 40.7496 0.0000
# 6 0.0000 0.0000 0.0000 4.5578 0.0000 42.7044
#
#
#
# Elastic Compliance Matrix: (Units=1/GPa)
#
#
# Indices 1 2 3 4 5 6 
#
# 1 0.010832 -0.003267 0.002514 0.000000 -0.001563 0.000000
# 2 -0.003267 0.006238 -0.003275 0.000000 0.001448 0.000000
# 3 0.002514 -0.003275 0.013322 0.000000 0.000874 0.000000
# 4 0.000000 0.000000 0.000000 0.018975 0.000000 -0.002025
# 5 -0.001563 0.001448 0.000874 0.000000 0.025199 0.000000
# 6 0.000000 0.000000 0.000000 -0.002025 0.000000 0.023633
#
#
# Mechanical properties :
#
#
# Convention : Reuss Voigt Hill
#
# Bulk Modulus (GPa) = 44.77286 65.17622 54.97454
# Shear Modulus (GPa) = 43.97442 48.90684 46.44063
#
# Velocity S-wave (km/s) = 3.93246 4.14715 4.04123
# Velocity P-wave (km/s) = 6.03026 6.77141 6.41155
#
# Compressibility (1/GPa) = 0.02233496
#
# Stress axis : x y z
#
# Youngs Moduli (GPa) = 92.31587 160.31217 75.06220
#
# Poissons Ratio (x) = 0.52379 -0.18870
# Poissons Ratio (y) = 0.30163 0.24585
# Poissons Ratio (z) = -0.23207 0.52508
#
# Static dielectric constant tensor:
#      x y z
#    x 2.291630 0.000000 0.070570 
#    y 0.000000 2.462590 0.000000 
#    z 0.070570 0.000000 2.236240 
# 
# From -- ./inp_files/42971.got.cif
#   From: 2010.05.17/outbox.cif.g08.bks.cpg/sg14_22_cif.got.tgz:42971.got - 2010.06.03 17:49:19.
