data_PCOD9247423
_publ_section_title
;
Structure prediction by ZEFSAII (Michael W. Deem and Ramdas Pophale) SiO2 
 PCOD9247423
Probable space group: P 21/C
;
_chemical_formula_sum "Si O2"
_cell_formula_units_Z 24
_cell_length_a 21.743150
_cell_length_b 5.229083
_cell_length_c 19.641177
_cell_angle_alpha 90.000000
_cell_angle_beta 150.035647
_cell_angle_gamma 90.000000
_cell_volume 1115.365418
_symmetry_space_group_name_H-M "P 21/C"
_symmetry_group_IT_number 14
_symmetry_cell_setting 'monoclinic'
loop_
_space_group_symop_operation_xyz
x,y,z
-x,1/2+y,1/2-z
-x,-y,-z
x,1/2-y,1/2+z
loop_
_atom_site_type_symbol
_atom_site_label
_atom_site_fract_x
_atom_site_fract_y
_atom_site_fract_z
Si Si1 0.087386 0.443018 0.979612
Si Si2 0.657922 0.127874 0.676782
Si Si3 0.226002 0.534943 0.574499
Si Si4 0.165368 0.984004 0.704460
Si Si5 0.580398 0.779569 0.000966
Si Si6 0.569297 0.579385 0.334735
O O1 0.941839 0.496098 0.843471
O O2 0.164300 0.687324 0.026902
O O3 0.120981 0.391021 0.091435
O O4 0.125240 0.188283 0.976874
O O5 0.684825 0.985459 0.774119
O O6 0.794284 0.203619 0.782180
O O7 0.558895 0.341264 0.607533
O O8 0.599003 0.996621 0.554000
O O9 0.308663 0.513565 0.586863
O O10 0.296753 0.082421 0.855406
O O11 0.584047 0.807938 0.924135
O O12 0.486563 0.322896 0.259178
#
# Coordination Sequence:
#
# PCOD9247423 Si02
#       6
#     4   4   4   4   4   4
#     4  10  23  40  68  95 133 173 217 269 324 400
#     4  10  22  39  66 102 131 169 220 289 331 394
#     4  11  22  44  64  97 130 175 220 269 332 395
#     4  10  22  37  66  96 133 168 221 270 336 384
#     4  11  23  40  65 100 133 173 222 283 337 394
#     4  12  27  44  67  96 135 177 220 272 338 407
#
# _framework density 21.517610000000001
#
# number of rings (size 3 to 8) (size 9 to 14) (size 15 to 20)
#    0.000    1.333    3.333    1.500    7.000    2.000 
#    0.000    1.667    0.000    0.000    0.000    0.000 
#    0.000    0.000    0.000    0.000    0.000    0.000 
#
# Total GULP energy -133709.996914 kJ/mol
# GULP energy per Si atom -5571.249871 kJ/mol
# Density = 2.146864 g / cm^3
# Si number density = 21.517610 Si / 1000 Ang^3
#
#
#
# Elastic Constant Matrix: (Units=GPa)
#
#
# Indices 1 2 3 4 5 6 
#
# 1 147.3815 33.2994 46.5877 0.0000 21.8560 0.0000
# 2 33.2994 69.9215 12.7467 0.0000 7.0301 0.0000
# 3 46.5877 12.7467 70.7436 0.0000 22.4464 0.0000
# 4 0.0000 0.0000 0.0000 17.8690 0.0000 4.6599
# 5 21.8560 7.0301 22.4464 0.0000 22.4409 0.0000
# 6 0.0000 0.0000 0.0000 4.6599 0.0000 26.8177
#
#
#
# Elastic Compliance Matrix: (Units=1/GPa)
#
#
# Indices 1 2 3 4 5 6 
#
# 1 0.009508 -0.003336 -0.004473 0.000000 -0.003740 0.000000
# 2 -0.003336 0.016087 -0.000195 0.000000 -0.001595 0.000000
# 3 -0.004473 -0.000195 0.023021 0.000000 -0.018609 0.000000
# 4 0.000000 0.000000 0.000000 0.058619 0.000000 -0.010186
# 5 -0.003740 -0.001595 -0.018609 0.000000 0.067317 0.000000
# 6 0.000000 0.000000 0.000000 -0.010186 0.000000 0.039059
#
#
# Mechanical properties :
#
#
# Convention : Reuss Voigt Hill
#
# Bulk Modulus (GPa) = 30.67002 52.59046 41.63024
# Shear Modulus (GPa) = 20.79102 26.45305 23.62204
#
# Velocity S-wave (km/s) = 3.11180 3.51004 3.31690
# Velocity P-wave (km/s) = 5.21493 6.39694 5.83594
#
# Compressibility (1/GPa) = 0.03260513
#
# Stress axis : x y z
#
# Youngs Moduli (GPa) = 105.17896 62.16346 43.43860
#
# Poissons Ratio (x) = 0.20740 0.19431
# Poissons Ratio (y) = 0.35092 0.00849
# Poissons Ratio (z) = 0.47049 0.01215
#
# Static dielectric constant tensor:
#      x y z
#    x 1.741300 0.000000 0.014530 
#    y 0.000000 1.930210 0.000000 
#    z 0.014530 0.000000 1.856230 
# 
# From -- ./inp_files/69614.got.cif
#   From: 2010.05.17/outbox.cif.g08.bks.cpg/sg14_35_cif.got.tgz:69614.got - 2010.06.03 17:49:19.
