data_PCOD9247291
_publ_section_title
;
Structure prediction by ZEFSAII (Michael W. Deem and Ramdas Pophale) SiO2 
 PCOD9247291
Probable space group: P 21/C
;
_chemical_formula_sum "Si O2"
_cell_formula_units_Z 28
_cell_length_a 11.691692
_cell_length_b 5.368146
_cell_length_c 22.291803
_cell_angle_alpha 90.000000
_cell_angle_beta 56.090778
_cell_angle_gamma 90.000000
_cell_volume 1161.139560
_symmetry_space_group_name_H-M "P 21/C"
_symmetry_group_IT_number 14
_symmetry_cell_setting 'monoclinic'
loop_
_space_group_symop_operation_xyz
x,y,z
-x,1/2+y,1/2-z
-x,-y,-z
x,1/2-y,1/2+z
loop_
_atom_site_type_symbol
_atom_site_label
_atom_site_fract_x
_atom_site_fract_y
_atom_site_fract_z
Si Si1 0.865272 0.353929 0.972463
Si Si2 0.859083 0.011056 0.240797
Si Si3 0.646870 0.207763 0.218984
Si Si4 0.176668 0.016733 0.174008
Si Si5 0.287828 0.357796 0.522024
Si Si6 0.415656 0.388855 0.368439
Si Si7 0.826365 0.585086 0.109725
O O1 0.784080 0.586965 0.966260
O O2 0.024968 0.357812 0.907740
O O3 0.802329 0.090742 0.974659
O O4 0.856746 0.388376 0.046891
O O5 0.770331 0.034738 0.206482
O O6 0.815738 0.248886 0.295458
O O7 0.024623 0.028922 0.187294
O O8 0.824990 0.747569 0.280247
O O9 0.530854 0.219576 0.303577
O O10 0.724019 0.466434 0.187243
O O11 0.580221 0.134026 0.174554
O O12 0.292323 0.080588 0.090978
O O13 0.419185 0.378309 0.439109
O O14 0.262293 0.290049 0.398595
#
# Coordination Sequence:
#
# PCOD9247291 Si02
#       7
#     4   4   4   4   4   4   4
#     4  10  22  35  61  96 126 164 203 260 332 377
#     4  10  24  40  68  90 127 166 216 265 332 372
#     4  12  23  42  61  94 131 181 210 267 310 403
#     4  10  22  44  63  96 121 164 218 279 317 380
#     4  11  22  42  65  93 132 166 211 274 321 379
#     4  11  25  39  63  93 133 172 217 253 324 388
#     4  10  22  36  57  91 130 164 209 257 315 391
#
# _framework density 24.114242000000001
#
# number of rings (size 3 to 8) (size 9 to 14) (size 15 to 20)
#    0.000    1.429    2.857    1.714    6.000    2.857 
#    0.000    1.429    0.000    0.000    0.000    0.000 
#    0.000    0.000    0.000    0.000    0.000    0.000 
#
# Total GULP energy -156456.124924 kJ/mol
# GULP energy per Si atom -5587.718747 kJ/mol
# Density = 2.405936 g / cm^3
# Si number density = 24.114242 Si / 1000 Ang^3
#
#
#
# Elastic Constant Matrix: (Units=GPa)
#
#
# Indices 1 2 3 4 5 6 
#
# 1 59.6349 24.1826 7.8597 0.0000 -7.1638 0.0000
# 2 24.1826 110.2813 20.3529 0.0000 -1.7662 0.0000
# 3 7.8597 20.3529 130.9655 0.0000 -9.1769 0.0000
# 4 0.0000 0.0000 0.0000 37.7127 0.0000 5.6064
# 5 -7.1638 -1.7662 -9.1769 0.0000 25.6917 0.0000
# 6 0.0000 0.0000 0.0000 5.6064 0.0000 22.2025
#
#
#
# Elastic Compliance Matrix: (Units=1/GPa)
#
#
# Indices 1 2 3 4 5 6 
#
# 1 0.019035 -0.004065 -0.000162 0.000000 0.004970 0.000000
# 2 -0.004065 0.010204 -0.001407 0.000000 -0.000935 0.000000
# 3 -0.000162 -0.001407 0.008056 0.000000 0.002735 0.000000
# 4 0.000000 0.000000 0.000000 0.027550 0.000000 -0.006957
# 5 0.004970 -0.000935 0.002735 0.000000 0.041222 0.000000
# 6 0.000000 0.000000 0.000000 -0.006957 0.000000 0.046797
#
#
# Mechanical properties :
#
#
# Convention : Reuss Voigt Hill
#
# Bulk Modulus (GPa) = 38.42263 45.07470 41.74866
# Shear Modulus (GPa) = 28.93386 33.68713 31.31050
#
# Velocity S-wave (km/s) = 3.46767 3.74168 3.60727
# Velocity P-wave (km/s) = 5.65695 6.11552 5.89070
#
# Compressibility (1/GPa) = 0.02602633
#
# Stress axis : x y z
#
# Youngs Moduli (GPa) = 52.53371 98.00317 124.13534
#
# Poissons Ratio (x) = 0.39834 0.02017
# Poissons Ratio (y) = 0.21352 0.17469
# Poissons Ratio (z) = 0.00853 0.13792
#
# Static dielectric constant tensor:
#      x y z
#    x 1.930060 0.000000 0.033310 
#    y 0.000000 1.939750 0.000000 
#    z 0.033310 0.000000 2.012350 
# 
# From -- ./inp_files/66418.got.cif
#   From: 2010.05.17/outbox.cif.g08.bks.cpg/sg14_34_cif.got.tgz:66418.got - 2010.06.03 17:49:19.
