data_PCOD9247503
_publ_section_title
;
Structure prediction by ZEFSAII (Michael W. Deem and Ramdas Pophale) SiO2 
 PCOD9247503
Probable space group: P 21/C
;
_chemical_formula_sum "Si O2"
_cell_formula_units_Z 32
_cell_length_a 9.003173
_cell_length_b 14.369097
_cell_length_c 23.433412
_cell_angle_alpha 90.000000
_cell_angle_beta 149.504628
_cell_angle_gamma 90.000000
_cell_volume 1538.402283
_symmetry_space_group_name_H-M "P 21/C"
_symmetry_group_IT_number 14
_symmetry_cell_setting 'monoclinic'
loop_
_space_group_symop_operation_xyz
x,y,z
-x,1/2+y,1/2-z
-x,-y,-z
x,1/2-y,1/2+z
loop_
_atom_site_type_symbol
_atom_site_label
_atom_site_fract_x
_atom_site_fract_y
_atom_site_fract_z
Si Si1 0.802199 0.703401 0.627523
Si Si2 0.598199 0.099984 0.195664
Si Si3 0.346713 0.564580 0.814481
Si Si4 0.772222 0.464284 0.351016
Si Si5 0.026493 0.123784 0.239904
Si Si6 0.197226 0.872066 0.956519
Si Si7 0.873528 0.840652 0.551123
Si Si8 0.974691 0.792403 0.995529
O O1 0.823548 0.792093 0.676497
O O2 0.539931 0.634951 0.557746
O O3 0.767811 0.751475 0.553870
O O4 0.098477 0.644536 0.730420
O O5 0.372661 0.186383 0.124707
O O6 0.731385 0.095524 0.176631
O O7 0.882432 0.112066 0.329258
O O8 0.412401 0.016413 0.161221
O O9 0.409507 0.549424 0.767556
O O10 0.218439 0.468742 0.796813
O O11 0.607355 0.597510 0.941340
O O12 0.048519 0.529770 0.424856
O O13 0.890859 0.371046 0.418585
O O14 0.952658 0.156717 0.152060
O O15 0.116661 0.803526 0.981170
O O16 0.022972 0.803562 0.543044
#
# Coordination Sequence:
#
# PCOD9247503 Si02
#       8
#     4   4   4   4   4   4   4   4
#     4  11  22  41  64  95 128 172 215 262 322 381
#     4  10  22  40  66  89 127 166 212 262 318 381
#     4  11  24  41  65  94 131 170 215 264 319 389
#     4  10  23  41  62  96 122 162 216 262 317 381
#     4  10  24  41  65  94 133 168 215 265 323 382
#     4  10  22  38  63  94 125 162 210 270 309 373
#     4  11  23  43  64  90 129 176 208 258 330 380
#     4  11  22  39  64  93 126 161 218 263 314 376
#
# _framework density 20.800802000000001
#
# number of rings (size 3 to 8) (size 9 to 14) (size 15 to 20)
#    0.000    1.500    1.250    4.500    3.500    6.500 
#    0.000    1.250    0.000    0.000    0.000    0.000 
#    0.000    0.000    0.000    0.000    0.000    0.000 
#
# Total GULP energy -178780.463805 kJ/mol
# GULP energy per Si atom -5586.889494 kJ/mol
# Density = 2.075346 g / cm^3
# Si number density = 20.800802 Si / 1000 Ang^3
#
#
#
# Elastic Constant Matrix: (Units=GPa)
#
#
# Indices 1 2 3 4 5 6 
#
# 1 83.5367 3.6123 11.4625 0.0000 -18.6574 0.0000
# 2 3.6123 44.1775 -2.4393 0.0000 -8.5879 0.0000
# 3 11.4625 -2.4393 54.4797 0.0000 -12.1438 0.0000
# 4 0.0000 0.0000 0.0000 -0.4705 0.0000 26.9165
# 5 -18.6574 -8.5879 -12.1438 0.0000 30.8462 0.0000
# 6 0.0000 0.0000 0.0000 26.9165 0.0000 -20.2836
#
#
#
# Elastic Compliance Matrix: (Units=1/GPa)
#
#
# Indices 1 2 3 4 5 6 
#
# 1 0.013912 0.000372 -0.001109 0.000000 0.008082 0.000000
# 2 0.000372 0.024338 0.002819 0.000000 0.008111 0.000000
# 3 -0.001109 0.002819 0.020543 0.000000 0.008202 0.000000
# 4 0.000000 0.000000 0.000000 0.028370 0.000000 0.037648
# 5 0.008082 0.008111 0.008202 0.000000 0.042794 0.000000
# 6 0.000000 0.000000 0.000000 0.037648 0.000000 0.000658
#
#
# Mechanical properties :
#
#
# Convention : Reuss Voigt Hill
#
# Bulk Modulus (GPa) = 15.88350 23.05168 19.46759
# Shear Modulus (GPa) = 33.91294 13.32233 23.61763
#
# Velocity S-wave (km/s) = 4.04216 2.53350 3.37325
# Velocity P-wave (km/s) = 5.42568 4.43445 4.95491
#
# Compressibility (1/GPa) = 0.06295840
#
# Stress axis : x y z
#
# Youngs Moduli (GPa) = 71.88118 41.08814 48.67782
#
# Poissons Ratio (x) = -0.01530 0.05398
# Poissons Ratio (y) = -0.02676 -0.13724
# Poissons Ratio (z) = 0.07971 -0.11584
#
# Static dielectric constant tensor:
#      x y z
#    x 1.759120 0.000000 -0.002860 
#    y 0.000000 1.747360 0.000000 
#    z -0.002860 0.000000 1.736960 
# 
# From -- ./inp_files/72485.got.cif
#   From: 2010.05.17/outbox.cif.g08.bks.cpg/sg14_37_cif.got.tgz:72485.got - 2010.06.03 17:49:19.
