data_PCOD9247395
_publ_section_title
;
Structure prediction by ZEFSAII (Michael W. Deem and Ramdas Pophale) SiO2 
 PCOD9247395
Probable space group: P 21/C
;
_chemical_formula_sum "Si O2"
_cell_formula_units_Z 26
_cell_length_a 17.087764
_cell_length_b 9.499083
_cell_length_c 18.019747
_cell_angle_alpha 90.000000
_cell_angle_beta 19.130061
_cell_angle_gamma 90.000000
_cell_volume 958.539731
_symmetry_space_group_name_H-M "P 21/C"
_symmetry_group_IT_number 14
_symmetry_cell_setting 'monoclinic'
loop_
_space_group_symop_operation_xyz
x,y,z
-x,1/2+y,1/2-z
-x,-y,-z
x,1/2-y,1/2+z
loop_
_atom_site_type_symbol
_atom_site_label
_atom_site_fract_x
_atom_site_fract_y
_atom_site_fract_z
Si Si1 0.290133 0.802323 0.562032
Si Si2 0.083607 0.789211 0.517997
Si Si3 0.958893 0.678443 0.963067
Si Si4 0.568886 0.604315 0.207162
Si Si5 0.374468 0.247747 0.492117
Si Si6 0.135248 0.467628 0.524653
Si Si7 0.500000 0.000000 0.500000
O O1 0.401019 0.724415 0.393693
O O2 0.438962 0.900241 0.483588
O O3 0.068910 0.904334 0.739273
O O4 0.194809 0.678889 0.701839
O O5 0.369760 0.814922 0.259745
O O6 0.079299 0.616399 0.535402
O O7 0.998403 0.838027 0.513418
O O8 0.860825 0.831622 0.770496
O O9 0.767052 0.584484 0.092627
O O10 0.876470 0.842694 0.025331
O O11 0.694921 0.665609 0.021129
O O12 0.616674 0.989203 0.156031
O O13 0.447624 0.141410 0.493444
#
# Coordination Sequence:
#
# PCOD9247395 Si02
#       7
#     4   4   4   4   4   4   2
#     4  10  23  38  62  96 137 168 226 275 354 400
#     4  11  21  38  63  96 124 172 214 281 345 391
#     4  10  22  37  61  93 130 172 221 277 334 412
#     4  11  25  36  58  97 139 179 218 272 361 402
#     4  11  24  35  63  92 137 167 214 274 344 406
#     4   9  22  38  60  90 135 172 216 284 336 400
#     4  12  20  40  72 100 130 172 222 296 346 398
#
# _framework density 27.124593000000001
#
# number of rings (size 3 to 8) (size 9 to 14) (size 15 to 20)
#    0.923    0.615    3.077    1.385   12.923    0.000 
#    0.000    0.000    0.000    0.000    0.000   25.846 
#    0.000    0.000    0.000    0.000    0.000    0.000 
#
# Total GULP energy -144753.060202 kJ/mol
# GULP energy per Si atom -5567.425392 kJ/mol
# Density = 2.706286 g / cm^3
# Si number density = 27.124593 Si / 1000 Ang^3
#
#
#
# Elastic Constant Matrix: (Units=GPa)
#
#
# Indices 1 2 3 4 5 6 
#
# 1 179.3911 3.4961 42.9823 0.0000 23.1191 0.0000
# 2 3.4961 87.7902 16.9317 0.0000 10.3722 0.0000
# 3 42.9823 16.9317 178.6401 0.0000 10.3250 0.0000
# 4 0.0000 0.0000 0.0000 16.1732 0.0000 -10.3441
# 5 23.1191 10.3722 10.3250 0.0000 26.5215 0.0000
# 6 0.0000 0.0000 0.0000 -10.3441 0.0000 43.9355
#
#
#
# Elastic Compliance Matrix: (Units=1/GPa)
#
#
# Indices 1 2 3 4 5 6 
#
# 1 0.006586 0.000641 -0.001329 0.000000 -0.005474 0.000000
# 2 0.000641 0.012142 -0.001021 0.000000 -0.004910 0.000000
# 3 -0.001329 -0.001021 0.006061 0.000000 -0.000802 0.000000
# 4 0.000000 0.000000 0.000000 0.072792 0.000000 0.017138
# 5 -0.005474 -0.004910 -0.000802 0.000000 0.044709 0.000000
# 6 0.000000 0.000000 0.000000 0.017138 0.000000 0.026796
#
#
# Mechanical properties :
#
#
# Convention : Reuss Voigt Hill
#
# Bulk Modulus (GPa) = 46.79452 63.62686 55.21069
# Shear Modulus (GPa) = 27.83535 42.82012 35.32773
#
# Velocity S-wave (km/s) = 3.20692 3.97753 3.61283
# Velocity P-wave (km/s) = 5.56790 6.67851 6.14833
#
# Compressibility (1/GPa) = 0.02137002
#
# Stress axis : x y z
#
# Youngs Moduli (GPa) = 151.84117 82.35666 164.99661
#
# Poissons Ratio (x) = -0.05277 0.21927
# Poissons Ratio (y) = -0.09730 0.16851
# Poissons Ratio (z) = 0.20179 0.08411
#
# Static dielectric constant tensor:
#      x y z
#    x 2.016270 0.000000 -0.049500 
#    y 0.000000 2.178440 0.000000 
#    z -0.049500 0.000000 2.255260 
# 
# From -- ./inp_files/60704.got.cif
#   From: 2010.05.17/outbox.cif.g08.bks.cpg/sg14_31_cif.got.tgz:60704.got - 2010.06.03 17:49:19.
