data_PCOD9247696
_publ_section_title
;
Structure prediction by ZEFSAII (Michael W. Deem and Ramdas Pophale) SiO2 
 PCOD9247696
Probable space group: P 21/C
;
_chemical_formula_sum "Si O2"
_cell_formula_units_Z 28
_cell_length_a 13.800707
_cell_length_b 7.372323
_cell_length_c 12.158120
_cell_angle_alpha 90.000000
_cell_angle_beta 114.644930
_cell_angle_gamma 90.000000
_cell_volume 1124.327172
_symmetry_space_group_name_H-M "P 21/C"
_symmetry_group_IT_number 14
_symmetry_cell_setting 'monoclinic'
loop_
_space_group_symop_operation_xyz
x,y,z
-x,1/2+y,1/2-z
-x,-y,-z
x,1/2-y,1/2+z
loop_
_atom_site_type_symbol
_atom_site_label
_atom_site_fract_x
_atom_site_fract_y
_atom_site_fract_z
Si Si1 0.720598 0.528076 0.916094
Si Si2 0.894037 0.998661 0.170079
Si Si3 0.298648 0.695502 0.317084
Si Si4 0.407129 0.956710 0.077494
Si Si5 0.499202 0.846473 0.332665
Si Si6 0.136184 0.422482 0.811020
Si Si7 0.197790 0.435676 0.594269
O O1 0.719738 0.400036 0.809662
O O2 0.598507 0.522627 0.901449
O O3 0.763552 0.725778 0.895729
O O4 0.794107 0.495664 0.057093
O O5 0.852502 0.797685 0.183717
O O6 0.816139 0.154730 0.179653
O O7 0.894329 0.982943 0.037250
O O8 0.012406 0.032060 0.269389
O O9 0.374933 0.588249 0.439425
O O10 0.382686 0.862477 0.332688
O O11 0.485600 0.844665 0.193401
O O12 0.451313 0.157663 0.107511
O O13 0.295214 0.955413 0.088230
O O14 0.170628 0.484987 0.705765
#
# Coordination Sequence:
#
# PCOD9247696 Si02
#       7
#     4   4   4   4   4   4   4
#     4  10  22  39  65  96 123 178 216 260 336 391
#     4  10  23  41  67  94 123 183 216 273 334 378
#     4  11  22  45  66  90 137 174 217 265 331 400
#     4  10  23  40  66  93 128 176 215 270 336 387
#     4  11  22  39  65  99 124 171 218 264 331 390
#     4  11  22  43  65  94 132 169 228 272 321 393
#     4   9  20  41  64  88 130 168 221 265 327 387
#
# _framework density 24.903782
#
# number of rings (size 3 to 8) (size 9 to 14) (size 15 to 20)
#    0.000    1.714    2.857    1.714    0.000    2.857 
#    7.714    1.429    0.000    0.000    0.000    0.000 
#    0.000    0.000    0.000    0.000    0.000    0.000 
#
# Total GULP energy -156273.845598 kJ/mol
# GULP energy per Si atom -5581.208771 kJ/mol
# Density = 2.484710 g / cm^3
# Si number density = 24.903782 Si / 1000 Ang^3
#
#
#
# Elastic Constant Matrix: (Units=GPa)
#
#
# Indices 1 2 3 4 5 6 
#
# 1 142.6846 7.2353 72.9064 0.0000 9.8106 0.0000
# 2 7.2353 39.4161 15.4536 0.0000 -7.4507 0.0000
# 3 72.9064 15.4536 198.2913 0.0000 1.0139 0.0000
# 4 0.0000 0.0000 0.0000 90.7050 0.0000 -73.0962
# 5 9.8106 -7.4507 1.0139 0.0000 54.6722 0.0000
# 6 0.0000 0.0000 0.0000 -73.0962 0.0000 114.4391
#
#
#
# Elastic Compliance Matrix: (Units=1/GPa)
#
#
# Indices 1 2 3 4 5 6 
#
# 1 0.008770 -0.000673 -0.003164 0.000000 -0.001607 0.000000
# 2 -0.000673 0.026952 -0.001873 0.000000 0.003828 0.000000
# 3 -0.003164 -0.001873 0.006351 0.000000 0.000195 0.000000
# 4 0.000000 0.000000 0.000000 0.022719 0.000000 0.014511
# 5 -0.001607 0.003828 0.000195 0.000000 0.019097 0.000000
# 6 0.000000 0.000000 0.000000 0.014511 0.000000 0.018007
#
#
# Mechanical properties :
#
#
# Convention : Reuss Voigt Hill
#
# Bulk Modulus (GPa) = 32.62231 63.50916 48.06574
# Shear Modulus (GPa) = 40.47514 70.94970 55.71242
#
# Velocity S-wave (km/s) = 4.03583 5.34335 4.73494
# Velocity P-wave (km/s) = 5.90296 7.97657 7.01679
#
# Compressibility (1/GPa) = 0.03065387
#
# Stress axis : x y z
#
# Youngs Moduli (GPa) = 114.03047 37.10341 157.45009
#
# Poissons Ratio (x) = 0.02497 0.49812
# Poissons Ratio (y) = 0.07676 0.29483
# Poissons Ratio (z) = 0.36075 0.06948
#
# Static dielectric constant tensor:
#      x y z
#    x 1.991110 0.000000 0.004280 
#    y 0.000000 2.135000 0.000000 
#    z 0.004280 0.000000 1.952790 
# 
# From -- ./inp_files/31711.got.cif
#   From: 2010.05.17/outbox.cif.g08.bks.cpg/sg14_16_cif.got.tgz:31711.got - 2010.06.03 17:49:19.
