data_PCOD9247587
_publ_section_title
;
Structure prediction by ZEFSAII (Michael W. Deem and Ramdas Pophale) SiO2 
 PCOD9247587
Probable space group: P 21/C
;
_chemical_formula_sum "Si O2"
_cell_formula_units_Z 28
_cell_length_a 8.686472
_cell_length_b 21.603013
_cell_length_c 14.735962
_cell_angle_alpha 90.000000
_cell_angle_beta 153.027759
_cell_angle_gamma 90.000000
_cell_volume 1254.208701
_symmetry_space_group_name_H-M "P 21/C"
_symmetry_group_IT_number 14
_symmetry_cell_setting 'monoclinic'
loop_
_space_group_symop_operation_xyz
x,y,z
-x,1/2+y,1/2-z
-x,-y,-z
x,1/2-y,1/2+z
loop_
_atom_site_type_symbol
_atom_site_label
_atom_site_fract_x
_atom_site_fract_y
_atom_site_fract_z
Si Si1 0.856719 0.525161 0.222607
Si Si2 0.096577 0.900125 0.000439
Si Si3 0.865566 0.569647 0.912521
Si Si4 0.952034 0.339619 0.143861
Si Si5 0.122100 0.102046 0.908798
Si Si6 0.274569 0.791850 0.965978
Si Si7 0.895515 0.131177 0.283116
O O1 0.831810 0.557094 0.307764
O O2 0.108526 0.467780 0.365406
O O3 0.008398 0.575920 0.234991
O O4 0.500000 0.500000 0.000000
O O5 0.109979 0.834083 0.957628
O O6 0.466295 0.931125 0.180619
O O7 0.018852 0.895328 0.064662
O O8 0.061696 0.603979 0.933736
O O9 0.000000 0.500000 0.000000
O O10 0.900401 0.615131 0.018418
O O11 0.895527 0.361338 0.216951
O O12 0.341166 0.315632 0.342367
O O13 0.729135 0.279537 0.009227
O O14 0.504256 0.125882 0.106796
O O15 0.084079 0.807736 0.770153
#
# Coordination Sequence:
#
# PCOD9247587 Si02
#       7
#     4   4   4   4   4   4   4
#     4  11  22  38  60  89 122 161 202 251 308 368
#     4  10  23  41  61  90 128 161 204 262 310 377
#     4  11  22  41  66  94 126 168 212 263 325 380
#     4  10  23  40  63  87 122 165 208 262 315 381
#     4  11  22  38  60  90 119 157 202 251 311 369
#     4   9  22  43  60  85 120 161 208 255 314 374
#     4  10  22  39  60  85 122 161 199 254 309 373
#
# _framework density 22.324833000000002
#
# number of rings (size 3 to 8) (size 9 to 14) (size 15 to 20)
#    0.000    1.714    0.000    4.286    0.000    8.000 
#    0.000    5.714    0.000    0.000    0.000    0.000 
#    0.000    0.000    0.000    0.000    0.000    0.000 
#
# Total GULP energy -156589.620252 kJ/mol
# GULP energy per Si atom -5592.486438 kJ/mol
# Density = 2.227402 g / cm^3
# Si number density = 22.324833 Si / 1000 Ang^3
#
#
#
# Elastic Constant Matrix: (Units=GPa)
#
#
# Indices 1 2 3 4 5 6 
#
# 1 75.3547 38.0906 31.8891 0.0000 -21.6628 0.0000
# 2 38.0906 100.2425 29.9221 0.0000 -4.5066 0.0000
# 3 31.8891 29.9221 74.3608 0.0000 -15.6210 0.0000
# 4 0.0000 0.0000 0.0000 33.4195 0.0000 -1.8971
# 5 -21.6628 -4.5066 -15.6210 0.0000 32.4080 0.0000
# 6 0.0000 0.0000 0.0000 -1.8971 0.0000 22.2610
#
#
#
# Elastic Compliance Matrix: (Units=1/GPa)
#
#
# Indices 1 2 3 4 5 6 
#
# 1 0.021638 -0.006429 -0.004275 0.000000 0.011509 0.000000
# 2 -0.006429 0.013262 -0.003443 0.000000 -0.004113 0.000000
# 3 -0.004275 -0.003443 0.017765 0.000000 0.005227 0.000000
# 4 0.000000 0.000000 0.000000 0.030068 0.000000 0.002562
# 5 0.011509 -0.004113 0.005227 0.000000 0.040497 0.000000
# 6 0.000000 0.000000 0.000000 0.002562 0.000000 0.045140
#
#
# Mechanical properties :
#
#
# Convention : Reuss Voigt Hill
#
# Bulk Modulus (GPa) = 41.03317 49.97353 45.50335
# Shear Modulus (GPa) = 24.41576 27.62147 26.01861
#
# Velocity S-wave (km/s) = 3.31064 3.52128 3.41758
# Velocity P-wave (km/s) = 5.74750 6.24226 5.99998
#
# Compressibility (1/GPa) = 0.02437053
#
# Stress axis : x y z
#
# Youngs Moduli (GPa) = 46.21562 75.40608 56.29156
#
# Poissons Ratio (x) = 0.48476 0.24063
# Poissons Ratio (y) = 0.29710 0.19384
# Poissons Ratio (z) = 0.19756 0.25965
#
# Static dielectric constant tensor:
#      x y z
#    x 1.806830 0.000000 -0.018320 
#    y 0.000000 1.830720 0.000000 
#    z -0.018320 0.000000 1.861990 
# 
# From -- ./inp_files/42032.got.cif
#   From: 2010.05.17/outbox.cif.g08.bks.cpg/sg14_22_cif.got.tgz:42032.got - 2010.06.03 17:49:19.
