data_PCOD9247496
_publ_section_title
;
Structure prediction by ZEFSAII (Michael W. Deem and Ramdas Pophale) SiO2 
 PCOD9247496
Probable space group: P 21/C
;
_chemical_formula_sum "Si O2"
_cell_formula_units_Z 32
_cell_length_a 9.716637
_cell_length_b 14.048067
_cell_length_c 12.518825
_cell_angle_alpha 90.000000
_cell_angle_beta 118.565305
_cell_angle_gamma 90.000000
_cell_volume 1500.809229
_symmetry_space_group_name_H-M "P 21/C"
_symmetry_group_IT_number 14
_symmetry_cell_setting 'monoclinic'
loop_
_space_group_symop_operation_xyz
x,y,z
-x,1/2+y,1/2-z
-x,-y,-z
x,1/2-y,1/2+z
loop_
_atom_site_type_symbol
_atom_site_label
_atom_site_fract_x
_atom_site_fract_y
_atom_site_fract_z
Si Si1 0.996697 0.636928 0.531358
Si Si2 0.232323 0.311622 0.378451
Si Si3 0.680981 0.401836 0.000756
Si Si4 0.659602 0.388330 0.241192
Si Si5 0.539199 0.751879 0.188573
Si Si6 0.230065 0.400880 0.965740
Si Si7 0.219473 0.083261 0.217797
Si Si8 0.970393 0.841742 0.411652
O O1 0.853948 0.628277 0.562905
O O2 0.936607 0.574438 0.409816
O O3 0.001217 0.741659 0.480451
O O4 0.164454 0.630474 0.649225
O O5 0.399045 0.322896 0.381884
O O6 0.261464 0.209607 0.448772
O O7 0.111591 0.322603 0.233222
O O8 0.656094 0.372959 0.113818
O O9 0.644260 0.514367 0.972284
O O10 0.864863 0.392955 0.044502
O O11 0.586567 0.325406 0.897062
O O12 0.534123 0.319245 0.249273
O O13 0.655376 0.501365 0.261481
O O14 0.689299 0.683280 0.269082
O O15 0.168501 0.427763 0.823006
O O16 0.133121 0.397884 0.039338
#
# Coordination Sequence:
#
# PCOD9247496 Si02
#       8
#     4   4   4   4   4   4   4   4
#     4  11  20  41  66  88 125 164 214 255 307 385
#     4  10  22  38  63  92 121 170 204 252 322 367
#     4  11  23  39  61  95 125 161 217 259 313 372
#     4  11  24  41  68  89 127 169 208 267 313 376
#     4  11  24  40  61  95 126 166 204 259 324 375
#     4   9  21  37  62  91 122 163 208 259 304 369
#     4  10  23  42  64  96 124 167 217 250 323 384
#     4  11  19  38  64  91 128 161 212 260 309 370
#
# _framework density 21.321831
#
# number of rings (size 3 to 8) (size 9 to 14) (size 15 to 20)
#    0.000    1.500    5.000    0.750    1.750    6.500 
#    0.000    0.625    2.750    0.000    0.000    0.000 
#    0.000    0.000    0.000    0.000    0.000    0.000 
#
# Total GULP energy -178167.825932 kJ/mol
# GULP energy per Si atom -5567.744560 kJ/mol
# Density = 2.127330 g / cm^3
# Si number density = 21.321831 Si / 1000 Ang^3
#
#
#
# Elastic Constant Matrix: (Units=GPa)
#
#
# Indices 1 2 3 4 5 6 
#
# 1 97.6157 15.0685 31.9376 0.0000 -19.7415 0.0000
# 2 15.0685 47.4158 22.9636 0.0000 -1.8680 0.0000
# 3 31.9376 22.9636 61.4076 0.0000 -9.5413 0.0000
# 4 0.0000 0.0000 0.0000 23.2099 0.0000 -4.3592
# 5 -19.7415 -1.8680 -9.5413 0.0000 38.8419 0.0000
# 6 0.0000 0.0000 0.0000 -4.3592 0.0000 29.4170
#
#
#
# Elastic Compliance Matrix: (Units=1/GPa)
#
#
# Indices 1 2 3 4 5 6 
#
# 1 0.013371 -0.001310 -0.005633 0.000000 0.005349 0.000000
# 2 -0.001310 0.025934 -0.009281 0.000000 -0.001698 0.000000
# 3 -0.005633 -0.009281 0.023050 0.000000 0.002353 0.000000
# 4 0.000000 0.000000 0.000000 0.044319 0.000000 0.006567
# 5 0.005349 -0.001698 0.002353 0.000000 0.028960 0.000000
# 6 0.000000 0.000000 0.000000 0.006567 0.000000 0.034967
#
#
# Mechanical properties :
#
#
# Convention : Reuss Voigt Hill
#
# Bulk Modulus (GPa) = 33.43620 38.48651 35.96135
# Shear Modulus (GPa) = 23.47202 27.39172 25.43187
#
# Velocity S-wave (km/s) = 3.32150 3.58813 3.45739
# Velocity P-wave (km/s) = 5.51593 5.93765 5.73067
#
# Compressibility (1/GPa) = 0.02990771
#
# Stress axis : x y z
#
# Youngs Moduli (GPa) = 74.78651 38.55919 43.38311
#
# Poissons Ratio (x) = 0.05053 0.24438
# Poissons Ratio (y) = 0.09800 0.40262
# Poissons Ratio (z) = 0.42128 0.35785
#
# Static dielectric constant tensor:
#      x y z
#    x 1.789000 0.000000 0.023460 
#    y 0.000000 1.847210 0.000000 
#    z 0.023460 0.000000 1.796630 
# 
# From -- ./inp_files/25568.got.cif
#   From: 2010.05.17/outbox.cif.g08.bks.cpg/sg14_13_cif.got.tgz:25568.got - 2010.06.03 17:49:19.
