data_PCOD9247513
_publ_section_title
;
Structure prediction by ZEFSAII (Michael W. Deem and Ramdas Pophale) SiO2 
 PCOD9247513
Probable space group: P 21/C
;
_chemical_formula_sum "Si O2"
_cell_formula_units_Z 26
_cell_length_a 16.707472
_cell_length_b 13.890761
_cell_length_c 9.777035
_cell_angle_alpha 90.000000
_cell_angle_beta 148.756611
_cell_angle_gamma 90.000000
_cell_volume 1176.898316
_symmetry_space_group_name_H-M "P 21/C"
_symmetry_group_IT_number 14
_symmetry_cell_setting 'monoclinic'
loop_
_space_group_symop_operation_xyz
x,y,z
-x,1/2+y,1/2-z
-x,-y,-z
x,1/2-y,1/2+z
loop_
_atom_site_type_symbol
_atom_site_label
_atom_site_fract_x
_atom_site_fract_y
_atom_site_fract_z
Si Si1 0.595759 0.951820 0.441477
Si Si2 0.000000 0.000000 0.500000
Si Si3 0.131903 0.360558 0.805927
Si Si4 0.140469 0.296383 0.113694
Si Si5 0.152419 0.954271 0.992464
Si Si6 0.486653 0.158804 0.214006
Si Si7 0.609232 0.299113 0.191067
O O1 0.700547 0.905174 0.477350
O O2 0.487744 0.874918 0.358175
O O3 0.503394 0.044211 0.253508
O O4 0.718880 0.990782 0.731995
O O5 0.044395 0.109441 0.513107
O O6 0.878902 0.992253 0.194179
O O7 0.081780 0.299082 0.601835
O O8 0.007442 0.441954 0.660036
O O9 0.141955 0.291612 0.952282
O O10 0.315358 0.311398 0.421148
O O11 0.222976 0.846950 0.076044
O O12 0.597825 0.200218 0.257340
O O13 0.536874 0.203218 0.433743
#
# Coordination Sequence:
#
# PCOD9247513 Si02
#       7
#     4   2   4   4   4   4   4
#     4  11  23  42  68  94 128 176 216 271 318 394
#     4  10  22  38  64  92 128 168 212 266 314 386
#     4  11  25  41  67  95 131 169 217 261 333 385
#     4  11  23  43  64  99 128 176 213 269 326 389
#     4  10  23  44  62  99 127 173 217 264 331 389
#     4  11  23  42  68  95 130 171 216 275 316 386
#     4  11  23  42  68  93 129 173 220 261 331 383
#
# _framework density 22.091967
#
# number of rings (size 3 to 8) (size 9 to 14) (size 15 to 20)
#    0.000    1.231    1.538    5.077    2.154    5.538 
#   11.077    0.000    0.000    0.000    0.000    0.000 
#    0.000    0.000    0.000    0.000    0.000    0.000 
#
# Total GULP energy -144954.783145 kJ/mol
# GULP energy per Si atom -5575.183967 kJ/mol
# Density = 2.204168 g / cm^3
# Si number density = 22.091967 Si / 1000 Ang^3
#
#
#
# Elastic Constant Matrix: (Units=GPa)
#
#
# Indices 1 2 3 4 5 6 
#
# 1 56.5723 6.2909 12.6647 0.0000 2.8599 0.0000
# 2 6.2909 45.9150 -6.6083 0.0000 -5.0785 0.0000
# 3 12.6647 -6.6083 57.4920 0.0000 -7.1342 0.0000
# 4 0.0000 0.0000 0.0000 23.1999 0.0000 -6.6632
# 5 2.8599 -5.0785 -7.1342 0.0000 23.0827 0.0000
# 6 0.0000 0.0000 0.0000 -6.6632 0.0000 34.4286
#
#
#
# Elastic Compliance Matrix: (Units=1/GPa)
#
#
# Indices 1 2 3 4 5 6 
#
# 1 0.019581 -0.004009 -0.005391 0.000000 -0.004974 0.000000
# 2 -0.004009 0.023763 0.004497 0.000000 0.007115 0.000000
# 3 -0.005391 0.004497 0.020074 0.000000 0.007862 0.000000
# 4 0.000000 0.000000 0.000000 0.045641 0.000000 0.008833
# 5 -0.004974 0.007115 0.007862 0.000000 0.047934 0.000000
# 6 0.000000 0.000000 0.000000 0.008833 0.000000 0.030755
#
#
# Mechanical properties :
#
#
# Convention : Reuss Voigt Hill
#
# Bulk Modulus (GPa) = 18.65271 20.51931 19.58601
# Shear Modulus (GPa) = 23.21007 25.98438 24.59722
#
# Velocity S-wave (km/s) = 3.24483 3.43328 3.34039
# Velocity P-wave (km/s) = 4.74343 5.00249 4.87468
#
# Compressibility (1/GPa) = 0.05361151
#
# Stress axis : x y z
#
# Youngs Moduli (GPa) = 51.07063 42.08243 49.81597
#
# Poissons Ratio (x) = 0.16871 0.26858
# Poissons Ratio (y) = 0.20474 -0.22404
# Poissons Ratio (z) = 0.27534 -0.18926
#
# Static dielectric constant tensor:
#      x y z
#    x 1.822140 0.000000 0.015910 
#    y 0.000000 1.814860 0.000000 
#    z 0.015910 0.000000 1.802900 
# 
# From -- ./inp_files/16358.got.cif
#   From: 2010.05.17/outbox.cif.g08.bks.cpg/sg14_9_cif.got.tgz:16358.got - 2010.06.03 17:49:19.
