data_PCOD9247604
_publ_section_title
;
Structure prediction by ZEFSAII (Michael W. Deem and Ramdas Pophale) SiO2 
 PCOD9247604
Probable space group: P 21/C
;
_chemical_formula_sum "Si O2"
_cell_formula_units_Z 20
_cell_length_a 6.194863
_cell_length_b 6.671368
_cell_length_c 21.660585
_cell_angle_alpha 90.000000
_cell_angle_beta 84.425635
_cell_angle_gamma 90.000000
_cell_volume 890.959818
_symmetry_space_group_name_H-M "P 21/C"
_symmetry_group_IT_number 14
_symmetry_cell_setting 'monoclinic'
loop_
_space_group_symop_operation_xyz
x,y,z
-x,1/2+y,1/2-z
-x,-y,-z
x,1/2-y,1/2+z
loop_
_atom_site_type_symbol
_atom_site_label
_atom_site_fract_x
_atom_site_fract_y
_atom_site_fract_z
Si Si1 0.603492 0.839679 0.157664
Si Si2 0.279250 0.138829 0.120895
Si Si3 0.961890 0.261072 0.866037
Si Si4 0.240973 0.474044 0.027055
Si Si5 0.268746 0.994517 0.715187
O O1 0.442096 0.674107 0.189781
O O2 0.794257 0.726740 0.117053
O O3 0.495825 0.006922 0.118213
O O4 0.698521 0.952175 0.215108
O O5 0.237376 0.255889 0.059185
O O6 0.290242 0.304584 0.174308
O O7 0.100080 0.970223 0.138574
O O8 0.794835 0.363120 0.917328
O O9 0.949755 0.384619 0.802157
O O10 0.500000 0.500000 0.000000
O O11 0.000000 0.500000 0.000000
#
# Coordination Sequence:
#
# PCOD9247604 Si02
#       5
#     4   4   4   4   4
#     4  11  22  40  66  97 143 182 227 283 352 430
#     4  10  24  44  66 100 135 177 234 289 344 430
#     4  10  26  41  68 101 134 184 239 289 351 431
#     4  11  28  50  75 101 140 185 243 311 365 409
#     4  10  22  39  61 100 141 182 224 277 349 428
#
# _framework density 22.447700000000001
#
# number of rings (size 3 to 8) (size 9 to 14) (size 15 to 20)
#    0.000    1.600    2.000    0.000   14.000    3.200 
#    0.000    0.000    0.000    0.000    0.000    0.000 
#    0.000    0.000    0.000    0.000    0.000    0.000 
#
# Total GULP energy -111403.002416 kJ/mol
# GULP energy per Si atom -5570.150121 kJ/mol
# Density = 2.239661 g / cm^3
# Si number density = 22.447700 Si / 1000 Ang^3
#
#
#
# Elastic Constant Matrix: (Units=GPa)
#
#
# Indices 1 2 3 4 5 6 
#
# 1 136.6879 34.4305 43.9379 0.0000 -1.8441 0.0000
# 2 34.4305 115.8489 22.7538 0.0000 -4.2292 0.0000
# 3 43.9379 22.7538 63.9995 0.0000 3.6310 0.0000
# 4 0.0000 0.0000 0.0000 24.5171 0.0000 20.9283
# 5 -1.8441 -4.2292 3.6310 0.0000 27.1046 0.0000
# 6 0.0000 0.0000 0.0000 20.9283 0.0000 22.5661
#
#
#
# Elastic Compliance Matrix: (Units=1/GPa)
#
#
# Indices 1 2 3 4 5 6 
#
# 1 0.009726 -0.001635 -0.006166 0.000000 0.001233 0.000000
# 2 -0.001635 0.009653 -0.002407 0.000000 0.001717 0.000000
# 3 -0.006166 -0.002407 0.020918 0.000000 -0.003597 0.000000
# 4 0.000000 0.000000 0.000000 0.195779 0.000000 -0.181570
# 5 0.001233 0.001717 -0.003597 0.000000 0.037728 0.000000
# 6 0.000000 0.000000 0.000000 -0.181570 0.000000 0.212706
#
#
# Mechanical properties :
#
#
# Convention : Reuss Voigt Hill
#
# Bulk Modulus (GPa) = 50.29728 57.64231 53.96979
# Shear Modulus (GPa) = 9.73607 29.19852 19.46729
#
# Velocity S-wave (km/s) = 2.08486 3.61048 2.94807
# Velocity P-wave (km/s) = 5.31513 6.56620 5.97351
#
# Compressibility (1/GPa) = 0.01988179
#
# Stress axis : x y z
#
# Youngs Moduli (GPa) = 102.81223 103.59214 47.80460
#
# Poissons Ratio (x) = 0.16933 0.29478
# Poissons Ratio (y) = 0.16806 0.11508
# Poissons Ratio (z) = 0.63398 0.24937
#
# Static dielectric constant tensor:
#      x y z
#    x 1.979920 0.000000 0.017070 
#    y 0.000000 1.785610 0.000000 
#    z 0.017070 0.000000 1.871350 
# 
# From -- ./inp_files/75443.got.cif
#   From: 2010.05.17/outbox.cif.g08.bks.cpg/sg14_38_cif.got.tgz:75443.got - 2010.06.03 17:49:19.
