data_PCOD9247008
_publ_section_title
;
Structure prediction by ZEFSAII (Michael W. Deem and Ramdas Pophale) SiO2 
 PCOD9247008
Probable space group: P 21/C
;
_chemical_formula_sum "Si O2"
_cell_formula_units_Z 32
_cell_length_a 6.264921
_cell_length_b 30.964469
_cell_length_c 8.159197
_cell_angle_alpha 90.000000
_cell_angle_beta 58.293655
_cell_angle_gamma 90.000000
_cell_volume 1346.573612
_symmetry_space_group_name_H-M "P 21/C"
_symmetry_group_IT_number 14
_symmetry_cell_setting 'monoclinic'
loop_
_space_group_symop_operation_xyz
x,y,z
-x,1/2+y,1/2-z
-x,-y,-z
x,1/2-y,1/2+z
loop_
_atom_site_type_symbol
_atom_site_label
_atom_site_fract_x
_atom_site_fract_y
_atom_site_fract_z
Si Si1 0.733219 0.560037 0.395286
Si Si2 0.340478 0.848534 0.528131
Si Si3 0.444707 0.208799 0.279681
Si Si4 0.785364 0.657507 0.407729
Si Si5 0.707844 0.220621 0.730480
Si Si6 0.973906 0.721326 0.601456
Si Si7 0.252975 0.946680 0.532725
Si Si8 0.407764 0.506065 0.304278
O O1 0.714214 0.608188 0.469639
O O2 0.489980 0.542438 0.399935
O O3 0.774794 0.526970 0.528217
O O4 0.955159 0.559066 0.171142
O O5 0.515429 0.829567 0.600716
O O6 0.357179 0.817743 0.362143
O O7 0.375778 0.899042 0.479067
O O8 0.053371 0.843446 0.706349
O O9 0.433083 0.177612 0.116910
O O10 0.499068 0.250021 0.396828
O O11 0.182036 0.234780 0.334998
O O12 0.852874 0.683863 0.545126
O O13 0.937197 0.210356 0.753430
O O14 0.760882 0.265695 0.598054
O O15 0.355599 0.975874 0.344394
O O16 0.322677 0.970888 0.673463
#
# Coordination Sequence:
#
# PCOD9247008 Si02
#       8
#     4   4   4   4   4   4   4   4
#     4  10  22  41  67  94 129 166 207 269 321 383
#     4  11  23  40  60  92 124 163 216 260 313 378
#     4  12  21  37  66  78 126 172 206 255 325 360
#     4  11  23  40  60  92 124 163 216 260 313 378
#     4  12  23  40  57  87 122 165 212 256 309 373
#     4  12  23  40  57  87 122 165 212 256 309 373
#     4  10  22  41  67  94 129 166 207 269 321 383
#     4  10  21  43  66  96 126 164 216 251 337 396
#
# _framework density 23.764016999999999
#
# number of rings (size 3 to 8) (size 9 to 14) (size 15 to 20)
#    0.000    1.000    5.000    2.250    0.000    1.000 
#    0.000    6.250    0.000    0.000    0.000    0.000 
#    0.000    0.000    0.000    0.000    0.000    0.000 
#
# Total GULP energy -178358.029883 kJ/mol
# GULP energy per Si atom -5573.688434 kJ/mol
# Density = 2.370993 g / cm^3
# Si number density = 23.764017 Si / 1000 Ang^3
#
#
#
# Elastic Constant Matrix: (Units=GPa)
#
#
# Indices 1 2 3 4 5 6 
#
# 1 94.6908 45.6063 27.8590 0.0000 25.7658 0.0000
# 2 45.6063 129.9037 20.6436 0.0000 10.0344 0.0000
# 3 27.8590 20.6436 70.6452 0.0000 5.1993 0.0000
# 4 0.0000 0.0000 0.0000 33.4892 0.0000 2.7402
# 5 25.7658 10.0344 5.1993 0.0000 47.6847 0.0000
# 6 0.0000 0.0000 0.0000 2.7402 0.0000 21.5502
#
#
#
# Elastic Compliance Matrix: (Units=1/GPa)
#
#
# Indices 1 2 3 4 5 6 
#
# 1 0.015922 -0.004320 -0.004486 0.000000 -0.007205 0.000000
# 2 -0.004320 0.009346 -0.001063 0.000000 0.000484 0.000000
# 3 -0.004486 -0.001063 0.016170 0.000000 0.000885 0.000000
# 4 0.000000 0.000000 0.000000 0.030174 0.000000 -0.003837
# 5 -0.007205 0.000484 0.000885 0.000000 0.024666 0.000000
# 6 0.000000 0.000000 0.000000 -0.003837 0.000000 0.046891
#
#
# Mechanical properties :
#
#
# Convention : Reuss Voigt Hill
#
# Bulk Modulus (GPa) = 46.08461 53.71749 49.90105
# Shear Modulus (GPa) = 29.38733 33.95355 31.67044
#
# Velocity S-wave (km/s) = 3.52039 3.78402 3.65458
# Velocity P-wave (km/s) = 5.99658 6.46107 6.23315
#
# Compressibility (1/GPa) = 0.02169922
#
# Stress axis : x y z
#
# Youngs Moduli (GPa) = 62.80673 106.99343 61.84347
#
# Poissons Ratio (x) = 0.46225 0.27743
# Poissons Ratio (y) = 0.27135 0.06574
# Poissons Ratio (z) = 0.28176 0.11373
#
# Static dielectric constant tensor:
#      x y z
#    x 2.008260 0.000000 -0.137780 
#    y 0.000000 1.884030 0.000000 
#    z -0.137780 0.000000 2.118570 
# 
# From -- ./inp_files/6951.got.cif
#   From: 2010.05.17/outbox.cif.g08.bks.cpg/sg14_4_cif.got.tgz:6951.got - 2010.06.03 17:49:19.
