data_PCOD9247943
_publ_section_title
;
Structure prediction by ZEFSAII (Michael W. Deem and Ramdas Pophale) SiO2 
 PCOD9247943
Probable space group: P 21/C
;
_chemical_formula_sum "Si O2"
_cell_formula_units_Z 28
_cell_length_a 8.867514
_cell_length_b 15.432091
_cell_length_c 20.168592
_cell_angle_alpha 90.000000
_cell_angle_beta 149.600653
_cell_angle_gamma 90.000000
_cell_volume 1396.604052
_symmetry_space_group_name_H-M "P 21/C"
_symmetry_group_IT_number 14
_symmetry_cell_setting 'monoclinic'
loop_
_space_group_symop_operation_xyz
x,y,z
-x,1/2+y,1/2-z
-x,-y,-z
x,1/2-y,1/2+z
loop_
_atom_site_type_symbol
_atom_site_label
_atom_site_fract_x
_atom_site_fract_y
_atom_site_fract_z
Si Si1 0.662424 0.723828 0.673353
Si Si2 0.312776 0.238923 0.043893
Si Si3 0.753271 0.344411 0.057879
Si Si4 0.249153 0.559583 0.065476
Si Si5 0.661600 0.420168 0.153912
Si Si6 0.656302 0.906057 0.055704
Si Si7 0.621264 0.281896 0.799969
O O1 0.549970 0.802348 0.584256
O O2 0.589231 0.641232 0.600336
O O3 0.494819 0.727951 0.680135
O O4 0.014935 0.722530 0.821509
O O5 0.476395 0.330334 0.090312
O O6 0.412418 0.220836 0.156910
O O7 0.409112 0.161824 0.029535
O O8 0.956055 0.253651 0.906871
O O9 0.714436 0.421292 0.095122
O O10 0.899129 0.379459 0.046198
O O11 0.488670 0.499919 0.119714
O O12 0.376112 0.620877 0.170276
O O13 0.000000 0.500000 0.000000
O O14 0.985374 0.415732 0.309845
O O15 0.500000 0.000000 0.000000
#
# Coordination Sequence:
#
# PCOD9247943 Si02
#       7
#     4   4   4   4   4   4   4
#     4  10  22  42  65  99 132 176 229 275 338 410
#     4  12  23  46  69  97 137 182 225 277 348 412
#     4  10  22  40  67  94 132 175 221 279 332 401
#     4  11  23  40  64 102 134 171 223 280 339 407
#     4  11  23  44  68  99 136 177 232 277 339 414
#     4  11  26  46  69 102 138 182 232 288 338 405
#     4  11  24  41  70  98 135 178 221 282 348 406
#
# _framework density 20.048632000000001
#
# number of rings (size 3 to 8) (size 9 to 14) (size 15 to 20)
#    0.000    1.143    4.286    2.143    0.000    5.714 
#    2.571    1.429    0.000    0.000    0.000    0.000 
#    0.000    0.000    0.000    0.000    0.000    0.000 
#
# Total GULP energy -156192.965159 kJ/mol
# GULP energy per Si atom -5578.320184 kJ/mol
# Density = 2.000300 g / cm^3
# Si number density = 20.048632 Si / 1000 Ang^3
#
#
#
# Elastic Constant Matrix: (Units=GPa)
#
#
# Indices 1 2 3 4 5 6 
#
# 1 61.1095 23.6905 31.3122 0.0000 -7.6068 0.0000
# 2 23.6905 91.4668 40.2241 0.0000 -2.8581 0.0000
# 3 31.3122 40.2241 107.7559 0.0000 -8.9753 0.0000
# 4 0.0000 0.0000 0.0000 26.1148 0.0000 6.4327
# 5 -7.6068 -2.8581 -8.9753 0.0000 38.5913 0.0000
# 6 0.0000 0.0000 0.0000 6.4327 0.0000 45.7536
#
#
#
# Elastic Compliance Matrix: (Units=1/GPa)
#
#
# Indices 1 2 3 4 5 6 
#
# 1 0.020224 -0.003192 -0.004459 0.000000 0.002713 0.000000
# 2 -0.003192 0.013585 -0.004193 0.000000 -0.000598 0.000000
# 3 -0.004459 -0.004193 0.012280 0.000000 0.001666 0.000000
# 4 0.000000 0.000000 0.000000 0.039666 0.000000 -0.005577
# 5 0.002713 -0.000598 0.001666 0.000000 0.026791 0.000000
# 6 0.000000 0.000000 0.000000 -0.005577 0.000000 0.022640
#
#
# Mechanical properties :
#
#
# Convention : Reuss Voigt Hill
#
# Bulk Modulus (GPa) = 44.64362 50.08730 47.36546
# Shear Modulus (GPa) = 30.05833 33.09896 31.57864
#
# Velocity S-wave (km/s) = 3.87624 4.06758 3.97306
# Velocity P-wave (km/s) = 6.50766 6.86275 6.68757
#
# Compressibility (1/GPa) = 0.02239962
#
# Stress axis : x y z
#
# Youngs Moduli (GPa) = 49.44555 73.60956 81.43216
#
# Poissons Ratio (x) = 0.23499 0.36312
# Poissons Ratio (y) = 0.15785 0.34148
# Poissons Ratio (z) = 0.22049 0.30867
#
# Static dielectric constant tensor:
#      x y z
#    x 1.738500 0.000000 0.006690 
#    y 0.000000 1.857380 0.000000 
#    z 0.006690 0.000000 1.687510 
# 
# From -- ./inp_files/65882.got.cif
#   From: 2010.05.17/outbox.cif.g08.bks.cpg/sg14_33_cif.got.tgz:65882.got - 2010.06.03 17:49:19.
