data_PCOD9247609
_publ_section_title
;
Structure prediction by ZEFSAII (Michael W. Deem and Ramdas Pophale) SiO2 
 PCOD9247609
Probable space group: P 21/C
;
_chemical_formula_sum "Si O2"
_cell_formula_units_Z 24
_cell_length_a 8.709388
_cell_length_b 9.634785
_cell_length_c 14.503793
_cell_angle_alpha 90.000000
_cell_angle_beta 132.572956
_cell_angle_gamma 90.000000
_cell_volume 896.261554
_symmetry_space_group_name_H-M "P 21/C"
_symmetry_group_IT_number 14
_symmetry_cell_setting 'monoclinic'
loop_
_space_group_symop_operation_xyz
x,y,z
-x,1/2+y,1/2-z
-x,-y,-z
x,1/2-y,1/2+z
loop_
_atom_site_type_symbol
_atom_site_label
_atom_site_fract_x
_atom_site_fract_y
_atom_site_fract_z
Si Si1 0.256598 0.669598 0.580854
Si Si2 0.833678 0.676534 0.729430
Si Si3 0.164304 0.909642 0.675254
Si Si4 0.770042 0.608445 0.342208
Si Si5 0.286340 0.213255 0.505889
Si Si6 0.304075 0.734026 0.906759
O O1 0.255740 0.818948 0.629447
O O2 0.312436 0.545903 0.673541
O O3 0.363402 0.686066 0.525271
O O4 0.018532 0.626378 0.460488
O O5 0.756670 0.825288 0.736089
O O6 0.776228 0.672451 0.598527
O O7 0.085292 0.658881 0.834612
O O8 0.768414 0.566589 0.780893
O O9 0.238359 0.841922 0.801040
O O10 0.914479 0.884680 0.565515
O O11 0.676676 0.704081 0.385005
O O12 0.500651 0.151779 0.554634
#
# Coordination Sequence:
#
# PCOD9247609 Si02
#       6
#     4   4   4   4   4   4
#     4   9  19  37  60  85 118 159 197 237 294 359
#     4  10  22  40  62  89 120 154 198 250 296 344
#     4  10  22  40  62  89 120 154 198 250 296 344
#     4   9  19  37  60  85 118 159 197 237 294 359
#     4  10  22  39  61  88 120 159 199 240 295 360
#     4  10  22  39  61  88 120 159 199 240 295 360
#
# _framework density 26.777898
#
# number of rings (size 3 to 8) (size 9 to 14) (size 15 to 20)
#    0.000    2.333    0.000    1.000    0.000   18.667 
#    0.000    0.000    0.000    0.000    0.000    0.000 
#    0.000    0.000    0.000    0.000    0.000    0.000 
#
# Total GULP energy -134249.688247 kJ/mol
# GULP energy per Si atom -5593.737010 kJ/mol
# Density = 2.671695 g / cm^3
# Si number density = 26.777898 Si / 1000 Ang^3
#
#
#
# Elastic Constant Matrix: (Units=GPa)
#
#
# Indices 1 2 3 4 5 6 
#
# 1 111.9139 -6.4293 23.6777 0.0000 4.6264 0.0000
# 2 -6.4293 40.6169 4.3977 0.0000 -5.8102 0.0000
# 3 23.6777 4.3977 90.5830 0.0000 -4.3680 0.0000
# 4 0.0000 0.0000 0.0000 18.3871 0.0000 -8.5523
# 5 4.6264 -5.8102 -4.3680 0.0000 44.8767 0.0000
# 6 0.0000 0.0000 0.0000 -8.5523 0.0000 4.6970
#
#
#
# Elastic Compliance Matrix: (Units=1/GPa)
#
#
# Indices 1 2 3 4 5 6 
#
# 1 0.009634 0.001664 -0.002649 0.000000 -0.001036 0.000000
# 2 0.001664 0.025475 -0.001528 0.000000 0.002978 0.000000
# 3 -0.002649 -0.001528 0.011866 0.000000 0.001230 0.000000
# 4 0.000000 0.000000 0.000000 0.355241 0.000000 0.646826
# 5 -0.001036 0.002978 0.001230 0.000000 0.022895 0.000000
# 6 0.000000 0.000000 0.000000 0.646826 0.000000 1.390648
#
#
# Mechanical properties :
#
#
# Convention : Reuss Voigt Hill
#
# Bulk Modulus (GPa) = 23.83899 31.82290 27.83095
# Shear Modulus (GPa) = 2.72514 28.35666 15.54090
#
# Velocity S-wave (km/s) = 1.00990 3.25769 2.41169
# Velocity P-wave (km/s) = 3.20650 5.10489 4.26272
#
# Compressibility (1/GPa) = 0.04194808
#
# Stress axis : x y z
#
# Youngs Moduli (GPa) = 103.79601 39.25403 84.27763
#
# Poissons Ratio (x) = -0.06531 0.22325
# Poissons Ratio (y) = -0.17268 0.12878
# Poissons Ratio (z) = 0.27496 0.05998
#
# Static dielectric constant tensor:
#      x y z
#    x 2.133050 0.000000 0.082470 
#    y 0.000000 2.074420 0.000000 
#    z 0.082470 0.000000 2.077720 
# 
# From -- ./inp_files/26520.got.cif
#   From: 2010.05.17/outbox.cif.g08.bks.cpg/sg14_14_cif.got.tgz:26520.got - 2010.06.03 17:49:19.
