data_PCOD9247930
_publ_section_title
;
Structure prediction by ZEFSAII (Michael W. Deem and Ramdas Pophale) SiO2 
 PCOD9247930
Probable space group: P 21/C
;
_chemical_formula_sum "Si O2"
_cell_formula_units_Z 32
_cell_length_a 11.560194
_cell_length_b 14.444937
_cell_length_c 14.756647
_cell_angle_alpha 90.000000
_cell_angle_beta 140.042683
_cell_angle_gamma 90.000000
_cell_volume 1582.523245
_symmetry_space_group_name_H-M "P 21/C"
_symmetry_group_IT_number 14
_symmetry_cell_setting 'monoclinic'
loop_
_space_group_symop_operation_xyz
x,y,z
-x,1/2+y,1/2-z
-x,-y,-z
x,1/2-y,1/2+z
loop_
_atom_site_type_symbol
_atom_site_label
_atom_site_fract_x
_atom_site_fract_y
_atom_site_fract_z
Si Si1 0.966910 0.410471 0.845241
Si Si2 0.792089 0.219236 0.100586
Si Si3 0.669288 0.456121 0.207947
Si Si4 0.534334 0.854279 0.563366
Si Si5 0.853580 0.792421 0.248767
Si Si6 0.765207 0.946517 0.346326
Si Si7 0.652504 0.057385 0.898668
Si Si8 0.045824 0.445969 0.329115
O O1 0.877759 0.318641 0.747288
O O2 0.850993 0.460252 0.854862
O O3 0.975694 0.479912 0.765291
O O4 0.158631 0.411284 0.011299
O O5 0.957450 0.238496 0.131539
O O6 0.653542 0.304569 0.022525
O O7 0.679453 0.136133 0.989635
O O8 0.608134 0.564176 0.172901
O O9 0.693519 0.413904 0.321153
O O10 0.856997 0.445388 0.267432
O O11 0.513154 0.404480 0.059071
O O12 0.689004 0.778202 0.644311
O O13 0.813215 0.864750 0.304436
O O14 0.891445 0.852017 0.181092
O O15 0.555617 0.967570 0.224805
O O16 0.793790 0.978741 0.010135
#
# Coordination Sequence:
#
# PCOD9247930 Si02
#       8
#     4   4   4   4   4   4   4   4
#     4   9  22  39  67  92 132 171 216 261 346 385
#     4  11  23  43  67  96 134 172 221 279 324 392
#     4  11  25  44  66  92 138 182 219 262 348 404
#     4  11  24  42  66  96 131 179 221 273 330 399
#     4  11  23  42  66  98 134 167 223 276 329 380
#     4  10  22  40  66  99 129 169 214 277 325 401
#     4  11  24  41  67  98 131 170 225 270 331 396
#     4  10  22  43  68  94 133 177 216 275 331 394
#
# _framework density 20.220873000000001
#
# number of rings (size 3 to 8) (size 9 to 14) (size 15 to 20)
#    0.000    1.500    2.500    1.875    7.000    3.500 
#    4.500    0.000    0.000    0.000    0.000    0.000 
#    0.000    0.000    0.000    0.000    0.000    0.000 
#
# Total GULP energy -178540.265828 kJ/mol
# GULP energy per Si atom -5579.383307 kJ/mol
# Density = 2.017485 g / cm^3
# Si number density = 20.220873 Si / 1000 Ang^3
#
#
#
# Elastic Constant Matrix: (Units=GPa)
#
#
# Indices 1 2 3 4 5 6 
#
# 1 67.7455 -1.6058 27.2697 0.0000 16.1009 0.0000
# 2 -1.6058 54.4250 17.9249 0.0000 9.0396 0.0000
# 3 27.2697 17.9249 104.2724 0.0000 11.1596 0.0000
# 4 0.0000 0.0000 0.0000 23.7063 0.0000 28.2613
# 5 16.1009 9.0396 11.1596 0.0000 39.4401 0.0000
# 6 0.0000 0.0000 0.0000 28.2613 0.0000 29.0400
#
#
#
# Elastic Compliance Matrix: (Units=1/GPa)
#
#
# Indices 1 2 3 4 5 6 
#
# 1 0.018335 0.003207 -0.004606 0.000000 -0.006917 0.000000
# 2 0.003207 0.020554 -0.003844 0.000000 -0.004932 0.000000
# 3 -0.004606 -0.003844 0.011509 0.000000 -0.000495 0.000000
# 4 0.000000 0.000000 0.000000 -0.263348 0.000000 0.256287
# 5 -0.006917 -0.004932 -0.000495 0.000000 0.029449 0.000000
# 6 0.000000 0.000000 0.000000 0.256287 0.000000 -0.214980
#
#
# Mechanical properties :
#
#
# Convention : Reuss Voigt Hill
#
# Bulk Modulus (GPa) = 25.05580 34.84672 29.95126
# Shear Modulus (GPa) = -13.34432 30.62755 8.64161
#
# Velocity S-wave (km/s) = -2.57169 3.89607 2.06951
# Velocity P-wave (km/s) = 1.89732 6.12451 4.53373
#
# Compressibility (1/GPa) = 0.03991091
#
# Stress axis : x y z
#
# Youngs Moduli (GPa) = 54.54016 48.65275 86.89110
#
# Poissons Ratio (x) = -0.15602 0.40023
# Poissons Ratio (y) = -0.17490 0.33402
# Poissons Ratio (z) = 0.25122 0.18703
#
# Static dielectric constant tensor:
#      x y z
#    x 1.697670 0.000000 0.019840 
#    y 0.000000 1.758140 0.000000 
#    z 0.019840 0.000000 1.744910 
# 
# From -- ./inp_files/45113.got.cif
#   From: 2010.05.17/outbox.cif.g08.bks.cpg/sg14_23_cif.got.tgz:45113.got - 2010.06.03 17:49:19.
