data_PCOD9247621
_publ_section_title
;
Structure prediction by ZEFSAII (Michael W. Deem and Ramdas Pophale) SiO2 
 PCOD9247621
Probable space group: P 21/C
;
_chemical_formula_sum "Si O2"
_cell_formula_units_Z 32
_cell_length_a 15.866506
_cell_length_b 8.063556
_cell_length_c 13.021684
_cell_angle_alpha 90.000000
_cell_angle_beta 52.180147
_cell_angle_gamma 90.000000
_cell_volume 1316.044546
_symmetry_space_group_name_H-M "P 21/C"
_symmetry_group_IT_number 14
_symmetry_cell_setting 'monoclinic'
loop_
_space_group_symop_operation_xyz
x,y,z
-x,1/2+y,1/2-z
-x,-y,-z
x,1/2-y,1/2+z
loop_
_atom_site_type_symbol
_atom_site_label
_atom_site_fract_x
_atom_site_fract_y
_atom_site_fract_z
Si Si1 0.865154 0.079636 0.663860
Si Si2 0.904202 0.758345 0.219687
Si Si3 0.025397 0.613510 0.307445
Si Si4 0.667641 0.171071 0.939672
Si Si5 0.447761 0.049869 0.845796
Si Si6 0.681613 0.679915 0.962400
Si Si7 0.552451 0.150356 0.359076
Si Si8 0.215787 0.889451 0.501949
O O1 0.932431 0.237716 0.653007
O O2 0.758261 0.067887 0.813846
O O3 0.823577 0.113045 0.582484
O O4 0.921211 0.900492 0.634252
O O5 0.780010 0.811020 0.311267
O O6 0.925430 0.684720 0.318674
O O7 0.975615 0.924566 0.148570
O O8 0.113796 0.595984 0.152081
O O9 0.640585 0.318040 0.879487
O O10 0.722211 0.230826 0.003476
O O11 0.558338 0.089981 0.061127
O O12 0.342488 0.154555 0.954765
O O13 0.543226 0.175341 0.801259
O O14 0.442528 0.985658 0.734110
O O15 0.565445 0.641391 0.001824
O O16 0.709715 0.543161 0.025889
#
# Coordination Sequence:
#
# PCOD9247621 Si02
#       8
#     4   4   4   4   4   4   4   4
#     4  11  22  43  71  98 139 182 219 287 340 397
#     4  11  20  45  71  99 140 175 223 278 345 408
#     4  10  23  42  71 103 136 178 224 277 347 409
#     4  11  22  41  67  92 134 183 218 278 341 398
#     4  10  22  39  61  93 128 168 232 271 334 397
#     4   9  23  43  62  97 131 171 220 280 325 402
#     4  10  23  41  63  93 128 178 219 277 332 396
#     4  10  24  43  65  99 136 170 232 275 333 407
#
# _framework density 24.315284999999999
#
# number of rings (size 3 to 8) (size 9 to 14) (size 15 to 20)
#    0.750    1.000    2.500    1.125    3.500    1.000 
#    9.000    0.625    0.000    0.000    0.000    0.000 
#    0.000    0.000    0.000    0.000    0.000    0.000 
#
# Total GULP energy -178704.397066 kJ/mol
# GULP energy per Si atom -5584.512408 kJ/mol
# Density = 2.425994 g / cm^3
# Si number density = 24.315285 Si / 1000 Ang^3
#
#
#
# Elastic Constant Matrix: (Units=GPa)
#
#
# Indices 1 2 3 4 5 6 
#
# 1 88.5265 3.6350 17.5646 0.0000 13.8277 0.0000
# 2 3.6350 95.3346 25.3199 0.0000 9.3606 0.0000
# 3 17.5646 25.3199 62.7662 0.0000 16.5324 0.0000
# 4 0.0000 0.0000 0.0000 29.0956 0.0000 -4.6407
# 5 13.8277 9.3606 16.5324 0.0000 40.0311 0.0000
# 6 0.0000 0.0000 0.0000 -4.6407 0.0000 33.6036
#
#
#
# Elastic Compliance Matrix: (Units=1/GPa)
#
#
# Indices 1 2 3 4 5 6 
#
# 1 0.012340 0.000602 -0.002846 0.000000 -0.003228 0.000000
# 2 0.000602 0.011806 -0.004655 0.000000 -0.001046 0.000000
# 3 -0.002846 -0.004655 0.020265 0.000000 -0.006298 0.000000
# 4 0.000000 0.000000 0.000000 0.035144 0.000000 0.004853
# 5 -0.003228 -0.001046 -0.006298 0.000000 0.028941 0.000000
# 6 0.000000 0.000000 0.000000 0.004853 0.000000 0.030429
#
#
# Mechanical properties :
#
#
# Convention : Reuss Voigt Hill
#
# Bulk Modulus (GPa) = 32.66597 37.74070 35.20334
# Shear Modulus (GPa) = 30.68853 33.88657 32.28755
#
# Velocity S-wave (km/s) = 3.55647 3.73719 3.64795
# Velocity P-wave (km/s) = 5.50710 5.84613 5.67914
#
# Compressibility (1/GPa) = 0.03061289
#
# Stress axis : x y z
#
# Youngs Moduli (GPa) = 81.03587 84.70608 49.34527
#
# Poissons Ratio (x) = -0.05102 0.14044
# Poissons Ratio (y) = -0.04881 0.22972
# Poissons Ratio (z) = 0.23063 0.39434
#
# Static dielectric constant tensor:
#      x y z
#    x 1.918490 0.000000 -0.044170 
#    y 0.000000 2.118060 0.000000 
#    z -0.044170 0.000000 1.936690 
# 
# From -- ./inp_files/33666.got.cif
#   From: 2010.05.17/outbox.cif.g08.bks.cpg/sg14_17_cif.got.tgz:33666.got - 2010.06.03 17:49:19.
