data_PCOD9247716
_publ_section_title
;
Structure prediction by ZEFSAII (Michael W. Deem and Ramdas Pophale) SiO2 
 PCOD9247716
Probable space group: P 21/C
;
_chemical_formula_sum "Si O2"
_cell_formula_units_Z 24
_cell_length_a 8.497374
_cell_length_b 9.022939
_cell_length_c 20.683236
_cell_angle_alpha 90.000000
_cell_angle_beta 47.778880
_cell_angle_gamma 90.000000
_cell_volume 1174.382846
_symmetry_space_group_name_H-M "P 21/C"
_symmetry_group_IT_number 14
_symmetry_cell_setting 'monoclinic'
loop_
_space_group_symop_operation_xyz
x,y,z
-x,1/2+y,1/2-z
-x,-y,-z
x,1/2-y,1/2+z
loop_
_atom_site_type_symbol
_atom_site_label
_atom_site_fract_x
_atom_site_fract_y
_atom_site_fract_z
Si Si1 0.361657 0.559835 0.264210
Si Si2 0.823848 0.619562 0.566475
Si Si3 0.140343 0.382733 0.859908
Si Si4 0.045642 0.371668 0.290718
Si Si5 0.029765 0.681789 0.832832
Si Si6 0.718457 0.579844 0.454220
O O1 0.315156 0.453913 0.338549
O O2 0.609174 0.593166 0.196566
O O3 0.263512 0.467206 0.231320
O O4 0.217543 0.708302 0.305093
O O5 0.923702 0.772506 0.564405
O O6 0.703773 0.632620 0.532348
O O7 0.000000 0.500000 0.500000
O O8 0.098902 0.287570 0.806193
O O9 0.029740 0.539416 0.878938
O O10 0.938532 0.364245 0.250505
O O11 0.894997 0.457855 0.383659
O O12 0.810312 0.774699 0.893464
O O13 0.500000 0.500000 0.500000
#
# Coordination Sequence:
#
# PCOD9247716 Si02
#       6
#     4   4   4   4   4   4
#     4  10  22  39  66  97 122 172 211 254 329 388
#     4  11  21  45  64  87 130 169 213 260 330 389
#     4  11  22  38  68  96 125 167 217 273 312 385
#     4  10  22  41  64  93 132 168 206 258 327 393
#     4  11  22  40  63  98 130 163 218 269 314 385
#     4  11  25  43  64  91 126 177 208 258 336 386
#
# _framework density 20.436264999999999
#
# number of rings (size 3 to 8) (size 9 to 14) (size 15 to 20)
#    0.000    1.333    5.000    4.000    7.000    0.667 
#    0.000    0.833    0.000    0.000    0.000    0.000 
#    0.000    0.000    0.000    0.000    0.000    0.000 
#
# Total GULP energy -133800.160190 kJ/mol
# GULP energy per Si atom -5575.006675 kJ/mol
# Density = 2.038975 g / cm^3
# Si number density = 20.436265 Si / 1000 Ang^3
#
#
#
# Elastic Constant Matrix: (Units=GPa)
#
#
# Indices 1 2 3 4 5 6 
#
# 1 67.6243 32.3337 25.2289 0.0000 6.0485 0.0000
# 2 32.3337 134.5780 16.4330 0.0000 -4.5468 0.0000
# 3 25.2289 16.4330 41.1628 0.0000 5.3936 0.0000
# 4 0.0000 0.0000 0.0000 24.4928 0.0000 2.5385
# 5 6.0485 -4.5468 5.3936 0.0000 42.4343 0.0000
# 6 0.0000 0.0000 0.0000 2.5385 0.0000 34.6719
#
#
#
# Elastic Compliance Matrix: (Units=1/GPa)
#
#
# Indices 1 2 3 4 5 6 
#
# 1 0.020868 -0.003732 -0.011042 0.000000 -0.001971 0.000000
# 2 -0.003732 0.008545 -0.001336 0.000000 0.001617 0.000000
# 3 -0.011042 -0.001336 0.031939 0.000000 -0.002629 0.000000
# 4 0.000000 0.000000 0.000000 0.041140 0.000000 -0.003012
# 5 -0.001971 0.001617 -0.002629 0.000000 0.024354 0.000000
# 6 0.000000 0.000000 0.000000 -0.003012 0.000000 0.029062
#
#
# Mechanical properties :
#
#
# Convention : Reuss Voigt Hill
#
# Bulk Modulus (GPa) = 34.32594 43.48403 38.90498
# Shear Modulus (GPa) = 25.27308 31.61112 28.44210
#
# Velocity S-wave (km/s) = 3.52046 3.93722 3.73466
# Velocity P-wave (km/s) = 5.77563 6.48020 6.13803
#
# Compressibility (1/GPa) = 0.02913249
#
# Stress axis : x y z
#
# Youngs Moduli (GPa) = 47.92103 117.02681 31.30957
#
# Poissons Ratio (x) = 0.43674 0.34571
# Poissons Ratio (y) = 0.17884 0.04183
# Poissons Ratio (z) = 0.52913 0.15634
#
# Static dielectric constant tensor:
#      x y z
#    x 1.801930 0.000000 0.009400 
#    y 0.000000 1.761670 0.000000 
#    z 0.009400 0.000000 1.756120 
# 
# From -- ./inp_files/60122.got.cif
#   From: 2010.05.17/outbox.cif.g08.bks.cpg/sg14_31_cif.got.tgz:60122.got - 2010.06.03 17:49:19.
