data_PCOD9247951
_publ_section_title
;
Structure prediction by ZEFSAII (Michael W. Deem and Ramdas Pophale) SiO2 
 PCOD9247951
Probable space group: P 21/C
;
_chemical_formula_sum "Si O2"
_cell_formula_units_Z 28
_cell_length_a 28.728699
_cell_length_b 8.413230
_cell_length_c 8.348498
_cell_angle_alpha 90.000000
_cell_angle_beta 37.540537
_cell_angle_gamma 90.000000
_cell_volume 1229.516436
_symmetry_space_group_name_H-M "P 21/C"
_symmetry_group_IT_number 14
_symmetry_cell_setting 'monoclinic'
loop_
_space_group_symop_operation_xyz
x,y,z
-x,1/2+y,1/2-z
-x,-y,-z
x,1/2-y,1/2+z
loop_
_atom_site_type_symbol
_atom_site_label
_atom_site_fract_x
_atom_site_fract_y
_atom_site_fract_z
Si Si1 0.748269 0.525868 0.053615
Si Si2 0.317826 0.973690 0.835086
Si Si3 0.824854 0.237786 0.708080
Si Si4 0.787380 0.681699 0.610750
Si Si5 0.087782 0.538384 0.790516
Si Si6 0.455594 0.039872 0.286003
Si Si7 0.590810 0.911993 0.108663
O O1 0.774859 0.633744 0.127550
O O2 0.657190 0.524299 0.309052
O O3 0.796487 0.366798 0.916860
O O4 0.768150 0.617701 0.836728
O O5 0.265876 0.091924 0.872406
O O6 0.382685 0.925928 0.525682
O O7 0.370798 0.054101 0.824893
O O8 0.258264 0.851109 0.080524
O O9 0.887005 0.117082 0.610643
O O10 0.867940 0.344961 0.457092
O O11 0.871760 0.631222 0.336157
O O12 0.000000 0.500000 0.000000
O O13 0.427324 0.223708 0.357490
O O14 0.516307 0.008955 0.261991
O O15 0.500000 0.000000 0.000000
#
# Coordination Sequence:
#
# PCOD9247951 Si02
#       7
#     4   4   4   4   4   4   4
#     4  11  22  42  68  96 136 179 234 283 338 411
#     4  11  23  46  68  95 136 181 239 288 345 423
#     4  10  24  45  74 106 136 186 232 281 348 418
#     4  10  22  40  67  99 132 178 226 278 339 420
#     4  10  23  45  70 106 146 174 223 283 348 419
#     4  12  27  45  64  97 138 179 235 298 359 405
#     4  12  26  45  68  95 134 182 234 295 355 410
#
# _framework density 22.773183
#
# number of rings (size 3 to 8) (size 9 to 14) (size 15 to 20)
#    0.000    1.143    1.429    3.857    2.000    3.429 
#    0.000    1.429    0.000    0.000    0.000    0.000 
#    0.000    0.000    0.000    0.000    0.000    0.000 
#
# Total GULP energy -156305.955021 kJ/mol
# GULP energy per Si atom -5582.355536 kJ/mol
# Density = 2.272135 g / cm^3
# Si number density = 22.773183 Si / 1000 Ang^3
#
#
#
# Elastic Constant Matrix: (Units=GPa)
#
#
# Indices 1 2 3 4 5 6 
#
# 1 87.2761 16.4769 53.3203 0.0000 -24.8169 0.0000
# 2 16.4769 55.3310 45.6591 0.0000 -18.3720 0.0000
# 3 53.3203 45.6591 118.6574 0.0000 -32.7904 0.0000
# 4 0.0000 0.0000 0.0000 25.0777 0.0000 -9.2817
# 5 -24.8169 -18.3720 -32.7904 0.0000 51.5184 0.0000
# 6 0.0000 0.0000 0.0000 -9.2817 0.0000 34.1473
#
#
#
# Elastic Compliance Matrix: (Units=1/GPa)
#
#
# Indices 1 2 3 4 5 6 
#
# 1 0.016630 0.002432 -0.007226 0.000000 0.004279 0.000000
# 2 0.002432 0.027396 -0.010449 0.000000 0.004290 0.000000
# 3 -0.007226 -0.010449 0.016629 0.000000 0.003377 0.000000
# 4 0.000000 0.000000 0.000000 0.044336 0.000000 0.012051
# 5 0.004279 0.004290 0.003377 0.000000 0.025151 0.000000
# 6 0.000000 0.000000 0.000000 0.012051 0.000000 0.032561
#
#
# Mechanical properties :
#
#
# Convention : Reuss Voigt Hill
#
# Bulk Modulus (GPa) = 33.14808 54.68635 43.91721
# Shear Modulus (GPa) = 24.60070 31.86923 28.23497
#
# Velocity S-wave (km/s) = 3.29028 3.74494 3.52495
# Velocity P-wave (km/s) = 5.38720 6.53950 5.99112
#
# Compressibility (1/GPa) = 0.03016766
#
# Stress axis : x y z
#
# Youngs Moduli (GPa) = 60.13117 36.50166 60.13696
#
# Poissons Ratio (x) = -0.08876 0.43457
# Poissons Ratio (y) = -0.14621 0.62837
# Poissons Ratio (z) = 0.43453 0.38140
#
# Static dielectric constant tensor:
#      x y z
#    x 1.863120 0.000000 0.071020 
#    y 0.000000 1.871680 0.000000 
#    z 0.071020 0.000000 1.921980 
# 
# From -- ./inp_files/19727.got.cif
#   From: 2010.05.17/outbox.cif.g08.bks.cpg/sg14_10_cif.got.tgz:19727.got - 2010.06.03 17:49:19.
