data_PCOD9247669
_publ_section_title
;
Structure prediction by ZEFSAII (Michael W. Deem and Ramdas Pophale) SiO2 
 PCOD9247669
Probable space group: P 21/C
;
_chemical_formula_sum "Si O2"
_cell_formula_units_Z 18
_cell_length_a 10.458242
_cell_length_b 8.861224
_cell_length_c 16.784084
_cell_angle_alpha 90.000000
_cell_angle_beta 153.414896
_cell_angle_gamma 90.000000
_cell_volume 696.095629
_symmetry_space_group_name_H-M "P 21/C"
_symmetry_group_IT_number 14
_symmetry_cell_setting 'monoclinic'
loop_
_space_group_symop_operation_xyz
x,y,z
-x,1/2+y,1/2-z
-x,-y,-z
x,1/2-y,1/2+z
loop_
_atom_site_type_symbol
_atom_site_label
_atom_site_fract_x
_atom_site_fract_y
_atom_site_fract_z
Si Si1 0.071330 0.763432 0.300755
Si Si2 0.961554 0.501859 0.340920
Si Si3 0.575814 0.906887 0.223847
Si Si4 0.500000 0.500000 0.500000
Si Si5 0.553088 0.074291 0.359759
O O1 0.305269 0.655097 0.392228
O O2 0.228272 0.870799 0.451398
O O3 0.874498 0.644118 0.236935
O O4 0.922601 0.873682 0.155064
O O5 0.680648 0.461708 0.232448
O O6 0.232024 0.558675 0.540638
O O7 0.614695 0.728334 0.257128
O O8 0.701275 0.002514 0.366009
O O9 0.626388 0.953810 0.161208
#
# Coordination Sequence:
#
# PCOD9247669 Si02
#       5
#     4   4   4   2   4
#     4  10  23  39  66  90 126 159 213 253 316 368
#     4  10  22  39  64  92 123 163 211 255 308 382
#     4  10  23  40  63  88 128 160 213 255 314 366
#     4   8  20  40  58  84 120 164 194 252 298 370
#     4  10  22  40  60  91 125 162 210 258 307 370
#
# _framework density 25.858512999999999
#
# number of rings (size 3 to 8) (size 9 to 14) (size 15 to 20)
#    0.000    2.667    0.000    1.333   15.556    1.778 
#    0.000    4.444    0.000    0.000    0.000    0.000 
#    0.000    0.000    0.000    0.000    0.000    0.000 
#
# Total GULP energy -100234.523591 kJ/mol
# GULP energy per Si atom -5568.584644 kJ/mol
# Density = 2.579966 g / cm^3
# Si number density = 25.858513 Si / 1000 Ang^3
#
#
#
# Elastic Constant Matrix: (Units=GPa)
#
#
# Indices 1 2 3 4 5 6 
#
# 1 98.6982 15.6453 18.1723 0.0000 -7.8870 0.0000
# 2 15.6453 66.3111 22.5703 0.0000 -12.7283 0.0000
# 3 18.1723 22.5703 23.6300 0.0000 5.2562 0.0000
# 4 0.0000 0.0000 0.0000 30.1127 0.0000 -3.6518
# 5 -7.8870 -12.7283 5.2562 0.0000 32.0839 0.0000
# 6 0.0000 0.0000 0.0000 -3.6518 0.0000 53.4699
#
#
#
# Elastic Compliance Matrix: (Units=1/GPa)
#
#
# Indices 1 2 3 4 5 6 
#
# 1 0.012821 0.003176 -0.014399 0.000000 0.006770 0.000000
# 2 0.003176 0.029719 -0.034896 0.000000 0.018288 0.000000
# 3 -0.014399 -0.034896 0.094017 0.000000 -0.032786 0.000000
# 4 0.000000 0.000000 0.000000 0.033486 0.000000 0.002287
# 5 0.006770 0.018288 -0.032786 0.000000 0.045459 0.000000
# 6 0.000000 0.000000 0.000000 0.002287 0.000000 0.018858
#
#
# Mechanical properties :
#
#
# Convention : Reuss Voigt Hill
#
# Bulk Modulus (GPa) = 22.56455 33.49057 28.02756
# Shear Modulus (GPa) = 14.64682 31.95007 23.29844
#
# Velocity S-wave (km/s) = 2.38254 3.51888 3.00492
# Velocity P-wave (km/s) = 4.03903 5.43044 4.78557
#
# Compressibility (1/GPa) = 0.04431730
#
# Stress axis : x y z
#
# Youngs Moduli (GPa) = 77.99942 33.64827 10.63642
#
# Poissons Ratio (x) = -0.10685 0.15315
# Poissons Ratio (y) = -0.24769 0.37117
# Poissons Ratio (z) = 1.12308 1.17421
#
# Static dielectric constant tensor:
#      x y z
#    x -0.133930 0.000000 -1.572730 
#    y 0.000000 3.544410 0.000000 
#    z -1.572730 0.000000 0.937270 
# 
# From -- ./inp_files/23171.got.cif
#   From: 2010.05.17/outbox.cif.g08.bks.cpg/sg14_12_cif.got.tgz:23171.got - 2010.06.03 17:49:19.
