data_PCOD9247793
_publ_section_title
;
Structure prediction by ZEFSAII (Michael W. Deem and Ramdas Pophale) SiO2 
 PCOD9247793
Probable space group: P 21/C
;
_chemical_formula_sum "Si O2"
_cell_formula_units_Z 32
_cell_length_a 15.206938
_cell_length_b 24.933130
_cell_length_c 8.665175
_cell_angle_alpha 90.000000
_cell_angle_beta 29.506205
_cell_angle_gamma 90.000000
_cell_volume 1618.146576
_symmetry_space_group_name_H-M "P 21/C"
_symmetry_group_IT_number 14
_symmetry_cell_setting 'monoclinic'
loop_
_space_group_symop_operation_xyz
x,y,z
-x,1/2+y,1/2-z
-x,-y,-z
x,1/2-y,1/2+z
loop_
_atom_site_type_symbol
_atom_site_label
_atom_site_fract_x
_atom_site_fract_y
_atom_site_fract_z
Si Si1 0.788136 0.128126 0.675867
Si Si2 0.269995 0.881364 0.581734
Si Si3 0.615874 0.894192 0.692316
Si Si4 0.963460 0.794165 0.510313
Si Si5 0.093162 0.039442 0.235751
Si Si6 0.653183 0.626373 0.504338
Si Si7 0.794522 0.502080 0.765188
Si Si8 0.061849 0.320243 0.309934
O O1 0.752132 0.144306 0.554008
O O2 0.880046 0.172542 0.643304
O O3 0.930987 0.079768 0.439937
O O4 0.591866 0.111425 0.034997
O O5 0.456005 0.861901 0.367712
O O6 0.287698 0.945668 0.556693
O O7 0.089482 0.865343 0.941581
O O8 0.694447 0.949045 0.502344
O O9 0.748563 0.846654 0.436417
O O10 0.632304 0.888840 0.854094
O O11 0.955723 0.802113 0.339538
O O12 0.973114 0.732120 0.536094
O O13 0.779312 0.822812 0.842651
O O14 0.245806 0.076028 0.077356
O O15 0.186223 0.010699 0.948183
O O16 0.000000 0.000000 0.500000
O O17 0.000000 0.500000 0.500000
#
# Coordination Sequence:
#
# PCOD9247793 Si02
#       8
#     4   4   4   4   4   4   4   4
#     4  10  22  40  61  90 120 160 199 248 301 358
#     4  11  23  39  63  91 125 158 206 245 300 362
#     4  10  22  40  63  89 121 159 206 243 304 360
#     4  10  23  42  65  86 120 155 199 254 309 352
#     4  11  23  37  58  83 126 163 202 244 295 353
#     4   9  23  41  59  90 123 158 200 254 298 360
#     4  12  22  37  60  91 124 167 202 248 295 357
#     4  11  22  41  64  87 117 157 199 254 301 363
#
# _framework density 19.775711999999999
#
# number of rings (size 3 to 8) (size 9 to 14) (size 15 to 20)
#    0.000    1.500    2.500    1.500    5.250    4.500 
#    0.000    2.500    0.000    0.000    0.000    0.000 
#    0.000    0.000    0.000    0.000    0.000    0.000 
#
# Total GULP energy -178543.664462 kJ/mol
# GULP energy per Si atom -5579.489514 kJ/mol
# Density = 1.973070 g / cm^3
# Si number density = 19.775712 Si / 1000 Ang^3
#
#
#
# Elastic Constant Matrix: (Units=GPa)
#
#
# Indices 1 2 3 4 5 6 
#
# 1 48.3941 16.9923 18.3449 0.0000 -21.6962 0.0000
# 2 16.9923 78.4995 12.0947 0.0000 -1.3087 0.0000
# 3 18.3449 12.0947 83.9415 0.0000 -26.4499 0.0000
# 4 0.0000 0.0000 0.0000 23.6461 0.0000 10.6896
# 5 -21.6962 -1.3087 -26.4499 0.0000 34.9712 0.0000
# 6 0.0000 0.0000 0.0000 10.6896 0.0000 17.6089
#
#
#
# Elastic Compliance Matrix: (Units=1/GPa)
#
#
# Indices 1 2 3 4 5 6 
#
# 1 0.031651 -0.006554 0.000180 0.000000 0.019527 0.000000
# 2 -0.006554 0.014425 -0.002307 0.000000 -0.005271 0.000000
# 3 0.000180 -0.002307 0.016036 0.000000 0.012154 0.000000
# 4 0.000000 0.000000 0.000000 0.058285 0.000000 -0.035382
# 5 0.019527 -0.005271 0.012154 0.000000 0.049705 0.000000
# 6 0.000000 0.000000 0.000000 -0.035382 0.000000 0.078268
#
#
# Mechanical properties :
#
#
# Convention : Reuss Voigt Hill
#
# Bulk Modulus (GPa) = 22.34578 33.96654 28.15616
# Shear Modulus (GPa) = 17.81588 26.13881 21.97735
#
# Velocity S-wave (km/s) = 3.00475 3.63955 3.33728
# Velocity P-wave (km/s) = 4.83344 5.90550 5.39616
#
# Compressibility (1/GPa) = 0.04475117
#
# Stress axis : x y z
#
# Youngs Moduli (GPa) = 31.59446 69.32340 62.36063
#
# Poissons Ratio (x) = 0.45432 -0.01124
# Poissons Ratio (y) = 0.20706 0.14387
# Poissons Ratio (z) = -0.00569 0.15993
#
# Static dielectric constant tensor:
#      x y z
#    x 1.710240 0.000000 0.023750 
#    y 0.000000 1.716580 0.000000 
#    z 0.023750 0.000000 1.733840 
# 
# From -- ./inp_files/17001.got.cif
#   From: 2010.05.17/outbox.cif.g08.bks.cpg/sg14_9_cif.got.tgz:17001.got - 2010.06.03 17:49:19.
