data_PCOD9247190
_publ_section_title
;
Structure prediction by ZEFSAII (Michael W. Deem and Ramdas Pophale) SiO2 
 PCOD9247190
Probable space group: P 21/C
;
_chemical_formula_sum "Si O2"
_cell_formula_units_Z 32
_cell_length_a 6.890344
_cell_length_b 17.932779
_cell_length_c 13.889760
_cell_angle_alpha 90.000000
_cell_angle_beta 84.368860
_cell_angle_gamma 90.000000
_cell_volume 1707.978338
_symmetry_space_group_name_H-M "P 21/C"
_symmetry_group_IT_number 14
_symmetry_cell_setting 'monoclinic'
loop_
_space_group_symop_operation_xyz
x,y,z
-x,1/2+y,1/2-z
-x,-y,-z
x,1/2-y,1/2+z
loop_
_atom_site_type_symbol
_atom_site_label
_atom_site_fract_x
_atom_site_fract_y
_atom_site_fract_z
Si Si1 0.413899 0.499430 0.898039
Si Si2 0.581756 0.208480 0.184623
Si Si3 0.538053 0.873936 0.983766
Si Si4 0.599581 0.725752 0.102016
Si Si5 0.216750 0.986231 0.956740
Si Si6 0.944362 0.890315 0.592884
Si Si7 0.680597 0.155371 0.546436
Si Si8 0.237313 0.567112 0.245063
O O1 0.211810 0.455494 0.917647
O O2 0.387351 0.587403 0.882062
O O3 0.565849 0.460131 0.818730
O O4 0.500000 0.500000 0.000000
O O5 0.435119 0.160342 0.124383
O O6 0.482469 0.235977 0.286736
O O7 0.673809 0.271101 0.112184
O O8 0.737935 0.149705 0.214179
O O9 0.319441 0.909874 0.990400
O O10 0.588177 0.806168 0.051988
O O11 0.665268 0.944465 0.005890
O O12 0.806337 0.683398 0.104224
O O13 0.462662 0.674306 0.037775
O O14 0.216852 0.983608 0.840544
O O15 0.000000 0.000000 0.000000
O O16 0.112205 0.869720 0.507664
O O17 0.062384 0.922825 0.678728
#
# Coordination Sequence:
#
# PCOD9247190 Si02
#       8
#     4   4   4   4   4   4   4   4
#     4  12  22  42  64  94 135 163 215 268 330 386
#     4  10  21  45  63  87 132 168 206 265 324 378
#     4   9  23  41  66  91 129 166 212 264 328 372
#     4  11  22  42  63  92 128 171 211 263 324 390
#     4  10  23  44  66  95 126 168 221 271 317 386
#     4  12  22  40  66  92 127 168 216 262 331 379
#     4  11  24  41  65  95 126 167 216 270 321 394
#     4  11  24  41  64  94 129 172 213 265 328 388
#
# _framework density 18.735600999999999
#
# number of rings (size 3 to 8) (size 9 to 14) (size 15 to 20)
#    0.000    1.250    5.000    0.375    3.500    4.000 
#    2.250    0.000    0.000    0.000    0.000    0.000 
#    0.000    0.000    0.000    0.000    0.000    0.000 
#
# Total GULP energy -178235.168154 kJ/mol
# GULP energy per Si atom -5569.849005 kJ/mol
# Density = 1.869296 g / cm^3
# Si number density = 18.735601 Si / 1000 Ang^3
#
#
#
# Elastic Constant Matrix: (Units=GPa)
#
#
# Indices 1 2 3 4 5 6 
#
# 1 111.6406 34.0603 42.7525 0.0000 8.9670 0.0000
# 2 34.0603 98.3613 35.1704 0.0000 9.9956 0.0000
# 3 42.7525 35.1704 95.8819 0.0000 9.6864 0.0000
# 4 0.0000 0.0000 0.0000 29.1380 0.0000 7.5005
# 5 8.9670 9.9956 9.6864 0.0000 24.0706 0.0000
# 6 0.0000 0.0000 0.0000 7.5005 0.0000 23.3051
#
#
#
# Elastic Compliance Matrix: (Units=1/GPa)
#
#
# Indices 1 2 3 4 5 6 
#
# 1 0.011344 -0.002316 -0.004043 0.000000 -0.001637 0.000000
# 2 -0.002316 0.012426 -0.003222 0.000000 -0.003000 0.000000
# 3 -0.004043 -0.003222 0.013683 0.000000 -0.002662 0.000000
# 4 0.000000 0.000000 0.000000 0.037419 0.000000 -0.012043
# 5 -0.001637 -0.003000 -0.002662 0.000000 0.044472 0.000000
# 6 0.000000 0.000000 0.000000 -0.012043 0.000000 0.046785
#
#
# Mechanical properties :
#
#
# Convention : Reuss Voigt Hill
#
# Bulk Modulus (GPa) = 54.67446 58.87226 56.77336
# Shear Modulus (GPa) = 26.12502 28.22943 27.17723
#
# Velocity S-wave (km/s) = 3.73822 3.88587 3.81276
# Velocity P-wave (km/s) = 6.91939 7.18500 7.05344
#
# Compressibility (1/GPa) = 0.01829008
#
# Stress axis : x y z
#
# Youngs Moduli (GPa) = 88.15468 80.47914 73.08310
#
# Poissons Ratio (x) = 0.18639 0.29548
# Poissons Ratio (y) = 0.20417 0.23547
# Poissons Ratio (z) = 0.35642 0.25930
#
# Static dielectric constant tensor:
#      x y z
#    x 1.671640 0.000000 0.031320 
#    y 0.000000 1.597630 0.000000 
#    z 0.031320 0.000000 1.680020 
# 
# From -- ./inp_files/37701.got.cif
#   From: 2010.05.17/outbox.cif.g08.bks.cpg/sg14_19_cif.got.tgz:37701.got - 2010.06.03 17:49:19.
