data_PCOD9247596
_publ_section_title
;
Structure prediction by ZEFSAII (Michael W. Deem and Ramdas Pophale) SiO2 
 PCOD9247596
Probable space group: P 21/C
;
_chemical_formula_sum "Si O2"
_cell_formula_units_Z 32
_cell_length_a 11.619067
_cell_length_b 8.619018
_cell_length_c 22.534158
_cell_angle_alpha 90.000000
_cell_angle_beta 45.637685
_cell_angle_gamma 90.000000
_cell_volume 1613.375836
_symmetry_space_group_name_H-M "P 21/C"
_symmetry_group_IT_number 14
_symmetry_cell_setting 'monoclinic'
loop_
_space_group_symop_operation_xyz
x,y,z
-x,1/2+y,1/2-z
-x,-y,-z
x,1/2-y,1/2+z
loop_
_atom_site_type_symbol
_atom_site_label
_atom_site_fract_x
_atom_site_fract_y
_atom_site_fract_z
Si Si1 0.505553 0.719780 0.085916
Si Si2 0.323661 0.806942 0.847903
Si Si3 0.569547 0.538103 0.787911
Si Si4 0.228060 0.700341 0.599369
Si Si5 0.748123 0.516271 0.518157
Si Si6 0.032156 0.780594 0.869249
Si Si7 0.120405 0.058854 0.758568
Si Si8 0.225556 0.447914 0.085398
O O1 0.470120 0.585234 0.145888
O O2 0.346094 0.788783 0.113088
O O3 0.609202 0.856873 0.077762
O O4 0.618265 0.643828 0.994083
O O5 0.439624 0.671706 0.828038
O O6 0.416504 0.938623 0.776961
O O7 0.245310 0.892693 0.932038
O O8 0.189074 0.745205 0.850819
O O9 0.744187 0.608100 0.742630
O O10 0.285474 0.572129 0.531630
O O11 0.043876 0.656537 0.680876
O O12 0.235365 0.870710 0.567724
O O13 0.915024 0.607334 0.449401
O O14 0.928081 0.632722 0.889198
O O15 0.075892 0.884012 0.795730
O O16 0.198735 0.064522 0.665572
#
# Coordination Sequence:
#
# PCOD9247596 Si02
#       8
#     4   4   4   4   4   4   4   4
#     4  11  23  41  63  94 131 160 208 260 316 367
#     4  11  23  42  64  87 125 168 210 252 308 371
#     4  11  24  42  61  92 123 167 208 258 306 369
#     4  11  22  39  63  96 128 163 204 258 317 368
#     4  10  22  41  63  92 121 167 206 256 311 372
#     4   9  22  41  61  88 125 164 206 257 311 369
#     4  10  22  39  60  90 128 162 206 252 318 367
#     4  11  21  37  64  93 125 162 202 262 310 371
#
# _framework density 19.834188999999999
#
# number of rings (size 3 to 8) (size 9 to 14) (size 15 to 20)
#    0.000    1.500    1.250    3.375    3.500    1.000 
#    2.250    6.875    0.000    0.000    0.000    0.000 
#    0.000    0.000    0.000    0.000    0.000    0.000 
#
# Total GULP energy -178827.574959 kJ/mol
# GULP energy per Si atom -5588.361717 kJ/mol
# Density = 1.978905 g / cm^3
# Si number density = 19.834189 Si / 1000 Ang^3
#
#
#
# Elastic Constant Matrix: (Units=GPa)
#
#
# Indices 1 2 3 4 5 6 
#
# 1 71.7618 28.1128 26.5600 0.0000 -12.6656 0.0000
# 2 28.1128 38.8728 8.0861 0.0000 -15.8233 0.0000
# 3 26.5600 8.0861 48.7154 0.0000 9.0803 0.0000
# 4 0.0000 0.0000 0.0000 34.2560 0.0000 2.7502
# 5 -12.6656 -15.8233 9.0803 0.0000 29.2144 0.0000
# 6 0.0000 0.0000 0.0000 2.7502 0.0000 30.4733
#
#
#
# Elastic Compliance Matrix: (Units=1/GPa)
#
#
# Indices 1 2 3 4 5 6 
#
# 1 0.024981 -0.011836 -0.013247 0.000000 0.008537 0.000000
# 2 -0.011836 0.043177 -0.004369 0.000000 0.019613 0.000000
# 3 -0.013247 -0.004369 0.031830 0.000000 -0.018003 0.000000
# 4 0.000000 0.000000 0.000000 0.029405 0.000000 -0.002654
# 5 0.008537 0.019613 -0.018003 0.000000 0.054149 0.000000
# 6 0.000000 0.000000 0.000000 -0.002654 0.000000 0.033055
#
#
# Mechanical properties :
#
#
# Convention : Reuss Voigt Hill
#
# Bulk Modulus (GPa) = 24.33991 31.65194 27.99592
# Shear Modulus (GPa) = 17.28927 25.22815 21.25871
#
# Velocity S-wave (km/s) = 2.95564 3.57031 3.27742
# Velocity P-wave (km/s) = 4.89348 5.74361 5.33550
#
# Compressibility (1/GPa) = 0.04108479
#
# Stress axis : x y z
#
# Youngs Moduli (GPa) = 40.03015 23.16048 31.41644
#
# Poissons Ratio (x) = 0.27413 0.41616
# Poissons Ratio (y) = 0.47379 0.13727
# Poissons Ratio (z) = 0.53026 0.10120
#
# Static dielectric constant tensor:
#      x y z
#    x 1.684130 0.000000 -0.001140 
#    y 0.000000 1.672830 0.000000 
#    z -0.001140 0.000000 1.717810 
# 
# From -- ./inp_files/73089.got.cif
#   From: 2010.05.17/outbox.cif.g08.bks.cpg/sg14_37_cif.got.tgz:73089.got - 2010.06.03 17:49:19.
