data_PCOD9247392
_publ_section_title
;
Structure prediction by ZEFSAII (Michael W. Deem and Ramdas Pophale) SiO2 
 PCOD9247392
Probable space group: P 21/C
;
_chemical_formula_sum "Si O2"
_cell_formula_units_Z 24
_cell_length_a 21.855949
_cell_length_b 5.245693
_cell_length_c 17.600883
_cell_angle_alpha 90.000000
_cell_angle_beta 148.639844
_cell_angle_gamma 90.000000
_cell_volume 1050.165107
_symmetry_space_group_name_H-M "P 21/C"
_symmetry_group_IT_number 14
_symmetry_cell_setting 'monoclinic'
loop_
_space_group_symop_operation_xyz
x,y,z
-x,1/2+y,1/2-z
-x,-y,-z
x,1/2-y,1/2+z
loop_
_atom_site_type_symbol
_atom_site_label
_atom_site_fract_x
_atom_site_fract_y
_atom_site_fract_z
Si Si1 0.123315 0.800800 0.265538
Si Si2 0.127065 0.171094 0.502857
Si Si3 0.634072 0.103329 0.942444
Si Si4 0.834065 0.324472 0.360370
Si Si5 0.296285 0.401101 0.045155
Si Si6 0.438496 0.747807 0.469002
O O1 0.227038 0.595256 0.385406
O O2 0.104555 0.834622 0.156340
O O3 0.189053 0.040232 0.372859
O O4 0.998892 0.730289 0.169131
O O5 0.155040 0.405145 0.587740
O O6 0.233881 0.158176 0.557382
O O7 0.116945 0.903734 0.536109
O O8 0.637106 0.327991 0.883415
O O9 0.564468 0.203920 0.942474
O O10 0.619436 0.821684 0.894657
O O11 0.697283 0.264469 0.199682
O O12 0.500000 0.500000 0.500000
O O13 0.500000 0.000000 0.500000
#
# Coordination Sequence:
#
# PCOD9247392 Si02
#       6
#     4   4   4   4   4   4
#     4   9  24  36  64  85 132 169 216 226 298 365
#     4  12  24  37  62  92 137 163 199 252 311 362
#     4   9  21  37  61  90 118 154 221 242 295 352
#     4  11  25  40  59  96 126 156 205 270 318 347
#     4  10  22  37  61  88 132 170 209 237 291 378
#     4  11  22  41  71  89 112 155 216 263 307 377
#
# _framework density 22.853549999999998
#
# number of rings (size 3 to 8) (size 9 to 14) (size 15 to 20)
#    1.000    0.667    0.000    4.000    9.333    0.000 
#    0.000    0.000    0.000   20.000    0.000    0.000 
#    0.000    0.000    0.000    0.000    0.000    0.000 
#
# Total GULP energy -134051.107106 kJ/mol
# GULP energy per Si atom -5585.462796 kJ/mol
# Density = 2.280153 g / cm^3
# Si number density = 22.853550 Si / 1000 Ang^3
#
#
#
# Elastic Constant Matrix: (Units=GPa)
#
#
# Indices 1 2 3 4 5 6 
#
# 1 77.6591 48.3408 25.4550 0.0000 15.8512 0.0000
# 2 48.3408 17.8624 -55.9734 0.0000 -25.6343 0.0000
# 3 25.4550 -55.9734 55.3245 0.0000 4.0192 0.0000
# 4 0.0000 0.0000 0.0000 -38.1719 0.0000 15.0115
# 5 15.8512 -25.6343 4.0192 0.0000 8.7586 0.0000
# 6 0.0000 0.0000 0.0000 15.0115 0.0000 13.4158
#
#
#
# Elastic Compliance Matrix: (Units=1/GPa)
#
#
# Indices 1 2 3 4 5 6 
#
# 1 0.005836 0.006835 0.003667 0.000000 0.007762 0.000000
# 2 0.006835 -0.002665 -0.004527 0.000000 -0.018093 0.000000
# 3 0.003667 -0.004527 0.013710 0.000000 -0.026176 0.000000
# 4 0.000000 0.000000 0.000000 -0.018192 0.000000 0.020356
# 5 0.007762 -0.018093 -0.026176 0.000000 0.059185 0.000000
# 6 0.000000 0.000000 0.000000 0.020356 0.000000 0.051762
#
#
# Mechanical properties :
#
#
# Convention : Reuss Voigt Hill
#
# Bulk Modulus (GPa) = 34.68378 20.72120 27.70249
# Shear Modulus (GPa) = 46.60042 5.66876 26.13459
#
# Velocity S-wave (km/s) = 4.52053 1.57666 3.38534
# Velocity P-wave (km/s) = 6.51585 3.52152 5.23725
#
# Compressibility (1/GPa) = 0.02883192
#
# Stress axis : x y z
#
# Youngs Moduli (GPa) = 171.35729 -375.26223 72.93979
#
# Poissons Ratio (x) = 2.56509 -0.26745
# Poissons Ratio (y) = -1.17131 0.33018
# Poissons Ratio (z) = -0.62832 -1.69870
#
# Static dielectric constant tensor:
#      x y z
#    x 1.804870 0.000000 0.006850 
#    y 0.000000 1.839520 0.000000 
#    z 0.006850 0.000000 1.920130 
# 
# From -- ./inp_files/69555.got.cif
#   From: 2010.05.17/outbox.cif.g08.bks.cpg/sg14_35_cif.got.tgz:69555.got - 2010.06.03 17:49:19.
