data_PCOD9247505
_publ_section_title
;
Structure prediction by ZEFSAII (Michael W. Deem and Ramdas Pophale) SiO2 
 PCOD9247505
Probable space group: P 21/C
;
_chemical_formula_sum "Si O2"
_cell_formula_units_Z 30
_cell_length_a 18.959926
_cell_length_b 5.360145
_cell_length_c 21.813101
_cell_angle_alpha 90.000000
_cell_angle_beta 146.579332
_cell_angle_gamma 90.000000
_cell_volume 1220.984668
_symmetry_space_group_name_H-M "P 21/C"
_symmetry_group_IT_number 14
_symmetry_cell_setting 'monoclinic'
loop_
_space_group_symop_operation_xyz
x,y,z
-x,1/2+y,1/2-z
-x,-y,-z
x,1/2-y,1/2+z
loop_
_atom_site_type_symbol
_atom_site_label
_atom_site_fract_x
_atom_site_fract_y
_atom_site_fract_z
Si Si1 0.675617 0.866391 0.384840
Si Si2 0.000000 0.500000 0.500000
Si Si3 0.727466 0.123573 0.770352
Si Si4 0.694766 0.245379 0.008020
Si Si5 0.823635 0.648160 0.789248
Si Si6 0.901954 0.648610 0.609788
Si Si7 0.517321 0.088866 0.172965
Si Si8 0.145730 0.404938 0.802545
O O1 0.663593 0.093550 0.424434
O O2 0.632523 0.933066 0.286221
O O3 0.819655 0.771372 0.496456
O O4 0.577619 0.663402 0.340639
O O5 0.150457 0.577206 0.596805
O O6 0.056511 0.255694 0.583852
O O7 0.724359 0.877275 0.726830
O O8 0.589106 0.174385 0.698126
O O9 0.771248 0.379611 0.769144
O O10 0.576050 0.067555 0.937721
O O11 0.732647 0.434521 0.089359
O O12 0.815061 0.074043 0.074608
O O13 0.843403 0.660380 0.730417
O O14 0.040626 0.565320 0.689961
O O15 0.913070 0.840444 0.673832
#
# Coordination Sequence:
#
# PCOD9247505 Si02
#       8
#     4   2   4   4   4   4   4   4
#     4  10  22  39  64 100 127 169 217 276 344 407
#     4   8  22  44  64  98 132 170 244 270 334 386
#     4  10  24  43  66  96 132 183 225 285 334 400
#     4  10  22  40  61  98 130 166 218 276 331 421
#     4  10  24  42  66  95 135 178 230 279 336 397
#     4  10  22  38  63  96 126 171 216 274 343 403
#     4  11  22  41  69  92 140 169 223 277 349 405
#     4  11  22  41  66  92 138 171 221 277 343 405
#
# _framework density 24.570330999999999
#
# number of rings (size 3 to 8) (size 9 to 14) (size 15 to 20)
#    0.800    1.067    2.667    0.400    3.733    2.133 
#    0.000    1.333    0.000    0.000    0.000    0.000 
#    0.000    0.000    0.000    0.000    0.000    0.000 
#
# Total GULP energy -167062.114232 kJ/mol
# GULP energy per Si atom -5568.737141 kJ/mol
# Density = 2.451441 g / cm^3
# Si number density = 24.570331 Si / 1000 Ang^3
#
#
#
# Elastic Constant Matrix: (Units=GPa)
#
#
# Indices 1 2 3 4 5 6 
#
# 1 40.7927 14.0871 16.0665 0.0000 0.9053 0.0000
# 2 14.0871 79.7682 23.0407 0.0000 -0.7418 0.0000
# 3 16.0665 23.0407 98.9051 0.0000 15.7958 0.0000
# 4 0.0000 0.0000 0.0000 30.6501 0.0000 0.6526
# 5 0.9053 -0.7418 15.7958 0.0000 11.7840 0.0000
# 6 0.0000 0.0000 0.0000 0.6526 0.0000 35.5728
#
#
#
# Elastic Compliance Matrix: (Units=1/GPa)
#
#
# Indices 1 2 3 4 5 6 
#
# 1 0.027305 -0.003608 -0.004102 0.000000 0.003173 0.000000
# 2 -0.003608 0.014310 -0.003735 0.000000 0.006185 0.000000
# 3 -0.004102 -0.003735 0.014804 0.000000 -0.019763 0.000000
# 4 0.000000 0.000000 0.000000 0.032639 0.000000 -0.000599
# 5 0.003173 0.006185 -0.019763 0.000000 0.111497 0.000000
# 6 0.000000 0.000000 0.000000 -0.000599 0.000000 0.028122
#
#
# Mechanical properties :
#
#
# Convention : Reuss Voigt Hill
#
# Bulk Modulus (GPa) = 29.82528 36.20606 33.01567
# Shear Modulus (GPa) = 19.02995 26.68616 22.85806
#
# Velocity S-wave (km/s) = 2.78602 3.29920 3.05341
# Velocity P-wave (km/s) = 4.74492 5.41116 5.08895
#
# Compressibility (1/GPa) = 0.03352861
#
# Stress axis : x y z
#
# Youngs Moduli (GPa) = 36.62301 69.88162 67.55157
#
# Poissons Ratio (x) = 0.25212 0.27709
# Poissons Ratio (y) = 0.13213 0.25233
# Poissons Ratio (z) = 0.15022 0.26103
#
# Static dielectric constant tensor:
#      x y z
#    x 1.956950 0.000000 -0.013250 
#    y 0.000000 2.026020 0.000000 
#    z -0.013250 0.000000 1.957090 
# 
# From -- ./inp_files/74552.got.cif
#   From: 2010.05.17/outbox.cif.g08.bks.cpg/sg14_38_cif.got.tgz:74552.got - 2010.06.03 17:49:19.
