data_PCOD9247767
_publ_section_title
;
Structure prediction by ZEFSAII (Michael W. Deem and Ramdas Pophale) SiO2 
 PCOD9247767
Probable space group: P 21/C
;
_chemical_formula_sum "Si O2"
_cell_formula_units_Z 28
_cell_length_a 6.859997
_cell_length_b 7.908382
_cell_length_c 27.706545
_cell_angle_alpha 90.000000
_cell_angle_beta 125.177493
_cell_angle_gamma 90.000000
_cell_volume 1228.607907
_symmetry_space_group_name_H-M "P 21/C"
_symmetry_group_IT_number 14
_symmetry_cell_setting 'monoclinic'
loop_
_space_group_symop_operation_xyz
x,y,z
-x,1/2+y,1/2-z
-x,-y,-z
x,1/2-y,1/2+z
loop_
_atom_site_type_symbol
_atom_site_label
_atom_site_fract_x
_atom_site_fract_y
_atom_site_fract_z
Si Si1 0.715078 0.270917 0.383599
Si Si2 0.031106 0.588293 0.400048
Si Si3 0.836165 0.167220 0.657047
Si Si4 0.346429 0.411971 0.263429
Si Si5 0.610026 0.250905 0.478713
Si Si6 0.841140 0.556082 0.061644
Si Si7 0.448701 0.226829 0.675177
O O1 0.892006 0.414855 0.387307
O O2 0.485683 0.278638 0.316789
O O3 0.631225 0.303195 0.426249
O O4 0.888135 0.110731 0.407722
O O5 0.816975 0.722536 0.378572
O O6 0.126096 0.645366 0.360912
O O7 0.244174 0.617931 0.467649
O O8 0.599318 0.150342 0.653801
O O9 0.065397 0.121546 0.721653
O O10 0.822202 0.042619 0.609577
O O11 0.417682 0.597963 0.291289
O O12 0.433549 0.384287 0.221041
O O13 0.343737 0.212464 0.459427
O O14 0.742888 0.071050 0.507073
#
# Coordination Sequence:
#
# PCOD9247767 Si02
#       7
#     4   4   4   4   4   4   4
#     4  11  22  38  61  88 122 155 196 251 297 348
#     4   9  22  40  60  91 119 155 202 242 298 361
#     4  10  22  41  62  85 122 160 195 246 300 349
#     4  10  23  39  60  91 116 153 205 241 292 362
#     4  10  22  40  60  88 122 158 197 243 299 351
#     4  10  23  39  61  91 117 156 206 242 291 360
#     4  10  22  41  62  84 121 158 195 250 299 347
#
# _framework density 22.790018
#
# number of rings (size 3 to 8) (size 9 to 14) (size 15 to 20)
#    0.000    2.000    0.000    1.714    0.000   16.571 
#    0.000    0.000    0.000    0.000    0.000    0.000 
#    0.000    0.000    0.000    0.000    0.000    0.000 
#
# Total GULP energy -156619.672891 kJ/mol
# GULP energy per Si atom -5593.559746 kJ/mol
# Density = 2.273815 g / cm^3
# Si number density = 22.790018 Si / 1000 Ang^3
#
#
#
# Elastic Constant Matrix: (Units=GPa)
#
#
# Indices 1 2 3 4 5 6 
#
# 1 71.2686 -12.3183 26.9197 0.0000 13.9121 0.0000
# 2 -12.3183 39.6748 1.8762 0.0000 6.3621 0.0000
# 3 26.9197 1.8762 108.6510 0.0000 24.6042 0.0000
# 4 0.0000 0.0000 0.0000 33.7666 0.0000 1.7817
# 5 13.9121 6.3621 24.6042 0.0000 11.7360 0.0000
# 6 0.0000 0.0000 0.0000 1.7817 0.0000 17.8161
#
#
#
# Elastic Compliance Matrix: (Units=1/GPa)
#
#
# Indices 1 2 3 4 5 6 
#
# 1 0.023514 0.014079 0.003753 0.000000 -0.043375 0.000000
# 2 0.014079 0.037907 0.008168 0.000000 -0.054362 0.000000
# 3 0.003753 0.008168 0.019311 0.000000 -0.049362 0.000000
# 4 0.000000 0.000000 0.000000 0.029772 0.000000 -0.002977
# 5 -0.043375 -0.054362 -0.049362 0.000000 0.269582 0.000000
# 6 0.000000 0.000000 0.000000 -0.002977 0.000000 0.056427
#
#
# Mechanical properties :
#
#
# Convention : Reuss Voigt Hill
#
# Bulk Modulus (GPa) = 7.53399 28.06108 17.79754
# Shear Modulus (GPa) = 11.66160 26.20487 18.93323
#
# Velocity S-wave (km/s) = 2.26453 3.39461 2.88543
# Velocity P-wave (km/s) = 3.18598 5.26347 4.35055
#
# Compressibility (1/GPa) = 0.13273174
#
# Stress axis : x y z
#
# Youngs Moduli (GPa) = 42.52733 26.38021 51.78447
#
# Poissons Ratio (x) = -0.37140 -0.19436
# Poissons Ratio (y) = -0.59873 -0.42296
# Poissons Ratio (z) = -0.15962 -0.21546
#
# Static dielectric constant tensor:
#      x y z
#    x 1.798720 0.000000 0.012130 
#    y 0.000000 1.940800 0.000000 
#    z 0.012130 0.000000 1.804270 
# 
# From -- ./inp_files/78867.got.cif
#   From: 2010.05.17/outbox.cif.g08.bks.cpg/sg14_40_cif.got.tgz:78867.got - 2010.06.03 17:49:19.
