data_PCOD9247747
_publ_section_title
;
Structure prediction by ZEFSAII (Michael W. Deem and Ramdas Pophale) SiO2 
 PCOD9247747
Probable space group: P 21/C
;
_chemical_formula_sum "Si O2"
_cell_formula_units_Z 28
_cell_length_a 11.509443
_cell_length_b 14.594652
_cell_length_c 8.902648
_cell_angle_alpha 90.000000
_cell_angle_beta 121.985667
_cell_angle_gamma 90.000000
_cell_volume 1268.398163
_symmetry_space_group_name_H-M "P 21/C"
_symmetry_group_IT_number 14
_symmetry_cell_setting 'monoclinic'
loop_
_space_group_symop_operation_xyz
x,y,z
-x,1/2+y,1/2-z
-x,-y,-z
x,1/2-y,1/2+z
loop_
_atom_site_type_symbol
_atom_site_label
_atom_site_fract_x
_atom_site_fract_y
_atom_site_fract_z
Si Si1 0.926573 0.638038 0.074818
Si Si2 0.302136 0.004228 0.514584
Si Si3 0.229198 0.853818 0.679792
Si Si4 0.789067 0.772528 0.200951
Si Si5 0.339486 0.770528 0.042121
Si Si6 0.593319 0.443764 0.224314
Si Si7 0.614775 0.658066 0.310882
O O1 0.842834 0.554274 0.089713
O O2 0.895466 0.724266 0.160986
O O3 0.086212 0.623262 0.159038
O O4 0.858252 0.657826 0.865297
O O5 0.299853 0.944516 0.664196
O O6 0.336672 0.943967 0.391423
O O7 0.429692 0.074591 0.603488
O O8 0.215008 0.788776 0.524525
O O9 0.320016 0.794604 0.855917
O O10 0.721899 0.695447 0.261186
O O11 0.673260 0.816786 0.014966
O O12 0.343773 0.868537 0.126191
O O13 0.475634 0.712638 0.174877
O O14 0.603010 0.548683 0.286713
#
# Coordination Sequence:
#
# PCOD9247747 Si02
#       7
#     4   4   4   4   4   4   4
#     4  11  23  44  66  96 134 185 226 267 328 406
#     4  11  24  43  67  96 134 175 221 283 341 394
#     4  12  26  44  66  95 139 178 225 271 331 407
#     4  10  22  39  70  95 130 174 224 275 335 393
#     4  12  26  43  70 102 135 178 221 283 346 397
#     4  11  24  43  71  99 136 167 224 290 346 393
#     4  11  22  42  66 103 134 164 222 288 340 398
#
# _framework density 22.075088000000001
#
# number of rings (size 3 to 8) (size 9 to 14) (size 15 to 20)
#    0.000    0.857    2.857    4.714    6.000    0.571 
#    0.000    0.714    0.000    0.000    0.000    0.000 
#    0.000    0.000    0.000    0.000    0.000    0.000 
#
# Total GULP energy -156600.705479 kJ/mol
# GULP energy per Si atom -5592.882339 kJ/mol
# Density = 2.202484 g / cm^3
# Si number density = 22.075088 Si / 1000 Ang^3
#
#
#
# Elastic Constant Matrix: (Units=GPa)
#
#
# Indices 1 2 3 4 5 6 
#
# 1 143.6667 23.8536 25.8642 0.0000 -7.1787 0.0000
# 2 23.8536 62.6593 9.8334 0.0000 -5.7708 0.0000
# 3 25.8642 9.8334 75.8356 0.0000 -11.9226 0.0000
# 4 0.0000 0.0000 0.0000 31.6646 0.0000 -2.6435
# 5 -7.1787 -5.7708 -11.9226 0.0000 26.7960 0.0000
# 6 0.0000 0.0000 0.0000 -2.6435 0.0000 25.5205
#
#
#
# Elastic Compliance Matrix: (Units=1/GPa)
#
#
# Indices 1 2 3 4 5 6 
#
# 1 0.007820 -0.002574 -0.002248 0.000000 0.000540 0.000000
# 2 -0.002574 0.017331 -0.000958 0.000000 0.002617 0.000000
# 3 -0.002248 -0.000958 0.015000 0.000000 0.005865 0.000000
# 4 0.000000 0.000000 0.000000 0.031857 0.000000 0.003300
# 5 0.000540 0.002617 0.005865 0.000000 0.040637 0.000000
# 6 0.000000 0.000000 0.000000 0.003300 0.000000 0.039526
#
#
# Mechanical properties :
#
#
# Convention : Reuss Voigt Hill
#
# Bulk Modulus (GPa) = 34.97843 44.58490 39.78166
# Shear Modulus (GPa) = 28.85839 31.63690 30.24765
#
# Velocity S-wave (km/s) = 3.61956 3.78980 3.70566
# Velocity P-wave (km/s) = 5.77476 6.27622 6.03070
#
# Compressibility (1/GPa) = 0.02858905
#
# Stress axis : x y z
#
# Youngs Moduli (GPa) = 127.88191 57.70134 66.66878
#
# Poissons Ratio (x) = 0.14854 0.14989
# Poissons Ratio (y) = 0.32921 0.06386
# Poissons Ratio (z) = 0.28751 0.05527
#
# Static dielectric constant tensor:
#      x y z
#    x 1.816140 0.000000 -0.001800 
#    y 0.000000 1.810910 0.000000 
#    z -0.001800 0.000000 1.819480 
# 
# From -- ./inp_files/13421.got.cif
#   From: 2010.05.17/outbox.cif.g08.bks.cpg/sg14_7_cif.got.tgz:13421.got - 2010.06.03 17:49:19.
