data_PCOD9247258
_publ_section_title
;
Structure prediction by ZEFSAII (Michael W. Deem and Ramdas Pophale) SiO2 
 PCOD9247258
Probable space group: P 21/C
;
_chemical_formula_sum "Si O2"
_cell_formula_units_Z 24
_cell_length_a 23.082335
_cell_length_b 6.361492
_cell_length_c 21.915754
_cell_angle_alpha 90.000000
_cell_angle_beta 160.245963
_cell_angle_gamma 90.000000
_cell_volume 1087.652191
_symmetry_space_group_name_H-M "P 21/C"
_symmetry_group_IT_number 14
_symmetry_cell_setting 'monoclinic'
loop_
_space_group_symop_operation_xyz
x,y,z
-x,1/2+y,1/2-z
-x,-y,-z
x,1/2-y,1/2+z
loop_
_atom_site_type_symbol
_atom_site_label
_atom_site_fract_x
_atom_site_fract_y
_atom_site_fract_z
Si Si1 0.542076 0.264549 0.873085
Si Si2 0.046958 0.657509 0.600998
Si Si3 0.348002 0.526500 0.396895
Si Si4 0.845811 0.489254 0.620673
Si Si5 0.269869 0.146039 0.404912
Si Si6 0.845757 0.750390 0.511809
O O1 0.350386 0.199481 0.667386
O O2 0.578710 0.161427 0.974641
O O3 0.689139 0.171336 0.975418
O O4 0.570720 0.512985 0.910688
O O5 0.174989 0.845417 0.706972
O O6 0.144804 0.527163 0.751380
O O7 0.000000 0.500000 0.500000
O O8 0.882221 0.739109 0.475612
O O9 0.500000 0.500000 0.500000
O O10 0.307139 0.301054 0.385557
O O11 0.798271 0.703526 0.609315
O O12 0.874313 0.535787 0.578244
O O13 0.014805 0.405387 0.821304
#
# Coordination Sequence:
#
# PCOD9247258 Si02
#       6
#     4   4   4   4   4   4
#     4  10  25  44  66 103 135 178 235 282 353 415
#     4  11  25  43  65 103 137 179 234 277 347 414
#     4  10  23  43  67  98 141 184 227 285 342 414
#     4  11  25  47  67 103 136 176 235 282 349 420
#     4  10  21  47  66  92 146 173 227 291 331 419
#     4  12  25  45  72  98 140 183 224 294 348 409
#
# _framework density 22.065878999999999
#
# number of rings (size 3 to 8) (size 9 to 14) (size 15 to 20)
#    0.000    1.333    5.000    1.000    7.000    3.333 
#    6.000    0.000    0.000    0.000    0.000    0.000 
#    0.000    0.000    0.000    0.000    0.000    0.000 
#
# Total GULP energy -134057.243878 kJ/mol
# GULP energy per Si atom -5585.718495 kJ/mol
# Density = 2.201566 g / cm^3
# Si number density = 22.065879 Si / 1000 Ang^3
#
#
#
# Elastic Constant Matrix: (Units=GPa)
#
#
# Indices 1 2 3 4 5 6 
#
# 1 101.7153 17.6078 10.6699 0.0000 24.1814 0.0000
# 2 17.6078 86.6049 25.9354 0.0000 29.8786 0.0000
# 3 10.6699 25.9354 112.9518 0.0000 21.1850 0.0000
# 4 0.0000 0.0000 0.0000 17.2562 0.0000 -8.7024
# 5 24.1814 29.8786 21.1850 0.0000 30.2404 0.0000
# 6 0.0000 0.0000 0.0000 -8.7024 0.0000 18.4566
#
#
#
# Elastic Compliance Matrix: (Units=1/GPa)
#
#
# Indices 1 2 3 4 5 6 
#
# 1 0.012292 0.001290 0.000720 0.000000 -0.011608 0.000000
# 2 0.001290 0.017732 -0.000822 0.000000 -0.017976 0.000000
# 3 0.000720 -0.000822 0.010280 0.000000 -0.006966 0.000000
# 4 0.000000 0.000000 0.000000 0.076029 0.000000 0.035848
# 5 -0.011608 -0.017976 -0.006966 0.000000 0.064991 0.000000
# 6 0.000000 0.000000 0.000000 0.035848 0.000000 0.071084
#
#
# Mechanical properties :
#
#
# Convention : Reuss Voigt Hill
#
# Bulk Modulus (GPa) = 23.42968 45.52203 34.47586
# Shear Modulus (GPa) = 18.92082 29.66124 24.29103
#
# Velocity S-wave (km/s) = 2.93143 3.67033 3.32149
# Velocity P-wave (km/s) = 4.70094 6.21583 5.51069
#
# Compressibility (1/GPa) = 0.04268091
#
# Stress axis : x y z
#
# Youngs Moduli (GPa) = 81.35225 56.39466 97.27155
#
# Poissons Ratio (x) = -0.07276 -0.07002
# Poissons Ratio (y) = -0.10495 0.07995
# Poissons Ratio (z) = -0.05856 0.04635
#
# Static dielectric constant tensor:
#      x y z
#    x 1.820770 0.000000 0.017870 
#    y 0.000000 1.851070 0.000000 
#    z 0.017870 0.000000 1.921980 
# 
# From -- ./inp_files/74816.got.cif
#   From: 2010.05.17/outbox.cif.g08.bks.cpg/sg14_38_cif.got.tgz:74816.got - 2010.06.03 17:49:19.
