data_PCOD9247745
_publ_section_title
;
Structure prediction by ZEFSAII (Michael W. Deem and Ramdas Pophale) SiO2 
 PCOD9247745
Probable space group: P 21/C
;
_chemical_formula_sum "Si O2"
_cell_formula_units_Z 24
_cell_length_a 13.191226
_cell_length_b 16.821948
_cell_length_c 13.663140
_cell_angle_alpha 90.000000
_cell_angle_beta 23.524942
_cell_angle_gamma 90.000000
_cell_volume 1210.169464
_symmetry_space_group_name_H-M "P 21/C"
_symmetry_group_IT_number 14
_symmetry_cell_setting 'monoclinic'
loop_
_space_group_symop_operation_xyz
x,y,z
-x,1/2+y,1/2-z
-x,-y,-z
x,1/2-y,1/2+z
loop_
_atom_site_type_symbol
_atom_site_label
_atom_site_fract_x
_atom_site_fract_y
_atom_site_fract_z
Si Si1 0.683049 0.924514 0.349179
Si Si2 0.256062 0.979062 0.331842
Si Si3 0.362993 0.617565 0.561379
Si Si4 0.837602 0.881701 0.007088
Si Si5 0.382413 0.697338 0.007757
Si Si6 0.983509 0.522520 0.770035
O O1 0.865677 0.916397 0.092908
O O2 0.503120 0.847690 0.495446
O O3 0.832885 0.935715 0.316262
O O4 0.500000 0.000000 0.500000
O O5 0.354265 0.902862 0.184954
O O6 0.000000 0.000000 0.500000
O O7 0.196453 0.972286 0.498308
O O8 0.429550 0.055907 0.162076
O O9 0.404307 0.708989 0.502558
O O10 0.115563 0.587695 0.721398
O O11 0.575979 0.832295 0.250648
O O12 0.090338 0.831452 0.757424
O O13 0.827640 0.957439 0.944340
#
# Coordination Sequence:
#
# PCOD9247745 Si02
#       6
#     4   4   4   4   4   4
#     4  10  22  39  69  97 135 175 222 276 345 399
#     4   9  22  41  67  88 127 180 228 269 329 401
#     4  10  23  43  66  95 135 183 225 283 331 404
#     4  10  23  40  66  98 130 178 216 285 334 404
#     4  10  24  41  68  92 146 168 224 282 341 388
#     4  11  21  38  71  96 128 179 233 270 338 407
#
# _framework density 19.831931999999998
#
# number of rings (size 3 to 8) (size 9 to 14) (size 15 to 20)
#    1.000    1.000    1.667    0.500    9.333    0.000 
#    0.000    8.333    0.000    0.000    0.000    0.000 
#    0.000    0.000    0.000    0.000    0.000    0.000 
#
# Total GULP energy -133685.404575 kJ/mol
# GULP energy per Si atom -5570.225191 kJ/mol
# Density = 1.978679 g / cm^3
# Si number density = 19.831932 Si / 1000 Ang^3
#
#
#
# Elastic Constant Matrix: (Units=GPa)
#
#
# Indices 1 2 3 4 5 6 
#
# 1 51.6770 40.9095 24.1885 0.0000 16.9088 0.0000
# 2 40.9095 141.6232 30.8384 0.0000 -1.8384 0.0000
# 3 24.1885 30.8384 102.4923 0.0000 6.5524 0.0000
# 4 0.0000 0.0000 0.0000 6.6286 0.0000 -9.9787
# 5 16.9088 -1.8384 6.5524 0.0000 34.4698 0.0000
# 6 0.0000 0.0000 0.0000 -9.9787 0.0000 21.1555
#
#
#
# Elastic Compliance Matrix: (Units=1/GPa)
#
#
# Indices 1 2 3 4 5 6 
#
# 1 0.033824 -0.009064 -0.004215 0.000000 -0.016274 0.000000
# 2 -0.009064 0.010009 -0.001206 0.000000 0.005209 0.000000
# 3 -0.004215 -0.001206 0.011121 0.000000 -0.000111 0.000000
# 4 0.000000 0.000000 0.000000 0.520346 0.000000 0.245440
# 5 -0.016274 0.005209 -0.000111 0.000000 0.037293 0.000000
# 6 0.000000 0.000000 0.000000 0.245440 0.000000 0.163040
#
#
# Mechanical properties :
#
#
# Convention : Reuss Voigt Hill
#
# Bulk Modulus (GPa) = 38.48231 54.18503 46.33367
# Shear Modulus (GPa) = 6.14806 25.77452 15.96129
#
# Velocity S-wave (km/s) = 1.76262 3.60897 2.84003
# Velocity P-wave (km/s) = 4.85683 6.68937 5.84536
#
# Compressibility (1/GPa) = 0.02598597
#
# Stress axis : x y z
#
# Youngs Moduli (GPa) = 29.56456 99.90643 89.91683
#
# Poissons Ratio (x) = 0.90555 0.37900
# Poissons Ratio (y) = 0.26797 0.10840
# Poissons Ratio (z) = 0.12461 0.12044
#
# Static dielectric constant tensor:
#      x y z
#    x 1.727370 0.000000 -0.026580 
#    y 0.000000 1.664870 0.000000 
#    z -0.026580 0.000000 1.786570 
# 
# From -- ./inp_files/30365.got.cif
#   From: 2010.05.17/outbox.cif.g08.bks.cpg/sg14_16_cif.got.tgz:30365.got - 2010.06.03 17:49:19.
