data_PCOD9247061
_publ_section_title
;
Structure prediction by ZEFSAII (Michael W. Deem and Ramdas Pophale) SiO2 
 PCOD9247061
Probable space group: P 21/C
;
_chemical_formula_sum "Si O2"
_cell_formula_units_Z 28
_cell_length_a 18.110571
_cell_length_b 5.866946
_cell_length_c 14.882666
_cell_angle_alpha 90.000000
_cell_angle_beta 51.102331
_cell_angle_gamma 90.000000
_cell_volume 1230.706606
_symmetry_space_group_name_H-M "P 21/C"
_symmetry_group_IT_number 14
_symmetry_cell_setting 'monoclinic'
loop_
_space_group_symop_operation_xyz
x,y,z
-x,1/2+y,1/2-z
-x,-y,-z
x,1/2-y,1/2+z
loop_
_atom_site_type_symbol
_atom_site_label
_atom_site_fract_x
_atom_site_fract_y
_atom_site_fract_z
Si Si1 0.484391 0.858824 0.144748
Si Si2 0.686779 0.788759 0.741100
Si Si3 0.812409 0.163203 0.722296
Si Si4 0.051076 0.579775 0.717255
Si Si5 0.793186 0.079026 0.054668
Si Si6 0.390172 0.722651 0.389943
Si Si7 0.378862 0.594459 0.076134
O O1 0.400243 0.048563 0.215144
O O2 0.583191 0.991839 0.075705
O O3 0.460609 0.717015 0.251979
O O4 0.457911 0.726355 0.074175
O O5 0.726991 0.636297 0.629866
O O6 0.648090 0.628428 0.849188
O O7 0.776114 0.927573 0.709149
O O8 0.895274 0.125758 0.729541
O O9 0.830067 0.323274 0.621802
O O10 0.719665 0.263473 0.843404
O O11 0.124880 0.541869 0.579199
O O12 0.998643 0.329913 0.763889
O O13 0.715175 0.242986 0.068550
O O14 0.405721 0.918016 0.451816
#
# Coordination Sequence:
#
# PCOD9247061 Si02
#       7
#     4   4   4   4   4   4   4
#     4  11  24  41  59 106 139 182 243 290 341 418
#     4  10  21  43  69  98 143 185 232 290 354 425
#     4  10  23  46  73 105 141 181 236 293 367 441
#     4  12  31  50  77 114 142 182 247 306 372 454
#     4  11  24  46  74 101 142 194 229 291 369 426
#     4  12  22  42  67  94 144 186 239 289 348 426
#     4  10  22  42  66  98 138 187 235 290 351 424
#
# _framework density 22.751156999999999
#
# number of rings (size 3 to 8) (size 9 to 14) (size 15 to 20)
#    0.000    1.143    5.714    1.286    6.000    2.857 
#    5.143    0.000    0.000    0.000    0.000    0.000 
#    0.000    0.000    0.000    0.000    0.000    0.000 
#
# Total GULP energy -156503.904880 kJ/mol
# GULP energy per Si atom -5589.425174 kJ/mol
# Density = 2.269937 g / cm^3
# Si number density = 22.751157 Si / 1000 Ang^3
#
#
#
# Elastic Constant Matrix: (Units=GPa)
#
#
# Indices 1 2 3 4 5 6 
#
# 1 123.1349 26.6679 12.4584 0.0000 25.5947 0.0000
# 2 26.6679 78.2999 18.1724 0.0000 0.8926 0.0000
# 3 12.4584 18.1724 135.2027 0.0000 11.1717 0.0000
# 4 0.0000 0.0000 0.0000 11.9709 0.0000 -0.8704
# 5 25.5947 0.8926 11.1717 0.0000 32.9305 0.0000
# 6 0.0000 0.0000 0.0000 -0.8704 0.0000 38.7329
#
#
#
# Elastic Compliance Matrix: (Units=1/GPa)
#
#
# Indices 1 2 3 4 5 6 
#
# 1 0.010572 -0.003549 0.000179 0.000000 -0.008182 0.000000
# 2 -0.003549 0.014376 -0.001853 0.000000 0.002997 0.000000
# 3 0.000179 -0.001853 0.007856 0.000000 -0.002754 0.000000
# 4 0.000000 0.000000 0.000000 0.083673 0.000000 0.001880
# 5 -0.008182 0.002997 -0.002754 0.000000 0.037579 0.000000
# 6 0.000000 0.000000 0.000000 0.001880 0.000000 0.025860
#
#
# Mechanical properties :
#
#
# Convention : Reuss Voigt Hill
#
# Bulk Modulus (GPa) = 44.72541 50.13720 47.43131
# Shear Modulus (GPa) = 25.27602 35.34944 30.31273
#
# Velocity S-wave (km/s) = 3.33675 3.94603 3.65411
# Velocity P-wave (km/s) = 5.87762 6.54573 6.22065
#
# Compressibility (1/GPa) = 0.02235865
#
# Stress axis : x y z
#
# Youngs Moduli (GPa) = 94.58647 69.56026 127.28417
#
# Poissons Ratio (x) = 0.24687 -0.02277
# Poissons Ratio (y) = 0.33569 0.23584
# Poissons Ratio (z) = -0.01692 0.12889
#
# Static dielectric constant tensor:
#      x y z
#    x 1.815070 0.000000 0.008180 
#    y 0.000000 1.936930 0.000000 
#    z 0.008180 0.000000 1.840700 
# 
# From -- ./inp_files/48095.got.cif
#   From: 2010.05.17/outbox.cif.g08.bks.cpg/sg14_25_cif.got.tgz:48095.got - 2010.06.03 17:49:19.
