data_PCOD9247514
_publ_section_title
;
Structure prediction by ZEFSAII (Michael W. Deem and Ramdas Pophale) SiO2 
 PCOD9247514
Probable space group: P 21/C
;
_chemical_formula_sum "Si O2"
_cell_formula_units_Z 28
_cell_length_a 11.146743
_cell_length_b 18.570767
_cell_length_c 7.730713
_cell_angle_alpha 90.000000
_cell_angle_beta 42.688298
_cell_angle_gamma 90.000000
_cell_volume 1085.008639
_symmetry_space_group_name_H-M "P 21/C"
_symmetry_group_IT_number 14
_symmetry_cell_setting 'monoclinic'
loop_
_space_group_symop_operation_xyz
x,y,z
-x,1/2+y,1/2-z
-x,-y,-z
x,1/2-y,1/2+z
loop_
_atom_site_type_symbol
_atom_site_label
_atom_site_fract_x
_atom_site_fract_y
_atom_site_fract_z
Si Si1 0.914493 0.400335 0.604067
Si Si2 0.208545 0.976203 0.098430
Si Si3 0.670740 0.057015 0.652198
Si Si4 0.060265 0.138278 0.544894
Si Si5 0.364623 0.369081 0.326469
Si Si6 0.309176 0.413059 0.025889
Si Si7 0.029092 0.217383 0.222397
O O1 0.785545 0.431453 0.590536
O O2 0.112796 0.419915 0.326681
O O3 0.929741 0.320386 0.668460
O O4 0.851841 0.436678 0.850840
O O5 0.314691 0.955186 0.160331
O O6 0.021010 0.940757 0.359535
O O7 0.251388 0.060037 0.013487
O O8 0.545011 0.123953 0.740985
O O9 0.597493 0.986246 0.630017
O O10 0.261179 0.127604 0.397913
O O11 0.004557 0.175819 0.427247
O O12 0.991280 0.198157 0.754412
O O13 0.410001 0.376154 0.075530
O O14 0.238955 0.299967 0.474244
#
# Coordination Sequence:
#
# PCOD9247514 Si02
#       7
#     4   4   4   4   4   4   4
#     4  10  22  38  64  92 130 158 223 261 307 374
#     4  11  23  38  65 100 123 171 212 271 314 377
#     4  12  22  40  63  95 138 170 202 266 325 376
#     4  11  23  40  71  91 126 164 225 272 319 373
#     4  11  24  39  64  94 140 165 214 262 324 393
#     4  10  22  38  65  98 128 174 214 269 313 374
#     4  11  23  44  65  95 124 169 218 272 321 385
#
# _framework density 25.806244
#
# number of rings (size 3 to 8) (size 9 to 14) (size 15 to 20)
#    0.000    1.143    2.857    4.714    6.000    2.857 
#    0.000    0.000    9.429    0.000    0.000    0.000 
#    0.000    0.000    0.000    0.000    0.000    0.000 
#
# Total GULP energy -155926.062985 kJ/mol
# GULP energy per Si atom -5568.787964 kJ/mol
# Density = 2.574751 g / cm^3
# Si number density = 25.806244 Si / 1000 Ang^3
#
#
#
# Elastic Constant Matrix: (Units=GPa)
#
#
# Indices 1 2 3 4 5 6 
#
# 1 152.0251 8.2968 18.8880 0.0000 44.9265 0.0000
# 2 8.2968 96.7758 13.6885 0.0000 -3.0919 0.0000
# 3 18.8880 13.6885 81.1502 0.0000 16.3066 0.0000
# 4 0.0000 0.0000 0.0000 27.8656 0.0000 10.2886
# 5 44.9265 -3.0919 16.3066 0.0000 42.0856 0.0000
# 6 0.0000 0.0000 0.0000 10.2886 0.0000 29.5552
#
#
#
# Elastic Compliance Matrix: (Units=1/GPa)
#
#
# Indices 1 2 3 4 5 6 
#
# 1 0.009740 -0.001176 0.000041 0.000000 -0.010500 0.000000
# 2 -0.001176 0.010827 -0.002131 0.000000 0.002877 0.000000
# 3 0.000041 -0.002131 0.013786 0.000000 -0.005542 0.000000
# 4 0.000000 0.000000 0.000000 0.041179 0.000000 -0.014335
# 5 -0.010500 0.002877 -0.005542 0.000000 0.037328 0.000000
# 6 0.000000 0.000000 0.000000 -0.014335 0.000000 0.038825
#
#
# Mechanical properties :
#
#
# Convention : Reuss Voigt Hill
#
# Bulk Modulus (GPa) = 35.94268 45.74419 40.84343
# Shear Modulus (GPa) = 29.85221 39.17313 34.51267
#
# Velocity S-wave (km/s) = 3.40484 3.90034 3.66098
# Velocity P-wave (km/s) = 5.42360 6.16831 5.80790
#
# Compressibility (1/GPa) = 0.02782208
#
# Stress axis : x y z
#
# Youngs Moduli (GPa) = 102.67157 92.35922 72.53576
#
# Poissons Ratio (x) = 0.10864 -0.00299
# Poissons Ratio (y) = 0.12077 0.15455
# Poissons Ratio (z) = -0.00424 0.19678
#
# Static dielectric constant tensor:
#      x y z
#    x 2.127610 0.000000 -0.011890 
#    y 0.000000 2.035760 0.000000 
#    z -0.011890 0.000000 2.208430 
# 
# From -- ./inp_files/14255.got.cif
#   From: 2010.05.17/outbox.cif.g08.bks.cpg/sg14_8_cif.got.tgz:14255.got - 2010.06.03 17:49:19.
