data_PCOD9247156
_publ_section_title
;
Structure prediction by ZEFSAII (Michael W. Deem and Ramdas Pophale) SiO2 
 PCOD9247156
Probable space group: P 21/C
;
_chemical_formula_sum "Si O2"
_cell_formula_units_Z 28
_cell_length_a 14.230164
_cell_length_b 11.208500
_cell_length_c 8.721292
_cell_angle_alpha 90.000000
_cell_angle_beta 58.151241
_cell_angle_gamma 90.000000
_cell_volume 1181.606722
_symmetry_space_group_name_H-M "P 21/C"
_symmetry_group_IT_number 14
_symmetry_cell_setting 'monoclinic'
loop_
_space_group_symop_operation_xyz
x,y,z
-x,1/2+y,1/2-z
-x,-y,-z
x,1/2-y,1/2+z
loop_
_atom_site_type_symbol
_atom_site_label
_atom_site_fract_x
_atom_site_fract_y
_atom_site_fract_z
Si Si1 0.154995 0.176741 0.735980
Si Si2 0.331838 0.982409 0.519132
Si Si3 0.839020 0.323683 0.005829
Si Si4 0.670874 0.117500 0.160707
Si Si5 0.453832 0.165460 0.203829
Si Si6 0.003908 0.777114 0.378027
Si Si7 0.332108 0.364824 0.494243
O O1 0.220914 0.299869 0.647721
O O2 0.078494 0.147512 0.656112
O O3 0.247657 0.076965 0.669412
O O4 0.073404 0.197748 0.946304
O O5 0.257966 0.910525 0.461395
O O6 0.373223 0.906792 0.628604
O O7 0.420156 0.055968 0.345048
O O8 0.780782 0.195519 0.082564
O O9 0.910431 0.352222 0.094020
O O10 0.924692 0.306609 0.794084
O O11 0.581270 0.186518 0.133691
O O12 0.688706 0.994427 0.055266
O O13 0.383527 0.278921 0.320160
O O14 0.418363 0.134708 0.062102
#
# Coordination Sequence:
#
# PCOD9247156 Si02
#       7
#     4   4   4   4   4   4   4
#     4  10  21  44  70  92 130 171 224 281 324 404
#     4  11  24  44  68  98 134 176 226 277 334 399
#     4  11  25  42  63 100 139 171 222 277 334 403
#     4  12  26  43  69  96 145 176 219 278 336 401
#     4  11  26  42  73  99 132 179 224 275 338 398
#     4  10  22  44  63  97 129 176 220 267 345 386
#     4  11  24  45  68 104 130 175 230 274 332 401
#
# _framework density 23.696549000000001
#
# number of rings (size 3 to 8) (size 9 to 14) (size 15 to 20)
#    0.000    1.143    1.429    5.143    6.000    1.143 
#   10.286    0.000    0.000    0.000    0.000    0.000 
#    0.000    0.000    0.000    0.000    0.000    0.000 
#
# Total GULP energy -156848.441829 kJ/mol
# GULP energy per Si atom -5601.730065 kJ/mol
# Density = 2.364261 g / cm^3
# Si number density = 23.696549 Si / 1000 Ang^3
#
#
#
# Elastic Constant Matrix: (Units=GPa)
#
#
# Indices 1 2 3 4 5 6 
#
# 1 138.3918 -1.1829 22.4502 0.0000 27.9352 0.0000
# 2 -1.1829 45.6209 21.4032 0.0000 -2.1768 0.0000
# 3 22.4502 21.4032 52.2465 0.0000 20.0574 0.0000
# 4 0.0000 0.0000 0.0000 8.3233 0.0000 -0.5811
# 5 27.9352 -2.1768 20.0574 0.0000 38.8669 0.0000
# 6 0.0000 0.0000 0.0000 -0.5811 0.0000 21.7491
#
#
#
# Elastic Compliance Matrix: (Units=1/GPa)
#
#
# Indices 1 2 3 4 5 6 
#
# 1 0.008598 0.001014 -0.002194 0.000000 -0.004991 0.000000
# 2 0.001014 0.030071 -0.016363 0.000000 0.009400 0.000000
# 3 -0.002194 -0.016363 0.033088 0.000000 -0.016414 0.000000
# 4 0.000000 0.000000 0.000000 0.120369 0.000000 0.003216
# 5 -0.004991 0.009400 -0.016414 0.000000 0.038313 0.000000
# 6 0.000000 0.000000 0.000000 0.003216 0.000000 0.046065
#
#
# Mechanical properties :
#
#
# Convention : Reuss Voigt Hill
#
# Bulk Modulus (GPa) = 27.26981 35.73337 31.50159
# Shear Modulus (GPa) = 15.44100 26.69378 21.06739
#
# Velocity S-wave (km/s) = 2.55544 3.35995 2.98493
# Velocity P-wave (km/s) = 4.49888 5.49224 5.02019
#
# Compressibility (1/GPa) = 0.03667059
#
# Stress axis : x y z
#
# Youngs Moduli (GPa) = 116.30841 33.25416 30.22276
#
# Poissons Ratio (x) = -0.03372 0.06631
# Poissons Ratio (y) = -0.11795 0.49454
# Poissons Ratio (z) = 0.25519 0.54415
#
# Static dielectric constant tensor:
#      x y z
#    x 1.879960 0.000000 0.020760 
#    y 0.000000 1.887280 0.000000 
#    z 0.020760 0.000000 1.862430 
# 
# From -- ./inp_files/15668.got.cif
#   From: 2010.05.17/outbox.cif.g08.bks.cpg/sg14_8_cif.got.tgz:15668.got - 2010.06.03 17:49:19.
