data_PCOD9247948
_publ_section_title
;
Structure prediction by ZEFSAII (Michael W. Deem and Ramdas Pophale) SiO2 
 PCOD9247948
Probable space group: P 21/C
;
_chemical_formula_sum "Si O2"
_cell_formula_units_Z 20
_cell_length_a 26.109820
_cell_length_b 5.044234
_cell_length_c 18.540887
_cell_angle_alpha 90.000000
_cell_angle_beta 17.487628
_cell_angle_gamma 90.000000
_cell_volume 733.793526
_symmetry_space_group_name_H-M "P 21/C"
_symmetry_group_IT_number 14
_symmetry_cell_setting 'monoclinic'
loop_
_space_group_symop_operation_xyz
x,y,z
-x,1/2+y,1/2-z
-x,-y,-z
x,1/2-y,1/2+z
loop_
_atom_site_type_symbol
_atom_site_label
_atom_site_fract_x
_atom_site_fract_y
_atom_site_fract_z
Si Si1 0.187025 0.634685 0.048672
Si Si2 0.409448 0.897108 0.900039
Si Si3 0.123970 0.250966 0.265084
Si Si4 0.754221 0.410413 0.763163
Si Si5 0.774726 0.855511 0.085662
O O1 0.196899 0.449238 0.106698
O O2 0.981720 0.655231 0.315825
O O3 0.257852 0.923212 0.931983
O O4 0.268911 0.439403 0.879074
O O5 0.501818 0.682899 0.725553
O O6 0.389062 0.760975 0.004744
O O7 0.215437 0.968345 0.138436
O O8 0.174287 0.375723 0.274738
O O9 0.922844 0.231986 0.523088
O O10 0.703334 0.548615 0.757805
#
# Coordination Sequence:
#
# PCOD9247948 Si02
#       5
#     4   4   4   4   4
#     4   9  19  34  56  89 127 159 192 248 316 368
#     4  12  25  42  61  90 128 168 206 260 317 370
#     4  10  22  40  67  98 125 159 213 265 306 363
#     4  10  22  40  67  98 125 159 213 265 306 363
#     4   9  19  34  56  89 127 159 192 248 316 368
#
# _framework density 27.255621999999999
#
# number of rings (size 3 to 8) (size 9 to 14) (size 15 to 20)
#    0.000    2.000    2.000    0.600    5.600    0.000 
#    0.000    0.000    0.000    7.200    0.000    0.000 
#    0.000    0.000    0.000    0.000    0.000    0.000 
#
# Total GULP energy -112047.303576 kJ/mol
# GULP energy per Si atom -5602.365179 kJ/mol
# Density = 2.719359 g / cm^3
# Si number density = 27.255622 Si / 1000 Ang^3
#
#
#
# Elastic Constant Matrix: (Units=GPa)
#
#
# Indices 1 2 3 4 5 6 
#
# 1 69.3950 -10.0430 5.9286 0.0000 22.7888 0.0000
# 2 -10.0430 134.0978 16.9437 0.0000 -1.2161 0.0000
# 3 5.9286 16.9437 83.1322 0.0000 -0.9312 0.0000
# 4 0.0000 0.0000 0.0000 32.3276 0.0000 2.7312
# 5 22.7888 -1.2161 -0.9312 0.0000 42.0637 0.0000
# 6 0.0000 0.0000 0.0000 2.7312 0.0000 26.2803
#
#
#
# Elastic Compliance Matrix: (Units=1/GPa)
#
#
# Indices 1 2 3 4 5 6 
#
# 1 0.017961 0.001470 -0.001690 0.000000 -0.009726 0.000000
# 2 0.001470 0.007776 -0.001697 0.000000 -0.000609 0.000000
# 3 -0.001690 -0.001697 0.012508 0.000000 0.001143 0.000000
# 4 0.000000 0.000000 0.000000 0.031207 0.000000 -0.003243
# 5 -0.009726 -0.000609 0.001143 0.000000 0.029050 0.000000
# 6 0.000000 0.000000 0.000000 -0.003243 0.000000 0.038388
#
#
# Mechanical properties :
#
#
# Convention : Reuss Voigt Hill
#
# Bulk Modulus (GPa) = 29.05773 34.69815 31.87794
# Shear Modulus (GPa) = 32.85269 38.38735 35.62002
#
# Velocity S-wave (km/s) = 3.47559 3.75696 3.61901
# Velocity P-wave (km/s) = 5.17597 5.61943 5.40225
#
# Compressibility (1/GPa) = 0.03441425
#
# Stress axis : x y z
#
# Youngs Moduli (GPa) = 55.67526 128.59721 79.94799
#
# Poissons Ratio (x) = -0.18910 0.13508
# Poissons Ratio (y) = -0.08187 0.13564
# Poissons Ratio (z) = 0.09407 0.21818
#
# Static dielectric constant tensor:
#      x y z
#    x 2.322870 0.000000 -0.062660 
#    y 0.000000 2.062750 0.000000 
#    z -0.062660 0.000000 2.168220 
# 
# From -- ./inp_files/56642.got.cif
#   From: 2010.05.17/outbox.cif.g08.bks.cpg/sg14_29_cif.got.tgz:56642.got - 2010.06.03 17:49:19.
