data_PCOD9247510
_publ_section_title
;
Structure prediction by ZEFSAII (Michael W. Deem and Ramdas Pophale) SiO2 
 PCOD9247510
Probable space group: P 21/C
;
_chemical_formula_sum "Si O2"
_cell_formula_units_Z 32
_cell_length_a 11.257636
_cell_length_b 14.252621
_cell_length_c 9.457187
_cell_angle_alpha 90.000000
_cell_angle_beta 86.099914
_cell_angle_gamma 90.000000
_cell_volume 1513.899341
_symmetry_space_group_name_H-M "P 21/C"
_symmetry_group_IT_number 14
_symmetry_cell_setting 'monoclinic'
loop_
_space_group_symop_operation_xyz
x,y,z
-x,1/2+y,1/2-z
-x,-y,-z
x,1/2-y,1/2+z
loop_
_atom_site_type_symbol
_atom_site_label
_atom_site_fract_x
_atom_site_fract_y
_atom_site_fract_z
Si Si1 0.071707 0.011904 0.682518
Si Si2 0.427354 0.768345 0.159148
Si Si3 0.383168 0.112598 0.410827
Si Si4 0.546829 0.943085 0.289342
Si Si5 0.735194 0.194351 0.091466
Si Si6 0.182333 0.048826 0.240132
Si Si7 0.866689 0.387071 0.068005
Si Si8 0.232699 0.481914 0.418928
O O1 0.151763 0.947597 0.573346
O O2 0.139053 0.053977 0.810348
O O3 0.960650 0.945972 0.738901
O O4 0.004612 0.092523 0.597269
O O5 0.543625 0.707556 0.115647
O O6 0.466029 0.856044 0.250230
O O7 0.331684 0.707494 0.254298
O O8 0.365425 0.799467 0.020227
O O9 0.380052 0.086320 0.576251
O O10 0.463834 0.030941 0.333560
O O11 0.257966 0.112872 0.339704
O O12 0.637059 0.967418 0.156540
O O13 0.824521 0.281439 0.063658
O O14 0.793748 0.093182 0.073685
O O15 0.201747 0.942817 0.301015
O O16 0.222204 0.058237 0.076253
#
# Coordination Sequence:
#
# PCOD9247510 Si02
#       8
#     4   4   4   4   4   4   4   4
#     4   9  21  41  66  90 122 171 218 264 334 402
#     4  12  25  41  62  98 135 170 227 272 328 395
#     4  11  23  42  64  90 135 179 215 261 334 404
#     4  11  25  40  63  95 130 180 215 266 336 396
#     4  12  23  39  64 100 130 164 222 282 319 386
#     4  10  22  38  64  91 129 169 216 266 329 390
#     4   9  20  40  65  91 125 171 219 267 326 402
#     4  12  23  38  67  97 134 168 219 283 335 374
#
# _framework density 21.137468999999999
#
# number of rings (size 3 to 8) (size 9 to 14) (size 15 to 20)
#    0.750    0.500    2.500    4.125    3.500    1.000 
#    0.000    1.250    2.750    0.000    0.000    0.000 
#    0.000    0.000    0.000    0.000    0.000    0.000 
#
# Total GULP energy -178747.685484 kJ/mol
# GULP energy per Si atom -5585.865171 kJ/mol
# Density = 2.108936 g / cm^3
# Si number density = 21.137469 Si / 1000 Ang^3
#
#
#
# Elastic Constant Matrix: (Units=GPa)
#
#
# Indices 1 2 3 4 5 6 
#
# 1 48.0393 -0.8330 9.2972 0.0000 5.9082 0.0000
# 2 -0.8330 41.6462 -13.4507 0.0000 8.8251 0.0000
# 3 9.2972 -13.4507 93.7909 0.0000 -4.3148 0.0000
# 4 0.0000 0.0000 0.0000 18.6284 0.0000 -0.9393
# 5 5.9082 8.8251 -4.3148 0.0000 34.0700 0.0000
# 6 0.0000 0.0000 0.0000 -0.9393 0.0000 20.0310
#
#
#
# Elastic Compliance Matrix: (Units=1/GPa)
#
#
# Indices 1 2 3 4 5 6 
#
# 1 0.021785 0.000597 -0.002268 0.000000 -0.004220 0.000000
# 2 0.000597 0.026521 0.003443 0.000000 -0.006537 0.000000
# 3 -0.002268 0.003443 0.011424 0.000000 0.000948 0.000000
# 4 0.000000 0.000000 0.000000 0.053809 0.000000 0.002523
# 5 -0.004220 -0.006537 0.000948 0.000000 0.031897 0.000000
# 6 0.000000 0.000000 0.000000 0.002523 0.000000 0.050041
#
#
# Mechanical properties :
#
#
# Convention : Reuss Voigt Hill
#
# Bulk Modulus (GPa) = 15.80375 19.27816 17.54096
# Shear Modulus (GPa) = 23.47176 27.11009 25.29092
#
# Velocity S-wave (km/s) = 3.33593 3.58517 3.46279
# Velocity P-wave (km/s) = 4.72555 5.12622 4.92996
#
# Compressibility (1/GPa) = 0.06327610
#
# Stress axis : x y z
#
# Youngs Moduli (GPa) = 45.90419 37.70568 87.53296
#
# Poissons Ratio (x) = -0.02253 0.19851
# Poissons Ratio (y) = -0.02743 -0.30142
# Poissons Ratio (z) = 0.10410 -0.12984
#
# Static dielectric constant tensor:
#      x y z
#    x 1.775510 0.000000 0.004690 
#    y 0.000000 1.747430 0.000000 
#    z 0.004690 0.000000 1.771750 
# 
# From -- ./inp_files/13105.got.cif
#   From: 2010.05.17/outbox.cif.g08.bks.cpg/sg14_7_cif.got.tgz:13105.got - 2010.06.03 17:49:19.
