data_PCOD9247705
_publ_section_title
;
Structure prediction by ZEFSAII (Michael W. Deem and Ramdas Pophale) SiO2 
 PCOD9247705
Probable space group: P 21/C
;
_chemical_formula_sum "Si O2"
_cell_formula_units_Z 30
_cell_length_a 19.162846
_cell_length_b 11.949245
_cell_length_c 10.067848
_cell_angle_alpha 90.000000
_cell_angle_beta 146.863183
_cell_angle_gamma 90.000000
_cell_volume 1260.197606
_symmetry_space_group_name_H-M "P 21/C"
_symmetry_group_IT_number 14
_symmetry_cell_setting 'monoclinic'
loop_
_space_group_symop_operation_xyz
x,y,z
-x,1/2+y,1/2-z
-x,-y,-z
x,1/2-y,1/2+z
loop_
_atom_site_type_symbol
_atom_site_label
_atom_site_fract_x
_atom_site_fract_y
_atom_site_fract_z
Si Si1 0.500000 0.500000 0.000000
Si Si2 0.117220 0.247212 0.131293
Si Si3 0.956263 0.218410 0.621284
Si Si4 0.821887 0.491028 0.774224
Si Si5 0.469917 0.544659 0.635199
Si Si6 0.369760 0.160458 0.406037
Si Si7 0.251981 0.853454 0.093092
Si Si8 0.431092 0.832675 0.826544
O O1 0.619564 0.605079 0.220176
O O2 0.619137 0.410962 0.153085
O O3 0.135561 0.381216 0.146385
O O4 0.241806 0.176288 0.283815
O O5 0.067390 0.235665 0.201836
O O6 0.009544 0.211682 0.854873
O O7 0.904548 0.098389 0.490104
O O8 0.840994 0.307205 0.442901
O O9 0.675827 0.489437 0.590569
O O10 0.819257 0.434682 0.623540
O O11 0.567699 0.457680 0.726993
O O12 0.463996 0.654007 0.534886
O O13 0.522729 0.569110 0.866569
O O14 0.445849 0.274206 0.538324
O O15 0.307262 0.741949 0.107407
#
# Coordination Sequence:
#
# PCOD9247705 Si02
#       8
#     2   4   4   4   4   4   4   4
#     4  10  24  42  74 114 148 178 246 322 388 432
#     4  12  30  49  77 108 155 207 259 308 370 471
#     4  12  28  50  74 106 148 214 254 303 372 460
#     4  12  24  49  76 102 153 200 255 314 397 441
#     4  11  22  39  70 107 139 186 231 323 378 438
#     4  11  25  42  69 108 144 189 242 312 375 442
#     4  11  24  46  73 111 145 201 245 316 382 454
#     4  10  22  39  66 105 143 175 244 303 379 440
#
# _framework density 23.805789999999998
#
# number of rings (size 3 to 8) (size 9 to 14) (size 15 to 20)
#    0.000    0.800    6.667    0.400    3.733    4.267 
#    0.000    1.333    0.000    0.000    0.000    0.000 
#    0.000    0.000    0.000    0.000    0.000    0.000 
#
# Total GULP energy -167256.670362 kJ/mol
# GULP energy per Si atom -5575.222345 kJ/mol
# Density = 2.375161 g / cm^3
# Si number density = 23.805790 Si / 1000 Ang^3
#
#
#
# Elastic Constant Matrix: (Units=GPa)
#
#
# Indices 1 2 3 4 5 6 
#
# 1 67.7612 18.8801 4.0139 0.0000 27.5839 0.0000
# 2 18.8801 103.0430 22.0069 0.0000 15.7889 0.0000
# 3 4.0139 22.0069 53.3682 0.0000 13.6890 0.0000
# 4 0.0000 0.0000 0.0000 34.0360 0.0000 7.8792
# 5 27.5839 15.7889 13.6890 0.0000 51.7910 0.0000
# 6 0.0000 0.0000 0.0000 7.8792 0.0000 27.3898
#
#
#
# Elastic Compliance Matrix: (Units=1/GPa)
#
#
# Indices 1 2 3 4 5 6 
#
# 1 0.019464 -0.002468 0.002167 0.000000 -0.010187 0.000000
# 2 -0.002468 0.011202 -0.004178 0.000000 -0.000996 0.000000
# 3 0.002167 -0.004178 0.021741 0.000000 -0.005627 0.000000
# 4 0.000000 0.000000 0.000000 0.031477 0.000000 -0.009055
# 5 -0.010187 -0.000996 -0.005627 0.000000 0.026525 0.000000
# 6 0.000000 0.000000 0.000000 -0.009055 0.000000 0.039115
#
#
# Mechanical properties :
#
#
# Convention : Reuss Voigt Hill
#
# Bulk Modulus (GPa) = 23.01616 34.88602 28.95109
# Shear Modulus (GPa) = 28.90771 34.59482 31.75126
#
# Velocity S-wave (km/s) = 3.48848 3.81624 3.65603
# Velocity P-wave (km/s) = 5.09071 5.83990 5.47813
#
# Compressibility (1/GPa) = 0.04344773
#
# Stress axis : x y z
#
# Youngs Moduli (GPa) = 51.37742 89.27097 45.99625
#
# Poissons Ratio (x) = 0.22033 -0.09966
# Poissons Ratio (y) = 0.12681 0.19218
# Poissons Ratio (z) = -0.11132 0.37298
#
# Static dielectric constant tensor:
#      x y z
#    x 2.018080 0.000000 -0.075030 
#    y 0.000000 1.986890 0.000000 
#    z -0.075030 0.000000 1.989280 
# 
# From -- ./inp_files/35219.got.cif
#   From: 2010.05.17/outbox.cif.g08.bks.cpg/sg14_18_cif.got.tgz:35219.got - 2010.06.03 17:49:19.
