data_PCOD9247551
_publ_section_title
;
Structure prediction by ZEFSAII (Michael W. Deem and Ramdas Pophale) SiO2 
 PCOD9247551
Probable space group: P 21/C
;
_chemical_formula_sum "Si O2"
_cell_formula_units_Z 22
_cell_length_a 4.991581
_cell_length_b 8.046496
_cell_length_c 18.796416
_cell_angle_alpha 90.000000
_cell_angle_beta 89.931603
_cell_angle_gamma 90.000000
_cell_volume 754.952559
_symmetry_space_group_name_H-M "P 21/C"
_symmetry_group_IT_number 14
_symmetry_cell_setting 'monoclinic'
loop_
_space_group_symop_operation_xyz
x,y,z
-x,1/2+y,1/2-z
-x,-y,-z
x,1/2-y,1/2+z
loop_
_atom_site_type_symbol
_atom_site_label
_atom_site_fract_x
_atom_site_fract_y
_atom_site_fract_z
Si Si1 0.500000 0.500000 0.000000
Si Si2 0.890183 0.635556 0.851699
Si Si3 0.157882 0.445749 0.731507
Si Si4 0.239965 0.673229 0.462142
Si Si5 0.020356 0.329669 0.912146
Si Si6 0.347324 0.435015 0.344232
O O1 0.536272 0.312926 0.034315
O O2 0.773321 0.563568 0.042447
O O3 0.124964 0.541686 0.806568
O O4 0.009647 0.758126 0.909933
O O5 0.785009 0.463941 0.890844
O O6 0.748361 0.760697 0.795769
O O7 0.358987 0.563825 0.687644
O O8 0.847690 0.454305 0.705437
O O9 0.353632 0.512614 0.423359
O O10 0.116384 0.685536 0.540650
O O11 0.188584 0.236242 0.852087
#
# Coordination Sequence:
#
# PCOD9247551 Si02
#       6
#     2   4   4   4   4   4
#     4  10  22  38  68  98 138 190 232 282 370 410
#     4  10  23  47  72 101 150 180 254 290 371 430
#     4  11  26  48  71 110 138 200 233 309 354 438
#     4  10  24  42  69 105 141 193 235 303 360 440
#     4  11  24  45  69 108 139 195 232 310 355 444
#     4  11  27  46  74 106 148 184 249 294 368 429
#
# _framework density 29.140903000000002
#
# number of rings (size 3 to 8) (size 9 to 14) (size 15 to 20)
#    0.000    1.455    0.000    3.818   10.182    6.545 
#    9.818    0.000    0.000    0.000    0.000    0.000 
#    0.000    0.000    0.000    0.000    0.000    0.000 
#
# Total GULP energy -122646.856806 kJ/mol
# GULP energy per Si atom -5574.857128 kJ/mol
# Density = 2.907458 g / cm^3
# Si number density = 29.140903 Si / 1000 Ang^3
#
#
#
# Elastic Constant Matrix: (Units=GPa)
#
#
# Indices 1 2 3 4 5 6 
#
# 1 112.0140 5.3782 6.7574 0.0000 -2.3475 0.0000
# 2 5.3782 80.0403 -24.4161 0.0000 1.4372 0.0000
# 3 6.7574 -24.4161 51.7651 0.0000 16.6905 0.0000
# 4 0.0000 0.0000 0.0000 40.6479 0.0000 4.0656
# 5 -2.3475 1.4372 16.6905 0.0000 19.3019 0.0000
# 6 0.0000 0.0000 0.0000 4.0656 0.0000 59.0765
#
#
#
# Elastic Compliance Matrix: (Units=1/GPa)
#
#
# Indices 1 2 3 4 5 6 
#
# 1 0.009302 -0.001731 -0.003379 0.000000 0.004182 0.000000
# 2 -0.001731 0.016374 0.011661 0.000000 -0.011513 0.000000
# 3 -0.003379 0.011661 0.035596 0.000000 -0.032060 0.000000
# 4 0.000000 0.000000 0.000000 0.024772 0.000000 -0.001705
# 5 0.004182 -0.011513 -0.032060 0.000000 0.080897 0.000000
# 6 0.000000 0.000000 0.000000 -0.001705 0.000000 0.017045
#
#
# Mechanical properties :
#
#
# Convention : Reuss Voigt Hill
#
# Bulk Modulus (GPa) = 13.44542 24.36205 18.90373
# Shear Modulus (GPa) = 25.55257 40.87858 33.21558
#
# Velocity S-wave (km/s) = 2.96440 3.74945 3.37979
# Velocity P-wave (km/s) = 4.04238 5.20795 4.66173
#
# Compressibility (1/GPa) = 0.07437479
#
# Stress axis : x y z
#
# Youngs Moduli (GPa) = 107.50293 61.07244 28.09273
#
# Poissons Ratio (x) = 0.10571 0.09493
# Poissons Ratio (y) = 0.18608 -0.32760
# Poissons Ratio (z) = 0.36327 -0.71218
#
# Static dielectric constant tensor:
#      x y z
#    x 0.933130 0.000000 1.503170 
#    y 0.000000 2.168630 0.000000 
#    z 1.503170 0.000000 0.713600 
# 
# From -- ./inp_files/63078.got.cif
#   From: 2010.05.17/outbox.cif.g08.bks.cpg/sg14_32_cif.got.tgz:63078.got - 2010.06.03 17:49:19.
