data_PCOD9247378
_publ_section_title
;
Structure prediction by ZEFSAII (Michael W. Deem and Ramdas Pophale) SiO2 
 PCOD9247378
Probable space group: P 21/C
;
_chemical_formula_sum "Si O2"
_cell_formula_units_Z 28
_cell_length_a 5.067388
_cell_length_b 24.586099
_cell_length_c 10.108137
_cell_angle_alpha 90.000000
_cell_angle_beta 65.414489
_cell_angle_gamma 90.000000
_cell_volume 1145.174961
_symmetry_space_group_name_H-M "P 21/C"
_symmetry_group_IT_number 14
_symmetry_cell_setting 'monoclinic'
loop_
_space_group_symop_operation_xyz
x,y,z
-x,1/2+y,1/2-z
-x,-y,-z
x,1/2-y,1/2+z
loop_
_atom_site_type_symbol
_atom_site_label
_atom_site_fract_x
_atom_site_fract_y
_atom_site_fract_z
Si Si1 0.826302 0.249964 0.775589
Si Si2 0.489908 0.917796 0.094662
Si Si3 0.818432 0.470805 0.878156
Si Si4 0.014264 0.083749 0.596002
Si Si5 0.123290 0.689974 0.981140
Si Si6 0.681723 0.816715 0.195185
Si Si7 0.503393 0.037439 0.180005
O O1 0.913282 0.244565 0.602688
O O2 0.491247 0.231501 0.845536
O O3 0.023483 0.203948 0.804123
O O4 0.877990 0.300096 0.862419
O O5 0.187162 0.909374 0.234238
O O6 0.693313 0.869322 0.101216
O O7 0.608834 0.977158 0.113338
O O8 0.438057 0.920950 0.949816
O O9 0.643844 0.448781 0.790329
O O10 0.764781 0.535293 0.915039
O O11 0.157908 0.467155 0.766667
O O12 0.820682 0.441180 0.017886
O O13 0.092890 0.142551 0.521362
O O14 0.443383 0.671783 0.861552
#
# Coordination Sequence:
#
# PCOD9247378 Si02
#       7
#     4   4   4   4   4   4   4
#     4  10  22  39  62  85 117 146 202 243 294 343
#     4   9  20  39  62  86 120 161 200 235 298 354
#     4  10  22  40  58  91 125 156 196 245 290 353
#     4   9  20  41  62  88 120 164 195 238 300 363
#     4   9  22  42  61  89 113 160 193 249 292 356
#     4   9  22  38  62  84 114 157 191 240 293 357
#     4  10  22  37  59  90 123 154 198 250 283 348
#
# _framework density 24.450415
#
# number of rings (size 3 to 8) (size 9 to 14) (size 15 to 20)
#    0.857    1.714    0.000    0.000    4.000   11.429 
#    7.714    0.000    0.000    0.000    0.000    0.000 
#    0.000    0.000    0.000    0.000    0.000    0.000 
#
# Total GULP energy -156301.925147 kJ/mol
# GULP energy per Si atom -5582.211612 kJ/mol
# Density = 2.439477 g / cm^3
# Si number density = 24.450415 Si / 1000 Ang^3
#
#
#
# Elastic Constant Matrix: (Units=GPa)
#
#
# Indices 1 2 3 4 5 6 
#
# 1 65.7244 -9.7343 32.9803 0.0000 22.5613 0.0000
# 2 -9.7343 32.0819 2.5795 0.0000 -5.3237 0.0000
# 3 32.9803 2.5795 108.1350 0.0000 12.7823 0.0000
# 4 0.0000 0.0000 0.0000 36.8371 0.0000 4.7409
# 5 22.5613 -5.3237 12.7823 0.0000 21.3337 0.0000
# 6 0.0000 0.0000 0.0000 4.7409 0.0000 13.0817
#
#
#
# Elastic Compliance Matrix: (Units=1/GPa)
#
#
# Indices 1 2 3 4 5 6 
#
# 1 0.026883 0.004614 -0.005472 0.000000 -0.023999 0.000000
# 2 0.004614 0.033663 -0.002827 0.000000 0.005214 0.000000
# 3 -0.005472 -0.002827 0.011175 0.000000 -0.001614 0.000000
# 4 0.000000 0.000000 0.000000 0.028475 0.000000 -0.010319
# 5 -0.023999 0.005214 -0.001614 0.000000 0.074523 0.000000
# 6 0.000000 0.000000 0.000000 -0.010319 0.000000 0.080183
#
#
# Mechanical properties :
#
#
# Convention : Reuss Voigt Hill
#
# Bulk Modulus (GPa) = 15.53975 28.62138 22.08056
# Shear Modulus (GPa) = 17.62303 26.25821 21.94062
#
# Velocity S-wave (km/s) = 2.68762 3.28065 2.99883
# Velocity P-wave (km/s) = 4.00006 5.10701 4.58705
#
# Compressibility (1/GPa) = 0.06435109
#
# Stress axis : x y z
#
# Youngs Moduli (GPa) = 37.19874 29.70639 89.48662
#
# Poissons Ratio (x) = -0.13707 0.48968
# Poissons Ratio (y) = -0.17164 0.25295
# Poissons Ratio (z) = 0.20356 0.08397
#
# Static dielectric constant tensor:
#      x y z
#    x 1.986640 0.000000 -0.031250 
#    y 0.000000 2.028120 0.000000 
#    z -0.031250 0.000000 1.931390 
# 
# From -- ./inp_files/6515.got.cif
#   From: 2010.05.17/outbox.cif.g08.bks.cpg/sg14_4_cif.got.tgz:6515.got - 2010.06.03 17:49:19.
