data_PCOD9247879
_publ_section_title
;
Structure prediction by ZEFSAII (Michael W. Deem and Ramdas Pophale) SiO2 
 PCOD9247879
Probable space group: P 21/C
;
_chemical_formula_sum "Si O2"
_cell_formula_units_Z 28
_cell_length_a 18.182503
_cell_length_b 8.857466
_cell_length_c 14.128718
_cell_angle_alpha 90.000000
_cell_angle_beta 150.301537
_cell_angle_gamma 90.000000
_cell_volume 1127.334828
_symmetry_space_group_name_H-M "P 21/C"
_symmetry_group_IT_number 14
_symmetry_cell_setting 'monoclinic'
loop_
_space_group_symop_operation_xyz
x,y,z
-x,1/2+y,1/2-z
-x,-y,-z
x,1/2-y,1/2+z
loop_
_atom_site_type_symbol
_atom_site_label
_atom_site_fract_x
_atom_site_fract_y
_atom_site_fract_z
Si Si1 0.381347 0.404740 0.806168
Si Si2 0.319649 0.702992 0.653303
Si Si3 0.934293 0.996886 0.818681
Si Si4 0.135814 0.553499 0.216560
Si Si5 0.402795 0.128778 0.947065
Si Si6 0.020177 0.764428 0.764958
Si Si7 0.664106 0.201414 0.530797
O O1 0.285418 0.541072 0.659817
O O2 0.323320 0.257056 0.793523
O O3 0.500000 0.500000 0.000000
O O4 0.495325 0.335384 0.859274
O O5 0.168007 0.796018 0.484453
O O6 0.345281 0.691987 0.570547
O O7 0.464530 0.781392 0.854588
O O8 0.016197 0.127459 0.846880
O O9 0.762179 0.051543 0.630343
O O10 0.934838 0.844873 0.755435
O O11 0.000000 0.000000 0.000000
O O12 0.270599 0.434079 0.363721
O O13 0.064745 0.605414 0.237375
O O14 0.228775 0.700548 0.280905
O O15 0.000000 0.500000 0.000000
O O16 0.500000 0.000000 0.000000
#
# Coordination Sequence:
#
# PCOD9247879 Si02
#       7
#     4   4   4   4   4   4   4
#     4  10  22  40  65 102 137 177 240 298 371 432
#     4   9  23  41  66  91 140 173 239 304 356 431
#     4  10  24  45  75 103 153 201 248 315 391 450
#     4  10  23  43  68 103 148 188 247 306 371 450
#     4  11  22  40  72 103 134 193 242 298 378 439
#     4  10  25  48  70 107 144 200 256 312 381 464
#     4  10  23  44  69  99 141 193 240 303 372 445
#
# _framework density 24.837340999999999
#
# number of rings (size 3 to 8) (size 9 to 14) (size 15 to 20)
#    0.000    2.286    1.429    0.000    8.000    6.857 
#   10.286    0.000    0.000    0.000    0.000    0.000 
#    0.000    0.000    0.000    0.000    0.000    0.000 
#
# Total GULP energy -155872.752804 kJ/mol
# GULP energy per Si atom -5566.884029 kJ/mol
# Density = 2.478081 g / cm^3
# Si number density = 24.837341 Si / 1000 Ang^3
#
#
#
# Elastic Constant Matrix: (Units=GPa)
#
#
# Indices 1 2 3 4 5 6 
#
# 1 67.9193 42.7928 25.9911 0.0000 -13.4157 0.0000
# 2 42.7928 101.7999 38.7535 0.0000 -6.8786 0.0000
# 3 25.9911 38.7535 117.4132 0.0000 -4.0482 0.0000
# 4 0.0000 0.0000 0.0000 38.2307 0.0000 0.1917
# 5 -13.4157 -6.8786 -4.0482 0.0000 36.2728 0.0000
# 6 0.0000 0.0000 0.0000 0.1917 0.0000 66.8116
#
#
#
# Elastic Compliance Matrix: (Units=1/GPa)
#
#
# Indices 1 2 3 4 5 6 
#
# 1 0.021740 -0.007964 -0.001966 0.000000 0.006311 0.000000
# 2 -0.007964 0.014260 -0.002964 0.000000 -0.000572 0.000000
# 3 -0.001966 -0.002964 0.009924 0.000000 -0.000182 0.000000
# 4 0.000000 0.000000 0.000000 0.026157 0.000000 -0.000075
# 5 0.006311 -0.000572 -0.000182 0.000000 0.029774 0.000000
# 6 0.000000 0.000000 0.000000 -0.000075 0.000000 0.014968
#
#
# Mechanical properties :
#
#
# Convention : Reuss Voigt Hill
#
# Bulk Modulus (GPa) = 49.65951 55.80079 52.73015
# Shear Modulus (GPa) = 33.48437 40.23602 36.86020
#
# Velocity S-wave (km/s) = 3.67569 4.02927 3.85653
# Velocity P-wave (km/s) = 6.16860 6.64544 6.41145
#
# Compressibility (1/GPa) = 0.02013713
#
# Stress axis : x y z
#
# Youngs Moduli (GPa) = 45.99834 70.12444 100.76456
#
# Poissons Ratio (x) = 0.55845 0.19814
# Poissons Ratio (y) = 0.36631 0.29863
# Poissons Ratio (z) = 0.09045 0.20782
#
# Static dielectric constant tensor:
#      x y z
#    x 1.894350 0.000000 -0.173630 
#    y 0.000000 2.043630 0.000000 
#    z -0.173630 0.000000 1.965410 
# 
# From -- ./inp_files/50275.got.cif
#   From: 2010.05.17/outbox.cif.g08.bks.cpg/sg14_26_cif.got.tgz:50275.got - 2010.06.03 17:49:19.
