data_PCOD9247842
_publ_section_title
;
Structure prediction by ZEFSAII (Michael W. Deem and Ramdas Pophale) SiO2 
 PCOD9247842
Probable space group: P 21/C
;
_chemical_formula_sum "Si O2"
_cell_formula_units_Z 12
_cell_length_a 8.522422
_cell_length_b 7.272316
_cell_length_c 12.890528
_cell_angle_alpha 90.000000
_cell_angle_beta 150.429933
_cell_angle_gamma 90.000000
_cell_volume 394.259969
_symmetry_space_group_name_H-M "P 21/C"
_symmetry_group_IT_number 14
_symmetry_cell_setting 'monoclinic'
loop_
_space_group_symop_operation_xyz
x,y,z
-x,1/2+y,1/2-z
-x,-y,-z
x,1/2-y,1/2+z
loop_
_atom_site_type_symbol
_atom_site_label
_atom_site_fract_x
_atom_site_fract_y
_atom_site_fract_z
Si Si1 0.720139 0.230550 0.405060
Si Si2 0.221498 0.382269 0.787065
Si Si3 0.192818 0.914146 0.763859
O O1 0.416596 0.208080 0.302874
O O2 0.691728 0.208590 0.266108
O O3 0.892748 0.420517 0.535975
O O4 0.957153 0.067723 0.580619
O O5 0.032280 0.309503 0.782781
O O6 0.500000 0.500000 0.000000
O O7 0.500000 0.000000 0.000000
#
# Coordination Sequence:
#
# PCOD9247842 Si02
#       3
#     4   4   4
#     4  10  22  40  63  95 134 175 223 276 333 402
#     4  10  22  41  68 100 135 178 226 280 341 403
#     4  10  22  41  65  94 130 176 225 276 337 398
#
# _framework density 30.436767
#
# number of rings (size 3 to 8) (size 9 to 14) (size 15 to 20)
#    0.000    2.000    0.000    2.000    0.000    6.667 
#    0.000   10.000    0.000    0.000    0.000    0.000 
#    0.000    0.000    0.000    0.000    0.000    0.000 
#
# Total GULP energy -66916.264798 kJ/mol
# GULP energy per Si atom -5576.355400 kJ/mol
# Density = 3.036749 g / cm^3
# Si number density = 30.436767 Si / 1000 Ang^3
#
#
#
# Elastic Constant Matrix: (Units=GPa)
#
#
# Indices 1 2 3 4 5 6 
#
# 1 404.1761 62.8761 119.9098 0.0000 -17.8142 0.0000
# 2 62.8761 56.5571 46.5945 0.0000 -16.0685 0.0000
# 3 119.9098 46.5945 155.2135 0.0000 -16.5518 0.0000
# 4 0.0000 0.0000 0.0000 84.2682 0.0000 -4.7204
# 5 -17.8142 -16.0685 -16.5518 0.0000 70.6207 0.0000
# 6 0.0000 0.0000 0.0000 -4.7204 0.0000 53.8512
#
#
#
# Elastic Compliance Matrix: (Units=1/GPa)
#
#
# Indices 1 2 3 4 5 6 
#
# 1 0.003395 -0.002171 -0.001982 0.000000 -0.000102 0.000000
# 2 -0.002171 0.025909 -0.005672 0.000000 0.004018 0.000000
# 3 -0.001982 -0.005672 0.009729 0.000000 0.000490 0.000000
# 4 0.000000 0.000000 0.000000 0.011925 0.000000 0.001045
# 5 -0.000102 0.004018 0.000490 0.000000 0.015163 0.000000
# 6 0.000000 0.000000 0.000000 0.001045 0.000000 0.018661
#
#
# Mechanical properties :
#
#
# Convention : Reuss Voigt Hill
#
# Bulk Modulus (GPa) = 51.59158 119.41194 85.50176
# Shear Modulus (GPa) = 45.08719 67.51913 56.30316
#
# Velocity S-wave (km/s) = 3.85299 4.71504 4.30564
# Velocity P-wave (km/s) = 6.06476 8.30422 7.27122
#
# Compressibility (1/GPa) = 0.01938301
#
# Stress axis : x y z
#
# Youngs Moduli (GPa) = 294.50814 38.59630 102.78194
#
# Poissons Ratio (x) = 0.08378 0.20376
# Poissons Ratio (y) = 0.63926 0.58303
# Poissons Ratio (z) = 0.58385 0.21894
#
# Static dielectric constant tensor:
#      x y z
#    x 2.189540 0.000000 -0.041540 
#    y 0.000000 2.999490 0.000000 
#    z -0.041540 0.000000 2.281200 
# 
# From -- ./inp_files/4740.got.cif
#   From: 2010.05.17/outbox.cif.g08.bks.cpg/sg14_3_cif.got.tgz:4740.got - 2010.06.03 17:49:19.
