data_PCOD9247622
_publ_section_title
;
Structure prediction by ZEFSAII (Michael W. Deem and Ramdas Pophale) SiO2 
 PCOD9247622
Probable space group: P 21/C
;
_chemical_formula_sum "Si O2"
_cell_formula_units_Z 26
_cell_length_a 9.035110
_cell_length_b 9.041646
_cell_length_c 18.264367
_cell_angle_alpha 90.000000
_cell_angle_beta 132.299167
_cell_angle_gamma 90.000000
_cell_volume 1103.586744
_symmetry_space_group_name_H-M "P 21/C"
_symmetry_group_IT_number 14
_symmetry_cell_setting 'monoclinic'
loop_
_space_group_symop_operation_xyz
x,y,z
-x,1/2+y,1/2-z
-x,-y,-z
x,1/2-y,1/2+z
loop_
_atom_site_type_symbol
_atom_site_label
_atom_site_fract_x
_atom_site_fract_y
_atom_site_fract_z
Si Si1 0.784942 0.426680 0.981863
Si Si2 0.032568 0.274327 0.651070
Si Si3 0.659077 0.869284 0.634736
Si Si4 0.000000 0.500000 0.500000
Si Si5 0.717124 0.223932 0.667264
Si Si6 0.273676 0.255190 0.499308
Si Si7 0.163103 0.708549 0.625774
O O1 0.580643 0.358381 0.946685
O O2 0.808876 0.354592 0.910886
O O3 0.969060 0.383278 0.095459
O O4 0.750910 0.600037 0.967102
O O5 0.000133 0.381598 0.572567
O O6 0.875722 0.297253 0.665566
O O7 0.244812 0.300614 0.760384
O O8 0.745669 0.785988 0.592639
O O9 0.702278 0.046241 0.645538
O O10 0.766319 0.432897 0.394545
O O11 0.500610 0.300449 0.587095
O O12 0.781682 0.228123 0.773081
O O13 0.077964 0.345118 0.461033
#
# Coordination Sequence:
#
# PCOD9247622 Si02
#       7
#     4   4   4   2   4   4   4
#     4  10  22  39  61  94 123 164 209 259 317 375
#     4  11  20  38  68  87 128 166 206 260 322 380
#     4  11  20  38  67  90 124 167 211 257 318 380
#     4  10  24  40  58  90 130 168 194 260 336 364
#     4  11  21  39  64  93 120 168 216 256 313 385
#     4  11  21  39  65  92 121 159 219 264 306 377
#     4  11  23  39  63  87 131 162 211 262 320 375
#
# _framework density 23.559543000000001
#
# number of rings (size 3 to 8) (size 9 to 14) (size 15 to 20)
#    0.000    1.231    6.154    1.385    0.000    2.462 
#    0.000    0.769   10.154    0.000    0.000    0.000 
#    0.000    0.000    0.000    0.000    0.000    0.000 
#
# Total GULP energy -144919.566348 kJ/mol
# GULP energy per Si atom -5573.829475 kJ/mol
# Density = 2.350592 g / cm^3
# Si number density = 23.559543 Si / 1000 Ang^3
#
#
#
# Elastic Constant Matrix: (Units=GPa)
#
#
# Indices 1 2 3 4 5 6 
#
# 1 68.9779 17.9989 40.3249 0.0000 -21.3146 0.0000
# 2 17.9989 33.6103 1.8094 0.0000 -0.4488 0.0000
# 3 40.3249 1.8094 139.5046 0.0000 -29.3800 0.0000
# 4 0.0000 0.0000 0.0000 17.9143 0.0000 -0.8241
# 5 -21.3146 -0.4488 -29.3800 0.0000 50.7249 0.0000
# 6 0.0000 0.0000 0.0000 -0.8241 0.0000 28.5942
#
#
#
# Elastic Compliance Matrix: (Units=1/GPa)
#
#
# Indices 1 2 3 4 5 6 
#
# 1 0.022443 -0.011664 -0.004979 0.000000 0.006443 0.000000
# 2 -0.011664 0.035836 0.002211 0.000000 -0.003304 0.000000
# 3 -0.004979 0.002211 0.009273 0.000000 0.003299 0.000000
# 4 0.000000 0.000000 0.000000 0.055895 0.000000 0.001611
# 5 0.006443 -0.003304 0.003299 0.000000 0.024303 0.000000
# 6 0.000000 0.000000 0.000000 0.001611 0.000000 0.035019
#
#
# Mechanical properties :
#
#
# Convention : Reuss Voigt Hill
#
# Bulk Modulus (GPa) = 25.84793 40.26217 33.05505
# Shear Modulus (GPa) = 22.26872 31.57731 26.92302
#
# Velocity S-wave (km/s) = 3.07776 3.66501 3.38415
# Velocity P-wave (km/s) = 4.86059 5.91915 5.41579
#
# Compressibility (1/GPa) = 0.03868782
#
# Stress axis : x y z
#
# Youngs Moduli (GPa) = 44.55750 27.90478 107.83467
#
# Poissons Ratio (x) = 0.32550 0.53691
# Poissons Ratio (y) = 0.51974 -0.23844
# Poissons Ratio (z) = 0.22185 -0.06170
#
# Static dielectric constant tensor:
#      x y z
#    x 1.972820 0.000000 0.026930 
#    y 0.000000 2.000490 0.000000 
#    z 0.026930 0.000000 1.902930 
# 
# From -- ./inp_files/39850.got.cif
#   From: 2010.05.17/outbox.cif.g08.bks.cpg/sg14_20_cif.got.tgz:39850.got - 2010.06.03 17:49:19.
