data_PCOD9247671
_publ_section_title
;
Structure prediction by ZEFSAII (Michael W. Deem and Ramdas Pophale) SiO2 
 PCOD9247671
Probable space group: P 21/C
;
_chemical_formula_sum "Si O2"
_cell_formula_units_Z 32
_cell_length_a 14.499118
_cell_length_b 13.957013
_cell_length_c 12.752087
_cell_angle_alpha 90.000000
_cell_angle_beta 142.291311
_cell_angle_gamma 90.000000
_cell_volume 1578.396834
_symmetry_space_group_name_H-M "P 21/C"
_symmetry_group_IT_number 14
_symmetry_cell_setting 'monoclinic'
loop_
_space_group_symop_operation_xyz
x,y,z
-x,1/2+y,1/2-z
-x,-y,-z
x,1/2-y,1/2+z
loop_
_atom_site_type_symbol
_atom_site_label
_atom_site_fract_x
_atom_site_fract_y
_atom_site_fract_z
Si Si1 0.249237 0.131596 0.931842
Si Si2 0.980975 0.389652 0.449387
Si Si3 0.276946 0.585803 0.453421
Si Si4 0.751621 0.755813 0.862270
Si Si5 0.737112 0.222588 0.868677
Si Si6 0.956990 0.931435 0.560586
Si Si7 0.503817 0.185103 0.001172
Si Si8 0.092523 0.610990 0.862422
O O1 0.271272 0.211553 0.039058
O O2 0.370465 0.141838 0.950766
O O3 0.074028 0.138436 0.743945
O O4 0.268182 0.022504 0.987121
O O5 0.870595 0.331982 0.427084
O O6 0.918886 0.382457 0.273619
O O7 0.000000 0.500000 0.500000
O O8 0.142137 0.336597 0.593489
O O9 0.313259 0.653088 0.583508
O O10 0.112923 0.606113 0.253043
O O11 0.398561 0.606446 0.472704
O O12 0.588742 0.748368 0.664334
O O13 0.846015 0.656749 0.939035
O O14 0.612673 0.253565 0.672998
O O15 0.794494 0.317473 0.979843
O O16 0.000000 0.000000 0.500000
O O17 0.880902 0.002856 0.576033
#
# Coordination Sequence:
#
# PCOD9247671 Si02
#       8
#     4   4   4   4   4   4   4   4
#     4  10  22  40  61  88 121 161 205 256 308 364
#     4  11  23  42  68  93 121 159 202 257 314 369
#     4  11  23  41  62  90 123 160 210 260 307 370
#     4  11  23  41  62  92 126 161 205 253 310 373
#     4  12  23  41  63  90 125 163 203 252 310 371
#     4  11  21  39  67  96 123 159 210 266 311 362
#     4  12  24  39  60  87 125 169 204 250 307 368
#     4  10  22  39  64  94 120 156 209 258 307 367
#
# _framework density 20.273736
#
# number of rings (size 3 to 8) (size 9 to 14) (size 15 to 20)
#    0.000    1.000    0.000   10.125    0.000    2.000 
#    0.000    3.750    0.000    0.000    0.000    0.000 
#    0.000    0.000    0.000    0.000    0.000    0.000 
#
# Total GULP energy -178878.068762 kJ/mol
# GULP energy per Si atom -5589.939649 kJ/mol
# Density = 2.022759 g / cm^3
# Si number density = 20.273736 Si / 1000 Ang^3
#
#
#
# Elastic Constant Matrix: (Units=GPa)
#
#
# Indices 1 2 3 4 5 6 
#
# 1 76.2064 6.6929 -0.3173 0.0000 -15.7008 0.0000
# 2 6.6929 73.4246 45.2027 0.0000 -6.1286 0.0000
# 3 -0.3173 45.2027 97.8923 0.0000 -14.9961 0.0000
# 4 0.0000 0.0000 0.0000 14.9220 0.0000 -12.3959
# 5 -15.7008 -6.1286 -14.9961 0.0000 16.7125 0.0000
# 6 0.0000 0.0000 0.0000 -12.3959 0.0000 28.6364
#
#
#
# Elastic Compliance Matrix: (Units=1/GPa)
#
#
# Indices 1 2 3 4 5 6 
#
# 1 0.017281 -0.002537 0.004141 0.000000 0.019021 0.000000
# 2 -0.002537 0.019417 -0.009563 0.000000 -0.003844 0.000000
# 3 0.004141 -0.009563 0.017047 0.000000 0.015680 0.000000
# 4 0.000000 0.000000 0.000000 0.104645 0.000000 0.045298
# 5 0.019021 -0.003844 0.015680 0.000000 0.090365 0.000000
# 6 0.000000 0.000000 0.000000 0.045298 0.000000 0.054529
#
#
# Mechanical properties :
#
#
# Convention : Reuss Voigt Hill
#
# Bulk Modulus (GPa) = 26.43613 38.96441 32.70027
# Shear Modulus (GPa) = 15.06883 25.11718 20.09300
#
# Velocity S-wave (km/s) = 2.72925 3.52362 3.15157
# Velocity P-wave (km/s) = 4.79580 5.98460 5.42287
#
# Compressibility (1/GPa) = 0.03782702
#
# Stress axis : x y z
#
# Youngs Moduli (GPa) = 57.86635 51.50056 58.66272
#
# Poissons Ratio (x) = 0.13067 -0.24294
# Poissons Ratio (y) = 0.14682 0.56100
# Poissons Ratio (z) = -0.23965 0.49251
#
# Static dielectric constant tensor:
#      x y z
#    x 1.759850 0.000000 -0.025520 
#    y 0.000000 1.721460 0.000000 
#    z -0.025520 0.000000 1.712450 
# 
# From -- ./inp_files/32781.got.cif
#   From: 2010.05.17/outbox.cif.g08.bks.cpg/sg14_17_cif.got.tgz:32781.got - 2010.06.03 17:49:19.
