data_PCOD9247934
_publ_section_title
;
Structure prediction by ZEFSAII (Michael W. Deem and Ramdas Pophale) SiO2 
 PCOD9247934
Probable space group: P 21/C
;
_chemical_formula_sum "Si O2"
_cell_formula_units_Z 28
_cell_length_a 10.431563
_cell_length_b 17.482060
_cell_length_c 11.453574
_cell_angle_alpha 90.000000
_cell_angle_beta 143.706225
_cell_angle_gamma 90.000000
_cell_volume 1236.374818
_symmetry_space_group_name_H-M "P 21/C"
_symmetry_group_IT_number 14
_symmetry_cell_setting 'monoclinic'
loop_
_space_group_symop_operation_xyz
x,y,z
-x,1/2+y,1/2-z
-x,-y,-z
x,1/2-y,1/2+z
loop_
_atom_site_type_symbol
_atom_site_label
_atom_site_fract_x
_atom_site_fract_y
_atom_site_fract_z
Si Si1 0.514910 0.773634 0.653040
Si Si2 0.042880 0.798567 0.408505
Si Si3 0.202328 0.119463 0.980015
Si Si4 0.222888 0.971006 0.279866
Si Si5 0.535192 0.004059 0.310188
Si Si6 0.779854 0.865975 0.405537
Si Si7 0.211957 0.152247 0.315403
O O1 0.283214 0.791633 0.535990
O O2 0.695058 0.815348 0.864707
O O3 0.586428 0.685440 0.708934
O O4 0.560313 0.811174 0.560332
O O5 0.995243 0.845220 0.491795
O O6 0.962538 0.711391 0.363032
O O7 0.885730 0.841620 0.201256
O O8 0.395132 0.057297 0.123102
O O9 0.997383 0.075184 0.883261
O O10 0.368547 0.956246 0.271854
O O11 0.335484 0.954445 0.488691
O O12 0.192775 0.063727 0.263663
O O13 0.697778 0.952660 0.355097
O O14 0.809570 0.844350 0.562077
#
# Coordination Sequence:
#
# PCOD9247934 Si02
#       7
#     4   4   4   4   4   4   4
#     4  11  24  43  70  96 137 177 221 277 333 395
#     4  11  26  43  66 100 140 177 217 279 342 405
#     4  12  23  41  66 102 131 180 217 278 334 404
#     4  10  22  40  71 102 131 171 234 286 323 389
#     4  10  22  40  67 100 136 173 223 281 330 391
#     4  10  24  45  66 102 136 176 223 273 340 405
#     4  10  22  46  68 100 129 174 235 274 328 398
#
# _framework density 22.646854000000001
#
# number of rings (size 3 to 8) (size 9 to 14) (size 15 to 20)
#    0.000    1.429    2.857    1.286    6.000    2.857 
#    0.000    6.429    0.000    0.000    0.000    0.000 
#    0.000    0.000    0.000    0.000    0.000    0.000 
#
# Total GULP energy -156390.412229 kJ/mol
# GULP energy per Si atom -5585.371865 kJ/mol
# Density = 2.259531 g / cm^3
# Si number density = 22.646854 Si / 1000 Ang^3
#
#
#
# Elastic Constant Matrix: (Units=GPa)
#
#
# Indices 1 2 3 4 5 6 
#
# 1 104.5002 4.7194 30.9135 0.0000 14.4362 0.0000
# 2 4.7194 56.6714 8.0759 0.0000 14.5130 0.0000
# 3 30.9135 8.0759 78.3674 0.0000 14.4775 0.0000
# 4 0.0000 0.0000 0.0000 2.6486 0.0000 11.5472
# 5 14.4362 14.5130 14.4775 0.0000 36.0509 0.0000
# 6 0.0000 0.0000 0.0000 11.5472 0.0000 30.9897
#
#
#
# Elastic Compliance Matrix: (Units=1/GPa)
#
#
# Indices 1 2 3 4 5 6 
#
# 1 0.011117 0.000410 -0.003861 0.000000 -0.003066 0.000000
# 2 0.000410 0.019716 -0.000753 0.000000 -0.007799 0.000000
# 3 -0.003861 -0.000753 0.015143 0.000000 -0.004232 0.000000
# 4 0.000000 0.000000 0.000000 -0.604591 0.000000 0.225278
# 5 -0.003066 -0.007799 -0.004232 0.000000 0.033805 0.000000
# 6 0.000000 0.000000 0.000000 0.225278 0.000000 -0.051673
#
#
# Mechanical properties :
#
#
# Convention : Reuss Voigt Hill
#
# Bulk Modulus (GPa) = 26.61878 36.32850 31.47364
# Shear Modulus (GPa) = -9.00004 26.99318 8.99657
#
# Velocity S-wave (km/s) = -1.99567 3.45616 1.99529
# Velocity P-wave (km/s) = 2.54344 5.65711 4.38588
#
# Compressibility (1/GPa) = 0.03756746
#
# Stress axis : x y z
#
# Youngs Moduli (GPa) = 89.95590 50.72033 66.03789
#
# Poissons Ratio (x) = -0.02078 0.25497
# Poissons Ratio (y) = -0.03685 0.04970
# Poissons Ratio (z) = 0.34732 0.03817
#
# Static dielectric constant tensor:
#      x y z
#    x 1.893050 0.000000 -0.007110 
#    y 0.000000 1.896840 0.000000 
#    z -0.007110 0.000000 1.884420 
# 
# From -- ./inp_files/26859.got.cif
#   From: 2010.05.17/outbox.cif.g08.bks.cpg/sg14_14_cif.got.tgz:26859.got - 2010.06.03 17:49:19.
