data_PCOD9247553
_publ_section_title
;
Structure prediction by ZEFSAII (Michael W. Deem and Ramdas Pophale) SiO2 
 PCOD9247553
Probable space group: P 21/C
;
_chemical_formula_sum "Si O2"
_cell_formula_units_Z 24
_cell_length_a 5.024614
_cell_length_b 8.828903
_cell_length_c 19.990655
_cell_angle_alpha 90.000000
_cell_angle_beta 94.883431
_cell_angle_gamma 90.000000
_cell_volume 883.602828
_symmetry_space_group_name_H-M "P 21/C"
_symmetry_group_IT_number 14
_symmetry_cell_setting 'monoclinic'
loop_
_space_group_symop_operation_xyz
x,y,z
-x,1/2+y,1/2-z
-x,-y,-z
x,1/2-y,1/2+z
loop_
_atom_site_type_symbol
_atom_site_label
_atom_site_fract_x
_atom_site_fract_y
_atom_site_fract_z
Si Si1 0.581348 0.673626 0.494404
Si Si2 0.850795 0.808005 0.862201
Si Si3 0.502566 0.807423 0.718156
Si Si4 0.812356 0.972634 0.199475
Si Si5 0.912246 0.351928 0.955661
Si Si6 0.061793 0.508116 0.828629
O O1 0.500000 0.500000 0.500000
O O2 0.644045 0.692761 0.417443
O O3 0.357370 0.782467 0.520465
O O4 0.860038 0.724589 0.533044
O O5 0.677565 0.796248 0.790904
O O6 0.037336 0.661963 0.870625
O O7 0.046980 0.951674 0.859945
O O8 0.255010 0.898945 0.745215
O O9 0.567413 0.642386 0.686962
O O10 0.658060 0.923828 0.673497
O O11 0.043396 0.910122 0.252985
O O12 0.900260 0.395941 0.877099
O O13 0.000000 0.500000 0.000000
#
# Coordination Sequence:
#
# PCOD9247553 Si02
#       6
#     4   4   4   4   4   4
#     4  12  29  49  75 110 151 197 249 311 376 439
#     4  10  23  43  65  96 141 183 238 299 364 435
#     4  10  22  38  69  96 135 182 233 302 362 436
#     4  10  22  40  65 103 136 184 234 298 376 427
#     4  12  27  49  77 108 144 202 251 301 369 448
#     4  10  23  42  67  99 138 181 246 298 357 443
#
# _framework density 27.161525000000001
#
# number of rings (size 3 to 8) (size 9 to 14) (size 15 to 20)
#    0.000    1.333    1.667    2.000    7.000    4.000 
#    0.000    0.000    0.000    0.000    0.000    0.000 
#    0.000    0.000    0.000    0.000    0.000    0.000 
#
# Total GULP energy -134033.930362 kJ/mol
# GULP energy per Si atom -5584.747098 kJ/mol
# Density = 2.709970 g / cm^3
# Si number density = 27.161525 Si / 1000 Ang^3
#
#
#
# Elastic Constant Matrix: (Units=GPa)
#
#
# Indices 1 2 3 4 5 6 
#
# 1 143.9635 41.5446 25.9333 0.0000 -20.4540 0.0000
# 2 41.5446 121.7456 4.6286 0.0000 -11.9127 0.0000
# 3 25.9333 4.6286 80.5134 0.0000 -35.2935 0.0000
# 4 0.0000 0.0000 0.0000 -173.1448 0.0000-1878.8554
# 5 -20.4540 -11.9127 -35.2935 0.0000 49.3368 0.0000
# 6 0.0000 0.0000 0.0000-1878.8554 0.0000**********
#
#
#
# Elastic Compliance Matrix: (Units=1/GPa)
#
#
# Indices 1 2 3 4 5 6 
#
# 1 0.008239 -0.002598 -0.001868 0.000000 0.001452 0.000000
# 2 -0.002598 0.009252 0.001183 0.000000 0.002003 0.000000
# 3 -0.001868 0.001183 0.018560 0.000000 0.012788 0.000000
# 4 0.000000 0.000000 0.000000 0.020830 0.000000 -0.002452
# 5 0.001452 0.002003 0.012788 0.000000 0.030503 0.000000
# 6 0.000000 0.000000 0.000000 -0.002452 0.000000 0.000226
#
#
# Mechanical properties :
#
#
# Convention : Reuss Voigt Hill
#
# Bulk Modulus (GPa) = 33.91689 54.49282 44.20485
# Shear Modulus (GPa) = 48.07587 -3198.93716 -1575.43065
#
# Velocity S-wave (km/s) = 4.21170 -34.35553 -24.10979
# Velocity P-wave (km/s) = 6.01377 39.41612 27.54510
#
# Compressibility (1/GPa) = 0.02948383
#
# Stress axis : x y z
#
# Youngs Moduli (GPa) = 121.37705 108.09044 53.88040
#
# Poissons Ratio (x) = 0.28085 0.10064
# Poissons Ratio (y) = 0.31538 -0.06374
# Poissons Ratio (z) = 0.22671 -0.12788
#
# Static dielectric constant tensor:
#      x y z
#    x 3.018500 0.000000 0.538040 
#    y 0.000000 2.254080 0.000000 
#    z 0.538040 0.000000 2.406630 
# 
# From -- ./inp_files/70970.got.cif
#   From: 2010.05.17/outbox.cif.g08.bks.cpg/sg14_36_cif.got.tgz:70970.got - 2010.06.03 17:49:19.
