data_PCOD9247713
_publ_section_title
;
Structure prediction by ZEFSAII (Michael W. Deem and Ramdas Pophale) SiO2 
 PCOD9247713
Probable space group: P 21/C
;
_chemical_formula_sum "Si O2"
_cell_formula_units_Z 20
_cell_length_a 11.611977
_cell_length_b 7.206102
_cell_length_c 9.134020
_cell_angle_alpha 90.000000
_cell_angle_beta 78.751628
_cell_angle_gamma 90.000000
_cell_volume 749.626488
_symmetry_space_group_name_H-M "P 21/C"
_symmetry_group_IT_number 14
_symmetry_cell_setting 'monoclinic'
loop_
_space_group_symop_operation_xyz
x,y,z
-x,1/2+y,1/2-z
-x,-y,-z
x,1/2-y,1/2+z
loop_
_atom_site_type_symbol
_atom_site_label
_atom_site_fract_x
_atom_site_fract_y
_atom_site_fract_z
Si Si1 0.995041 0.352297 0.870542
Si Si2 0.358694 0.761247 0.216519
Si Si3 0.859167 0.056697 0.103362
Si Si4 0.515991 0.718306 0.438055
Si Si5 0.769207 0.862362 0.858901
O O1 0.923379 0.423365 0.745216
O O2 0.122833 0.309821 0.771374
O O3 0.929969 0.182731 0.966935
O O4 0.000000 0.500000 0.000000
O O5 0.268132 0.637886 0.326996
O O6 0.475658 0.766879 0.285353
O O7 0.286667 0.948445 0.196144
O O8 0.414510 0.680990 0.055417
O O9 0.826067 0.889204 0.003396
O O10 0.500000 0.500000 0.500000
O O11 0.653612 0.760772 0.410997
#
# Coordination Sequence:
#
# PCOD9247713 Si02
#       5
#     4   4   4   4   4
#     4  12  24  41  68 101 126 178 218 265 335 387
#     4  11  19  41  67  92 126 168 215 265 320 382
#     4  12  22  42  69  96 134 171 220 271 321 396
#     4  10  22  39  66  94 126 169 215 265 326 382
#     4  11  24  43  67  96 136 171 217 271 326 383
#
# _framework density 26.679952
#
# number of rings (size 3 to 8) (size 9 to 14) (size 15 to 20)
#    0.000    0.800    8.000    0.600    0.000    1.600 
#    0.000    6.000    0.000    0.000    0.000    0.000 
#    0.000    0.000    0.000    0.000    0.000    0.000 
#
# Total GULP energy -111824.816688 kJ/mol
# GULP energy per Si atom -5591.240834 kJ/mol
# Density = 2.661923 g / cm^3
# Si number density = 26.679952 Si / 1000 Ang^3
#
#
#
# Elastic Constant Matrix: (Units=GPa)
#
#
# Indices 1 2 3 4 5 6 
#
# 1 200.5382 36.4659 75.3252 0.0000 -6.8390 0.0000
# 2 36.4659 71.9701 50.8037 0.0000 15.3930 0.0000
# 3 75.3252 50.8037 177.2541 0.0000 13.3583 0.0000
# 4 0.0000 0.0000 0.0000 48.3238 0.0000 7.6665
# 5 -6.8390 15.3930 13.3583 0.0000 85.2630 0.0000
# 6 0.0000 0.0000 0.0000 7.6665 0.0000 31.5699
#
#
#
# Elastic Compliance Matrix: (Units=1/GPa)
#
#
# Indices 1 2 3 4 5 6 
#
# 1 0.006183 -0.001838 -0.002189 0.000000 0.001171 0.000000
# 2 -0.001838 0.018461 -0.004298 0.000000 -0.002807 0.000000
# 3 -0.002189 -0.004298 0.007851 0.000000 -0.000630 0.000000
# 4 0.000000 0.000000 0.000000 0.021523 0.000000 -0.005227
# 5 0.001171 -0.002807 -0.000630 0.000000 0.012428 0.000000
# 6 0.000000 0.000000 0.000000 -0.005227 0.000000 0.032945
#
#
# Mechanical properties :
#
#
# Convention : Reuss Voigt Hill
#
# Bulk Modulus (GPa) = 63.11549 86.10577 74.61063
# Shear Modulus (GPa) = 41.21250 52.17585 46.69417
#
# Velocity S-wave (km/s) = 3.93453 4.42704 4.18803
# Velocity P-wave (km/s) = 6.65947 7.64691 7.17021
#
# Compressibility (1/GPa) = 0.01584397
#
# Stress axis : x y z
#
# Youngs Moduli (GPa) = 161.73619 54.16949 127.36809
#
# Poissons Ratio (x) = 0.09956 0.27879
# Poissons Ratio (y) = 0.29727 0.54749
# Poissons Ratio (z) = 0.35402 0.23285
#
# Static dielectric constant tensor:
#      x y z
#    x 2.060650 0.000000 -0.034480 
#    y 0.000000 2.470310 0.000000 
#    z -0.034480 0.000000 2.087240 
# 
# From -- ./inp_files/11772.got.cif
#   From: 2010.05.17/outbox.cif.g08.bks.cpg/sg14_6_cif.got.tgz:11772.got - 2010.06.03 17:49:19.
