data_PCOD9247516
_publ_section_title
;
Structure prediction by ZEFSAII (Michael W. Deem and Ramdas Pophale) SiO2 
 PCOD9247516
Probable space group: P 21/C
;
_chemical_formula_sum "Si O2"
_cell_formula_units_Z 32
_cell_length_a 17.352893
_cell_length_b 9.298726
_cell_length_c 11.963199
_cell_angle_alpha 90.000000
_cell_angle_beta 53.767043
_cell_angle_gamma 90.000000
_cell_volume 1557.083487
_symmetry_space_group_name_H-M "P 21/C"
_symmetry_group_IT_number 14
_symmetry_cell_setting 'monoclinic'
loop_
_space_group_symop_operation_xyz
x,y,z
-x,1/2+y,1/2-z
-x,-y,-z
x,1/2-y,1/2+z
loop_
_atom_site_type_symbol
_atom_site_label
_atom_site_fract_x
_atom_site_fract_y
_atom_site_fract_z
Si Si1 0.624809 0.391385 0.083100
Si Si2 0.820433 0.007606 0.376424
Si Si3 0.311983 0.586411 0.402265
Si Si4 0.957717 0.856491 0.088734
Si Si5 0.045551 0.093920 0.557105
Si Si6 0.442035 0.864795 0.592336
Si Si7 0.474847 0.430153 0.399846
Si Si8 0.888715 0.179738 0.865516
O O1 0.672916 0.259523 0.106103
O O2 0.547841 0.460607 0.232918
O O3 0.706708 0.500772 0.975737
O O4 0.592469 0.308787 0.998290
O O5 0.871810 0.905703 0.242971
O O6 0.861779 0.967621 0.462040
O O7 0.851599 0.175258 0.336197
O O8 0.357899 0.567108 0.240478
O O9 0.374613 0.491350 0.436130
O O10 0.199202 0.578089 0.522251
O O11 0.043927 0.785592 0.086449
O O12 0.929599 0.748021 0.015938
O O13 0.000000 0.000000 0.000000
O O14 0.962265 0.103220 0.720299
O O15 0.000000 0.000000 0.500000
O O16 0.505799 0.741483 0.596951
O O17 0.500000 0.000000 0.500000
O O18 0.500000 0.500000 0.500000
#
# Coordination Sequence:
#
# PCOD9247516 Si02
#       8
#     4   4   4   4   4   4   4   4
#     4  10  22  41  66  96 127 168 220 266 327 389
#     4  10  22  40  64  97 126 165 219 269 315 395
#     4  10  22  39  66  96 124 168 224 265 319 396
#     4  11  22  39  65  91 126 168 209 265 328 381
#     4  11  22  40  65  91 133 169 209 270 330 379
#     4  11  22  40  67  89 130 170 210 269 335 383
#     4  11  22  41  67  95 128 168 218 271 323 393
#     4  10  22  38  64  96 122 167 225 260 315 394
#
# _framework density 20.551241999999998
#
# number of rings (size 3 to 8) (size 9 to 14) (size 15 to 20)
#    0.000    1.500    5.000    0.000    1.750    1.000 
#    0.000    3.750    0.000    0.000    0.000    0.000 
#    0.000    0.000    0.000    0.000    0.000    0.000 
#
# Total GULP energy -178225.009398 kJ/mol
# GULP energy per Si atom -5569.531544 kJ/mol
# Density = 2.050447 g / cm^3
# Si number density = 20.551242 Si / 1000 Ang^3
#
#
#
# Elastic Constant Matrix: (Units=GPa)
#
#
# Indices 1 2 3 4 5 6 
#
# 1 51.7920 9.4341 43.2055 0.0000 -15.2396 0.0000
# 2 9.4341 56.8847 17.0884 0.0000 -9.0632 0.0000
# 3 43.2055 17.0884 100.7945 0.0000 -3.8064 0.0000
# 4 0.0000 0.0000 0.0000 24.8367 0.0000 10.4732
# 5 -15.2396 -9.0632 -3.8064 0.0000 32.3453 0.0000
# 6 0.0000 0.0000 0.0000 10.4732 0.0000 37.8179
#
#
#
# Elastic Compliance Matrix: (Units=1/GPa)
#
#
# Indices 1 2 3 4 5 6 
#
# 1 0.036389 0.001018 -0.015180 0.000000 0.015643 0.000000
# 2 0.001018 0.019338 -0.003508 0.000000 0.005485 0.000000
# 3 -0.015180 -0.003508 0.016790 0.000000 -0.006159 0.000000
# 4 0.000000 0.000000 0.000000 0.045587 0.000000 -0.012625
# 5 0.015643 0.005485 -0.006159 0.000000 0.039099 0.000000
# 6 0.000000 0.000000 0.000000 -0.012625 0.000000 0.029939
#
#
# Mechanical properties :
#
#
# Convention : Reuss Voigt Hill
#
# Bulk Modulus (GPa) = 26.89797 38.76970 32.83383
# Shear Modulus (GPa) = 21.28802 28.31620 24.80211
#
# Velocity S-wave (km/s) = 3.22195 3.71595 3.47773
# Velocity P-wave (km/s) = 5.19211 6.10875 5.66899
#
# Compressibility (1/GPa) = 0.03717753
#
# Stress axis : x y z
#
# Youngs Moduli (GPa) = 27.48090 51.71083 59.55899
#
# Poissons Ratio (x) = -0.05262 0.90410
# Poissons Ratio (y) = -0.02796 0.20891
# Poissons Ratio (z) = 0.41716 0.18138
#
# Static dielectric constant tensor:
#      x y z
#    x 1.708350 0.000000 -0.113780 
#    y 0.000000 1.761000 0.000000 
#    z -0.113780 0.000000 1.629490 
# 
# From -- ./inp_files/34962.got.cif
#   From: 2010.05.17/outbox.cif.g08.bks.cpg/sg14_18_cif.got.tgz:34962.got - 2010.06.03 17:49:19.
