data_PCOD9247078
_publ_section_title
;
Structure prediction by ZEFSAII (Michael W. Deem and Ramdas Pophale) SiO2 
 PCOD9247078
Probable space group: P 21/C
;
_chemical_formula_sum "Si O2"
_cell_formula_units_Z 20
_cell_length_a 18.749033
_cell_length_b 8.422570
_cell_length_c 14.665944
_cell_angle_alpha 90.000000
_cell_angle_beta 158.471596
_cell_angle_gamma 90.000000
_cell_volume 849.875144
_symmetry_space_group_name_H-M "P 21/C"
_symmetry_group_IT_number 14
_symmetry_cell_setting 'monoclinic'
loop_
_space_group_symop_operation_xyz
x,y,z
-x,1/2+y,1/2-z
-x,-y,-z
x,1/2-y,1/2+z
loop_
_atom_site_type_symbol
_atom_site_label
_atom_site_fract_x
_atom_site_fract_y
_atom_site_fract_z
Si Si1 0.635243 0.348247 0.191720
Si Si2 0.009155 0.458028 0.404417
Si Si3 0.302578 0.915873 0.889218
Si Si4 0.114575 0.116377 0.516769
Si Si5 0.332108 0.581996 0.126662
O O1 0.858830 0.401416 0.477115
O O2 0.646704 0.229154 0.118249
O O3 0.596481 0.241874 0.236746
O O4 0.500000 0.500000 0.000000
O O5 0.133076 0.302538 0.525515
O O6 0.000000 0.500000 0.500000
O O7 0.792697 0.417861 0.113327
O O8 0.106549 0.903203 0.713734
O O9 0.254638 0.060561 0.763928
O O10 0.485904 0.965559 0.166005
O O11 0.177451 0.004812 0.509644
#
# Coordination Sequence:
#
# PCOD9247078 Si02
#       5
#     4   4   4   4   4
#     4  11  22  42  71 100 135 178 223 286 342 405
#     4  12  24  44  63  99 139 173 231 288 332 401
#     4  10  21  43  71  96 132 178 222 280 346 407
#     4  10  21  44  68  95 133 176 222 279 352 406
#     4  11  24  44  69  98 136 180 229 276 348 414
#
# _framework density 23.532868000000001
#
# number of rings (size 3 to 8) (size 9 to 14) (size 15 to 20)
#    0.000    1.200    2.000    6.000    0.000    0.000 
#   10.800    0.000    0.000    0.000    0.000    0.000 
#    0.000    0.000    0.000    0.000    0.000    0.000 
#
# Total GULP energy -111640.850324 kJ/mol
# GULP energy per Si atom -5582.042516 kJ/mol
# Density = 2.347931 g / cm^3
# Si number density = 23.532868 Si / 1000 Ang^3
#
#
#
# Elastic Constant Matrix: (Units=GPa)
#
#
# Indices 1 2 3 4 5 6 
#
# 1 48.8461 4.5298 27.4914 0.0000 -7.6360 0.0000
# 2 4.5298 99.1098 61.1544 0.0000 -1.7411 0.0000
# 3 27.4914 61.1544 166.6277 0.0000 -3.5864 0.0000
# 4 0.0000 0.0000 0.0000 41.7003 0.0000 4.8026
# 5 -7.6360 -1.7411 -3.5864 0.0000 27.3836 0.0000
# 6 0.0000 0.0000 0.0000 4.8026 0.0000 20.6207
#
#
#
# Elastic Compliance Matrix: (Units=1/GPa)
#
#
# Indices 1 2 3 4 5 6 
#
# 1 0.023768 0.001758 -0.004434 0.000000 0.006159 0.000000
# 2 0.001758 0.013175 -0.005111 0.000000 0.000658 0.000000
# 3 -0.004434 -0.005111 0.008599 0.000000 -0.000435 0.000000
# 4 0.000000 0.000000 0.000000 0.024642 0.000000 -0.005739
# 5 0.006159 0.000658 -0.000435 0.000000 0.038220 0.000000
# 6 0.000000 0.000000 0.000000 -0.005739 0.000000 0.049832
#
#
# Mechanical properties :
#
#
# Convention : Reuss Voigt Hill
#
# Bulk Modulus (GPa) = 33.36964 55.65944 44.51454
# Shear Modulus (GPa) = 27.20355 32.70144 29.95250
#
# Velocity S-wave (km/s) = 3.40366 3.73179 3.57149
# Velocity P-wave (km/s) = 5.44586 6.50165 5.99703
#
# Compressibility (1/GPa) = 0.02996736
#
# Stress axis : x y z
#
# Youngs Moduli (GPa) = 42.07388 75.90236 116.28661
#
# Poissons Ratio (x) = -0.13342 0.51561
# Poissons Ratio (y) = -0.07396 0.59436
# Poissons Ratio (z) = 0.18655 0.38795
#
# Static dielectric constant tensor:
#      x y z
#    x 1.621080 0.000000 -0.623330 
#    y 0.000000 1.929010 0.000000 
#    z -0.623330 0.000000 0.786650 
# 
# From -- ./inp_files/49997.got.cif
#   From: 2010.05.17/outbox.cif.g08.bks.cpg/sg14_25_cif.got.tgz:49997.got - 2010.06.03 17:49:19.
