data_PCOD9247786
_publ_section_title
;
Structure prediction by ZEFSAII (Michael W. Deem and Ramdas Pophale) SiO2 
 PCOD9247786
Probable space group: P 21/C
;
_chemical_formula_sum "Si O2"
_cell_formula_units_Z 28
_cell_length_a 12.720952
_cell_length_b 18.956650
_cell_length_c 9.325478
_cell_angle_alpha 90.000000
_cell_angle_beta 38.720725
_cell_angle_gamma 90.000000
_cell_volume 1406.685200
_symmetry_space_group_name_H-M "P 21/C"
_symmetry_group_IT_number 14
_symmetry_cell_setting 'monoclinic'
loop_
_space_group_symop_operation_xyz
x,y,z
-x,1/2+y,1/2-z
-x,-y,-z
x,1/2-y,1/2+z
loop_
_atom_site_type_symbol
_atom_site_label
_atom_site_fract_x
_atom_site_fract_y
_atom_site_fract_z
Si Si1 0.107928 0.245322 0.845704
Si Si2 0.171864 0.686893 0.526587
Si Si3 0.666274 0.187798 0.456636
Si Si4 0.629316 0.435675 0.215950
Si Si5 0.686918 0.915198 0.738245
Si Si6 0.313978 0.256458 0.876735
Si Si7 0.932383 0.109791 0.598624
O O1 0.161770 0.223261 0.945896
O O2 0.278684 0.260788 0.579131
O O3 0.014247 0.191905 0.842466
O O4 0.988117 0.312569 0.984466
O O5 0.277768 0.681028 0.268075
O O6 0.225644 0.756157 0.561797
O O7 0.160809 0.623006 0.650322
O O8 0.654674 0.113575 0.551348
O O9 0.484597 0.222026 0.649020
O O10 0.454198 0.417686 0.485314
O O11 0.636676 0.519966 0.188694
O O12 0.790385 0.419813 0.145991
O O13 0.680304 0.839316 0.667962
O O14 0.882135 0.925011 0.582090
#
# Coordination Sequence:
#
# PCOD9247786 Si02
#       7
#     4   4   4   4   4   4   4
#     4  11  19  35  56  87 115 148 191 253 294 349
#     4  12  20  35  58  87 123 147 197 253 303 349
#     4  12  22  37  60  93 118 160 200 255 303 360
#     4  11  23  40  63  87 123 157 210 247 300 366
#     4  10  22  40  61  88 120 162 204 249 298 368
#     4  11  22  36  61  87 119 151 203 248 307 348
#     4  11  21  39  64  89 118 161 195 252 309 354
#
# _framework density 19.904949999999999
#
# number of rings (size 3 to 8) (size 9 to 14) (size 15 to 20)
#    0.000    0.857    5.714    4.714    0.000    0.000 
#    0.000    0.714    0.000   10.286    0.000    0.000 
#    0.000    0.000    0.000    0.000    0.000    0.000 
#
# Total GULP energy -156107.569993 kJ/mol
# GULP energy per Si atom -5575.270357 kJ/mol
# Density = 1.985965 g / cm^3
# Si number density = 19.904950 Si / 1000 Ang^3
#
#
#
# Elastic Constant Matrix: (Units=GPa)
#
#
# Indices 1 2 3 4 5 6 
#
# 1 63.2922 25.4751 23.4828 0.0000 -1.4261 0.0000
# 2 25.4751 37.0150 7.5209 0.0000 6.6106 0.0000
# 3 23.4828 7.5209 137.6802 0.0000 12.0449 0.0000
# 4 0.0000 0.0000 0.0000 17.7019 0.0000 -8.7120
# 5 -1.4261 6.6106 12.0449 0.0000 33.6584 0.0000
# 6 0.0000 0.0000 0.0000 -8.7120 0.0000 11.6402
#
#
#
# Elastic Compliance Matrix: (Units=1/GPa)
#
#
# Indices 1 2 3 4 5 6 
#
# 1 0.024062 -0.016820 -0.003678 0.000000 0.005639 0.000000
# 2 -0.016820 0.039913 0.001483 0.000000 -0.009082 0.000000
# 3 -0.003678 0.001483 0.008102 0.000000 -0.003347 0.000000
# 4 0.000000 0.000000 0.000000 0.089434 0.000000 0.066936
# 5 0.005639 -0.009082 -0.003347 0.000000 0.032931 0.000000
# 6 0.000000 0.000000 0.000000 0.066936 0.000000 0.136007
#
#
# Mechanical properties :
#
#
# Convention : Reuss Voigt Hill
#
# Bulk Modulus (GPa) = 29.37177 38.99389 34.18283
# Shear Modulus (GPa) = 13.16391 24.70069 18.93230
#
# Velocity S-wave (km/s) = 2.57444 3.52651 3.08739
# Velocity P-wave (km/s) = 4.86056 6.01783 5.46989
#
# Compressibility (1/GPa) = 0.03404629
#
# Stress axis : x y z
#
# Youngs Moduli (GPa) = 41.56017 25.05471 123.42057
#
# Poissons Ratio (x) = 0.42141 0.45400
# Poissons Ratio (y) = 0.69903 -0.18304
# Poissons Ratio (z) = 0.15288 -0.03716
#
# Static dielectric constant tensor:
#      x y z
#    x 1.714740 0.000000 -0.028380 
#    y 0.000000 1.716220 0.000000 
#    z -0.028380 0.000000 1.784600 
# 
# From -- ./inp_files/14251.got.cif
#   From: 2010.05.17/outbox.cif.g08.bks.cpg/sg14_8_cif.got.tgz:14251.got - 2010.06.03 17:49:19.
