data_PCOD9247682
_publ_section_title
;
Structure prediction by ZEFSAII (Michael W. Deem and Ramdas Pophale) SiO2 
 PCOD9247682
Probable space group: P 21/C
;
_chemical_formula_sum "Si O2"
_cell_formula_units_Z 28
_cell_length_a 19.693046
_cell_length_b 7.751518
_cell_length_c 15.582472
_cell_angle_alpha 90.000000
_cell_angle_beta 149.716654
_cell_angle_gamma 90.000000
_cell_volume 1199.512733
_symmetry_space_group_name_H-M "P 21/C"
_symmetry_group_IT_number 14
_symmetry_cell_setting 'monoclinic'
loop_
_space_group_symop_operation_xyz
x,y,z
-x,1/2+y,1/2-z
-x,-y,-z
x,1/2-y,1/2+z
loop_
_atom_site_type_symbol
_atom_site_label
_atom_site_fract_x
_atom_site_fract_y
_atom_site_fract_z
Si Si1 0.170171 0.261564 0.931489
Si Si2 0.667168 0.664596 0.738495
Si Si3 0.610587 0.598270 0.927938
Si Si4 0.087860 0.590164 0.426048
Si Si5 0.674249 0.268101 0.419785
Si Si6 0.714298 0.027656 0.720917
Si Si7 0.364144 0.891574 0.934542
O O1 0.062981 0.350675 0.753050
O O2 0.108753 0.083835 0.895214
O O3 0.209656 0.361338 0.062051
O O4 0.311560 0.249491 0.036263
O O5 0.686976 0.559133 0.672057
O O6 0.525502 0.596278 0.620060
O O7 0.654165 0.872917 0.714145
O O8 0.454589 0.643650 0.765697
O O9 0.632907 0.425710 0.897356
O O10 0.686622 0.555263 0.098590
O O11 0.196451 0.716579 0.499481
O O12 0.138008 0.555771 0.577400
O O13 0.696904 0.355295 0.538437
O O14 0.657090 0.221220 0.648159
#
# Coordination Sequence:
#
# PCOD9247682 Si02
#       7
#     4   4   4   4   4   4   4
#     4  11  24  45  65  95 127 178 217 266 329 395
#     4  10  22  39  66  94 128 168 212 268 330 387
#     4  11  24  41  68  96 137 163 222 273 325 384
#     4  11  26  43  68  92 133 174 222 261 333 390
#     4  11  24  39  65 102 125 173 215 268 327 387
#     4  10  25  39  64  97 131 169 214 271 328 382
#     4  10  22  39  64  98 129 163 213 269 332 382
#
# _framework density 23.342811000000001
#
# number of rings (size 3 to 8) (size 9 to 14) (size 15 to 20)
#    0.000    1.429    1.429    2.143   16.000    0.571 
#    0.000    2.143    0.000    0.000    0.000    0.000 
#    0.000    0.000    0.000    0.000    0.000    0.000 
#
# Total GULP energy -156500.578700 kJ/mol
# GULP energy per Si atom -5589.306382 kJ/mol
# Density = 2.328968 g / cm^3
# Si number density = 23.342811 Si / 1000 Ang^3
#
#
#
# Elastic Constant Matrix: (Units=GPa)
#
#
# Indices 1 2 3 4 5 6 
#
# 1 42.4228 -5.1895 17.6408 0.0000 -4.8309 0.0000
# 2 -5.1895 84.2839 27.6098 0.0000 -7.8388 0.0000
# 3 17.6408 27.6098 154.2279 0.0000 -16.0758 0.0000
# 4 0.0000 0.0000 0.0000 23.5466 0.0000 -14.2017
# 5 -4.8309 -7.8388 -16.0758 0.0000 34.1385 0.0000
# 6 0.0000 0.0000 0.0000 -14.2017 0.0000 16.2440
#
#
#
# Elastic Compliance Matrix: (Units=1/GPa)
#
#
# Indices 1 2 3 4 5 6 
#
# 1 0.025548 0.002862 -0.003144 0.000000 0.002792 0.000000
# 2 0.002862 0.013046 -0.002428 0.000000 0.002258 0.000000
# 3 -0.003144 -0.002428 0.007544 0.000000 0.002550 0.000000
# 4 0.000000 0.000000 0.000000 0.089843 0.000000 0.078548
# 5 0.002792 0.002258 0.002550 0.000000 0.031407 0.000000
# 6 0.000000 0.000000 0.000000 0.078548 0.000000 0.130233
#
#
# Mechanical properties :
#
#
# Convention : Reuss Voigt Hill
#
# Bulk Modulus (GPa) = 24.55791 40.11744 32.33767
# Shear Modulus (GPa) = 15.79222 30.84405 23.31814
#
# Velocity S-wave (km/s) = 2.60385 3.63898 3.16403
# Velocity P-wave (km/s) = 4.42532 5.90591 5.21839
#
# Compressibility (1/GPa) = 0.04072008
#
# Stress axis : x y z
#
# Youngs Moduli (GPa) = 39.14269 76.65126 132.55784
#
# Poissons Ratio (x) = -0.21941 0.41670
# Poissons Ratio (y) = -0.11204 0.32180
# Poissons Ratio (z) = 0.12305 0.18608
#
# Static dielectric constant tensor:
#      x y z
#    x 1.868180 0.000000 -0.052050 
#    y 0.000000 1.921060 0.000000 
#    z -0.052050 0.000000 1.880010 
# 
# From -- ./inp_files/50270.got.cif
#   From: 2010.05.17/outbox.cif.g08.bks.cpg/sg14_26_cif.got.tgz:50270.got - 2010.06.03 17:49:19.
