data_PCOD9247220
_publ_section_title
;
Structure prediction by ZEFSAII (Michael W. Deem and Ramdas Pophale) SiO2 
 PCOD9247220
Probable space group: P 21/C
;
_chemical_formula_sum "Si O2"
_cell_formula_units_Z 28
_cell_length_a 20.182618
_cell_length_b 6.888226
_cell_length_c 12.686117
_cell_angle_alpha 90.000000
_cell_angle_beta 137.809463
_cell_angle_gamma 90.000000
_cell_volume 1184.467482
_symmetry_space_group_name_H-M "P 21/C"
_symmetry_group_IT_number 14
_symmetry_cell_setting 'monoclinic'
loop_
_space_group_symop_operation_xyz
x,y,z
-x,1/2+y,1/2-z
-x,-y,-z
x,1/2-y,1/2+z
loop_
_atom_site_type_symbol
_atom_site_label
_atom_site_fract_x
_atom_site_fract_y
_atom_site_fract_z
Si Si1 0.191524 0.898734 0.476291
Si Si2 0.594997 0.560944 0.499829
Si Si3 0.886806 0.029137 0.389640
Si Si4 0.116572 0.527395 0.661767
Si Si5 0.288001 0.130618 0.220545
Si Si6 0.769859 0.972895 0.056608
Si Si7 0.396755 0.723462 0.303295
O O1 0.138760 0.984593 0.517747
O O2 0.147880 0.995960 0.320189
O O3 0.179754 0.662881 0.438570
O O4 0.307514 0.890952 0.641392
O O5 0.654073 0.710678 0.644781
O O6 0.662571 0.492164 0.482854
O O7 0.495621 0.677001 0.354411
O O8 0.579206 0.373912 0.555081
O O9 0.857514 0.249403 0.331451
O O10 0.833693 0.914643 0.232725
O O11 0.000000 0.000000 0.500000
O O12 0.189247 0.418389 0.668446
O O13 0.000000 0.500000 0.500000
O O14 0.357340 0.940124 0.281918
O O15 0.251016 0.180215 0.059596
#
# Coordination Sequence:
#
# PCOD9247220 Si02
#       7
#     4   4   4   4   4   4   4
#     4  10  21  45  71  94 148 191 224 303 369 417
#     4  11  23  42  72 105 136 190 244 296 359 443
#     4  11  23  42  70  99 138 193 232 297 370 427
#     4  11  25  41  65 104 139 185 240 296 358 440
#     4  11  24  47  67 102 148 186 239 304 369 428
#     4  10  22  45  66 101 146 180 246 299 357 446
#     4  10  21  46  70 100 145 183 241 301 362 435
#
# _framework density 23.639316000000001
#
# number of rings (size 3 to 8) (size 9 to 14) (size 15 to 20)
#    0.000    1.429    4.286    1.286    4.000    1.143 
#   18.000    0.000    0.000    0.000    0.000    0.000 
#    0.000    0.000    0.000    0.000    0.000    0.000 
#
# Total GULP energy -156349.428711 kJ/mol
# GULP energy per Si atom -5583.908168 kJ/mol
# Density = 2.358551 g / cm^3
# Si number density = 23.639316 Si / 1000 Ang^3
#
#
#
# Elastic Constant Matrix: (Units=GPa)
#
#
# Indices 1 2 3 4 5 6 
#
# 1 127.5281 10.1741 61.8831 0.0000 -11.3341 0.0000
# 2 10.1741 84.3717 7.1684 0.0000 -12.3229 0.0000
# 3 61.8831 7.1684 119.2268 0.0000 -16.0719 0.0000
# 4 0.0000 0.0000 0.0000 38.2600 0.0000 -1.1523
# 5 -11.3341 -12.3229 -16.0719 0.0000 48.2758 0.0000
# 6 0.0000 0.0000 0.0000 -1.1523 0.0000 36.3531
#
#
#
# Elastic Compliance Matrix: (Units=1/GPa)
#
#
# Indices 1 2 3 4 5 6 
#
# 1 0.010547 -0.000743 -0.005362 0.000000 0.000501 0.000000
# 2 -0.000743 0.012376 0.000046 0.000000 0.003000 0.000000
# 3 -0.005362 0.000046 0.011516 0.000000 0.002587 0.000000
# 4 0.000000 0.000000 0.000000 0.026162 0.000000 0.000829
# 5 0.000501 0.003000 0.002587 0.000000 0.022459 0.000000
# 6 0.000000 0.000000 0.000000 0.000829 0.000000 0.027534
#
#
# Mechanical properties :
#
#
# Convention : Reuss Voigt Hill
#
# Bulk Modulus (GPa) = 44.79994 54.39752 49.59873
# Shear Modulus (GPa) = 38.41605 41.37120 39.89362
#
# Velocity S-wave (km/s) = 4.03562 4.18796 4.11249
# Velocity P-wave (km/s) = 6.38024 6.81519 6.60130
#
# Compressibility (1/GPa) = 0.02232146
#
# Stress axis : x y z
#
# Youngs Moduli (GPa) = 94.81157 80.80044 86.83220
#
# Poissons Ratio (x) = 0.06004 0.46561
# Poissons Ratio (y) = 0.07045 -0.00399
# Poissons Ratio (z) = 0.50839 -0.00371
#
# Static dielectric constant tensor:
#      x y z
#    x 1.877990 0.000000 0.011000 
#    y 0.000000 1.957410 0.000000 
#    z 0.011000 0.000000 1.903640 
# 
# From -- ./inp_files/35002.got.cif
#   From: 2010.05.17/outbox.cif.g08.bks.cpg/sg14_18_cif.got.tgz:35002.got - 2010.06.03 17:49:19.
