data_PCOD9247049
_publ_section_title
;
Structure prediction by ZEFSAII (Michael W. Deem and Ramdas Pophale) SiO2 
 PCOD9247049
Probable space group: P 21/C
;
_chemical_formula_sum "Si O2"
_cell_formula_units_Z 32
_cell_length_a 10.410975
_cell_length_b 9.451582
_cell_length_c 24.389051
_cell_angle_alpha 90.000000
_cell_angle_beta 147.530532
_cell_angle_gamma 90.000000
_cell_volume 1288.379637
_symmetry_space_group_name_H-M "P 21/C"
_symmetry_group_IT_number 14
_symmetry_cell_setting 'monoclinic'
loop_
_space_group_symop_operation_xyz
x,y,z
-x,1/2+y,1/2-z
-x,-y,-z
x,1/2-y,1/2+z
loop_
_atom_site_type_symbol
_atom_site_label
_atom_site_fract_x
_atom_site_fract_y
_atom_site_fract_z
Si Si1 0.903803 0.606759 0.035300
Si Si2 0.932240 0.272785 0.247725
Si Si3 0.762925 0.446616 0.080169
Si Si4 0.606545 0.034064 0.700557
Si Si5 0.611043 0.019457 0.170325
Si Si6 0.543221 0.730989 0.104423
Si Si7 0.145674 0.143294 0.052549
Si Si8 0.710341 0.882465 0.320174
O O1 0.890166 0.578628 0.095497
O O2 0.094767 0.491143 0.085947
O O3 0.631430 0.588819 0.917228
O O4 0.981936 0.752986 0.037025
O O5 0.874387 0.365012 0.171703
O O6 0.833582 0.377329 0.260129
O O7 0.779983 0.127167 0.197999
O O8 0.789150 0.733036 0.157740
O O9 0.500000 0.500000 0.000000
O O10 0.694385 0.334394 0.008213
O O11 0.535359 0.072543 0.737354
O O12 0.606763 0.870987 0.679572
O O13 0.492902 0.896670 0.092347
O O14 0.706417 0.920916 0.254961
O O15 0.408792 0.112980 0.124780
O O16 0.196117 0.229887 0.126705
O O17 0.000000 0.000000 0.000000
#
# Coordination Sequence:
#
# PCOD9247049 Si02
#       8
#     4   4   4   4   4   4   4   4
#     4  10  21  43  74 102 133 189 239 287 359 435
#     4  12  23  47  69 105 137 182 243 302 346 432
#     4  11  22  45  77  95 137 191 242 283 361 430
#     4  10  21  43  68  98 139 180 239 285 348 441
#     4  12  27  44  67 105 149 171 234 301 353 425
#     4  11  26  40  71 105 137 186 234 298 357 425
#     4  11  25  45  68 106 146 179 241 303 351 430
#     4  11  25  44  74 100 138 198 231 286 381 430
#
# _framework density 24.837399999999999
#
# number of rings (size 3 to 8) (size 9 to 14) (size 15 to 20)
#    0.000    1.000    5.000    3.000    8.750    0.500 
#    0.000    0.000    0.000    0.000    0.000    0.000 
#    0.000    0.000    0.000    0.000    0.000    0.000 
#
# Total GULP energy -178688.698479 kJ/mol
# GULP energy per Si atom -5584.021827 kJ/mol
# Density = 2.478087 g / cm^3
# Si number density = 24.837400 Si / 1000 Ang^3
#
#
#
# Elastic Constant Matrix: (Units=GPa)
#
#
# Indices 1 2 3 4 5 6 
#
# 1 94.8962 15.8550 3.6283 0.0000 -2.2757 0.0000
# 2 15.8550 150.7607 8.5288 0.0000 2.2931 0.0000
# 3 3.6283 8.5288 43.9381 0.0000 0.1766 0.0000
# 4 0.0000 0.0000 0.0000 31.2702 0.0000 10.6707
# 5 -2.2757 2.2931 0.1766 0.0000 31.6551 0.0000
# 6 0.0000 0.0000 0.0000 10.6707 0.0000 51.6441
#
#
#
# Elastic Compliance Matrix: (Units=1/GPa)
#
#
# Indices 1 2 3 4 5 6 
#
# 1 0.010769 -0.001107 -0.000678 0.000000 0.000858 0.000000
# 2 -0.001107 0.006828 -0.001232 0.000000 -0.000567 0.000000
# 3 -0.000678 -0.001232 0.023055 0.000000 -0.000088 0.000000
# 4 0.000000 0.000000 0.000000 0.034405 0.000000 -0.007109
# 5 0.000858 -0.000567 -0.000088 0.000000 0.031694 0.000000
# 6 0.000000 0.000000 0.000000 -0.007109 0.000000 0.020832
#
#
# Mechanical properties :
#
#
# Convention : Reuss Voigt Hill
#
# Bulk Modulus (GPa) = 28.88642 38.40214 33.64428
# Shear Modulus (GPa) = 34.44574 40.35272 37.39923
#
# Velocity S-wave (km/s) = 3.72808 4.03510 3.88463
# Velocity P-wave (km/s) = 5.49426 6.09954 5.80479
#
# Compressibility (1/GPa) = 0.03461834
#
# Stress axis : x y z
#
# Youngs Moduli (GPa) = 92.85631 146.46040 43.37511
#
# Poissons Ratio (x) = 0.16217 0.02940
# Poissons Ratio (y) = 0.10282 0.05342
# Poissons Ratio (z) = 0.06294 0.18038
#
# Static dielectric constant tensor:
#      x y z
#    x 2.105480 0.000000 -0.099090 
#    y 0.000000 2.126540 0.000000 
#    z -0.099090 0.000000 2.101860 
# 
# From -- ./inp_files/77523.got.cif
#   From: 2010.05.17/outbox.cif.g08.bks.cpg/sg14_39_cif.got.tgz:77523.got - 2010.06.03 17:49:19.
