data_PCOD9247453
_publ_section_title
;
Structure prediction by ZEFSAII (Michael W. Deem and Ramdas Pophale) SiO2 
 PCOD9247453
Probable space group: P 21/C
;
_chemical_formula_sum "Si O2"
_cell_formula_units_Z 30
_cell_length_a 4.916695
_cell_length_b 19.478969
_cell_length_c 13.411477
_cell_angle_alpha 90.000000
_cell_angle_beta 85.830873
_cell_angle_gamma 90.000000
_cell_volume 1281.047074
_symmetry_space_group_name_H-M "P 21/C"
_symmetry_group_IT_number 14
_symmetry_cell_setting 'monoclinic'
loop_
_space_group_symop_operation_xyz
x,y,z
-x,1/2+y,1/2-z
-x,-y,-z
x,1/2-y,1/2+z
loop_
_atom_site_type_symbol
_atom_site_label
_atom_site_fract_x
_atom_site_fract_y
_atom_site_fract_z
Si Si1 0.066091 0.193983 0.082341
Si Si2 0.437683 0.787234 0.427270
Si Si3 0.061457 0.466329 0.336860
Si Si4 0.315068 0.881767 0.047429
Si Si5 0.500000 0.500000 0.500000
Si Si6 0.663469 0.676227 0.711035
Si Si7 0.123869 0.895044 0.725208
Si Si8 0.334830 0.169967 0.366469
O O1 0.873531 0.262832 0.079224
O O2 0.990513 0.150777 0.180924
O O3 0.374452 0.218961 0.072691
O O4 0.946453 0.152571 0.992121
O O5 0.532439 0.823665 0.323865
O O6 0.529001 0.822329 0.527874
O O7 0.265035 0.486700 0.417572
O O8 0.132153 0.389148 0.297128
O O9 0.079161 0.525430 0.254536
O O10 0.769979 0.457581 0.402306
O O11 0.440458 0.839529 0.132404
O O12 0.520745 0.915644 0.965563
O O13 0.740779 0.754502 0.678198
O O14 0.432670 0.870024 0.701600
O O15 0.940817 0.873647 0.634974
#
# Coordination Sequence:
#
# PCOD9247453 Si02
#       8
#     4   4   4   4   2   4   4   4
#     4  12  23  40  73 102 137 179 222 288 360 410
#     4  12  26  44  70 101 135 182 240 289 335 410
#     4  11  26  41  69 101 148 184 226 290 353 426
#     4  11  24  39  69 101 144 171 230 279 363 424
#     4  10  22  38  60 100 136 182 208 276 346 428
#     4  11  25  44  69 100 137 184 232 285 348 415
#     4  12  26  45  70 103 143 181 231 286 356 415
#     4  12  26  47  70 101 137 186 238 293 339 420
#
# _framework density 23.418346
#
# number of rings (size 3 to 8) (size 9 to 14) (size 15 to 20)
#    0.000    0.533    5.333    2.000    9.333    0.000 
#    0.000    1.333    0.000    0.000    0.000    0.000 
#    0.000    0.000    0.000    0.000    0.000    0.000 
#
# Total GULP energy -167443.367183 kJ/mol
# GULP energy per Si atom -5581.445573 kJ/mol
# Density = 2.336504 g / cm^3
# Si number density = 23.418346 Si / 1000 Ang^3
#
#
#
# Elastic Constant Matrix: (Units=GPa)
#
#
# Indices 1 2 3 4 5 6 
#
# 1 61.0599 3.4995 -12.0378 0.0000 10.7443 0.0000
# 2 3.4995 99.5718 24.6471 0.0000 -3.1469 0.0000
# 3 -12.0378 24.6471 74.9919 0.0000 -10.3940 0.0000
# 4 0.0000 0.0000 0.0000 43.5170 0.0000 0.8761
# 5 10.7443 -3.1469 -10.3940 0.0000 20.4454 0.0000
# 6 0.0000 0.0000 0.0000 0.8761 0.0000 26.4148
#
#
#
# Elastic Compliance Matrix: (Units=1/GPa)
#
#
# Indices 1 2 3 4 5 6 
#
# 1 0.018448 -0.001478 0.002229 0.000000 -0.008789 0.000000
# 2 -0.001478 0.011051 -0.003793 0.000000 0.000549 0.000000
# 3 0.002229 -0.003793 0.015810 0.000000 0.006282 0.000000
# 4 0.000000 0.000000 0.000000 0.022995 0.000000 -0.000763
# 5 -0.008789 0.000549 0.006282 0.000000 0.056808 0.000000
# 6 0.000000 0.000000 0.000000 -0.000763 0.000000 0.037883
#
#
# Mechanical properties :
#
#
# Convention : Reuss Voigt Hill
#
# Bulk Modulus (GPa) = 25.49411 29.76013 27.62712
# Shear Modulus (GPa) = 27.44929 32.70976 30.07952
#
# Velocity S-wave (km/s) = 3.42735 3.74138 3.58780
# Velocity P-wave (km/s) = 5.15483 5.60353 5.38386
#
# Compressibility (1/GPa) = 0.03922474
#
# Stress axis : x y z
#
# Youngs Moduli (GPa) = 54.20639 90.48752 63.25120
#
# Poissons Ratio (x) = 0.13373 -0.14098
# Poissons Ratio (y) = 0.08011 0.23993
# Poissons Ratio (z) = -0.12082 0.34324
#
# Static dielectric constant tensor:
#      x y z
#    x 2.057200 0.000000 -0.181380 
#    y 0.000000 2.155580 0.000000 
#    z -0.181380 0.000000 2.006150 
# 
# From -- ./inp_files/37720.got.cif
#   From: 2010.05.17/outbox.cif.g08.bks.cpg/sg14_19_cif.got.tgz:37720.got - 2010.06.03 17:49:19.
