data_PCOD9247601
_publ_section_title
;
Structure prediction by ZEFSAII (Michael W. Deem and Ramdas Pophale) SiO2 
 PCOD9247601
Probable space group: P 21/C
;
_chemical_formula_sum "Si O2"
_cell_formula_units_Z 32
_cell_length_a 12.998960
_cell_length_b 9.083464
_cell_length_c 11.095611
_cell_angle_alpha 90.000000
_cell_angle_beta 110.174028
_cell_angle_gamma 90.000000
_cell_volume 1229.744131
_symmetry_space_group_name_H-M "P 21/C"
_symmetry_group_IT_number 14
_symmetry_cell_setting 'monoclinic'
loop_
_space_group_symop_operation_xyz
x,y,z
-x,1/2+y,1/2-z
-x,-y,-z
x,1/2-y,1/2+z
loop_
_atom_site_type_symbol
_atom_site_label
_atom_site_fract_x
_atom_site_fract_y
_atom_site_fract_z
Si Si1 0.643993 0.688385 0.353687
Si Si2 0.264763 0.163259 0.365254
Si Si3 0.354556 0.886636 0.504572
Si Si4 0.021950 0.218373 0.321832
Si Si5 0.176786 0.763944 0.605648
Si Si6 0.509698 0.949674 0.237306
Si Si7 0.885938 0.458912 0.590843
Si Si8 0.667907 0.113208 0.132725
O O1 0.720514 0.718539 0.267021
O O2 0.688709 0.746978 0.499187
O O3 0.606846 0.519039 0.340653
O O4 0.533137 0.782170 0.280856
O O5 0.138307 0.142346 0.349698
O O6 0.328231 0.008737 0.395471
O O7 0.238716 0.846190 0.521957
O O8 0.437259 0.963771 0.628369
O O9 0.396139 0.730356 0.474656
O O10 0.052137 0.388696 0.361077
O O11 0.936932 0.168289 0.391199
O O12 0.955161 0.176614 0.174504
O O13 0.146184 0.597454 0.554714
O O14 0.268076 0.783000 0.745293
O O15 0.588258 0.997198 0.159619
O O16 0.770706 0.465714 0.612919
#
# Coordination Sequence:
#
# PCOD9247601 Si02
#       8
#     4   4   4   4   4   4   4   4
#     4  11  27  47  68 104 133 179 231 278 349 406
#     4  11  27  44  68 100 144 176 226 282 343 402
#     4   9  21  41  68  97 130 174 222 278 342 405
#     4  11  24  39  64  91 135 178 216 284 327 398
#     4   9  20  38  62  95 124 168 229 269 327 403
#     4  10  23  44  68  96 134 173 223 288 337 407
#     4  10  22  39  60  93 129 169 227 270 335 404
#     4   9  19  39  65  92 127 170 219 276 345 399
#
# _framework density 26.021674999999998
#
# number of rings (size 3 to 8) (size 9 to 14) (size 15 to 20)
#    0.000    2.000    0.000    1.125   10.500    4.000 
#    4.500    0.000    0.000    0.000    0.000    0.000 
#    0.000    0.000    0.000    0.000    0.000    0.000 
#
# Total GULP energy -178999.577257 kJ/mol
# GULP energy per Si atom -5593.736789 kJ/mol
# Density = 2.596245 g / cm^3
# Si number density = 26.021675 Si / 1000 Ang^3
#
#
#
# Elastic Constant Matrix: (Units=GPa)
#
#
# Indices 1 2 3 4 5 6 
#
# 1 131.0334 3.3647 37.4719 0.0000 -6.6656 0.0000
# 2 3.3647 95.7775 36.6432 0.0000 9.8094 0.0000
# 3 37.4719 36.6432 72.8533 0.0000 1.3596 0.0000
# 4 0.0000 0.0000 0.0000 40.7676 0.0000 13.0631
# 5 -6.6656 9.8094 1.3596 0.0000 45.2581 0.0000
# 6 0.0000 0.0000 0.0000 13.0631 0.0000 30.9350
#
#
#
# Elastic Compliance Matrix: (Units=1/GPa)
#
#
# Indices 1 2 3 4 5 6 
#
# 1 0.009262 0.001717 -0.005649 0.000000 0.001162 0.000000
# 2 0.001717 0.013562 -0.007659 0.000000 -0.002457 0.000000
# 3 -0.005649 -0.007659 0.020480 0.000000 0.000213 0.000000
# 4 0.000000 0.000000 0.000000 0.028368 0.000000 -0.011979
# 5 0.001162 -0.002457 0.000213 0.000000 0.022793 0.000000
# 6 0.000000 0.000000 0.000000 -0.011979 0.000000 0.037384
#
#
# Mechanical properties :
#
#
# Convention : Reuss Voigt Hill
#
# Bulk Modulus (GPa) = 49.69562 50.51375 50.10469
# Shear Modulus (GPa) = 30.91410 38.20446 34.55928
#
# Velocity S-wave (km/s) = 3.45050 3.83584 3.64826
# Velocity P-wave (km/s) = 5.91725 6.25080 6.08631
#
# Compressibility (1/GPa) = 0.02012250
#
# Stress axis : x y z
#
# Youngs Moduli (GPa) = 107.96614 73.73402 48.82809
#
# Poissons Ratio (x) = -0.12660 0.27584
# Poissons Ratio (y) = -0.18537 0.37396
# Poissons Ratio (z) = 0.60992 0.56471
#
# Static dielectric constant tensor:
#      x y z
#    x 2.002840 0.000000 -0.040780 
#    y 0.000000 2.033290 0.000000 
#    z -0.040780 0.000000 2.092360 
# 
# From -- ./inp_files/31865.got.cif
#   From: 2010.05.17/outbox.cif.g08.bks.cpg/sg14_16_cif.got.tgz:31865.got - 2010.06.03 17:49:19.
