data_PCOD9247525
_publ_section_title
;
Structure prediction by ZEFSAII (Michael W. Deem and Ramdas Pophale) SiO2 
 PCOD9247525
Probable space group: P 21/C
;
_chemical_formula_sum "Si O2"
_cell_formula_units_Z 24
_cell_length_a 10.038849
_cell_length_b 12.559776
_cell_length_c 17.226166
_cell_angle_alpha 90.000000
_cell_angle_beta 26.633292
_cell_angle_gamma 90.000000
_cell_volume 973.648988
_symmetry_space_group_name_H-M "P 21/C"
_symmetry_group_IT_number 14
_symmetry_cell_setting 'monoclinic'
loop_
_space_group_symop_operation_xyz
x,y,z
-x,1/2+y,1/2-z
-x,-y,-z
x,1/2-y,1/2+z
loop_
_atom_site_type_symbol
_atom_site_label
_atom_site_fract_x
_atom_site_fract_y
_atom_site_fract_z
Si Si1 0.137956 0.050483 0.849654
Si Si2 0.187474 0.944694 0.145163
Si Si3 0.858569 0.383303 0.899991
Si Si4 0.981283 0.275717 0.992972
Si Si5 0.575840 0.750374 0.961776
Si Si6 0.533313 0.850047 0.647484
O O1 0.153523 0.175508 0.863603
O O2 0.924198 0.042285 0.885166
O O3 0.408304 0.968004 0.695960
O O4 0.000000 0.000000 0.000000
O O5 0.284284 0.825177 0.111140
O O6 0.953445 0.999141 0.324249
O O7 0.500000 0.000000 0.000000
O O8 0.852314 0.349686 0.992505
O O9 0.145167 0.314478 0.717896
O O10 0.547378 0.349314 0.023113
O O11 0.201954 0.345757 0.929144
O O12 0.730370 0.220600 0.176300
O O13 0.628864 0.712049 0.020715
#
# Coordination Sequence:
#
# PCOD9247525 Si02
#       6
#     4   4   4   4   4   4
#     4  10  22  40  63  90 126 170 210 248 310 384
#     4  10  22  38  65  92 124 168 212 248 306 388
#     4  11  22  40  64  92 124 162 210 254 308 368
#     4  11  24  42  65  92 127 165 209 258 311 371
#     4  11  22  40  64  92 124 162 210 254 308 368
#     4  11  24  42  65  92 127 165 209 258 311 371
#
# _framework density 24.649539999999998
#
# number of rings (size 3 to 8) (size 9 to 14) (size 15 to 20)
#    0.000    1.333    3.333    2.000   14.000    0.000 
#    0.000   10.000    0.000    0.000    0.000    0.000 
#    0.000    0.000    0.000    0.000    0.000    0.000 
#
# Total GULP energy -134338.313168 kJ/mol
# GULP energy per Si atom -5597.429715 kJ/mol
# Density = 2.459344 g / cm^3
# Si number density = 24.649540 Si / 1000 Ang^3
#
#
#
# Elastic Constant Matrix: (Units=GPa)
#
#
# Indices 1 2 3 4 5 6 
#
# 1 178.7562 42.6024 31.8550 0.0000 -11.7058 0.0000
# 2 42.6024 98.5526 10.5270 0.0000 3.4328 0.0000
# 3 31.8550 10.5270 109.7467 0.0000 1.7239 0.0000
# 4 0.0000 0.0000 0.0000 52.0858 0.0000 -11.7858
# 5 -11.7058 3.4328 1.7239 0.0000 29.8253 0.0000
# 6 0.0000 0.0000 0.0000 -11.7858 0.0000 41.4529
#
#
#
# Elastic Compliance Matrix: (Units=1/GPa)
#
#
# Indices 1 2 3 4 5 6 
#
# 1 0.006788 -0.002856 -0.001745 0.000000 0.003094 0.000000
# 2 -0.002856 0.011491 -0.000235 0.000000 -0.002430 0.000000
# 3 -0.001745 -0.000235 0.009660 0.000000 -0.001216 0.000000
# 4 0.000000 0.000000 0.000000 0.020519 0.000000 0.005834
# 5 0.003094 -0.002430 -0.001216 0.000000 0.035093 0.000000
# 6 0.000000 0.000000 0.000000 0.005834 0.000000 0.025782
#
#
# Mechanical properties :
#
#
# Convention : Reuss Voigt Hill
#
# Bulk Modulus (GPa) = 54.74198 61.89159 58.31679
# Shear Modulus (GPa) = 39.96949 44.81088 42.39019
#
# Velocity S-wave (km/s) = 4.03117 4.26833 4.15144
# Velocity P-wave (km/s) = 6.62747 7.03240 6.83294
#
# Compressibility (1/GPa) = 0.01826752
#
# Stress axis : x y z
#
# Youngs Moduli (GPa) = 147.30958 87.02343 103.51893
#
# Poissons Ratio (x) = 0.24853 0.18065
# Poissons Ratio (y) = 0.42070 0.02434
# Poissons Ratio (z) = 0.25706 0.02046
#
# Static dielectric constant tensor:
#      x y z
#    x 1.874580 0.000000 0.024250 
#    y 0.000000 2.878740 0.000000 
#    z 0.024250 0.000000 2.052310 
# 
# From -- ./inp_files/28977.got.cif
#   From: 2010.05.17/outbox.cif.g08.bks.cpg/sg14_15_cif.got.tgz:28977.got - 2010.06.03 17:49:19.
