data_PCOD9247605
_publ_section_title
;
Structure prediction by ZEFSAII (Michael W. Deem and Ramdas Pophale) SiO2 
 PCOD9247605
Probable space group: P 21/C
;
_chemical_formula_sum "Si O2"
_cell_formula_units_Z 32
_cell_length_a 25.517273
_cell_length_b 13.083932
_cell_length_c 13.810909
_cell_angle_alpha 90.000000
_cell_angle_beta 22.120377
_cell_angle_gamma 90.000000
_cell_volume 1736.288086
_symmetry_space_group_name_H-M "P 21/C"
_symmetry_group_IT_number 14
_symmetry_cell_setting 'monoclinic'
loop_
_space_group_symop_operation_xyz
x,y,z
-x,1/2+y,1/2-z
-x,-y,-z
x,1/2-y,1/2+z
loop_
_atom_site_type_symbol
_atom_site_label
_atom_site_fract_x
_atom_site_fract_y
_atom_site_fract_z
Si Si1 0.626212 0.921767 0.397895
Si Si2 0.604956 0.917572 0.209438
Si Si3 0.277373 0.240444 0.624284
Si Si4 0.997224 0.649049 0.816350
Si Si5 0.064543 0.769083 0.516072
Si Si6 0.053941 0.068336 0.158136
Si Si7 0.860581 0.069705 0.745914
Si Si8 0.964035 0.886495 0.026571
O O1 0.589063 0.893250 0.350691
O O2 0.627588 0.821303 0.462823
O O3 0.526386 0.014549 0.598426
O O4 0.785636 0.960265 0.130701
O O5 0.641179 0.819815 0.082197
O O6 0.735018 0.994481 0.978650
O O7 0.195838 0.153067 0.702283
O O8 0.148956 0.299906 0.899234
O O9 0.077490 0.702263 0.590081
O O10 0.969926 0.532131 0.830618
O O11 0.996632 0.386585 0.655126
O O12 0.167141 0.854533 0.296838
O O13 0.944275 0.846796 0.760278
O O14 0.032494 0.692278 0.484088
O O15 0.101414 0.859680 0.227976
O O16 0.000000 0.000000 0.500000
O O17 0.000000 0.000000 0.000000
#
# Coordination Sequence:
#
# PCOD9247605 Si02
#       8
#     4   4   4   4   4   4   4   4
#     4  10  22  39  61  84 116 161 206 242 295 364
#     4  11  22  41  64  84 116 164 205 249 296 364
#     4  11  22  38  60  90 117 156 201 247 304 361
#     4  12  21  32  62  87 121 154 190 257 301 359
#     4  12  20  34  55  85 124 152 187 246 309 358
#     4  11  20  36  55  87 118 152 200 242 298 359
#     4  12  20  36  59  89 117 150 203 251 297 359
#     4  11  21  31  52  85 118 150 180 237 309 355
#
# _framework density 18.430122000000001
#
# number of rings (size 3 to 8) (size 9 to 14) (size 15 to 20)
#    0.000    0.750    8.750    0.750    0.000    0.000 
#    2.250    0.000    0.000    0.750    0.000    0.000 
#    0.000    0.000    0.000    0.000    0.000    0.000 
#
# Total GULP energy -178145.656530 kJ/mol
# GULP energy per Si atom -5567.051767 kJ/mol
# Density = 1.838817 g / cm^3
# Si number density = 18.430122 Si / 1000 Ang^3
#
#
#
# Elastic Constant Matrix: (Units=GPa)
#
#
# Indices 1 2 3 4 5 6 
#
# 1 78.0817 60.7236 27.6088 0.0000 18.0114 0.0000
# 2 60.7236 147.3503 47.1870 0.0000 15.1896 0.0000
# 3 27.6088 47.1870 46.8746 0.0000 5.7409 0.0000
# 4 0.0000 0.0000 0.0000 43.4571 0.0000 11.9659
# 5 18.0114 15.1896 5.7409 0.0000 25.2895 0.0000
# 6 0.0000 0.0000 0.0000 11.9659 0.0000 49.3824
#
#
#
# Elastic Compliance Matrix: (Units=1/GPa)
#
#
# Indices 1 2 3 4 5 6 
#
# 1 0.022049 -0.006261 -0.005370 0.000000 -0.010724 0.000000
# 2 -0.006261 0.012168 -0.008447 0.000000 -0.000932 0.000000
# 3 -0.005370 -0.008447 0.032823 0.000000 0.001447 0.000000
# 4 0.000000 0.000000 0.000000 0.024656 0.000000 -0.005975
# 5 -0.010724 -0.000932 0.001447 0.000000 0.047411 0.000000
# 6 0.000000 0.000000 0.000000 -0.005975 0.000000 0.021698
#
#
# Mechanical properties :
#
#
# Convention : Reuss Voigt Hill
#
# Bulk Modulus (GPa) = 37.19924 60.37173 48.78548
# Shear Modulus (GPa) = 23.81828 32.74492 28.28160
#
# Velocity S-wave (km/s) = 3.59884 4.21967 3.92156
# Velocity P-wave (km/s) = 6.12344 7.52124 6.85805
#
# Compressibility (1/GPa) = 0.02688227
#
# Stress axis : x y z
#
# Youngs Moduli (GPa) = 45.35350 82.18324 30.46662
#
# Poissons Ratio (x) = 0.51457 0.16362
# Poissons Ratio (y) = 0.28397 0.25736
# Poissons Ratio (z) = 0.24357 0.69421
#
# Static dielectric constant tensor:
#      x y z
#    x 1.698080 0.000000 0.048610 
#    y 0.000000 1.695970 0.000000 
#    z 0.048610 0.000000 1.650460 
# 
# From -- ./inp_files/52311.got.cif
#   From: 2010.05.17/outbox.cif.g08.bks.cpg/sg14_27_cif.got.tgz:52311.got - 2010.06.03 17:49:19.
