data_PCOD9247410
_publ_section_title
;
Structure prediction by ZEFSAII (Michael W. Deem and Ramdas Pophale) SiO2 
 PCOD9247410
Probable space group: P 21/C
;
_chemical_formula_sum "Si O2"
_cell_formula_units_Z 24
_cell_length_a 5.346894
_cell_length_b 21.762553
_cell_length_c 13.101909
_cell_angle_alpha 90.000000
_cell_angle_beta 45.267567
_cell_angle_gamma 90.000000
_cell_volume 1083.052921
_symmetry_space_group_name_H-M "P 21/C"
_symmetry_group_IT_number 14
_symmetry_cell_setting 'monoclinic'
loop_
_space_group_symop_operation_xyz
x,y,z
-x,1/2+y,1/2-z
-x,-y,-z
x,1/2-y,1/2+z
loop_
_atom_site_type_symbol
_atom_site_label
_atom_site_fract_x
_atom_site_fract_y
_atom_site_fract_z
Si Si1 0.140184 0.107539 0.788694
Si Si2 0.599405 0.186223 0.526885
Si Si3 0.328885 0.702455 0.232688
Si Si4 0.832072 0.457135 0.188113
Si Si5 0.057452 0.293875 0.470764
Si Si6 0.800715 0.911455 0.608378
O O1 0.238985 0.162483 0.679561
O O2 0.477340 0.072448 0.741427
O O3 0.910764 0.063469 0.781436
O O4 0.989281 0.143682 0.929548
O O5 0.657360 0.196158 0.391772
O O6 0.743445 0.247207 0.536885
O O7 0.855559 0.129741 0.477885
O O8 0.966318 0.705199 0.399167
O O9 0.498650 0.637547 0.217879
O O10 0.587135 0.761407 0.171476
O O11 0.800213 0.529910 0.181173
O O12 0.159292 0.436060 0.020159
#
# Coordination Sequence:
#
# PCOD9247410 Si02
#       6
#     4   4   4   4   4   4
#     4  11  23  42  64  97 128 172 211 269 321 382
#     4  10  22  37  64  89 128 167 219 262 321 385
#     4  11  23  40  63  92 129 167 219 268 328 385
#     4  10  22  40  68  93 132 166 222 264 316 383
#     4  11  25  39  60  95 130 172 211 272 327 390
#     4   9  21  38  63  96 120 171 218 268 315 383
#
# _framework density 22.159583999999999
#
# number of rings (size 3 to 8) (size 9 to 14) (size 15 to 20)
#    0.000    1.667    3.333    0.000    7.000    2.000 
#    0.000    1.667    0.000    0.000    0.000    0.000 
#    0.000    0.000    0.000    0.000    0.000    0.000 
#
# Total GULP energy -133786.087257 kJ/mol
# GULP energy per Si atom -5574.420302 kJ/mol
# Density = 2.210915 g / cm^3
# Si number density = 22.159584 Si / 1000 Ang^3
#
#
#
# Elastic Constant Matrix: (Units=GPa)
#
#
# Indices 1 2 3 4 5 6 
#
# 1 62.4623 -0.9427 8.7261 0.0000 15.6004 0.0000
# 2 -0.9427 47.4344 -13.9578 0.0000 -16.0059 0.0000
# 3 8.7261 -13.9578 98.1481 0.0000 8.5325 0.0000
# 4 0.0000 0.0000 0.0000 -69.5738 0.0000 87.9457
# 5 15.6004 -16.0059 8.5325 0.0000 22.3631 0.0000
# 6 0.0000 0.0000 0.0000 87.9457 0.0000 -46.5238
#
#
#
# Elastic Compliance Matrix: (Units=1/GPa)
#
#
# Indices 1 2 3 4 5 6 
#
# 1 0.020659 -0.006112 -0.001110 0.000000 -0.018363 0.000000
# 2 -0.006112 0.030114 0.002670 0.000000 0.024798 0.000000
# 3 -0.001110 0.002670 0.010792 0.000000 -0.001432 0.000000
# 4 0.000000 0.000000 0.000000 0.010344 0.000000 0.019554
# 5 -0.018363 0.024798 -0.001432 0.000000 0.075822 0.000000
# 6 0.000000 0.000000 0.000000 0.019554 0.000000 0.015469
#
#
# Mechanical properties :
#
#
# Convention : Reuss Voigt Hill
#
# Bulk Modulus (GPa) = 19.06187 21.74401 20.40294
# Shear Modulus (GPa) = 26.34507 -4.46563 10.93972
#
# Velocity S-wave (km/s) = 3.45175 -1.42112 2.22430
# Velocity P-wave (km/s) = 4.95044 2.67226 3.97793
#
# Compressibility (1/GPa) = 0.05246076
#
# Stress axis : x y z
#
# Youngs Moduli (GPa) = 48.40596 33.20748 92.66486
#
# Poissons Ratio (x) = 0.20297 0.10282
# Poissons Ratio (y) = 0.29586 -0.24742
# Poissons Ratio (z) = 0.05371 -0.08867
#
# Static dielectric constant tensor:
#      x y z
#    x 1.803850 0.000000 0.061640 
#    y 0.000000 1.838270 0.000000 
#    z 0.061640 0.000000 1.866730 
# 
# From -- ./inp_files/6316.got.cif
#   From: 2010.05.17/outbox.cif.g08.bks.cpg/sg14_4_cif.got.tgz:6316.got - 2010.06.03 17:49:19.
