data_PCOD9247371
_publ_section_title
;
Structure prediction by ZEFSAII (Michael W. Deem and Ramdas Pophale) SiO2 
 PCOD9247371
Probable space group: P 21/C
;
_chemical_formula_sum "Si O2"
_cell_formula_units_Z 28
_cell_length_a 13.563360
_cell_length_b 8.510534
_cell_length_c 12.677613
_cell_angle_alpha 90.000000
_cell_angle_beta 116.547445
_cell_angle_gamma 90.000000
_cell_volume 1309.101391
_symmetry_space_group_name_H-M "P 21/C"
_symmetry_group_IT_number 14
_symmetry_cell_setting 'monoclinic'
loop_
_space_group_symop_operation_xyz
x,y,z
-x,1/2+y,1/2-z
-x,-y,-z
x,1/2-y,1/2+z
loop_
_atom_site_type_symbol
_atom_site_label
_atom_site_fract_x
_atom_site_fract_y
_atom_site_fract_z
Si Si1 0.222039 0.493469 0.992804
Si Si2 0.914658 0.279327 0.213358
Si Si3 0.494589 0.202058 0.190405
Si Si4 0.062896 0.011903 0.921579
Si Si5 0.538654 0.454210 0.904539
Si Si6 0.717604 0.864505 0.033727
Si Si7 0.737757 0.069717 0.250823
O O1 0.334218 0.592088 0.026339
O O2 0.211331 0.502522 0.115025
O O3 0.129450 0.579019 0.880908
O O4 0.248367 0.318532 0.963463
O O5 0.818621 0.201911 0.239792
O O6 0.011502 0.343988 0.332267
O O7 0.954679 0.143889 0.154651
O O8 0.476227 0.385938 0.167488
O O9 0.617385 0.144248 0.218824
O O10 0.474311 0.169903 0.304301
O O11 0.404088 0.120486 0.072818
O O12 0.193438 0.039098 0.992553
O O13 0.000000 0.000000 0.000000
O O14 0.500000 0.500000 0.000000
O O15 0.725827 0.935574 0.155202
#
# Coordination Sequence:
#
# PCOD9247371 Si02
#       7
#     4   4   4   4   4   4   4
#     4  10  22  39  60  89 122 157 201 253 307 364
#     4  11  23  42  65  91 122 160 205 257 309 367
#     4  10  22  39  62  91 127 165 206 253 310 371
#     4  11  25  42  63  91 121 162 209 254 307 365
#     4  10  22  37  58  89 124 163 204 250 307 370
#     4  10  23  40  62  90 124 165 206 252 308 365
#     4  10  22  41  64  93 125 162 205 255 309 368
#
# _framework density 21.388718000000001
#
# number of rings (size 3 to 8) (size 9 to 14) (size 15 to 20)
#    0.000    1.714    0.000    3.000    0.000   18.286 
#    0.000    5.000    0.000    0.000    0.000    0.000 
#    0.000    0.000    0.000    0.000    0.000    0.000 
#
# Total GULP energy -156432.262759 kJ/mol
# GULP energy per Si atom -5586.866527 kJ/mol
# Density = 2.134004 g / cm^3
# Si number density = 21.388718 Si / 1000 Ang^3
#
#
#
# Elastic Constant Matrix: (Units=GPa)
#
#
# Indices 1 2 3 4 5 6 
#
# 1 75.7883 0.9672 18.1797 0.0000 -10.0284 0.0000
# 2 0.9672 35.9893 -8.8340 0.0000 8.5739 0.0000
# 3 18.1797 -8.8340 50.3997 0.0000 -0.5647 0.0000
# 4 0.0000 0.0000 0.0000 36.7162 0.0000 2.7676
# 5 -10.0284 8.5739 -0.5647 0.0000 28.2627 0.0000
# 6 0.0000 0.0000 0.0000 2.7676 0.0000 27.8548
#
#
#
# Elastic Compliance Matrix: (Units=1/GPa)
#
#
# Indices 1 2 3 4 5 6 
#
# 1 0.015568 -0.003465 -0.006151 0.000000 0.006452 0.000000
# 2 -0.003465 0.032120 0.006759 0.000000 -0.010839 0.000000
# 3 -0.006151 0.006759 0.023202 0.000000 -0.003769 0.000000
# 4 0.000000 0.000000 0.000000 0.027441 0.000000 -0.002727
# 5 0.006452 -0.010839 -0.003769 0.000000 0.040884 0.000000
# 6 0.000000 0.000000 0.000000 -0.002727 0.000000 0.036171
#
#
# Mechanical properties :
#
#
# Convention : Reuss Voigt Hill
#
# Bulk Modulus (GPa) = 15.34311 20.31146 17.82728
# Shear Modulus (GPa) = 24.65141 28.69103 26.67122
#
# Velocity S-wave (km/s) = 3.39860 3.66650 3.53509
# Velocity P-wave (km/s) = 4.75286 5.23844 5.00154
#
# Compressibility (1/GPa) = 0.06517583
#
# Stress axis : x y z
#
# Youngs Moduli (GPa) = 64.23411 31.13304 43.09894
#
# Poissons Ratio (x) = 0.10789 0.26509
# Poissons Ratio (y) = 0.22259 -0.29129
# Poissons Ratio (z) = 0.39508 -0.21041
#
# Static dielectric constant tensor:
#      x y z
#    x 1.802130 0.000000 -0.017770 
#    y 0.000000 1.770040 0.000000 
#    z -0.017770 0.000000 1.777070 
# 
# From -- ./inp_files/31470.got.cif
#   From: 2010.05.17/outbox.cif.g08.bks.cpg/sg14_16_cif.got.tgz:31470.got - 2010.06.03 17:49:19.
