data_PCOD9247711
_publ_section_title
;
Structure prediction by ZEFSAII (Michael W. Deem and Ramdas Pophale) SiO2 
 PCOD9247711
Probable space group: P 21/C
;
_chemical_formula_sum "Si O2"
_cell_formula_units_Z 24
_cell_length_a 14.872167
_cell_length_b 8.591948
_cell_length_c 16.465084
_cell_angle_alpha 90.000000
_cell_angle_beta 32.471706
_cell_angle_gamma 90.000000
_cell_volume 1129.560618
_symmetry_space_group_name_H-M "P 21/C"
_symmetry_group_IT_number 14
_symmetry_cell_setting 'monoclinic'
loop_
_space_group_symop_operation_xyz
x,y,z
-x,1/2+y,1/2-z
-x,-y,-z
x,1/2-y,1/2+z
loop_
_atom_site_type_symbol
_atom_site_label
_atom_site_fract_x
_atom_site_fract_y
_atom_site_fract_z
Si Si1 0.183785 0.865831 0.640543
Si Si2 0.983367 0.062675 0.921569
Si Si3 0.874689 0.667531 0.908728
Si Si4 0.106680 0.344533 0.912497
Si Si5 0.520669 0.790101 0.849803
Si Si6 0.353835 0.424645 0.390748
O O1 0.363655 0.786323 0.515888
O O2 0.047187 0.727206 0.737652
O O3 0.171758 0.990809 0.576331
O O4 0.120758 0.974891 0.762476
O O5 0.016736 0.242299 0.912624
O O6 0.801562 0.025131 0.025144
O O7 0.000000 0.000000 0.000000
O O8 0.892595 0.700862 0.991692
O O9 0.728831 0.786647 0.992871
O O10 0.303473 0.327750 0.740898
O O11 0.000000 0.500000 0.000000
O O12 0.555293 0.664647 0.751794
O O13 0.466988 0.954292 0.851946
#
# Coordination Sequence:
#
# PCOD9247711 Si02
#       6
#     4   4   4   4   4   4
#     4  11  22  38  68  94 129 166 220 269 314 394
#     4  11  21  45  64  87 126 175 208 256 335 395
#     4  10  22  41  64  97 125 171 210 256 330 392
#     4  11  25  43  64  91 130 171 213 264 331 384
#     4  11  22  40  63 100 126 166 222 270 312 395
#     4  10  22  39  66  93 129 169 212 259 330 391
#
# _framework density 21.247199999999999
#
# number of rings (size 3 to 8) (size 9 to 14) (size 15 to 20)
#    0.000    1.333    5.000    4.000    7.000    0.667 
#    0.000    0.833    0.000    0.000    0.000    0.000 
#    0.000    0.000    0.000    0.000    0.000    0.000 
#
# Total GULP energy -133842.812373 kJ/mol
# GULP energy per Si atom -5576.783849 kJ/mol
# Density = 2.119884 g / cm^3
# Si number density = 21.247200 Si / 1000 Ang^3
#
#
#
# Elastic Constant Matrix: (Units=GPa)
#
#
# Indices 1 2 3 4 5 6 
#
# 1 28.5454 17.5851 -1.1308 0.0000 -0.2765 0.0000
# 2 17.5851 97.1503 33.9742 0.0000 -29.0791 0.0000
# 3 -1.1308 33.9742 98.6283 0.0000 -11.4166 0.0000
# 4 0.0000 0.0000 0.0000 41.0195 0.0000 -6.4918
# 5 -0.2765 -29.0791 -11.4166 0.0000 26.2750 0.0000
# 6 0.0000 0.0000 0.0000 -6.4918 0.0000 39.0440
#
#
#
# Elastic Compliance Matrix: (Units=1/GPa)
#
#
# Indices 1 2 3 4 5 6 
#
# 1 0.042747 -0.012491 0.003417 0.000000 -0.011890 0.000000
# 2 -0.012491 0.020287 -0.004789 0.000000 0.020240 0.000000
# 3 0.003417 -0.004789 0.011813 0.000000 -0.000131 0.000000
# 4 0.000000 0.000000 0.000000 0.025037 0.000000 0.004163
# 5 -0.011890 0.020240 -0.000131 0.000000 0.060277 0.000000
# 6 0.000000 0.000000 0.000000 0.004163 0.000000 0.026304
#
#
# Mechanical properties :
#
#
# Convention : Reuss Voigt Hill
#
# Bulk Modulus (GPa) = 21.22225 36.13124 28.67675
# Shear Modulus (GPa) = 21.74860 32.86075 27.30467
#
# Velocity S-wave (km/s) = 3.20284 3.93694 3.58871
# Velocity P-wave (km/s) = 4.86699 6.14069 5.54056
#
# Compressibility (1/GPa) = 0.04712035
#
# Stress axis : x y z
#
# Youngs Moduli (GPa) = 23.39329 49.29172 84.65531
#
# Poissons Ratio (x) = 0.61573 -0.28924
# Poissons Ratio (y) = 0.29222 0.40539
# Poissons Ratio (z) = -0.07993 0.23604
#
# Static dielectric constant tensor:
#      x y z
#    x 1.789670 0.000000 0.014700 
#    y 0.000000 1.889480 0.000000 
#    z 0.014700 0.000000 1.829660 
# 
# From -- ./inp_files/58969.got.cif
#   From: 2010.05.17/outbox.cif.g08.bks.cpg/sg14_30_cif.got.tgz:58969.got - 2010.06.03 17:49:19.
