data_PCOD9247668
_publ_section_title
;
Structure prediction by ZEFSAII (Michael W. Deem and Ramdas Pophale) SiO2 
 PCOD9247668
Probable space group: P 21/C
;
_chemical_formula_sum "Si O2"
_cell_formula_units_Z 32
_cell_length_a 22.362495
_cell_length_b 6.785168
_cell_length_c 18.388330
_cell_angle_alpha 90.000000
_cell_angle_beta 145.306568
_cell_angle_gamma 90.000000
_cell_volume 1588.096201
_symmetry_space_group_name_H-M "P 21/C"
_symmetry_group_IT_number 14
_symmetry_cell_setting 'monoclinic'
loop_
_space_group_symop_operation_xyz
x,y,z
-x,1/2+y,1/2-z
-x,-y,-z
x,1/2-y,1/2+z
loop_
_atom_site_type_symbol
_atom_site_label
_atom_site_fract_x
_atom_site_fract_y
_atom_site_fract_z
Si Si1 0.629132 0.071418 0.061196
Si Si2 0.489737 0.394289 0.840008
Si Si3 0.440091 0.790894 0.852259
Si Si4 0.869837 0.550907 0.091179
Si Si5 0.059930 0.790906 0.472081
Si Si6 0.369839 0.449117 0.148544
Si Si7 0.989730 0.605715 0.639439
Si Si8 0.129120 0.928626 0.697006
O O1 0.618876 0.130114 0.135568
O O2 0.750017 0.047112 0.161282
O O3 0.571355 0.245324 0.959347
O O4 0.558345 0.878334 0.976713
O O5 0.444607 0.556575 0.849614
O O6 0.550439 0.509217 0.837085
O O7 0.400059 0.258194 0.715475
O O8 0.388859 0.885637 0.729318
O O9 0.888913 0.385668 0.048502
O O10 0.949494 0.509220 0.236208
O O11 0.900084 0.758224 0.084723
O O12 0.749984 0.547274 0.996040
O O13 0.118946 0.869951 0.602199
O O14 0.055446 0.556582 0.460444
O O15 0.941669 0.878284 0.360093
O O16 0.071292 0.754714 0.683226
#
# Coordination Sequence:
#
# PCOD9247668 Si02
#       8
#     4   4   4   4   4   4   4   4
#     4  10  22  39  64  91 120 161 204 253 309 361
#     4  11  22  42  59  92 125 158 210 255 298 368
#     4  10  22  42  61  89 127 157 204 257 300 369
#     4  11  23  39  62  89 125 166 203 254 311 359
#     4  10  22  42  61  89 127 157 204 257 300 369
#     4  11  23  39  62  89 125 166 203 254 311 359
#     4  11  22  42  59  92 125 158 210 255 298 368
#     4  10  22  39  64  91 120 161 204 253 309 361
#
# _framework density 20.149912
#
# number of rings (size 3 to 8) (size 9 to 14) (size 15 to 20)
#    0.000    1.500    2.500    2.250    0.000    4.000 
#    0.000    0.000    0.000    0.000    0.000    0.000 
#    0.000    0.000    0.000    0.000    0.000    0.000 
#
# Total GULP energy -178918.752375 kJ/mol
# GULP energy per Si atom -5591.211012 kJ/mol
# Density = 2.010405 g / cm^3
# Si number density = 20.149912 Si / 1000 Ang^3
#
#
#
# Elastic Constant Matrix: (Units=GPa)
#
#
# Indices 1 2 3 4 5 6 
#
# 1 12.2695 -11.0265 -0.3898 0.0000 -12.5474 0.0000
# 2 -11.0265 69.0694 -2.5999 0.0000 7.0591 0.0000
# 3 -0.3898 -2.5999 22.4399 0.0000 20.9910 0.0000
# 4 0.0000 0.0000 0.0000 10.5425 0.0000 -12.5780
# 5 -12.5474 7.0591 20.9910 0.0000 26.7785 0.0000
# 6 0.0000 0.0000 0.0000 -12.5780 0.0000 25.6079
#
#
#
# Elastic Compliance Matrix: (Units=1/GPa)
#
#
# Indices 1 2 3 4 5 6 
#
# 1 -0.111336 0.010143 0.189477 0.000000 -0.203368 0.000000
# 2 0.010143 0.016883 0.006934 0.000000 -0.005134 0.000000
# 3 0.189477 0.006934 -0.122518 0.000000 0.182993 0.000000
# 4 0.000000 0.000000 0.000000 0.229119 0.000000 0.112538
# 5 -0.203368 -0.005134 0.182993 0.000000 -0.200037 0.000000
# 6 0.000000 0.000000 0.000000 0.112538 0.000000 0.094326
#
#
# Mechanical properties :
#
#
# Convention : Reuss Voigt Hill
#
# Bulk Modulus (GPa) = 5.09844 8.41627 6.75736
# Shear Modulus (GPa) = -11.33033 20.43878 4.55423
#
# Velocity S-wave (km/s) = -2.37386 3.18832 1.50502
# Velocity P-wave (km/s) = 2.23112 4.21186 2.52605
#
# Compressibility (1/GPa) = 0.19613842
#
# Stress axis : x y z
#
# Youngs Moduli (GPa) = -8.98181 59.23059 -8.16205
#
# Poissons Ratio (x) = -0.60078 1.54652
# Poissons Ratio (y) = 0.09110 0.05660
# Poissons Ratio (z) = 1.70185 -0.41073
#
# Static dielectric constant tensor:
#      x y z
#    x 1.702600 0.000000 -0.015560 
#    y 0.000000 1.704910 0.000000 
#    z -0.015560 0.000000 1.683950 
# 
# From -- ./inp_files/45364.got.cif
#   From: 2010.05.17/outbox.cif.g08.bks.cpg/sg14_23_cif.got.tgz:45364.got - 2010.06.03 17:49:19.
