data_PCOD9247233
_publ_section_title
;
Structure prediction by ZEFSAII (Michael W. Deem and Ramdas Pophale) SiO2 
 PCOD9247233
Probable space group: P 21/C
;
_chemical_formula_sum "Si O2"
_cell_formula_units_Z 20
_cell_length_a 6.884270
_cell_length_b 5.535578
_cell_length_c 23.993327
_cell_angle_alpha 90.000000
_cell_angle_beta 113.481117
_cell_angle_gamma 90.000000
_cell_volume 838.631818
_symmetry_space_group_name_H-M "P 21/C"
_symmetry_group_IT_number 14
_symmetry_cell_setting 'monoclinic'
loop_
_space_group_symop_operation_xyz
x,y,z
-x,1/2+y,1/2-z
-x,-y,-z
x,1/2-y,1/2+z
loop_
_atom_site_type_symbol
_atom_site_label
_atom_site_fract_x
_atom_site_fract_y
_atom_site_fract_z
Si Si1 0.634634 0.367671 0.266335
Si Si2 0.953449 0.563455 0.384275
Si Si3 0.635611 0.753730 0.554927
Si Si4 0.226712 0.636524 0.838623
Si Si5 0.631687 0.845655 0.935873
O O1 0.782436 0.384008 0.337538
O O2 0.781713 0.394421 0.228116
O O3 0.485868 0.608916 0.248588
O O4 0.842887 0.680039 0.425019
O O5 0.167774 0.434270 0.426241
O O6 0.020964 0.749661 0.343681
O O7 0.422527 0.610993 0.546750
O O8 0.620431 0.830443 0.488115
O O9 0.709620 0.913046 0.615218
O O10 0.434347 0.801443 0.872312
#
# Coordination Sequence:
#
# PCOD9247233 Si02
#       5
#     4   4   4   4   4
#     4  12  28  48  74  99 145 191 237 295 356 421
#     4  11  25  41  68 101 137 183 237 290 351 418
#     4  10  23  40  72  97 141 181 230 293 346 428
#     4  11  25  41  68 101 135 184 235 290 352 417
#     4  10  21  46  64 102 138 182 230 286 358 416
#
# _framework density 23.848369999999999
#
# number of rings (size 3 to 8) (size 9 to 14) (size 15 to 20)
#    0.000    1.200    2.000    2.400    8.400    2.400 
#    0.000    0.000    0.000    0.000    0.000    0.000 
#    0.000    0.000    0.000    0.000    0.000    0.000 
#
# Total GULP energy -111725.531021 kJ/mol
# GULP energy per Si atom -5586.276551 kJ/mol
# Density = 2.379409 g / cm^3
# Si number density = 23.848370 Si / 1000 Ang^3
#
#
#
# Elastic Constant Matrix: (Units=GPa)
#
#
# Indices 1 2 3 4 5 6 
#
# 1 105.2423 11.7662 0.9594 0.0000 -37.5840 0.0000
# 2 11.7662 46.2038 -14.9434 0.0000 -4.6298 0.0000
# 3 0.9594 -14.9434 74.2313 0.0000 -21.1742 0.0000
# 4 0.0000 0.0000 0.0000 32.8338 0.0000 -1.7092
# 5 -37.5840 -4.6298 -21.1742 0.0000 61.3321 0.0000
# 6 0.0000 0.0000 0.0000 -1.7092 0.0000 12.9143
#
#
#
# Elastic Compliance Matrix: (Units=1/GPa)
#
#
# Indices 1 2 3 4 5 6 
#
# 1 0.012626 -0.001801 0.001822 0.000000 0.008230 0.000000
# 2 -0.001801 0.024200 0.005658 0.000000 0.002676 0.000000
# 3 0.001822 0.005658 0.016669 0.000000 0.007298 0.000000
# 4 0.000000 0.000000 0.000000 0.030668 0.000000 0.004059
# 5 0.008230 0.002676 0.007298 0.000000 0.024070 0.000000
# 6 0.000000 0.000000 0.000000 0.004059 0.000000 0.077971
#
#
# Mechanical properties :
#
#
# Convention : Reuss Voigt Hill
#
# Bulk Modulus (GPa) = 15.41965 24.58242 20.00103
# Shear Modulus (GPa) = 25.45015 36.60907 31.02961
#
# Velocity S-wave (km/s) = 3.27029 3.92226 3.61102
# Velocity P-wave (km/s) = 4.55406 5.55358 5.07847
#
# Compressibility (1/GPa) = 0.06485233
#
# Stress axis : x y z
#
# Youngs Moduli (GPa) = 79.20331 41.32192 59.99256
#
# Poissons Ratio (x) = 0.07444 -0.10929
# Poissons Ratio (y) = 0.14268 -0.33947
# Poissons Ratio (z) = -0.14429 -0.23382
#
# Static dielectric constant tensor:
#      x y z
#    x 1.867690 0.000000 -0.011500 
#    y 0.000000 2.045910 0.000000 
#    z -0.011500 0.000000 1.905090 
# 
# From -- ./inp_files/71477.got.cif
#   From: 2010.05.17/outbox.cif.g08.bks.cpg/sg14_36_cif.got.tgz:71477.got - 2010.06.03 17:49:19.
