data_PCOD9247685
_publ_section_title
;
Structure prediction by ZEFSAII (Michael W. Deem and Ramdas Pophale) SiO2 
 PCOD9247685
Probable space group: P 21/C
;
_chemical_formula_sum "Si O2"
_cell_formula_units_Z 24
_cell_length_a 8.453082
_cell_length_b 17.033627
_cell_length_c 16.398580
_cell_angle_alpha 90.000000
_cell_angle_beta 153.652118
_cell_angle_gamma 90.000000
_cell_volume 1047.937907
_symmetry_space_group_name_H-M "P 21/C"
_symmetry_group_IT_number 14
_symmetry_cell_setting 'monoclinic'
loop_
_space_group_symop_operation_xyz
x,y,z
-x,1/2+y,1/2-z
-x,-y,-z
x,1/2-y,1/2+z
loop_
_atom_site_type_symbol
_atom_site_label
_atom_site_fract_x
_atom_site_fract_y
_atom_site_fract_z
Si Si1 0.362880 0.194042 0.019772
Si Si2 0.963807 0.992399 0.386585
Si Si3 0.313057 0.164356 0.809043
Si Si4 0.163217 0.340076 0.705098
Si Si5 0.184867 0.138392 0.402285
Si Si6 0.255658 0.429595 0.592846
O O1 0.141035 0.142974 0.982341
O O2 0.771294 0.165972 0.213801
O O3 0.234604 0.175983 0.868784
O O4 0.368510 0.288052 0.031517
O O5 0.927639 0.904554 0.337989
O O6 0.570380 0.028080 0.189872
O O7 0.000000 0.000000 0.500000
O O8 0.224808 0.053854 0.462701
O O9 0.234340 0.247457 0.730703
O O10 0.736625 0.146997 0.997720
O O11 0.274571 0.364151 0.847895
O O12 0.360428 0.388489 0.726326
O O13 0.000000 0.500000 0.500000
#
# Coordination Sequence:
#
# PCOD9247685 Si02
#       6
#     4   4   4   4   4   4
#     4   9  21  38  63  85 115 155 198 236 298 349
#     4  11  25  40  59  89 123 157 199 245 296 344
#     4  10  22  41  62  85 119 160 194 244 294 358
#     4  10  22  39  65  87 118 154 202 240 301 350
#     4   9  21  41  62  85 118 157 197 243 295 354
#     4  11  23  38  61  89 116 155 197 243 292 352
#
# _framework density 22.902118999999999
#
# number of rings (size 3 to 8) (size 9 to 14) (size 15 to 20)
#    0.000    2.000    1.667    0.000    7.000    4.667 
#    0.000    0.833    0.000    0.000    0.000    0.000 
#    0.000    0.000    0.000    0.000    0.000    0.000 
#
# Total GULP energy -134078.982792 kJ/mol
# GULP energy per Si atom -5586.624283 kJ/mol
# Density = 2.284999 g / cm^3
# Si number density = 22.902119 Si / 1000 Ang^3
#
#
#
# Elastic Constant Matrix: (Units=GPa)
#
#
# Indices 1 2 3 4 5 6 
#
# 1 56.1731 32.2189 -4.3549 0.0000 2.6902 0.0000
# 2 32.2189 97.6538 11.4505 0.0000 -6.4826 0.0000
# 3 -4.3549 11.4505 39.7463 0.0000 1.0927 0.0000
# 4 0.0000 0.0000 0.0000 29.3203 0.0000 -1.3471
# 5 2.6902 -6.4826 1.0927 0.0000 22.1127 0.0000
# 6 0.0000 0.0000 0.0000 -1.3471 0.0000 43.1783
#
#
#
# Elastic Compliance Matrix: (Units=1/GPa)
#
#
# Indices 1 2 3 4 5 6 
#
# 1 0.023497 -0.008745 0.005250 0.000000 -0.005682 0.000000
# 2 -0.008745 0.014093 -0.005168 0.000000 0.005451 0.000000
# 3 0.005250 -0.005168 0.027320 0.000000 -0.003504 0.000000
# 4 0.000000 0.000000 0.000000 0.034155 0.000000 0.001066
# 5 -0.005682 0.005451 -0.003504 0.000000 0.047685 0.000000
# 6 0.000000 0.000000 0.000000 0.001066 0.000000 0.023193
#
#
# Mechanical properties :
#
#
# Convention : Reuss Voigt Hill
#
# Bulk Modulus (GPa) = 21.01542 30.24468 25.63005
# Shear Modulus (GPa) = 24.61455 29.20619 26.91037
#
# Velocity S-wave (km/s) = 3.28193 3.57495 3.43157
# Velocity P-wave (km/s) = 4.85361 5.50228 5.18809
#
# Compressibility (1/GPa) = 0.04758411
#
# Stress axis : x y z
#
# Youngs Moduli (GPa) = 42.55829 70.95516 36.60315
#
# Poissons Ratio (x) = 0.62052 -0.19217
# Poissons Ratio (y) = 0.37218 0.18917
# Poissons Ratio (z) = -0.22344 0.36671
#
# Static dielectric constant tensor:
#      x y z
#    x 1.862890 0.000000 0.048070 
#    y 0.000000 1.891280 0.000000 
#    z 0.048070 0.000000 1.934640 
# 
# From -- ./inp_files/9192.got.cif
#   From: 2010.05.17/outbox.cif.g08.bks.cpg/sg14_5_cif.got.tgz:9192.got - 2010.06.03 17:49:19.
