data_PCOD9247856
_publ_section_title
;
Structure prediction by ZEFSAII (Michael W. Deem and Ramdas Pophale) SiO2 
 PCOD9247856
Probable space group: P 21/C
;
_chemical_formula_sum "Si O2"
_cell_formula_units_Z 24
_cell_length_a 10.602679
_cell_length_b 7.177963
_cell_length_c 26.351114
_cell_angle_alpha 90.000000
_cell_angle_beta 31.091717
_cell_angle_gamma 90.000000
_cell_volume 1035.642972
_symmetry_space_group_name_H-M "P 21/C"
_symmetry_group_IT_number 14
_symmetry_cell_setting 'monoclinic'
loop_
_space_group_symop_operation_xyz
x,y,z
-x,1/2+y,1/2-z
-x,-y,-z
x,1/2-y,1/2+z
loop_
_atom_site_type_symbol
_atom_site_label
_atom_site_fract_x
_atom_site_fract_y
_atom_site_fract_z
Si Si1 0.691739 0.393543 0.164511
Si Si2 0.540923 0.980849 0.567234
Si Si3 0.909572 0.483356 0.852050
Si Si4 0.746526 0.167457 0.052857
Si Si5 0.153037 0.285280 0.342071
Si Si6 0.392898 0.674453 0.694108
O O1 0.832839 0.285456 0.071954
O O2 0.409091 0.382658 0.244324
O O3 0.789455 0.597091 0.145016
O O4 0.682204 0.291617 0.222039
O O5 0.288441 0.966512 0.623591
O O6 0.597962 0.186392 0.568749
O O7 0.756760 0.935709 0.452853
O O8 0.522304 0.838388 0.619733
O O9 0.025076 0.291935 0.835069
O O10 0.137467 0.609519 0.757330
O O11 0.574933 0.001916 0.130609
O O12 0.967915 0.101646 0.941117
#
# Coordination Sequence:
#
# PCOD9247856 Si02
#       6
#     4   4   4   4   4   4
#     4  11  20  41  59  91 129 165 208 263 321 373
#     4  10  23  43  68  92 129 177 205 268 329 365
#     4   9  21  45  64  93 135 161 219 269 310 384
#     4  11  23  43  64  95 130 166 215 266 319 381
#     4  10  22  40  64  89 129 166 211 269 315 385
#     4  11  24  40  65  99 123 169 224 256 321 390
#
# _framework density 23.174009999999999
#
# number of rings (size 3 to 8) (size 9 to 14) (size 15 to 20)
#    0.000    1.667    3.333    1.500    2.333    3.333 
#   12.000    7.500    0.000    0.000    0.000    0.000 
#    0.000    0.000    0.000    0.000    0.000    0.000 
#
# Total GULP energy -134271.731624 kJ/mol
# GULP energy per Si atom -5594.655484 kJ/mol
# Density = 2.312126 g / cm^3
# Si number density = 23.174010 Si / 1000 Ang^3
#
#
#
# Elastic Constant Matrix: (Units=GPa)
#
#
# Indices 1 2 3 4 5 6 
#
# 1 92.3697 20.9958 8.2727 0.0000 -4.3328 0.0000
# 2 20.9958 61.0739 7.3284 0.0000 1.8729 0.0000
# 3 8.2727 7.3284 68.6856 0.0000 6.1290 0.0000
# 4 0.0000 0.0000 0.0000 31.2261 0.0000 -4.1219
# 5 -4.3328 1.8729 6.1290 0.0000 40.4427 0.0000
# 6 0.0000 0.0000 0.0000 -4.1219 0.0000 18.7702
#
#
#
# Elastic Compliance Matrix: (Units=1/GPa)
#
#
# Indices 1 2 3 4 5 6 
#
# 1 0.011917 -0.004009 -0.001154 0.000000 0.001637 0.000000
# 2 -0.004009 0.017945 -0.001337 0.000000 -0.001058 0.000000
# 3 -0.001154 -0.001337 0.015050 0.000000 -0.002342 0.000000
# 4 0.000000 0.000000 0.000000 0.032981 0.000000 0.007243
# 5 0.001637 -0.001058 -0.002342 0.000000 0.025306 0.000000
# 6 0.000000 0.000000 0.000000 0.007243 0.000000 0.054866
#
#
# Mechanical properties :
#
#
# Convention : Reuss Voigt Hill
#
# Bulk Modulus (GPa) = 31.33609 32.81367 32.07488
# Shear Modulus (GPa) = 27.51767 30.45662 28.98714
#
# Velocity S-wave (km/s) = 3.44966 3.62920 3.54057
# Velocity P-wave (km/s) = 5.42386 5.63488 5.53038
#
# Compressibility (1/GPa) = 0.03191209
#
# Stress axis : x y z
#
# Youngs Moduli (GPa) = 83.91108 55.72699 66.44619
#
# Poissons Ratio (x) = 0.22339 0.07666
# Poissons Ratio (y) = 0.33637 0.08887
# Poissons Ratio (z) = 0.09681 0.07453
#
# Static dielectric constant tensor:
#      x y z
#    x 1.882800 0.000000 -0.016530 
#    y 0.000000 1.878980 0.000000 
#    z -0.016530 0.000000 1.856670 
# 
# From -- ./inp_files/76991.got.cif
#   From: 2010.05.17/outbox.cif.g08.bks.cpg/sg14_39_cif.got.tgz:76991.got - 2010.06.03 17:49:19.
