data_PCOD9247474
_publ_section_title
;
Structure prediction by ZEFSAII (Michael W. Deem and Ramdas Pophale) SiO2 
 PCOD9247474
Probable space group: P 21/C
;
_chemical_formula_sum "Si O2"
_cell_formula_units_Z 28
_cell_length_a 14.757565
_cell_length_b 12.535513
_cell_length_c 8.052839
_cell_angle_alpha 90.000000
_cell_angle_beta 57.420861
_cell_angle_gamma 90.000000
_cell_volume 1255.313753
_symmetry_space_group_name_H-M "P 21/C"
_symmetry_group_IT_number 14
_symmetry_cell_setting 'monoclinic'
loop_
_space_group_symop_operation_xyz
x,y,z
-x,1/2+y,1/2-z
-x,-y,-z
x,1/2-y,1/2+z
loop_
_atom_site_type_symbol
_atom_site_label
_atom_site_fract_x
_atom_site_fract_y
_atom_site_fract_z
Si Si1 0.618379 0.727189 0.129613
Si Si2 0.984949 0.837761 0.556173
Si Si3 0.036750 0.891077 0.879379
Si Si4 0.735282 0.173835 0.472201
Si Si5 0.214181 0.604360 0.708436
Si Si6 0.513180 0.124185 0.513909
Si Si7 0.747067 0.873798 0.774993
O O1 0.575244 0.827339 0.274909
O O2 0.665230 0.636028 0.202512
O O3 0.517611 0.683982 0.125476
O O4 0.713425 0.774397 0.922588
O O5 0.984588 0.872864 0.748830
O O6 0.007166 0.711491 0.519851
O O7 0.085245 0.893447 0.365078
O O8 0.869260 0.862011 0.593904
O O9 0.163986 0.883420 0.716891
O O10 0.000000 0.000000 0.000000
O O11 0.735892 0.136108 0.661654
O O12 0.757852 0.300766 0.443631
O O13 0.627977 0.149420 0.478434
O O14 0.256609 0.486869 0.628369
O O15 0.500000 0.000000 0.500000
#
# Coordination Sequence:
#
# PCOD9247474 Si02
#       7
#     4   4   4   4   4   4   4
#     4  10  25  40  60  92 117 157 212 244 291 362
#     4  10  22  38  61  91 121 157 203 239 293 370
#     4  10  23  40  62  92 124 157 196 244 299 358
#     4  10  22  40  62  88 118 154 202 246 294 358
#     4  10  22  39  62  90 119 155 195 245 302 357
#     4  11  23  42  63  86 119 157 200 252 299 346
#     4  11  22  41  62  87 126 161 195 250 301 345
#
# _framework density 22.305181000000001
#
# number of rings (size 3 to 8) (size 9 to 14) (size 15 to 20)
#    0.000    1.714    0.000    3.000    0.000   14.857 
#    0.000    3.571    0.000    0.000    0.000    0.000 
#    0.000    0.000    0.000    0.000    0.000    0.000 
#
# Total GULP energy -156676.081644 kJ/mol
# GULP energy per Si atom -5595.574344 kJ/mol
# Density = 2.225441 g / cm^3
# Si number density = 22.305181 Si / 1000 Ang^3
#
#
#
# Elastic Constant Matrix: (Units=GPa)
#
#
# Indices 1 2 3 4 5 6 
#
# 1 117.0309 -6.4594 8.9917 0.0000 -15.2039 0.0000
# 2 -6.4594 106.9563 9.1625 0.0000 -3.1729 0.0000
# 3 8.9917 9.1625 22.4908 0.0000 5.0007 0.0000
# 4 0.0000 0.0000 0.0000 24.7006 0.0000 2.7108
# 5 -15.2039 -3.1729 5.0007 0.0000 20.8839 0.0000
# 6 0.0000 0.0000 0.0000 2.7108 0.0000 28.9625
#
#
#
# Elastic Compliance Matrix: (Units=1/GPa)
#
#
# Indices 1 2 3 4 5 6 
#
# 1 0.010378 0.001493 -0.006853 0.000000 0.009423 0.000000
# 2 0.001493 0.010033 -0.005561 0.000000 0.003943 0.000000
# 3 -0.006853 -0.005561 0.053620 0.000000 -0.018673 0.000000
# 4 0.000000 0.000000 0.000000 0.040905 0.000000 -0.003829
# 5 0.009423 0.003943 -0.018673 0.000000 0.059814 0.000000
# 6 0.000000 0.000000 0.000000 -0.003829 0.000000 0.034886
#
#
# Mechanical properties :
#
#
# Convention : Reuss Voigt Hill
#
# Bulk Modulus (GPa) = 19.16077 29.98529 24.57303
# Shear Modulus (GPa) = 20.09054 30.56162 25.32608
#
# Velocity S-wave (km/s) = 3.00444 3.70558 3.37328
# Velocity P-wave (km/s) = 4.54362 5.63745 5.11983
#
# Compressibility (1/GPa) = 0.05218997
#
# Stress axis : x y z
#
# Youngs Moduli (GPa) = 96.35906 99.66933 18.64984
#
# Poissons Ratio (x) = -0.14884 0.12780
# Poissons Ratio (y) = -0.14389 0.10372
# Poissons Ratio (z) = 0.66030 0.55428
#
# Static dielectric constant tensor:
#      x y z
#    x 1.799670 0.000000 -0.014980 
#    y 0.000000 1.798320 0.000000 
#    z -0.014980 0.000000 1.746450 
# 
# From -- ./inp_files/15691.got.cif
#   From: 2010.05.17/outbox.cif.g08.bks.cpg/sg14_8_cif.got.tgz:15691.got - 2010.06.03 17:49:19.
