data_PCOD9247712
_publ_section_title
;
Structure prediction by ZEFSAII (Michael W. Deem and Ramdas Pophale) SiO2 
 PCOD9247712
Probable space group: P 21/C
;
_chemical_formula_sum "Si O2"
_cell_formula_units_Z 24
_cell_length_a 15.328450
_cell_length_b 4.980526
_cell_length_c 26.205537
_cell_angle_alpha 90.000000
_cell_angle_beta 151.828834
_cell_angle_gamma 90.000000
_cell_volume 944.511243
_symmetry_space_group_name_H-M "P 21/C"
_symmetry_group_IT_number 14
_symmetry_cell_setting 'monoclinic'
loop_
_space_group_symop_operation_xyz
x,y,z
-x,1/2+y,1/2-z
-x,-y,-z
x,1/2-y,1/2+z
loop_
_atom_site_type_symbol
_atom_site_label
_atom_site_fract_x
_atom_site_fract_y
_atom_site_fract_z
Si Si1 0.878752 0.284872 0.031982
Si Si2 0.258967 0.229702 0.271371
Si Si3 0.418617 0.090571 0.087784
Si Si4 0.222678 0.075149 0.413973
Si Si5 0.566441 0.947117 0.313510
Si Si6 0.183460 0.730619 0.301055
O O1 0.770435 0.437236 0.931347
O O2 0.775399 0.000835 0.986747
O O3 0.830993 0.430374 0.060904
O O4 0.098512 0.270120 0.146521
O O5 0.454184 0.331678 0.351837
O O6 0.227602 0.435943 0.302941
O O7 0.230783 0.936859 0.280079
O O8 0.503784 0.303208 0.170951
O O9 0.378764 0.219138 0.012286
O O10 0.037723 0.234153 0.302979
O O11 0.273291 0.856156 0.397940
O O12 0.550257 0.703304 0.265230
#
# Coordination Sequence:
#
# PCOD9247712 Si02
#       6
#     4   4   4   4   4   4
#     4  10  22  44  67  94 132 177 210 270 331 386
#     4  11  26  41  64 100 134 175 220 268 318 384
#     4  11  24  43  69  97 135 168 220 272 330 387
#     4  10  22  39  66  93 131 186 218 267 320 372
#     4  11  23  43  73  96 122 170 214 265 337 405
#     4  11  23  40  63  95 136 177 227 262 312 381
#
# _framework density 25.409969
#
# number of rings (size 3 to 8) (size 9 to 14) (size 15 to 20)
#    0.000    1.333    3.333    2.000    7.000    1.333 
#    0.000    1.667    0.000    0.000    0.000    0.000 
#    0.000    0.000    0.000    0.000    0.000    0.000 
#
# Total GULP energy -134382.080191 kJ/mol
# GULP energy per Si atom -5599.253341 kJ/mol
# Density = 2.535213 g / cm^3
# Si number density = 25.409969 Si / 1000 Ang^3
#
#
#
# Elastic Constant Matrix: (Units=GPa)
#
#
# Indices 1 2 3 4 5 6 
#
# 1 47.9704 18.8162 24.0885 0.0000 -2.0289 0.0000
# 2 18.8162 114.5529 34.8871 0.0000 -10.2147 0.0000
# 3 24.0885 34.8871 111.9439 0.0000 -6.2741 0.0000
# 4 0.0000 0.0000 0.0000 38.6040 0.0000 -6.0189
# 5 -2.0289 -10.2147 -6.2741 0.0000 36.7098 0.0000
# 6 0.0000 0.0000 0.0000 -6.0189 0.0000 36.2083
#
#
#
# Elastic Compliance Matrix: (Units=1/GPa)
#
#
# Indices 1 2 3 4 5 6 
#
# 1 0.024066 -0.002637 -0.004365 0.000000 -0.000150 0.000000
# 2 -0.002637 0.010112 -0.002458 0.000000 0.002248 0.000000
# 3 -0.004365 -0.002458 0.010689 0.000000 0.000902 0.000000
# 4 0.000000 0.000000 0.000000 0.026593 0.000000 0.004421
# 5 -0.000150 0.002248 0.000902 0.000000 0.028012 0.000000
# 6 0.000000 0.000000 0.000000 0.004421 0.000000 0.028353
#
#
# Mechanical properties :
#
#
# Convention : Reuss Voigt Hill
#
# Bulk Modulus (GPa) = 38.54065 47.78343 43.16204
# Shear Modulus (GPa) = 32.17627 35.41610 33.79618
#
# Velocity S-wave (km/s) = 3.56235 3.73740 3.65092
# Velocity P-wave (km/s) = 5.66753 6.12127 5.89877
#
# Compressibility (1/GPa) = 0.02594663
#
# Stress axis : x y z
#
# Youngs Moduli (GPa) = 41.55203 98.89512 93.55496
#
# Poissons Ratio (x) = 0.26078 0.40839
# Poissons Ratio (y) = 0.10957 0.22995
# Poissons Ratio (z) = 0.18138 0.24307
#
# Static dielectric constant tensor:
#      x y z
#    x 2.039400 0.000000 0.016670 
#    y 0.000000 2.016170 0.000000 
#    z 0.016670 0.000000 2.032000 
# 
# From -- ./inp_files/49597.got.cif
#   From: 2010.05.17/outbox.cif.g08.bks.cpg/sg14_25_cif.got.tgz:49597.got - 2010.06.03 17:49:19.
