data_PCOD9247379
_publ_section_title
;
Structure prediction by ZEFSAII (Michael W. Deem and Ramdas Pophale) SiO2 
 PCOD9247379
Probable space group: P 21/C
;
_chemical_formula_sum "Si O2"
_cell_formula_units_Z 20
_cell_length_a 7.297776
_cell_length_b 5.214048
_cell_length_c 21.696413
_cell_angle_alpha 90.000000
_cell_angle_beta 96.062469
_cell_angle_gamma 90.000000
_cell_volume 820.952091
_symmetry_space_group_name_H-M "P 21/C"
_symmetry_group_IT_number 14
_symmetry_cell_setting 'monoclinic'
loop_
_space_group_symop_operation_xyz
x,y,z
-x,1/2+y,1/2-z
-x,-y,-z
x,1/2-y,1/2+z
loop_
_atom_site_type_symbol
_atom_site_label
_atom_site_fract_x
_atom_site_fract_y
_atom_site_fract_z
Si Si1 0.573620 0.751854 0.967542
Si Si2 0.164731 0.399347 0.205280
Si Si3 0.452476 0.906251 0.636784
Si Si4 0.155161 0.009339 0.098100
Si Si5 0.141188 0.283629 0.344665
O O1 0.509230 0.677049 0.896017
O O2 0.787459 0.807379 0.956256
O O3 0.500000 0.500000 0.000000
O O4 0.500000 0.000000 0.000000
O O5 0.357104 0.544799 0.198928
O O6 0.124138 0.401293 0.275685
O O7 0.991374 0.535818 0.166073
O O8 0.190184 0.139021 0.166960
O O9 0.293110 0.734336 0.598504
O O10 0.645401 0.769084 0.641289
O O11 0.943819 0.932256 0.100226
#
# Coordination Sequence:
#
# PCOD9247379 Si02
#       5
#     4   4   4   4   4
#     4  11  22  46  74  95 135 180 229 297 357 388
#     4  10  22  37  59  92 140 181 212 273 335 404
#     4  10  24  39  67  99 130 181 231 276 335 420
#     4  10  22  42  65  96 133 175 226 283 332 408
#     4  11  22  40  61  98 139 180 226 271 340 412
#
# _framework density 24.361958999999999
#
# number of rings (size 3 to 8) (size 9 to 14) (size 15 to 20)
#    0.000    1.600    4.000    0.000    2.800    3.200 
#    0.000    2.000    0.000    0.000    0.000    0.000 
#    0.000    0.000    0.000    0.000    0.000    0.000 
#
# Total GULP energy -111397.436253 kJ/mol
# GULP energy per Si atom -5569.871813 kJ/mol
# Density = 2.430651 g / cm^3
# Si number density = 24.361959 Si / 1000 Ang^3
#
#
#
# Elastic Constant Matrix: (Units=GPa)
#
#
# Indices 1 2 3 4 5 6 
#
# 1 153.2137 52.7121 38.9899 0.0000 -46.7724 0.0000
# 2 52.7121 107.7004 40.2592 0.0000 -37.7230 0.0000
# 3 38.9899 40.2592 93.3710 0.0000 -48.2580 0.0000
# 4 0.0000 0.0000 0.0000 35.9004 0.0000 -21.8740
# 5 -46.7724 -37.7230 -48.2580 0.0000 48.4160 0.0000
# 6 0.0000 0.0000 0.0000 -21.8740 0.0000 33.6899
#
#
#
# Elastic Compliance Matrix: (Units=1/GPa)
#
#
# Indices 1 2 3 4 5 6 
#
# 1 0.009693 -0.002073 0.001755 0.000000 0.009498 0.000000
# 2 -0.002073 0.013239 -0.001127 0.000000 0.007189 0.000000
# 3 0.001755 -0.001127 0.022452 0.000000 0.023196 0.000000
# 4 0.000000 0.000000 0.000000 0.046087 0.000000 0.029923
# 5 0.009498 0.007189 0.023196 0.000000 0.058551 0.000000
# 6 0.000000 0.000000 0.000000 0.029923 0.000000 0.049111
#
#
# Mechanical properties :
#
#
# Convention : Reuss Voigt Hill
#
# Bulk Modulus (GPa) = 23.53312 68.68974 46.11143
# Shear Modulus (GPa) = 23.12810 38.42283 30.77547
#
# Velocity S-wave (km/s) = 3.08450 3.97566 3.55809
# Velocity P-wave (km/s) = 4.72930 7.02362 5.98738
#
# Compressibility (1/GPa) = 0.04249330
#
# Stress axis : x y z
#
# Youngs Moduli (GPa) = 103.16687 75.53420 44.54038
#
# Poissons Ratio (x) = 0.15662 -0.07819
# Poissons Ratio (y) = 0.21391 0.05020
# Poissons Ratio (z) = -0.18111 0.08514
#
# Static dielectric constant tensor:
#      x y z
#    x 1.983140 0.000000 0.023280 
#    y 0.000000 2.128730 0.000000 
#    z 0.023280 0.000000 1.979230 
# 
# From -- ./inp_files/75476.got.cif
#   From: 2010.05.17/outbox.cif.g08.bks.cpg/sg14_38_cif.got.tgz:75476.got - 2010.06.03 17:49:19.
