data_PCOD9247031
_publ_section_title
;
Structure prediction by ZEFSAII (Michael W. Deem and Ramdas Pophale) SiO2 
 PCOD9247031
Probable space group: P 21/C
;
_chemical_formula_sum "Si O2"
_cell_formula_units_Z 28
_cell_length_a 7.544128
_cell_length_b 19.724266
_cell_length_c 12.737276
_cell_angle_alpha 90.000000
_cell_angle_beta 142.233935
_cell_angle_gamma 90.000000
_cell_volume 1160.778260
_symmetry_space_group_name_H-M "P 21/C"
_symmetry_group_IT_number 14
_symmetry_cell_setting 'monoclinic'
loop_
_space_group_symop_operation_xyz
x,y,z
-x,1/2+y,1/2-z
-x,-y,-z
x,1/2-y,1/2+z
loop_
_atom_site_type_symbol
_atom_site_label
_atom_site_fract_x
_atom_site_fract_y
_atom_site_fract_z
Si Si1 0.426261 0.225091 0.617372
Si Si2 0.051426 0.368908 0.077859
Si Si3 0.394168 0.353539 0.749712
Si Si4 0.687152 0.002957 0.195678
Si Si5 0.110431 0.063064 0.963796
Si Si6 0.230148 0.457711 0.828824
Si Si7 0.974202 0.687413 0.711766
O O1 0.249405 0.162131 0.580135
O O2 0.434574 0.278632 0.718834
O O3 0.731751 0.204622 0.711523
O O4 0.260689 0.262336 0.445454
O O5 0.198613 0.436546 0.192048
O O6 0.016195 0.315720 0.158536
O O7 0.723955 0.380547 0.888802
O O8 0.103498 0.380796 0.552414
O O9 0.324179 0.383483 0.832770
O O10 0.972535 0.043709 0.293405
O O11 0.500000 0.000000 0.000000
O O12 0.422730 0.032814 0.137443
O O13 0.112577 0.111506 0.863469
O O14 0.897642 0.003293 0.828701
O O15 0.500000 0.500000 0.000000
#
# Coordination Sequence:
#
# PCOD9247031 Si02
#       7
#     4   4   4   4   4   4   4
#     4  11  27  46  69 105 137 190 247 291 361 432
#     4  12  24  48  72 103 147 187 240 303 358 439
#     4  11  24  45  65 104 142 182 243 291 360 434
#     4  10  21  43  68 104 138 183 239 286 372 433
#     4  10  23  45  68 105 144 182 236 296 364 431
#     4  11  20  41  70 101 139 182 237 291 361 432
#     4  11  24  48  71  99 145 184 242 298 358 436
#
# _framework density 24.121746999999999
#
# number of rings (size 3 to 8) (size 9 to 14) (size 15 to 20)
#    0.000    1.143    5.714    0.429    2.000    6.286 
#   10.286    0.000    0.000    0.000    0.000    0.000 
#    0.000    0.000    0.000    0.000    0.000    0.000 
#
# Total GULP energy -156113.402014 kJ/mol
# GULP energy per Si atom -5575.478643 kJ/mol
# Density = 2.406684 g / cm^3
# Si number density = 24.121747 Si / 1000 Ang^3
#
#
#
# Elastic Constant Matrix: (Units=GPa)
#
#
# Indices 1 2 3 4 5 6 
#
# 1 89.5874 32.1712 30.7485 0.0000 25.2472 0.0000
# 2 32.1712 80.7740 58.6004 0.0000 8.7761 0.0000
# 3 30.7485 58.6004 134.8878 0.0000 23.9060 0.0000
# 4 0.0000 0.0000 0.0000 53.0574 0.0000 -21.4413
# 5 25.2472 8.7761 23.9060 0.0000 35.0392 0.0000
# 6 0.0000 0.0000 0.0000 -21.4413 0.0000 75.7569
#
#
#
# Elastic Compliance Matrix: (Units=1/GPa)
#
#
# Indices 1 2 3 4 5 6 
#
# 1 0.015944 -0.005729 0.000724 0.000000 -0.010547 0.000000
# 2 -0.005729 0.020164 -0.008294 0.000000 0.004736 0.000000
# 3 0.000724 -0.008294 0.012031 0.000000 -0.006652 0.000000
# 4 0.000000 0.000000 0.000000 0.021282 0.000000 0.006023
# 5 -0.010547 0.004736 -0.006652 0.000000 0.039491 0.000000
# 6 0.000000 0.000000 0.000000 0.006023 0.000000 0.014905
#
#
# Mechanical properties :
#
#
# Convention : Reuss Voigt Hill
#
# Bulk Modulus (GPa) = 46.42427 60.92105 53.67266
# Shear Modulus (GPa) = 31.72699 45.01930 38.37314
#
# Velocity S-wave (km/s) = 3.63062 4.32480 3.99282
# Velocity P-wave (km/s) = 6.07147 7.08865 6.59969
#
# Compressibility (1/GPa) = 0.02154046
#
# Stress axis : x y z
#
# Youngs Moduli (GPa) = 62.72131 49.59242 83.12156
#
# Poissons Ratio (x) = 0.28413 -0.06016
# Poissons Ratio (y) = 0.35935 0.68937
# Poissons Ratio (z) = -0.04540 0.41130
#
# Static dielectric constant tensor:
#      x y z
#    x 2.071860 0.000000 -0.121180 
#    y 0.000000 -0.153460 0.000000 
#    z -0.121180 0.000000 1.985470 
# 
# From -- ./inp_files/42113.got.cif
#   From: 2010.05.17/outbox.cif.g08.bks.cpg/sg14_22_cif.got.tgz:42113.got - 2010.06.03 17:49:19.
