data_PCOD9247531
_publ_section_title
;
Structure prediction by ZEFSAII (Michael W. Deem and Ramdas Pophale) SiO2 
 PCOD9247531
Probable space group: P 21/C
;
_chemical_formula_sum "Si O2"
_cell_formula_units_Z 28
_cell_length_a 7.098405
_cell_length_b 18.669491
_cell_length_c 11.398526
_cell_angle_alpha 90.000000
_cell_angle_beta 59.467625
_cell_angle_gamma 90.000000
_cell_volume 1301.121013
_symmetry_space_group_name_H-M "P 21/C"
_symmetry_group_IT_number 14
_symmetry_cell_setting 'monoclinic'
loop_
_space_group_symop_operation_xyz
x,y,z
-x,1/2+y,1/2-z
-x,-y,-z
x,1/2-y,1/2+z
loop_
_atom_site_type_symbol
_atom_site_label
_atom_site_fract_x
_atom_site_fract_y
_atom_site_fract_z
Si Si1 0.765603 0.974587 0.724254
Si Si2 0.017146 0.281222 0.292444
Si Si3 0.371318 0.678622 0.112161
Si Si4 0.141205 0.274858 0.007130
Si Si5 0.837333 0.103459 0.524792
Si Si6 0.001117 0.441432 0.346506
Si Si7 0.718305 0.433249 0.664848
O O1 0.764782 0.038079 0.628028
O O2 0.834302 0.010597 0.824048
O O3 0.529941 0.938443 0.801137
O O4 0.960250 0.922432 0.620988
O O5 0.769758 0.250310 0.366526
O O6 0.043030 0.366331 0.270858
O O7 0.112873 0.265392 0.391842
O O8 0.126287 0.243060 0.144163
O O9 0.618818 0.691536 0.069670
O O10 0.350940 0.632705 0.999710
O O11 0.265798 0.630845 0.248086
O O12 0.941332 0.331482 0.064597
O O13 0.887577 0.423558 0.505757
O O14 0.212108 0.491219 0.298473
#
# Coordination Sequence:
#
# PCOD9247531 Si02
#       7
#     4   4   4   4   4   4   4
#     4  11  21  39  67  97 132 166 220 273 337 398
#     4  11  26  45  67 101 137 178 232 280 334 414
#     4  11  24  44  68  95 135 177 224 278 337 400
#     4  11  24  45  70  95 132 181 226 275 344 397
#     4  10  22  38  66 100 128 165 218 280 327 403
#     4  11  24  43  63  99 139 172 225 280 338 407
#     4  11  24  40  68  99 135 178 218 281 346 394
#
# _framework density 21.519904
#
# number of rings (size 3 to 8) (size 9 to 14) (size 15 to 20)
#    0.000    1.143    4.286    1.286    2.000    5.143 
#    0.000    0.000    0.000    0.000    0.000    0.000 
#    0.000    0.000    0.000    0.000    0.000    0.000 
#
# Total GULP energy -156360.986203 kJ/mol
# GULP energy per Si atom -5584.320936 kJ/mol
# Density = 2.147092 g / cm^3
# Si number density = 21.519904 Si / 1000 Ang^3
#
#
#
# Elastic Constant Matrix: (Units=GPa)
#
#
# Indices 1 2 3 4 5 6 
#
# 1 103.4781 8.7336 14.2848 0.0000 16.1491 0.0000
# 2 8.7336 18.6195 4.5334 0.0000 11.2152 0.0000
# 3 14.2848 4.5334 64.0004 0.0000 18.6801 0.0000
# 4 0.0000 0.0000 0.0000 24.9254 0.0000 6.8715
# 5 16.1491 11.2152 18.6801 0.0000 34.6048 0.0000
# 6 0.0000 0.0000 0.0000 6.8715 0.0000 19.9755
#
#
#
# Elastic Compliance Matrix: (Units=1/GPa)
#
#
# Indices 1 2 3 4 5 6 
#
# 1 0.010585 -0.002591 -0.001166 0.000000 -0.003471 0.000000
# 2 -0.002591 0.067560 0.002173 0.000000 -0.021860 0.000000
# 3 -0.001166 0.002173 0.018729 0.000000 -0.010270 0.000000
# 4 0.000000 0.000000 0.000000 0.044323 0.000000 -0.015247
# 5 -0.003471 -0.021860 -0.010270 0.000000 0.043146 0.000000
# 6 0.000000 0.000000 0.000000 -0.015247 0.000000 0.055306
#
#
# Mechanical properties :
#
#
# Convention : Reuss Voigt Hill
#
# Bulk Modulus (GPa) = 10.67159 26.80017 18.73588
# Shear Modulus (GPa) = 18.24471 26.47088 22.35780
#
# Velocity S-wave (km/s) = 2.91487 3.51103 3.22675
# Velocity P-wave (km/s) = 4.03712 5.37747 4.75476
#
# Compressibility (1/GPa) = 0.09370677
#
# Stress axis : x y z
#
# Youngs Moduli (GPa) = 94.47197 14.80165 53.39360
#
# Poissons Ratio (x) = 0.03834 0.06226
# Poissons Ratio (y) = 0.24474 -0.11603
# Poissons Ratio (z) = 0.11016 -0.03216
#
# Static dielectric constant tensor:
#      x y z
#    x 1.738760 0.000000 0.039170 
#    y 0.000000 1.803970 0.000000 
#    z 0.039170 0.000000 1.839260 
# 
# From -- ./inp_files/21523.got.cif
#   From: 2010.05.17/outbox.cif.g08.bks.cpg/sg14_11_cif.got.tgz:21523.got - 2010.06.03 17:49:19.
