data_PCOD9247700
_publ_section_title
;
Structure prediction by ZEFSAII (Michael W. Deem and Ramdas Pophale) SiO2 
 PCOD9247700
Probable space group: P 21/C
;
_chemical_formula_sum "Si O2"
_cell_formula_units_Z 24
_cell_length_a 9.618027
_cell_length_b 19.676193
_cell_length_c 8.433090
_cell_angle_alpha 90.000000
_cell_angle_beta 43.380230
_cell_angle_gamma 90.000000
_cell_volume 1096.143302
_symmetry_space_group_name_H-M "P 21/C"
_symmetry_group_IT_number 14
_symmetry_cell_setting 'monoclinic'
loop_
_space_group_symop_operation_xyz
x,y,z
-x,1/2+y,1/2-z
-x,-y,-z
x,1/2-y,1/2+z
loop_
_atom_site_type_symbol
_atom_site_label
_atom_site_fract_x
_atom_site_fract_y
_atom_site_fract_z
Si Si1 0.825017 0.944972 0.107305
Si Si2 0.895096 0.189570 0.654466
Si Si3 0.444109 0.968262 0.215117
Si Si4 0.529589 0.835468 0.967917
Si Si5 0.207269 0.087144 0.512665
Si Si6 0.919307 0.812837 0.827366
O O1 0.627413 0.977893 0.187986
O O2 0.763384 0.909672 0.324003
O O3 0.902481 0.885636 0.926402
O O4 0.000000 0.000000 0.000000
O O5 0.992499 0.120606 0.646387
O O6 0.031837 0.252558 0.595353
O O7 0.672260 0.204124 0.905626
O O8 0.917538 0.185140 0.447731
O O9 0.441844 0.890022 0.168204
O O10 0.245436 0.007947 0.437703
O O11 0.500000 0.000000 0.000000
O O12 0.707455 0.798563 0.913725
O O13 0.632413 0.872257 0.731231
#
# Coordination Sequence:
#
# PCOD9247700 Si02
#       6
#     4   4   4   4   4   4
#     4  11  24  41  67 101 139 180 226 285 339 402
#     4  11  23  43  70  94 130 183 221 279 346 410
#     4   9  20  41  61  94 136 171 218 275 331 396
#     4   9  22  42  66  93 134 177 211 283 348 389
#     4  10  22  39  65  97 134 168 229 270 327 411
#     4  10  24  46  60  99 132 168 233 276 335 421
#
# _framework density 21.894946999999998
#
# number of rings (size 3 to 8) (size 9 to 14) (size 15 to 20)
#    0.000    2.000    0.000    2.500    7.000    3.333 
#    3.000    0.000    0.000    0.000    0.000    0.000 
#    0.000    0.000    0.000    0.000    0.000    0.000 
#
# Total GULP energy -133957.033110 kJ/mol
# GULP energy per Si atom -5581.543046 kJ/mol
# Density = 2.184511 g / cm^3
# Si number density = 21.894947 Si / 1000 Ang^3
#
#
#
# Elastic Constant Matrix: (Units=GPa)
#
#
# Indices 1 2 3 4 5 6 
#
# 1 96.2368 40.1241 50.1130 0.0000 9.1386 0.0000
# 2 40.1241 49.6509 20.8779 0.0000 -11.8035 0.0000
# 3 50.1130 20.8779 107.0112 0.0000 4.5453 0.0000
# 4 0.0000 0.0000 0.0000 12.2402 0.0000 7.2928
# 5 9.1386 -11.8035 4.5453 0.0000 39.2787 0.0000
# 6 0.0000 0.0000 0.0000 7.2928 0.0000 36.9088
#
#
#
# Elastic Compliance Matrix: (Units=1/GPa)
#
#
# Indices 1 2 3 4 5 6 
#
# 1 0.021815 -0.017166 -0.006464 0.000000 -0.009486 0.000000
# 2 -0.017166 0.037629 0.000048 0.000000 0.015296 0.000000
# 3 -0.006464 0.000048 0.012359 0.000000 0.000088 0.000000
# 4 0.000000 0.000000 0.000000 0.092599 0.000000 -0.018297
# 5 -0.009486 0.015296 0.000088 0.000000 0.032253 0.000000
# 6 0.000000 0.000000 0.000000 -0.018297 0.000000 0.030709
#
#
# Mechanical properties :
#
#
# Convention : Reuss Voigt Hill
#
# Bulk Modulus (GPa) = 40.58714 52.79211 46.68963
# Shear Modulus (GPa) = 17.68402 27.13780 22.41091
#
# Velocity S-wave (km/s) = 2.84505 3.52441 3.20279
# Velocity P-wave (km/s) = 5.41940 6.38168 5.92012
#
# Compressibility (1/GPa) = 0.02463835
#
# Stress axis : x y z
#
# Youngs Moduli (GPa) = 45.84041 26.57492 80.91449
#
# Poissons Ratio (x) = 0.45619 0.52301
# Poissons Ratio (y) = 0.78691 -0.00386
# Poissons Ratio (z) = 0.29630 -0.00127
#
# Static dielectric constant tensor:
#      x y z
#    x 1.847460 0.000000 -0.058080 
#    y 0.000000 1.860310 0.000000 
#    z -0.058080 0.000000 1.822320 
# 
# From -- ./inp_files/10130.got.cif
#   From: 2010.05.17/outbox.cif.g08.bks.cpg/sg14_6_cif.got.tgz:10130.got - 2010.06.03 17:49:19.
