data_PCOD9247086
_publ_section_title
;
Structure prediction by ZEFSAII (Michael W. Deem and Ramdas Pophale) SiO2 
 PCOD9247086
Probable space group: P 21/C
;
_chemical_formula_sum "Si O2"
_cell_formula_units_Z 32
_cell_length_a 12.087521
_cell_length_b 13.941303
_cell_length_c 18.024847
_cell_angle_alpha 90.000000
_cell_angle_beta 150.173318
_cell_angle_gamma 90.000000
_cell_volume 1510.771489
_symmetry_space_group_name_H-M "P 21/C"
_symmetry_group_IT_number 14
_symmetry_cell_setting 'monoclinic'
loop_
_space_group_symop_operation_xyz
x,y,z
-x,1/2+y,1/2-z
-x,-y,-z
x,1/2-y,1/2+z
loop_
_atom_site_type_symbol
_atom_site_label
_atom_site_fract_x
_atom_site_fract_y
_atom_site_fract_z
Si Si1 0.229465 0.370193 0.784342
Si Si2 0.381644 0.068233 0.022758
Si Si3 0.788743 0.599255 0.051730
Si Si4 0.819927 0.961229 0.252656
Si Si5 0.677525 0.715146 0.763385
Si Si6 0.891635 0.708103 0.535672
Si Si7 0.236635 0.609527 0.533511
Si Si8 0.718643 0.066408 0.776216
O O1 0.242645 0.388092 0.878656
O O2 0.379684 0.287596 0.836934
O O3 0.262350 0.469345 0.759727
O O4 0.982078 0.335665 0.618785
O O5 0.643990 0.046139 0.170515
O O6 0.282237 0.969080 0.997034
O O7 0.278047 0.082239 0.881065
O O8 0.297323 0.149327 0.029445
O O9 0.912670 0.691295 0.090020
O O10 0.939200 0.506847 0.120607
O O11 0.540755 0.593969 0.875037
O O12 0.804471 0.878299 0.305260
O O13 0.446657 0.677746 0.661822
O O14 0.811143 0.769063 0.905582
O O15 0.116532 0.645657 0.662916
O O16 0.210197 0.556427 0.596622
#
# Coordination Sequence:
#
# PCOD9247086 Si02
#       8
#     4   4   4   4   4   4   4   4
#     4  12  24  44  72  97 135 180 230 282 336 411
#     4  10  21  43  73  93 133 185 226 277 341 412
#     4  12  27  42  68 105 139 178 225 290 341 399
#     4  10  23  44  68 101 137 175 231 285 342 401
#     4  11  25  41  68 101 134 178 232 279 341 408
#     4  12  24  43  66  99 141 182 225 278 340 417
#     4  11  21  43  67  98 131 179 226 270 342 405
#     4  12  25  45  68 102 141 179 226 277 349 406
#
# _framework density 21.181231
#
# number of rings (size 3 to 8) (size 9 to 14) (size 15 to 20)
#    0.000    0.750    5.000    2.250    1.750    2.500 
#    0.000    0.000    0.000    0.000    0.000    0.000 
#    0.000    0.000    0.000    0.000    0.000    0.000 
#
# Total GULP energy -178935.706509 kJ/mol
# GULP energy per Si atom -5591.740828 kJ/mol
# Density = 2.113302 g / cm^3
# Si number density = 21.181231 Si / 1000 Ang^3
#
#
#
# Elastic Constant Matrix: (Units=GPa)
#
#
# Indices 1 2 3 4 5 6 
#
# 1 90.4852 15.4114 32.3030 0.0000 5.9374 0.0000
# 2 15.4114 71.2889 21.7175 0.0000 18.4851 0.0000
# 3 32.3030 21.7175 70.6813 0.0000 4.0965 0.0000
# 4 0.0000 0.0000 0.0000 10.8426 0.0000 5.5306
# 5 5.9374 18.4851 4.0965 0.0000 23.1397 0.0000
# 6 0.0000 0.0000 0.0000 5.5306 0.0000 50.2748
#
#
#
# Elastic Compliance Matrix: (Units=1/GPa)
#
#
# Indices 1 2 3 4 5 6 
#
# 1 0.013354 -0.000628 -0.005800 0.000000 -0.001898 0.000000
# 2 -0.000628 0.019387 -0.004831 0.000000 -0.014471 0.000000
# 3 -0.005800 -0.004831 0.018160 0.000000 0.002133 0.000000
# 4 0.000000 0.000000 0.000000 0.097712 0.000000 -0.010749
# 5 -0.001898 -0.014471 0.002133 0.000000 0.054885 0.000000
# 6 0.000000 0.000000 0.000000 -0.010749 0.000000 0.021073
#
#
# Mechanical properties :
#
#
# Convention : Reuss Voigt Hill
#
# Bulk Modulus (GPa) = 35.23314 41.25768 38.24541
# Shear Modulus (GPa) = 19.48940 27.71966 23.60453
#
# Velocity S-wave (km/s) = 3.03665 3.62151 3.34190
# Velocity P-wave (km/s) = 5.38193 6.08340 5.74339
#
# Compressibility (1/GPa) = 0.02838237
#
# Stress axis : x y z
#
# Youngs Moduli (GPa) = 74.88626 51.58020 55.06720
#
# Poissons Ratio (x) = 0.03238 0.31939
# Poissons Ratio (y) = 0.04701 0.26605
# Poissons Ratio (z) = 0.43434 0.24920
#
# Static dielectric constant tensor:
#      x y z
#    x 1.777830 0.000000 0.020780 
#    y 0.000000 1.766430 0.000000 
#    z 0.020780 0.000000 1.758570 
# 
# From -- ./inp_files/58007.got.cif
#   From: 2010.05.17/outbox.cif.g08.bks.cpg/sg14_30_cif.got.tgz:58007.got - 2010.06.03 17:49:19.
