data_PCOD9247664
_publ_section_title
;
Structure prediction by ZEFSAII (Michael W. Deem and Ramdas Pophale) SiO2 
 PCOD9247664
Probable space group: P 21/C
;
_chemical_formula_sum "Si O2"
_cell_formula_units_Z 28
_cell_length_a 5.819319
_cell_length_b 9.226504
_cell_length_c 32.424366
_cell_angle_alpha 90.000000
_cell_angle_beta 139.179357
_cell_angle_gamma 90.000000
_cell_volume 1138.033023
_symmetry_space_group_name_H-M "P 21/C"
_symmetry_group_IT_number 14
_symmetry_cell_setting 'monoclinic'
loop_
_space_group_symop_operation_xyz
x,y,z
-x,1/2+y,1/2-z
-x,-y,-z
x,1/2-y,1/2+z
loop_
_atom_site_type_symbol
_atom_site_label
_atom_site_fract_x
_atom_site_fract_y
_atom_site_fract_z
Si Si1 0.450620 0.617840 0.258646
Si Si2 0.223703 0.330121 0.567571
Si Si3 0.541913 0.359729 0.977094
Si Si4 0.406754 0.176980 0.794696
Si Si5 0.172919 0.395186 0.465265
Si Si6 0.397460 0.664954 0.821306
Si Si7 0.404249 0.380098 0.863077
O O1 0.582153 0.682120 0.233468
O O2 0.570965 0.460663 0.292592
O O3 0.558328 0.739811 0.306756
O O4 0.023461 0.613047 0.195983
O O5 0.222510 0.337775 0.518423
O O6 0.575484 0.266412 0.634743
O O7 0.906279 0.222307 0.536535
O O8 0.140601 0.487780 0.574655
O O9 0.236951 0.240860 0.944052
O O10 0.531488 0.393513 0.927064
O O11 0.500000 0.500000 0.000000
O O12 0.514748 0.234533 0.854395
O O13 0.000767 0.135762 0.745121
O O14 0.500000 0.500000 0.500000
O O15 0.552726 0.513149 0.856512
#
# Coordination Sequence:
#
# PCOD9247664 Si02
#       7
#     4   4   4   4   4   4   4
#     4  10  22  39  64  89 119 162 202 253 315 369
#     4  10  22  41  63  88 124 164 204 260 313 370
#     4  11  24  40  63  94 125 167 213 261 321 379
#     4  10  22  41  63  91 122 158 204 256 313 375
#     4   9  21  40  59  86 121 159 206 249 303 374
#     4  10  22  40  61  88 120 159 204 252 307 370
#     4  10  23  41  59  87 125 157 206 259 304 375
#
# _framework density 24.603856
#
# number of rings (size 3 to 8) (size 9 to 14) (size 15 to 20)
#    0.000    2.000    0.000    1.714    0.000   14.857 
#    0.000    0.000    0.000    0.000    0.000    0.000 
#    0.000    0.000    0.000    0.000    0.000    0.000 
#
# Total GULP energy -156495.414737 kJ/mol
# GULP energy per Si atom -5589.121955 kJ/mol
# Density = 2.454786 g / cm^3
# Si number density = 24.603856 Si / 1000 Ang^3
#
#
#
# Elastic Constant Matrix: (Units=GPa)
#
#
# Indices 1 2 3 4 5 6 
#
# 1 46.4431 34.7632 9.2766 0.0000 -15.0121 0.0000
# 2 34.7632 156.3869 67.9513 0.0000 -44.0774 0.0000
# 3 9.2766 67.9513 88.6076 0.0000 -22.7405 0.0000
# 4 0.0000 0.0000 0.0000 40.6098 0.0000 -7.5853
# 5 -15.0121 -44.0774 -22.7405 0.0000 42.5474 0.0000
# 6 0.0000 0.0000 0.0000 -7.5853 0.0000 32.4312
#
#
#
# Elastic Compliance Matrix: (Units=1/GPa)
#
#
# Indices 1 2 3 4 5 6 
#
# 1 0.026951 -0.005864 0.002963 0.000000 0.005018 0.000000
# 2 -0.005864 0.013048 -0.007480 0.000000 0.007450 0.000000
# 3 0.002963 -0.007480 0.017375 0.000000 0.002583 0.000000
# 4 0.000000 0.000000 0.000000 0.025749 0.000000 0.006023
# 5 0.005018 0.007450 0.002583 0.000000 0.034372 0.000000
# 6 0.000000 0.000000 0.000000 0.006023 0.000000 0.032243
#
#
# Mechanical properties :
#
#
# Convention : Reuss Voigt Hill
#
# Bulk Modulus (GPa) = 27.31363 57.26887 42.29125
# Shear Modulus (GPa) = 27.36652 35.08078 31.22365
#
# Velocity S-wave (km/s) = 3.33871 3.78011 3.56624
# Velocity P-wave (km/s) = 5.09786 6.50993 5.84668
#
# Compressibility (1/GPa) = 0.03661176
#
# Stress axis : x y z
#
# Youngs Moduli (GPa) = 37.10390 76.64010 57.55477
#
# Poissons Ratio (x) = 0.44944 -0.17056
# Poissons Ratio (y) = 0.21759 0.43053
# Poissons Ratio (z) = -0.10996 0.57329
#
# Static dielectric constant tensor:
#      x y z
#    x 1.968810 0.000000 0.076940 
#    y 0.000000 2.847080 0.000000 
#    z 0.076940 0.000000 2.105040 
# 
# From -- ./inp_files/78872.got.cif
#   From: 2010.05.17/outbox.cif.g08.bks.cpg/sg14_40_cif.got.tgz:78872.got - 2010.06.03 17:49:19.
