data_PCOD9247888
_publ_section_title
;
Structure prediction by ZEFSAII (Michael W. Deem and Ramdas Pophale) SiO2 
 PCOD9247888
Probable space group: P 21/C
;
_chemical_formula_sum "Si O2"
_cell_formula_units_Z 32
_cell_length_a 9.700267
_cell_length_b 11.053396
_cell_length_c 16.716735
_cell_angle_alpha 90.000000
_cell_angle_beta 59.121147
_cell_angle_gamma 90.000000
_cell_volume 1538.320785
_symmetry_space_group_name_H-M "P 21/C"
_symmetry_group_IT_number 14
_symmetry_cell_setting 'monoclinic'
loop_
_space_group_symop_operation_xyz
x,y,z
-x,1/2+y,1/2-z
-x,-y,-z
x,1/2-y,1/2+z
loop_
_atom_site_type_symbol
_atom_site_label
_atom_site_fract_x
_atom_site_fract_y
_atom_site_fract_z
Si Si1 0.090767 0.399917 0.649724
Si Si2 0.185273 0.829394 0.666098
Si Si3 0.972837 0.349274 0.943833
Si Si4 0.921172 0.918747 0.093109
Si Si5 0.246767 0.541148 0.863625
Si Si6 0.509990 0.939704 0.585959
Si Si7 0.330207 0.326927 0.444113
Si Si8 0.332319 0.578316 0.656456
O O1 0.965364 0.502273 0.656836
O O2 0.182018 0.337357 0.549435
O O3 0.232382 0.463661 0.656961
O O4 0.978686 0.315329 0.735883
O O5 0.136675 0.892458 0.597276
O O6 0.326840 0.908009 0.663251
O O7 0.260501 0.696760 0.635138
O O8 0.989401 0.207891 0.927246
O O9 0.143589 0.416659 0.887923
O O10 0.883460 0.374541 0.053411
O O11 0.744377 0.875886 0.117442
O O12 0.000000 0.000000 0.000000
O O13 0.396148 0.522813 0.878829
O O14 0.302488 0.586970 0.760810
O O15 0.601274 0.809070 0.566214
O O16 0.500000 0.000000 0.500000
O O17 0.478435 0.416813 0.417691
#
# Coordination Sequence:
#
# PCOD9247888 Si02
#       8
#     4   4   4   4   4   4   4   4
#     4  11  23  41  67  92 126 175 217 265 321 382
#     4  11  24  40  64  97 128 163 218 268 317 393
#     4  11  21  42  66  94 128 169 214 267 323 382
#     4  10  22  40  65  92 129 170 213 260 317 389
#     4  11  24  39  68  93 130 170 215 270 328 381
#     4  11  23  44  64  93 132 169 212 271 333 386
#     4  10  24  43  63  91 134 166 214 271 322 388
#     4  11  24  42  63  96 129 167 215 267 323 386
#
# _framework density 20.801904
#
# number of rings (size 3 to 8) (size 9 to 14) (size 15 to 20)
#    0.000    1.250    5.000    0.375    5.250    1.000 
#    0.000    2.500    0.000    0.000    0.000    0.000 
#    0.000    0.000    0.000    0.000    0.000    0.000 
#
# Total GULP energy -178422.771117 kJ/mol
# GULP energy per Si atom -5575.711597 kJ/mol
# Density = 2.075456 g / cm^3
# Si number density = 20.801904 Si / 1000 Ang^3
#
#
#
# Elastic Constant Matrix: (Units=GPa)
#
#
# Indices 1 2 3 4 5 6 
#
# 1 129.8956 16.5321 12.1477 0.0000 0.5208 0.0000
# 2 16.5321 30.0865 -13.1733 0.0000 -8.5543 0.0000
# 3 12.1477 -13.1733 62.9731 0.0000 -12.2024 0.0000
# 4 0.0000 0.0000 0.0000 15.4094 0.0000 1.6445
# 5 0.5208 -8.5543 -12.2024 0.0000 35.8112 0.0000
# 6 0.0000 0.0000 0.0000 1.6445 0.0000 34.2934
#
#
#
# Elastic Compliance Matrix: (Units=1/GPa)
#
#
# Indices 1 2 3 4 5 6 
#
# 1 0.009063 -0.007677 -0.003999 0.000000 -0.003328 0.000000
# 2 -0.007677 0.048800 0.014958 0.000000 0.016865 0.000000
# 3 -0.003999 0.014958 0.021932 0.000000 0.011104 0.000000
# 4 0.000000 0.000000 0.000000 0.065229 0.000000 -0.003128
# 5 -0.003328 0.016865 0.011104 0.000000 0.035785 0.000000
# 6 0.000000 0.000000 0.000000 -0.003128 0.000000 0.029310
#
#
# Mechanical properties :
#
#
# Convention : Reuss Voigt Hill
#
# Bulk Modulus (GPa) = 11.57983 28.21869 19.89926
# Shear Modulus (GPa) = 21.51987 30.93270 26.22628
#
# Velocity S-wave (km/s) = 3.21988 3.86036 3.55458
# Velocity P-wave (km/s) = 4.40480 5.78487 5.14135
#
# Compressibility (1/GPa) = 0.08635708
#
# Stress axis : x y z
#
# Youngs Moduli (GPa) = 110.33922 20.49160 45.59573
#
# Poissons Ratio (x) = 0.15732 0.18235
# Poissons Ratio (y) = 0.84712 -0.68200
# Poissons Ratio (z) = 0.44127 -0.30650
#
# Static dielectric constant tensor:
#      x y z
#    x 1.842430 0.000000 0.091040 
#    y 0.000000 1.736320 0.000000 
#    z 0.091040 0.000000 1.837780 
# 
# From -- ./inp_files/55566.got.cif
#   From: 2010.05.17/outbox.cif.g08.bks.cpg/sg14_28_cif.got.tgz:55566.got - 2010.06.03 17:49:19.
