data_PCOD9247562
_publ_section_title
;
Structure prediction by ZEFSAII (Michael W. Deem and Ramdas Pophale) SiO2 
 PCOD9247562
Probable space group: P 21/C
;
_chemical_formula_sum "Si O2"
_cell_formula_units_Z 28
_cell_length_a 15.406703
_cell_length_b 6.947095
_cell_length_c 12.836803
_cell_angle_alpha 90.000000
_cell_angle_beta 108.535332
_cell_angle_gamma 90.000000
_cell_volume 1302.676888
_symmetry_space_group_name_H-M "P 21/C"
_symmetry_group_IT_number 14
_symmetry_cell_setting 'monoclinic'
loop_
_space_group_symop_operation_xyz
x,y,z
-x,1/2+y,1/2-z
-x,-y,-z
x,1/2-y,1/2+z
loop_
_atom_site_type_symbol
_atom_site_label
_atom_site_fract_x
_atom_site_fract_y
_atom_site_fract_z
Si Si1 0.541153 0.358811 0.894916
Si Si2 0.403639 0.246646 0.998110
Si Si3 0.619589 0.485205 0.307575
Si Si4 0.927722 0.712692 0.863333
Si Si5 0.821439 0.474964 0.424357
Si Si6 0.124410 0.927136 0.467671
Si Si7 0.795157 0.728945 0.621757
O O1 0.496879 0.229214 0.968891
O O2 0.452239 0.453063 0.806749
O O3 0.596533 0.230533 0.835412
O O4 0.598746 0.531495 0.965057
O O5 0.312567 0.206172 0.896964
O O6 0.399693 0.119236 0.099693
O O7 0.726920 0.506441 0.325221
O O8 0.905113 0.930263 0.892745
O O9 0.861715 0.675057 0.741009
O O10 0.032787 0.662280 0.880938
O O11 0.901749 0.575426 0.950204
O O12 0.828944 0.253616 0.458664
O O13 0.813464 0.592016 0.529398
O O14 0.181153 0.054173 0.407526
#
# Coordination Sequence:
#
# PCOD9247562 Si02
#       7
#     4   4   4   4   4   4   4
#     4  11  21  37  61  83 116 158 192 244 295 351
#     4  10  22  39  56  85 121 148 201 245 287 350
#     4  11  21  38  59  87 115 157 196 238 300 347
#     4  10  22  40  61  90 121 154 195 246 300 349
#     4  10  22  39  60  88 122 153 199 247 293 358
#     4  10  22  40  62  88 120 155 198 242 295 361
#     4  10  22  39  60  88 119 158 197 247 295 352
#
# _framework density 21.494202000000001
#
# number of rings (size 3 to 8) (size 9 to 14) (size 15 to 20)
#    0.000    1.714    1.429    2.571    2.000    1.143 
#    2.571    2.857    0.000    0.000    0.000    0.000 
#    0.000    0.000    0.000    0.000    0.000    0.000 
#
# Total GULP energy -156417.064531 kJ/mol
# GULP energy per Si atom -5586.323733 kJ/mol
# Density = 2.144528 g / cm^3
# Si number density = 21.494202 Si / 1000 Ang^3
#
#
#
# Elastic Constant Matrix: (Units=GPa)
#
#
# Indices 1 2 3 4 5 6 
#
# 1 35.3996 4.4219 1.4076 0.0000 15.6566 0.0000
# 2 4.4219 58.8003 -18.9817 0.0000 -1.4404 0.0000
# 3 1.4076 -18.9817 75.9037 0.0000 26.1783 0.0000
# 4 0.0000 0.0000 0.0000 26.7652 0.0000 3.0448
# 5 15.6566 -1.4404 26.1783 0.0000 24.8669 0.0000
# 6 0.0000 0.0000 0.0000 3.0448 0.0000 16.0492
#
#
#
# Elastic Compliance Matrix: (Units=1/GPa)
#
#
# Indices 1 2 3 4 5 6 
#
# 1 0.047982 0.000107 0.015000 0.000000 -0.045996 0.000000
# 2 0.000107 0.019082 0.006927 0.000000 -0.006255 0.000000
# 3 0.015000 0.006927 0.027865 0.000000 -0.038377 0.000000
# 4 0.000000 0.000000 0.000000 0.038186 0.000000 -0.007245
# 5 -0.045996 -0.006255 -0.038377 0.000000 0.109213 0.000000
# 6 0.000000 0.000000 0.000000 -0.007245 0.000000 0.063683
#
#
# Mechanical properties :
#
#
# Convention : Reuss Voigt Hill
#
# Bulk Modulus (GPa) = 7.19436 15.97768 11.58602
# Shear Modulus (GPa) = 16.21939 25.75332 20.98636
#
# Velocity S-wave (km/s) = 2.74997 3.46519 3.12809
# Velocity P-wave (km/s) = 3.66572 4.84352 4.29518
#
# Compressibility (1/GPa) = 0.13899771
#
# Stress axis : x y z
#
# Youngs Moduli (GPa) = 20.84111 52.40655 35.88788
#
# Poissons Ratio (x) = -0.00563 -0.53833
# Poissons Ratio (y) = -0.00224 -0.24860
# Poissons Ratio (z) = -0.31262 -0.36302
#
# Static dielectric constant tensor:
#      x y z
#    x 1.789180 0.000000 -0.010090 
#    y 0.000000 1.779740 0.000000 
#    z -0.010090 0.000000 1.750320 
# 
# From -- ./inp_files/48057.got.cif
#   From: 2010.05.17/outbox.cif.g08.bks.cpg/sg14_25_cif.got.tgz:48057.got - 2010.06.03 17:49:19.
