data_PCOD9247797
_publ_section_title
;
Structure prediction by ZEFSAII (Michael W. Deem and Ramdas Pophale) SiO2 
 PCOD9247797
Probable space group: P 21/C
;
_chemical_formula_sum "Si O2"
_cell_formula_units_Z 20
_cell_length_a 6.710426
_cell_length_b 6.136581
_cell_length_c 23.104005
_cell_angle_alpha 90.000000
_cell_angle_beta 109.014082
_cell_angle_gamma 90.000000
_cell_volume 899.491637
_symmetry_space_group_name_H-M "P 21/C"
_symmetry_group_IT_number 14
_symmetry_cell_setting 'monoclinic'
loop_
_space_group_symop_operation_xyz
x,y,z
-x,1/2+y,1/2-z
-x,-y,-z
x,1/2-y,1/2+z
loop_
_atom_site_type_symbol
_atom_site_label
_atom_site_fract_x
_atom_site_fract_y
_atom_site_fract_z
Si Si1 0.811403 0.358949 0.157142
Si Si2 0.979894 0.251672 0.971514
Si Si3 0.167284 0.441541 0.383633
Si Si4 0.461651 0.795284 0.635464
Si Si5 0.178706 0.795706 0.712507
O O1 0.830149 0.197570 0.104670
O O2 0.597080 0.493376 0.132692
O O3 0.797297 0.237390 0.217594
O O4 0.020635 0.505791 0.182747
O O5 0.749560 0.261434 0.920553
O O6 0.150363 0.220637 0.935832
O O7 0.000000 0.500000 0.000000
O O8 0.000000 0.000000 0.000000
O O9 0.373064 0.390373 0.365754
O O10 0.956316 0.404949 0.326096
O O11 0.391925 0.807750 0.695850
#
# Coordination Sequence:
#
# PCOD9247797 Si02
#       5
#     4   4   4   4   4
#     4  11  22  39  66  97 142 182 227 279 349 430
#     4  11  28  50  75  99 139 187 241 310 366 403
#     4  10  24  44  67  99 135 178 232 290 342 432
#     4  10  26  41  67 102 133 182 240 287 350 429
#     4  10  22  40  61  98 142 183 221 273 354 419
#
# _framework density 22.234781000000002
#
# number of rings (size 3 to 8) (size 9 to 14) (size 15 to 20)
#    0.000    1.600    2.000    0.000   14.000    3.200 
#    0.000    0.000    0.000    0.000    0.000    0.000 
#    0.000    0.000    0.000    0.000    0.000    0.000 
#
# Total GULP energy -111376.774902 kJ/mol
# GULP energy per Si atom -5568.838745 kJ/mol
# Density = 2.218417 g / cm^3
# Si number density = 22.234781 Si / 1000 Ang^3
#
#
#
# Elastic Constant Matrix: (Units=GPa)
#
#
# Indices 1 2 3 4 5 6 
#
# 1 115.8531 34.5033 17.7865 0.0000 -17.5611 0.0000
# 2 34.5033 132.7796 42.3382 0.0000 -9.2753 0.0000
# 3 17.7865 42.3382 51.6030 0.0000 -9.5836 0.0000
# 4 0.0000 0.0000 0.0000 27.1328 0.0000 -30.6104
# 5 -17.5611 -9.2753 -9.5836 0.0000 25.8809 0.0000
# 6 0.0000 0.0000 0.0000 -30.6104 0.0000 -26.3218
#
#
#
# Elastic Compliance Matrix: (Units=1/GPa)
#
#
# Indices 1 2 3 4 5 6 
#
# 1 0.010249 -0.001996 -0.000791 0.000000 0.005946 0.000000
# 2 -0.001996 0.010597 -0.008110 0.000000 -0.000560 0.000000
# 3 -0.000791 -0.008110 0.027561 0.000000 0.006763 0.000000
# 4 0.000000 0.000000 0.000000 0.015941 0.000000 -0.018538
# 5 0.005946 -0.000560 0.006763 0.000000 0.044977 0.000000
# 6 0.000000 0.000000 0.000000 -0.018538 0.000000 -0.016432
#
#
# Mechanical properties :
#
#
# Convention : Reuss Voigt Hill
#
# Bulk Modulus (GPa) = 37.57529 54.38797 45.98163
# Shear Modulus (GPa) = 40.46702 19.04556 29.75629
#
# Velocity S-wave (km/s) = 4.27076 2.92989 3.66222
# Velocity P-wave (km/s) = 6.42302 5.99663 6.21348
#
# Compressibility (1/GPa) = 0.02661324
#
# Stress axis : x y z
#
# Youngs Moduli (GPa) = 97.57352 94.36793 36.28256
#
# Poissons Ratio (x) = 0.18832 0.02870
# Poissons Ratio (y) = 0.19472 0.29426
# Poissons Ratio (z) = 0.07717 0.76536
#
# Static dielectric constant tensor:
#      x y z
#    x 1.790630 0.000000 -0.097070 
#    y 0.000000 1.984280 0.000000 
#    z -0.097070 0.000000 1.907680 
# 
# From -- ./inp_files/75434.got.cif
#   From: 2010.05.17/outbox.cif.g08.bks.cpg/sg14_38_cif.got.tgz:75434.got - 2010.06.03 17:49:19.
