data_PCOD9247735
_publ_section_title
;
Structure prediction by ZEFSAII (Michael W. Deem and Ramdas Pophale) SiO2 
 PCOD9247735
Probable space group: P 21/C
;
_chemical_formula_sum "Si O2"
_cell_formula_units_Z 30
_cell_length_a 10.969564
_cell_length_b 17.048777
_cell_length_c 9.078994
_cell_angle_alpha 90.000000
_cell_angle_beta 44.219685
_cell_angle_gamma 90.000000
_cell_volume 1184.157169
_symmetry_space_group_name_H-M "P 21/C"
_symmetry_group_IT_number 14
_symmetry_cell_setting 'monoclinic'
loop_
_space_group_symop_operation_xyz
x,y,z
-x,1/2+y,1/2-z
-x,-y,-z
x,1/2-y,1/2+z
loop_
_atom_site_type_symbol
_atom_site_label
_atom_site_fract_x
_atom_site_fract_y
_atom_site_fract_z
Si Si1 0.381920 0.572512 0.737753
Si Si2 0.890519 0.820245 0.642805
Si Si3 0.000000 0.500000 0.000000
Si Si4 0.741480 0.422437 0.729522
Si Si5 0.614793 0.155087 0.058779
Si Si6 0.806115 0.304597 0.907014
Si Si7 0.296112 0.258928 0.431490
Si Si8 0.380063 0.421928 0.216332
O O1 0.563219 0.403015 0.472844
O O2 0.338550 0.652189 0.866218
O O3 0.532748 0.539045 0.712202
O O4 0.200482 0.526159 0.883285
O O5 0.866222 0.787175 0.501244
O O6 0.925750 0.912377 0.607027
O O7 0.047083 0.785120 0.602707
O O8 0.727481 0.791329 0.883529
O O9 0.739548 0.387522 0.568490
O O10 0.765327 0.516181 0.711778
O O11 0.853813 0.370323 0.744329
O O12 0.540108 0.414643 0.963328
O O13 0.723601 0.229034 0.902705
O O14 0.451598 0.196603 0.278966
O O15 0.311398 0.337281 0.319374
#
# Coordination Sequence:
#
# PCOD9247735 Si02
#       8
#     4   4   2   4   4   4   4   4
#     4  10  22  42  71  97 143 190 246 299 367 456
#     4  11  28  47  74 103 154 192 254 316 375 454
#     4  10  26  50  68 106 152 212 246 304 380 462
#     4  10  22  39  68  96 136 183 233 297 367 449
#     4  12  23  39  77 103 140 185 250 304 380 439
#     4  10  23  45  66  95 142 196 237 292 375 462
#     4  12  25  45  71 113 143 188 253 323 377 445
#     4  10  22  43  65 103 142 184 238 313 376 439
#
# _framework density 25.334474
#
# number of rings (size 3 to 8) (size 9 to 14) (size 15 to 20)
#    0.000    1.333    2.667    2.400    9.333    0.533 
#    4.800    0.667    0.000    0.000    0.000    0.000 
#    0.000    0.000    0.000    0.000    0.000    0.000 
#
# Total GULP energy -167287.164812 kJ/mol
# GULP energy per Si atom -5576.238827 kJ/mol
# Density = 2.527681 g / cm^3
# Si number density = 25.334474 Si / 1000 Ang^3
#
#
#
# Elastic Constant Matrix: (Units=GPa)
#
#
# Indices 1 2 3 4 5 6 
#
# 1 85.4490 22.9306 0.2407 0.0000 1.2153 0.0000
# 2 22.9306 76.1659 20.4925 0.0000 10.5968 0.0000
# 3 0.2407 20.4925 46.2465 0.0000 16.7731 0.0000
# 4 0.0000 0.0000 0.0000 30.0409 0.0000 6.0550
# 5 1.2153 10.5968 16.7731 0.0000 42.6958 0.0000
# 6 0.0000 0.0000 0.0000 6.0550 0.0000 44.4629
#
#
#
# Elastic Compliance Matrix: (Units=1/GPa)
#
#
# Indices 1 2 3 4 5 6 
#
# 1 0.012873 -0.004379 0.001880 0.000000 -0.000018 0.000000
# 2 -0.004379 0.016457 -0.006803 0.000000 -0.001287 0.000000
# 3 0.001880 -0.006803 0.028028 0.000000 -0.009376 0.000000
# 4 0.000000 0.000000 0.000000 0.034227 0.000000 -0.004661
# 5 -0.000018 -0.001287 -0.009376 0.000000 0.027425 0.000000
# 6 0.000000 0.000000 0.000000 -0.004661 0.000000 0.023125
#
#
# Mechanical properties :
#
#
# Convention : Reuss Voigt Hill
#
# Bulk Modulus (GPa) = 25.80294 32.79878 29.30086
# Shear Modulus (GPa) = 28.79231 34.38642 31.58936
#
# Velocity S-wave (km/s) = 3.37484 3.68815 3.53497
# Velocity P-wave (km/s) = 5.03916 5.57772 5.31526
#
# Compressibility (1/GPa) = 0.03875527
#
# Stress axis : x y z
#
# Youngs Moduli (GPa) = 77.68243 60.76481 35.67808
#
# Poissons Ratio (x) = 0.26608 -0.06707
# Poissons Ratio (y) = 0.34016 0.24270
# Poissons Ratio (z) = -0.14603 0.41336
#
# Static dielectric constant tensor:
#      x y z
#    x 1.981850 0.000000 -0.028080 
#    y 0.000000 1.966950 0.000000 
#    z -0.028080 0.000000 2.122340 
# 
# From -- ./inp_files/30002.got.cif
#   From: 2010.05.17/outbox.cif.g08.bks.cpg/sg14_16_cif.got.tgz:30002.got - 2010.06.03 17:49:19.
