data_PCOD9247050
_publ_section_title
;
Structure prediction by ZEFSAII (Michael W. Deem and Ramdas Pophale) SiO2 
 PCOD9247050
Probable space group: P 21/C
;
_chemical_formula_sum "Si O2"
_cell_formula_units_Z 32
_cell_length_a 11.583868
_cell_length_b 11.397627
_cell_length_c 11.742092
_cell_angle_alpha 90.000000
_cell_angle_beta 114.184805
_cell_angle_gamma 90.000000
_cell_volume 1414.221048
_symmetry_space_group_name_H-M "P 21/C"
_symmetry_group_IT_number 14
_symmetry_cell_setting 'monoclinic'
loop_
_space_group_symop_operation_xyz
x,y,z
-x,1/2+y,1/2-z
-x,-y,-z
x,1/2-y,1/2+z
loop_
_atom_site_type_symbol
_atom_site_label
_atom_site_fract_x
_atom_site_fract_y
_atom_site_fract_z
Si Si1 0.533379 0.974220 0.336762
Si Si2 0.683249 0.823415 0.229919
Si Si3 0.037132 0.025783 0.197373
Si Si4 0.098000 0.453637 0.132236
Si Si5 0.646436 0.031809 0.054013
Si Si6 0.315934 0.074065 0.372209
Si Si7 0.831833 0.381979 0.451911
Si Si8 0.695904 0.157981 0.286749
O O1 0.390079 0.980184 0.322835
O O2 0.575404 0.099558 0.300669
O O3 0.570145 0.874944 0.261042
O O4 0.623949 0.948425 0.480798
O O5 0.818628 0.834951 0.350562
O O6 0.650540 0.700129 0.164775
O O7 0.702992 0.915951 0.135991
O O8 0.164988 0.073534 0.306645
O O9 0.092897 0.943434 0.120345
O O10 0.967804 0.957334 0.271074
O O11 0.937943 0.116633 0.097633
O O12 0.202317 0.554610 0.163926
O O13 0.000000 0.500000 0.000000
O O14 0.665629 0.150163 0.138790
O O15 0.716692 0.046966 0.963738
O O16 0.500000 0.000000 0.000000
O O17 0.763539 0.266761 0.373916
#
# Coordination Sequence:
#
# PCOD9247050 Si02
#       8
#     4   4   4   4   4   4   4   4
#     4   9  23  47  63 103 136 172 245 296 341 436
#     4  10  23  44  67  98 131 182 232 288 366 416
#     4  11  24  43  64 106 143 179 236 298 348 433
#     4  10  21  43  68  98 140 183 235 284 342 438
#     4  10  23  46  68 100 136 177 242 295 348 439
#     4  11  24  42  69  98 138 180 230 294 362 416
#     4  11  25  44  68 103 143 180 233 296 358 432
#     4  10  23  43  69  95 134 188 232 283 367 418
#
# _framework density 22.627296999999999
#
# number of rings (size 3 to 8) (size 9 to 14) (size 15 to 20)
#    0.000    2.000    2.500    1.500    7.000    4.000 
#    2.250    0.000    0.000    0.000    0.000    0.000 
#    0.000    0.000    0.000    0.000    0.000    0.000 
#
# Total GULP energy -178379.460043 kJ/mol
# GULP energy per Si atom -5574.358126 kJ/mol
# Density = 2.257580 g / cm^3
# Si number density = 22.627297 Si / 1000 Ang^3
#
#
#
# Elastic Constant Matrix: (Units=GPa)
#
#
# Indices 1 2 3 4 5 6 
#
# 1 119.7852 1.1425 10.5175 0.0000 -13.2784 0.0000
# 2 1.1425 40.1610 -1.0861 0.0000 -7.8573 0.0000
# 3 10.5175 -1.0861 79.4843 0.0000 -6.0081 0.0000
# 4 0.0000 0.0000 0.0000 16.1532 0.0000 5.1638
# 5 -13.2784 -7.8573 -6.0081 0.0000 40.3839 0.0000
# 6 0.0000 0.0000 0.0000 5.1638 0.0000 18.7073
#
#
#
# Elastic Compliance Matrix: (Units=1/GPa)
#
#
# Indices 1 2 3 4 5 6 
#
# 1 0.008737 0.000271 -0.000942 0.000000 0.002785 0.000000
# 2 0.000271 0.025937 0.000715 0.000000 0.005242 0.000000
# 3 -0.000942 0.000715 0.012847 0.000000 0.001741 0.000000
# 4 0.000000 0.000000 0.000000 0.067899 0.000000 -0.018742
# 5 0.002785 0.005242 0.001741 0.000000 0.026957 0.000000
# 6 0.000000 0.000000 0.000000 -0.018742 0.000000 0.058628
#
#
# Mechanical properties :
#
#
# Convention : Reuss Voigt Hill
#
# Bulk Modulus (GPa) = 21.00450 28.95314 24.97882
# Shear Modulus (GPa) = 23.06409 30.30599 26.68504
#
# Velocity S-wave (km/s) = 3.19612 3.66369 3.43786
# Velocity P-wave (km/s) = 4.78782 5.54259 5.17897
#
# Compressibility (1/GPa) = 0.04760884
#
# Stress axis : x y z
#
# Youngs Moduli (GPa) = 114.45366 38.55506 77.83873
#
# Poissons Ratio (x) = -0.01045 0.07331
# Poissons Ratio (y) = -0.03101 -0.05564
# Poissons Ratio (z) = 0.10780 -0.02756
#
# Static dielectric constant tensor:
#      x y z
#    x 1.919900 0.000000 0.099760 
#    y 0.000000 -1.312330 0.000000 
#    z 0.099760 0.000000 2.026770 
# 
# From -- ./inp_files/29168.got.cif
#   From: 2010.05.17/outbox.cif.g08.bks.cpg/sg14_15_cif.got.tgz:29168.got - 2010.06.03 17:49:19.
