data_PCOD9247857
_publ_section_title
;
Structure prediction by ZEFSAII (Michael W. Deem and Ramdas Pophale) SiO2 
 PCOD9247857
Probable space group: P 21/C
;
_chemical_formula_sum "Si O2"
_cell_formula_units_Z 28
_cell_length_a 14.166293
_cell_length_b 9.151564
_cell_length_c 9.554290
_cell_angle_alpha 90.000000
_cell_angle_beta 94.973840
_cell_angle_gamma 90.000000
_cell_volume 1233.989570
_symmetry_space_group_name_H-M "P 21/C"
_symmetry_group_IT_number 14
_symmetry_cell_setting 'monoclinic'
loop_
_space_group_symop_operation_xyz
x,y,z
-x,1/2+y,1/2-z
-x,-y,-z
x,1/2-y,1/2+z
loop_
_atom_site_type_symbol
_atom_site_label
_atom_site_fract_x
_atom_site_fract_y
_atom_site_fract_z
Si Si1 0.000026 0.294769 0.419969
Si Si2 0.089784 0.089180 0.201610
Si Si3 0.191494 0.684548 0.444785
Si Si4 0.282057 0.418038 0.604785
Si Si5 0.415490 0.910644 0.311537
Si Si6 0.630931 0.607317 0.920612
Si Si7 0.714931 0.341672 0.804918
O O1 0.967343 0.437832 0.327900
O O2 0.907623 0.267931 0.503751
O O3 0.042736 0.175269 0.322662
O O4 0.075491 0.330046 0.550774
O O5 0.203979 0.077682 0.221946
O O6 0.228425 0.522404 0.487168
O O7 0.265421 0.782825 0.538448
O O8 0.194533 0.693626 0.279447
O O9 0.376401 0.497886 0.674093
O O10 0.314813 0.260283 0.555974
O O11 0.526352 0.878671 0.340938
O O12 0.365561 0.753670 0.280892
O O13 0.386125 0.012484 0.440282
O O14 0.690064 0.508727 0.819785
#
# Coordination Sequence:
#
# PCOD9247857 Si02
#       7
#     4   4   4   4   4   4   4
#     4  10  22  42  61  96 127 170 206 264 305 380
#     4  10  23  40  65  91 132 162 214 256 318 369
#     4  10  22  40  64  89 132 163 216 255 314 373
#     4  10  24  40  63  94 127 165 210 267 312 379
#     4  10  23  43  59  93 129 159 216 262 311 385
#     4  11  23  39  66  90 124 168 208 263 319 379
#     4  11  21  42  63  92 121 174 206 260 316 380
#
# _framework density 22.690631
#
# number of rings (size 3 to 8) (size 9 to 14) (size 15 to 20)
#    0.000    1.714    1.429    1.714    4.000    4.000 
#    0.000    2.143    0.000    0.000    0.000    0.000 
#    0.000    0.000    0.000    0.000    0.000    0.000 
#
# Total GULP energy -156274.711462 kJ/mol
# GULP energy per Si atom -5581.239695 kJ/mol
# Density = 2.263899 g / cm^3
# Si number density = 22.690631 Si / 1000 Ang^3
#
#
#
# Elastic Constant Matrix: (Units=GPa)
#
#
# Indices 1 2 3 4 5 6 
#
# 1 62.9356 6.5925 2.5659 0.0000 7.2107 0.0000
# 2 6.5925 53.0082 -3.2614 0.0000 -7.3737 0.0000
# 3 2.5659 -3.2614 43.0047 0.0000 -4.6196 0.0000
# 4 0.0000 0.0000 0.0000 11.8793 0.0000 -9.6818
# 5 7.2107 -7.3737 -4.6196 0.0000 33.4402 0.0000
# 6 0.0000 0.0000 0.0000 -9.6818 0.0000 29.5464
#
#
#
# Elastic Compliance Matrix: (Units=1/GPa)
#
#
# Indices 1 2 3 4 5 6 
#
# 1 0.016765 -0.002811 -0.001693 0.000000 -0.004469 0.000000
# 2 -0.002811 0.020098 0.002267 0.000000 0.005351 0.000000
# 3 -0.001693 0.002267 0.023975 0.000000 0.004177 0.000000
# 4 0.000000 0.000000 0.000000 0.114853 0.000000 0.037635
# 5 -0.004469 0.005351 0.004177 0.000000 0.032625 0.000000
# 6 0.000000 0.000000 0.000000 0.037635 0.000000 0.046177
#
#
# Mechanical properties :
#
#
# Convention : Reuss Voigt Hill
#
# Bulk Modulus (GPa) = 17.74215 18.97140 18.35678
# Shear Modulus (GPa) = 18.00140 25.17661 21.58900
#
# Velocity S-wave (km/s) = 2.81969 3.33462 3.08790
# Velocity P-wave (km/s) = 4.29383 4.81719 4.56302
#
# Compressibility (1/GPa) = 0.05636294
#
# Stress axis : x y z
#
# Youngs Moduli (GPa) = 59.64906 49.75517 41.71026
#
# Poissons Ratio (x) = 0.13985 0.07064
# Poissons Ratio (y) = 0.16766 -0.09455
# Poissons Ratio (z) = 0.10101 -0.11278
#
# Static dielectric constant tensor:
#      x y z
#    x 1.911360 0.000000 -0.011730 
#    y 0.000000 1.846570 0.000000 
#    z -0.011730 0.000000 1.837550 
# 
# From -- ./inp_files/31367.got.cif
#   From: 2010.05.17/outbox.cif.g08.bks.cpg/sg14_16_cif.got.tgz:31367.got - 2010.06.03 17:49:19.
