data_PCOD9247544
_publ_section_title
;
Structure prediction by ZEFSAII (Michael W. Deem and Ramdas Pophale) SiO2 
 PCOD9247544
Probable space group: P 21/C
;
_chemical_formula_sum "Si O2"
_cell_formula_units_Z 20
_cell_length_a 10.773660
_cell_length_b 8.782211
_cell_length_c 10.784760
_cell_angle_alpha 90.000000
_cell_angle_beta 59.889862
_cell_angle_gamma 90.000000
_cell_volume 882.724516
_symmetry_space_group_name_H-M "P 21/C"
_symmetry_group_IT_number 14
_symmetry_cell_setting 'monoclinic'
loop_
_space_group_symop_operation_xyz
x,y,z
-x,1/2+y,1/2-z
-x,-y,-z
x,1/2-y,1/2+z
loop_
_atom_site_type_symbol
_atom_site_label
_atom_site_fract_x
_atom_site_fract_y
_atom_site_fract_z
Si Si1 0.037240 0.176816 0.996303
Si Si2 0.277956 0.210234 0.532958
Si Si3 0.641153 0.103677 0.450697
Si Si4 0.276785 0.695134 0.826138
Si Si5 0.301006 0.342702 0.759589
O O1 0.147069 0.254374 0.843135
O O2 0.132297 0.201178 0.072605
O O3 0.890161 0.267509 0.069815
O O4 0.000000 0.000000 0.000000
O O5 0.364554 0.210523 0.359397
O O6 0.364190 0.289996 0.598784
O O7 0.500000 0.000000 0.500000
O O8 0.245441 0.034780 0.581442
O O9 0.648817 0.199721 0.574729
O O10 0.674394 0.193796 0.308998
O O11 0.291613 0.522459 0.771645
#
# Coordination Sequence:
#
# PCOD9247544 Si02
#       5
#     4   4   4   4   4
#     4  10  22  38  68 103 143 172 218 283 365 420
#     4   9  22  39  64  99 141 173 225 285 343 413
#     4  11  27  48  66 100 139 185 242 288 335 417
#     4  11  25  42  72  97 135 186 230 290 354 406
#     4   9  21  37  62 102 135 173 219 275 352 416
#
# _framework density 22.657125000000001
#
# number of rings (size 3 to 8) (size 9 to 14) (size 15 to 20)
#    1.200    0.800    0.000    1.800    5.600    3.200 
#    0.000    2.000    0.000    0.000    0.000    0.000 
#    0.000    0.000    0.000    0.000    0.000    0.000 
#
# Total GULP energy -111491.579928 kJ/mol
# GULP energy per Si atom -5574.578996 kJ/mol
# Density = 2.260556 g / cm^3
# Si number density = 22.657125 Si / 1000 Ang^3
#
#
#
# Elastic Constant Matrix: (Units=GPa)
#
#
# Indices 1 2 3 4 5 6 
#
# 1 75.2939 25.2270 32.6906 0.0000 22.7429 0.0000
# 2 25.2270 53.7133 34.1732 0.0000 25.9366 0.0000
# 3 32.6906 34.1732 126.4169 0.0000 45.0085 0.0000
# 4 0.0000 0.0000 0.0000 55.4955 0.0000 7.6981
# 5 22.7429 25.9366 45.0085 0.0000 38.8807 0.0000
# 6 0.0000 0.0000 0.0000 7.6981 0.0000 24.2943
#
#
#
# Elastic Compliance Matrix: (Units=1/GPa)
#
#
# Indices 1 2 3 4 5 6 
#
# 1 0.016994 -0.004556 -0.001201 0.000000 -0.005511 0.000000
# 2 -0.004556 0.028861 -0.001221 0.000000 -0.015174 0.000000
# 3 -0.001201 -0.001221 0.013627 0.000000 -0.014258 0.000000
# 4 0.000000 0.000000 0.000000 0.018848 0.000000 -0.005972
# 5 -0.005511 -0.015174 -0.014258 0.000000 0.055571 0.000000
# 6 0.000000 0.000000 0.000000 -0.005972 0.000000 0.043054
#
#
# Mechanical properties :
#
#
# Convention : Reuss Voigt Hill
#
# Bulk Modulus (GPa) = 21.96551 48.84508 35.40529
# Shear Modulus (GPa) = 24.26160 34.62300 29.44230
#
# Velocity S-wave (km/s) = 3.27588 3.91337 3.60873
# Velocity P-wave (km/s) = 4.90146 6.48263 5.74669
#
# Compressibility (1/GPa) = 0.04552593
#
# Stress axis : x y z
#
# Youngs Moduli (GPa) = 58.84499 34.64846 73.38249
#
# Poissons Ratio (x) = 0.15787 0.08811
# Poissons Ratio (y) = 0.26812 0.08961
# Poissons Ratio (z) = 0.07066 0.04231
#
# Static dielectric constant tensor:
#      x y z
#    x 1.909640 0.000000 0.005450 
#    y 0.000000 1.876490 0.000000 
#    z 0.005450 0.000000 1.923080 
# 
# From -- ./inp_files/11802.got.cif
#   From: 2010.05.17/outbox.cif.g08.bks.cpg/sg14_6_cif.got.tgz:11802.got - 2010.06.03 17:49:19.
