data_PCOD9247632
_publ_section_title
;
Structure prediction by ZEFSAII (Michael W. Deem and Ramdas Pophale) SiO2 
 PCOD9247632
Probable space group: P 21/C
;
_chemical_formula_sum "Si O2"
_cell_formula_units_Z 28
_cell_length_a 16.244754
_cell_length_b 9.383389
_cell_length_c 13.743128
_cell_angle_alpha 90.000000
_cell_angle_beta 42.633383
_cell_angle_gamma 90.000000
_cell_volume 1418.869863
_symmetry_space_group_name_H-M "P 21/C"
_symmetry_group_IT_number 14
_symmetry_cell_setting 'monoclinic'
loop_
_space_group_symop_operation_xyz
x,y,z
-x,1/2+y,1/2-z
-x,-y,-z
x,1/2-y,1/2+z
loop_
_atom_site_type_symbol
_atom_site_label
_atom_site_fract_x
_atom_site_fract_y
_atom_site_fract_z
Si Si1 0.375471 0.057651 0.652371
Si Si2 0.997336 0.347776 0.626594
Si Si3 0.807229 0.321292 0.628077
Si Si4 0.216678 0.235088 0.158485
Si Si5 0.967677 0.368070 0.311397
Si Si6 0.849527 0.505264 0.127082
Si Si7 0.257890 0.244679 0.898228
O O1 0.297785 0.144901 0.639871
O O2 0.370775 0.174819 0.743942
O O3 0.500000 0.000000 0.500000
O O4 0.308279 0.916669 0.749327
O O5 0.910930 0.377263 0.612230
O O6 0.960080 0.200962 0.712183
O O7 0.998138 0.466630 0.710067
O O8 0.135674 0.338763 0.470430
O O9 0.851180 0.340462 0.479201
O O10 0.801421 0.154401 0.657383
O O11 0.202409 0.091525 0.234203
O O12 0.079861 0.291171 0.266403
O O13 0.265119 0.219907 0.006668
O O14 0.786554 0.597113 0.093816
O O15 0.000000 0.500000 0.000000
#
# Coordination Sequence:
#
# PCOD9247632 Si02
#       7
#     4   4   4   4   4   4   4
#     4  11  24  46  64  82 119 177 223 258 290 341
#     4  11  22  34  58  92 128 154 189 247 321 383
#     4  12  22  36  58  91 121 156 202 250 301 380
#     4  10  22  39  62  90 128 157 200 254 317 373
#     4  11  22  34  58  92 128 154 189 247 321 383
#     4  11  21  35  58  96 128 157 185 244 323 389
#     4  10  22  39  62  90 128 157 200 254 317 373
#
# _framework density 19.734016
#
# number of rings (size 3 to 8) (size 9 to 14) (size 15 to 20)
#    0.000    1.143    5.714    1.286    8.000    0.000 
#    0.000    7.143    0.000    0.000    0.000    0.000 
#    0.000    0.000    0.000    0.000    0.000    0.000 
#
# Total GULP energy -156207.271407 kJ/mol
# GULP energy per Si atom -5578.831122 kJ/mol
# Density = 1.968910 g / cm^3
# Si number density = 19.734016 Si / 1000 Ang^3
#
#
#
# Elastic Constant Matrix: (Units=GPa)
#
#
# Indices 1 2 3 4 5 6 
#
# 1 31.4057 13.1773 32.0760 0.0000 17.5854 0.0000
# 2 13.1773 136.6699 43.6374 0.0000 -0.0828 0.0000
# 3 32.0760 43.6374 142.1493 0.0000 5.2285 0.0000
# 4 0.0000 0.0000 0.0000 33.1818 0.0000 2.4050
# 5 17.5854 -0.0828 5.2285 0.0000 26.9187 0.0000
# 6 0.0000 0.0000 0.0000 2.4050 0.0000 24.5650
#
#
#
# Elastic Compliance Matrix: (Units=1/GPa)
#
#
# Indices 1 2 3 4 5 6 
#
# 1 0.071723 -0.002543 -0.013778 0.000000 -0.044187 0.000000
# 2 -0.002543 0.008209 -0.002023 0.000000 0.002079 0.000000
# 3 -0.013778 -0.002023 0.010509 0.000000 0.006954 0.000000
# 4 0.000000 0.000000 0.000000 0.030352 0.000000 -0.002972
# 5 -0.044187 0.002079 0.006954 0.000000 0.064671 0.000000
# 6 0.000000 0.000000 0.000000 -0.002972 0.000000 0.040999
#
#
# Mechanical properties :
#
#
# Convention : Reuss Voigt Hill
#
# Bulk Modulus (GPa) = 18.60351 54.22291 36.41321
# Shear Modulus (GPa) = 17.78921 31.68873 24.73897
#
# Velocity S-wave (km/s) = 3.00567 4.01158 3.54449
# Velocity P-wave (km/s) = 4.63605 6.99954 5.93661
#
# Compressibility (1/GPa) = 0.05375331
#
# Stress axis : x y z
#
# Youngs Moduli (GPa) = 13.94256 121.81484 95.15529
#
# Poissons Ratio (x) = 0.30974 1.31109
# Poissons Ratio (y) = 0.03545 0.19248
# Poissons Ratio (z) = 0.19211 0.24641
#
# Static dielectric constant tensor:
#      x y z
#    x 1.709110 0.000000 0.051250 
#    y 0.000000 1.788310 0.000000 
#    z 0.051250 0.000000 1.723730 
# 
# From -- ./inp_files/48545.got.cif
#   From: 2010.05.17/outbox.cif.g08.bks.cpg/sg14_25_cif.got.tgz:48545.got - 2010.06.03 17:49:19.
