data_PCOD9247075
_publ_section_title
;
Structure prediction by ZEFSAII (Michael W. Deem and Ramdas Pophale) SiO2 
 PCOD9247075
Probable space group: P 21/C
;
_chemical_formula_sum "Si O2"
_cell_formula_units_Z 28
_cell_length_a 8.760484
_cell_length_b 16.582071
_cell_length_c 7.863463
_cell_angle_alpha 90.000000
_cell_angle_beta 118.075078
_cell_angle_gamma 90.000000
_cell_volume 1007.888712
_symmetry_space_group_name_H-M "P 21/C"
_symmetry_group_IT_number 14
_symmetry_cell_setting 'monoclinic'
loop_
_space_group_symop_operation_xyz
x,y,z
-x,1/2+y,1/2-z
-x,-y,-z
x,1/2-y,1/2+z
loop_
_atom_site_type_symbol
_atom_site_label
_atom_site_fract_x
_atom_site_fract_y
_atom_site_fract_z
Si Si1 0.402506 0.899409 0.674156
Si Si2 0.572221 0.744952 0.137849
Si Si3 0.798314 0.187969 0.170364
Si Si4 0.290742 0.494623 0.611516
Si Si5 0.167351 0.379668 0.848796
Si Si6 0.170995 0.863173 0.237404
Si Si7 0.823059 0.602241 0.765553
O O1 0.534771 0.822522 0.766310
O O2 0.257117 0.884442 0.735485
O O3 0.507782 0.981413 0.743135
O O4 0.323133 0.887335 0.447469
O O5 0.670245 0.682075 0.062540
O O6 0.707589 0.817266 0.221260
O O7 0.382579 0.784544 0.013597
O O8 0.828640 0.269025 0.300294
O O9 0.994482 0.170337 0.215356
O O10 0.197145 0.442765 0.711492
O O11 0.214801 0.583010 0.596851
O O12 0.265556 0.458830 0.412294
O O13 0.147565 0.421605 0.022377
O O14 0.999485 0.880469 0.254935
#
# Coordination Sequence:
#
# PCOD9247075 Si02
#       7
#     4   4   4   4   4   4   4
#     4  10  21  43  71 102 145 189 241 298 363 432
#     4  10  22  39  69 107 137 182 240 306 355 416
#     4  11  21  42  74 105 140 188 249 300 350 432
#     4  11  26  47  71 103 152 191 232 302 374 430
#     4  11  25  44  74 104 142 193 241 300 360 433
#     4  11  24  41  74 105 143 193 240 298 372 426
#     4  12  23  42  69 104 141 185 244 292 358 432
#
# _framework density 27.780843999999998
#
# number of rings (size 3 to 8) (size 9 to 14) (size 15 to 20)
#    0.000    1.143    4.286    1.714    2.000    2.857 
#    0.000    0.000    0.000   10.286    0.000    0.000 
#    0.000    0.000    0.000    0.000    0.000    0.000 
#
# Total GULP energy -156784.913838 kJ/mol
# GULP energy per Si atom -5599.461209 kJ/mol
# Density = 2.771761 g / cm^3
# Si number density = 27.780844 Si / 1000 Ang^3
#
#
#
# Elastic Constant Matrix: (Units=GPa)
#
#
# Indices 1 2 3 4 5 6 
#
# 1 175.1333 21.9843 28.4661 0.0000 12.4057 0.0000
# 2 21.9843 65.6733 -5.3591 0.0000 4.2789 0.0000
# 3 28.4661 -5.3591 88.4267 0.0000 2.9911 0.0000
# 4 0.0000 0.0000 0.0000 20.8364 0.0000 -8.9427
# 5 12.4057 4.2789 2.9911 0.0000 56.3982 0.0000
# 6 0.0000 0.0000 0.0000 -8.9427 0.0000 47.4206
#
#
#
# Elastic Compliance Matrix: (Units=1/GPa)
#
#
# Indices 1 2 3 4 5 6 
#
# 1 0.006425 -0.002254 -0.002167 0.000000 -0.001127 0.000000
# 2 -0.002254 0.016177 0.001734 0.000000 -0.000823 0.000000
# 3 -0.002167 0.001734 0.012121 0.000000 -0.000298 0.000000
# 4 0.000000 0.000000 0.000000 0.052219 0.000000 0.009848
# 5 -0.001127 -0.000823 -0.000298 0.000000 0.018057 0.000000
# 6 0.000000 0.000000 0.000000 0.009848 0.000000 0.022945
#
#
# Mechanical properties :
#
#
# Convention : Reuss Voigt Hill
#
# Bulk Modulus (GPa) = 34.07275 46.60177 40.33726
# Shear Modulus (GPa) = 34.94018 43.87384 39.40701
#
# Velocity S-wave (km/s) = 3.55026 3.97833 3.77038
# Velocity P-wave (km/s) = 5.39419 6.15744 5.78841
#
# Compressibility (1/GPa) = 0.02934896
#
# Stress axis : x y z
#
# Youngs Moduli (GPa) = 155.64359 61.81767 82.49815
#
# Poissons Ratio (x) = 0.13934 0.17876
# Poissons Ratio (y) = 0.35084 -0.14304
# Poissons Ratio (z) = 0.33725 -0.10718
#
# Static dielectric constant tensor:
#      x y z
#    x 2.120150 0.000000 -0.058780 
#    y 0.000000 2.180870 0.000000 
#    z -0.058780 0.000000 2.275960 
# 
# From -- ./inp_files/25591.got.cif
#   From: 2010.05.17/outbox.cif.g08.bks.cpg/sg14_13_cif.got.tgz:25591.got - 2010.06.03 17:49:19.
