data_PCOD9247545
_publ_section_title
;
Structure prediction by ZEFSAII (Michael W. Deem and Ramdas Pophale) SiO2 
 PCOD9247545
Probable space group: P 21/C
;
_chemical_formula_sum "Si O2"
_cell_formula_units_Z 24
_cell_length_a 9.858730
_cell_length_b 12.360390
_cell_length_c 18.959498
_cell_angle_alpha 90.000000
_cell_angle_beta 26.440971
_cell_angle_gamma 90.000000
_cell_volume 1028.747633
_symmetry_space_group_name_H-M "P 21/C"
_symmetry_group_IT_number 14
_symmetry_cell_setting 'monoclinic'
loop_
_space_group_symop_operation_xyz
x,y,z
-x,1/2+y,1/2-z
-x,-y,-z
x,1/2-y,1/2+z
loop_
_atom_site_type_symbol
_atom_site_label
_atom_site_fract_x
_atom_site_fract_y
_atom_site_fract_z
Si Si1 0.057426 0.782323 0.591839
Si Si2 0.633707 0.957027 0.748287
Si Si3 0.011530 0.161882 0.526120
Si Si4 0.949475 0.451107 0.386492
Si Si5 0.957166 0.182103 0.175590
Si Si6 0.585940 0.313446 0.455669
O O1 0.820491 0.878515 0.714418
O O2 0.167032 0.800505 0.460981
O O3 0.900571 0.663828 0.665446
O O4 0.322990 0.771679 0.525204
O O5 0.685542 0.892089 0.650248
O O6 0.302341 0.971825 0.935008
O O7 0.817797 0.067558 0.652910
O O8 0.061540 0.260616 0.554964
O O9 0.144450 0.558451 0.287996
O O10 0.762725 0.419158 0.402052
O O11 0.724506 0.262612 0.320613
O O12 0.237132 0.173804 0.099807
#
# Coordination Sequence:
#
# PCOD9247545 Si02
#       6
#     4   4   4   4   4   4
#     4   8  20  40  61  89 121 170 203 252 318 373
#     4   9  18  43  64  88 126 174 206 246 334 374
#     4   9  21  39  66  90 128 164 210 264 304 381
#     4  10  22  38  68  86 126 173 207 257 315 391
#     4  12  23  42  64 101 121 165 218 262 313 369
#     4  10  24  41  63  89 132 167 205 258 319 377
#
# _framework density 23.329336000000001
#
# number of rings (size 3 to 8) (size 9 to 14) (size 15 to 20)
#    2.000    0.333    0.000    2.500    0.000    4.667 
#    0.000    5.000    0.000    0.000    0.000    0.000 
#    0.000    0.000    0.000    0.000    0.000    0.000 
#
# Total GULP energy -133802.499412 kJ/mol
# GULP energy per Si atom -5575.104142 kJ/mol
# Density = 2.327624 g / cm^3
# Si number density = 23.329336 Si / 1000 Ang^3
#
#
#
# Elastic Constant Matrix: (Units=GPa)
#
#
# Indices 1 2 3 4 5 6 
#
# 1 92.7679 4.6046 15.0027 0.0000 13.5776 0.0000
# 2 4.6046 100.0109 4.5421 0.0000 11.9800 0.0000
# 3 15.0027 4.5421 70.3423 0.0000 22.3879 0.0000
# 4 0.0000 0.0000 0.0000 10.3986 0.0000 5.0202
# 5 13.5776 11.9800 22.3879 0.0000 26.1974 0.0000
# 6 0.0000 0.0000 0.0000 5.0202 0.0000 27.4412
#
#
#
# Elastic Compliance Matrix: (Units=1/GPa)
#
#
# Indices 1 2 3 4 5 6 
#
# 1 0.011697 0.000153 -0.000760 0.000000 -0.005483 0.000000
# 2 0.000153 0.010652 0.001175 0.000000 -0.005954 0.000000
# 3 -0.000760 0.001175 0.019708 0.000000 -0.016986 0.000000
# 4 0.000000 0.000000 0.000000 0.105483 0.000000 -0.019298
# 5 -0.005483 -0.005954 -0.016986 0.000000 0.058252 0.000000
# 6 0.000000 0.000000 0.000000 -0.019298 0.000000 0.039972
#
#
# Mechanical properties :
#
#
# Convention : Reuss Voigt Hill
#
# Bulk Modulus (GPa) = 23.15177 34.60220 28.87698
# Shear Modulus (GPa) = 19.30299 28.73889 24.02094
#
# Velocity S-wave (km/s) = 2.87960 3.51362 3.21229
# Velocity P-wave (km/s) = 4.58274 5.59687 5.11500
#
# Compressibility (1/GPa) = 0.04319324
#
# Stress axis : x y z
#
# Youngs Moduli (GPa) = 85.48927 93.88141 50.73957
#
# Poissons Ratio (x) = -0.01434 0.03854
# Poissons Ratio (y) = -0.01306 -0.05960
# Poissons Ratio (z) = 0.06493 -0.11027
#
# Static dielectric constant tensor:
#      x y z
#    x 1.890400 0.000000 0.015760 
#    y 0.000000 1.885450 0.000000 
#    z 0.015760 0.000000 1.928220 
# 
# From -- ./inp_files/67230.got.cif
#   From: 2010.05.17/outbox.cif.g08.bks.cpg/sg14_34_cif.got.tgz:67230.got - 2010.06.03 17:49:19.
