data_PCOD9247015
_publ_section_title
;
Structure prediction by ZEFSAII (Michael W. Deem and Ramdas Pophale) SiO2 
 PCOD9247015
Probable space group: P 21/C
;
_chemical_formula_sum "Si O2"
_cell_formula_units_Z 32
_cell_length_a 25.610025
_cell_length_b 7.171600
_cell_length_c 14.926082
_cell_angle_alpha 90.000000
_cell_angle_beta 151.570388
_cell_angle_gamma 90.000000
_cell_volume 1305.120769
_symmetry_space_group_name_H-M "P 21/C"
_symmetry_group_IT_number 14
_symmetry_cell_setting 'monoclinic'
loop_
_space_group_symop_operation_xyz
x,y,z
-x,1/2+y,1/2-z
-x,-y,-z
x,1/2-y,1/2+z
loop_
_atom_site_type_symbol
_atom_site_label
_atom_site_fract_x
_atom_site_fract_y
_atom_site_fract_z
Si Si1 0.634431 0.146688 0.794840
Si Si2 0.879267 0.599371 0.088430
Si Si3 0.815464 0.340725 0.711661
Si Si4 0.585853 0.634698 0.544708
Si Si5 0.719949 0.198435 0.248158
Si Si6 0.760258 0.724717 0.174706
Si Si7 0.985767 0.828184 0.088871
Si Si8 0.668622 0.730920 0.855697
O O1 0.528455 0.272023 0.649242
O O2 0.675614 0.160215 0.754592
O O3 0.613227 0.931068 0.783199
O O4 0.732285 0.209224 0.006578
O O5 0.950527 0.699020 0.120114
O O6 0.952778 0.504122 0.275296
O O7 0.805174 0.438852 0.929061
O O8 0.792620 0.741165 0.002572
O O9 0.779943 0.240096 0.749448
O O10 0.797629 0.561972 0.704787
O O11 0.934066 0.285449 0.855304
O O12 0.616460 0.427240 0.559698
O O13 0.681246 0.756667 0.641124
O O14 0.603210 0.629669 0.678212
O O15 0.873860 0.627138 0.368709
O O16 0.689830 0.647880 0.985440
#
# Coordination Sequence:
#
# PCOD9247015 Si02
#       8
#     4   4   4   4   4   4   4   4
#     4  11  22  40  71  97 135 185 229 282 351 424
#     4  11  25  41  68  96 136 181 233 290 352 422
#     4  10  22  39  66 101 137 181 230 276 357 422
#     4  10  21  43  66  98 137 182 231 283 353 406
#     4  10  21  44  64 101 138 179 228 290 343 416
#     4  10  22  41  69  96 140 182 225 289 347 423
#     4  12  23  42  70  99 135 188 231 286 361 421
#     4  10  23  44  62  96 138 175 227 291 346 409
#
# _framework density 24.518802000000001
#
# number of rings (size 3 to 8) (size 9 to 14) (size 15 to 20)
#    0.000    1.500    5.000    1.125    3.500    1.500 
#    2.250    5.000    0.000    0.000    0.000    0.000 
#    0.000    0.000    0.000    0.000    0.000    0.000 
#
# Total GULP energy -179181.336801 kJ/mol
# GULP energy per Si atom -5599.416775 kJ/mol
# Density = 2.446300 g / cm^3
# Si number density = 24.518802 Si / 1000 Ang^3
#
#
#
# Elastic Constant Matrix: (Units=GPa)
#
#
# Indices 1 2 3 4 5 6 
#
# 1 112.4626 15.4564 42.1968 0.0000 -1.7718 0.0000
# 2 15.4564 75.2413 33.3936 0.0000 11.8039 0.0000
# 3 42.1968 33.3936 94.6370 0.0000 20.6152 0.0000
# 4 0.0000 0.0000 0.0000 37.3077 0.0000 -3.6230
# 5 -1.7718 11.8039 20.6152 0.0000 28.9544 0.0000
# 6 0.0000 0.0000 0.0000 -3.6230 0.0000 19.6040
#
#
#
# Elastic Compliance Matrix: (Units=1/GPa)
#
#
# Indices 1 2 3 4 5 6 
#
# 1 0.011283 -0.000468 -0.005986 0.000000 0.005143 0.000000
# 2 -0.000468 0.015989 -0.004743 0.000000 -0.003170 0.000000
# 3 -0.005986 -0.004743 0.017242 0.000000 -0.010709 0.000000
# 4 0.000000 0.000000 0.000000 0.027294 0.000000 0.005044
# 5 0.005143 -0.003170 -0.010709 0.000000 0.043769 0.000000
# 6 0.000000 0.000000 0.000000 0.005044 0.000000 0.051942
#
#
# Mechanical properties :
#
#
# Convention : Reuss Voigt Hill
#
# Bulk Modulus (GPa) = 45.20661 51.60384 48.40523
# Shear Modulus (GPa) = 25.34385 29.92618 27.63501
#
# Velocity S-wave (km/s) = 3.21853 3.49741 3.36087
# Velocity P-wave (km/s) = 5.68238 6.11568 5.90301
#
# Compressibility (1/GPa) = 0.02212066
#
# Stress axis : x y z
#
# Youngs Moduli (GPa) = 88.62661 62.54339 57.99734
#
# Poissons Ratio (x) = 0.02927 0.34719
# Poissons Ratio (y) = 0.04147 0.27506
# Poissons Ratio (z) = 0.53055 0.29662
#
# Static dielectric constant tensor:
#      x y z
#    x 1.929000 0.000000 -0.017180 
#    y 0.000000 1.965350 0.000000 
#    z -0.017180 0.000000 1.936200 
# 
# From -- ./inp_files/51402.got.cif
#   From: 2010.05.17/outbox.cif.g08.bks.cpg/sg14_26_cif.got.tgz:51402.got - 2010.06.03 17:49:19.
