data_PCOD9247607
_publ_section_title
;
Structure prediction by ZEFSAII (Michael W. Deem and Ramdas Pophale) SiO2 
 PCOD9247607
Probable space group: P 21/C
;
_chemical_formula_sum "Si O2"
_cell_formula_units_Z 24
_cell_length_a 8.721460
_cell_length_b 15.505012
_cell_length_c 10.107921
_cell_angle_alpha 90.000000
_cell_angle_beta 87.992335
_cell_angle_gamma 90.000000
_cell_volume 1366.018135
_symmetry_space_group_name_H-M "P 21/C"
_symmetry_group_IT_number 14
_symmetry_cell_setting 'monoclinic'
loop_
_space_group_symop_operation_xyz
x,y,z
-x,1/2+y,1/2-z
-x,-y,-z
x,1/2-y,1/2+z
loop_
_atom_site_type_symbol
_atom_site_label
_atom_site_fract_x
_atom_site_fract_y
_atom_site_fract_z
Si Si1 0.471595 0.550294 0.135081
Si Si2 0.669118 0.273258 0.818474
Si Si3 0.819480 0.167453 0.048563
Si Si4 0.818410 0.684205 0.496040
Si Si5 0.671778 0.799248 0.714866
Si Si6 0.353568 0.487962 0.409254
O O1 0.351247 0.629640 0.122012
O O2 0.492901 0.249680 0.287173
O O3 0.411977 0.491344 0.256314
O O4 0.500000 0.500000 0.000000
O O5 0.766235 0.281552 0.681833
O O6 0.377854 0.397388 0.818843
O O7 0.739941 0.210731 0.923944
O O8 0.754665 0.071068 0.066931
O O9 0.001336 0.169988 0.026910
O O10 0.781637 0.759338 0.601663
O O11 0.742759 0.705885 0.357231
O O12 0.736428 0.598230 0.552313
O O13 0.500000 0.500000 0.500000
#
# Coordination Sequence:
#
# PCOD9247607 Si02
#       6
#     4   4   4   4   4   4
#     4   9  21  37  61  89 112 151 207 252 290 351
#     4   9  20  38  60  82 119 155 205 237 300 360
#     4  11  22  39  58  91 122 160 195 260 306 352
#     4  12  23  38  61  90 124 154 203 254 312 354
#     4  10  22  39  61  88 116 160 204 250 288 377
#     4  11  21  40  61  86 119 163 204 246 296 370
#
# _framework density 17.569310999999999
#
# number of rings (size 3 to 8) (size 9 to 14) (size 15 to 20)
#    1.000    0.667    1.667    3.500    2.333    1.333 
#    0.000    0.000    0.000    3.000    0.000    0.000 
#    0.000    0.000    0.000    0.000    0.000    0.000 
#
# Total GULP energy -133871.012498 kJ/mol
# GULP energy per Si atom -5577.958854 kJ/mol
# Density = 1.752932 g / cm^3
# Si number density = 17.569311 Si / 1000 Ang^3
#
#
#
# Elastic Constant Matrix: (Units=GPa)
#
#
# Indices 1 2 3 4 5 6 
#
# 1 131.5078 36.3371 72.1902 0.0000 -16.5773 0.0000
# 2 36.3371 40.9799 60.8873 0.0000 -1.3275 0.0000
# 3 72.1902 60.8873 164.8476 0.0000 -8.6735 0.0000
# 4 0.0000 0.0000 0.0000 33.5348 0.0000 -5.7352
# 5 -16.5773 -1.3275 -8.6735 0.0000 25.9741 0.0000
# 6 0.0000 0.0000 0.0000 -5.7352 0.0000 27.4277
#
#
#
# Elastic Compliance Matrix: (Units=1/GPa)
#
#
# Indices 1 2 3 4 5 6 
#
# 1 0.011447 -0.006619 -0.002241 0.000000 0.006219 0.000000
# 2 -0.006619 0.058315 -0.019040 0.000000 -0.007602 0.000000
# 3 -0.002241 -0.019040 0.014203 0.000000 0.002340 0.000000
# 4 0.000000 0.000000 0.000000 0.030926 0.000000 0.006467
# 5 0.006219 -0.007602 0.002340 0.000000 0.042862 0.000000
# 6 0.000000 0.000000 0.000000 0.006467 0.000000 0.037812
#
#
# Mechanical properties :
#
#
# Convention : Reuss Voigt Hill
#
# Bulk Modulus (GPa) = 35.50561 75.12938 55.31749
# Shear Modulus (GPa) = 19.17519 28.58205 23.87862
#
# Velocity S-wave (km/s) = 3.30722 4.03776 3.69061
# Velocity P-wave (km/s) = 5.90224 8.03695 7.05085
#
# Compressibility (1/GPa) = 0.02816456
#
# Stress axis : x y z
#
# Youngs Moduli (GPa) = 87.35774 17.14824 70.40682
#
# Poissons Ratio (x) = 0.11351 0.15777
# Poissons Ratio (y) = 0.57826 1.34056
# Poissons Ratio (z) = 0.19575 0.32650
#
# Static dielectric constant tensor:
#      x y z
#    x 1.584580 0.000000 -0.003490 
#    y 0.000000 1.601830 0.000000 
#    z -0.003490 0.000000 1.566660 
# 
# From -- ./inp_files/8594.got.cif
#   From: 2010.05.17/outbox.cif.g08.bks.cpg/sg14_5_cif.got.tgz:8594.got - 2010.06.03 17:49:19.
