data_PCOD9247691
_publ_section_title
;
Structure prediction by ZEFSAII (Michael W. Deem and Ramdas Pophale) SiO2 
 PCOD9247691
Probable space group: P 21/C
;
_chemical_formula_sum "Si O2"
_cell_formula_units_Z 28
_cell_length_a 11.850056
_cell_length_b 9.943592
_cell_length_c 22.671614
_cell_angle_alpha 90.000000
_cell_angle_beta 26.057686
_cell_angle_gamma 90.000000
_cell_volume 1173.500977
_symmetry_space_group_name_H-M "P 21/C"
_symmetry_group_IT_number 14
_symmetry_cell_setting 'monoclinic'
loop_
_space_group_symop_operation_xyz
x,y,z
-x,1/2+y,1/2-z
-x,-y,-z
x,1/2-y,1/2+z
loop_
_atom_site_type_symbol
_atom_site_label
_atom_site_fract_x
_atom_site_fract_y
_atom_site_fract_z
Si Si1 0.982821 0.716866 0.520565
Si Si2 0.437189 0.288658 0.863858
Si Si3 0.123567 0.193034 0.123491
Si Si4 0.197787 0.923527 0.270513
Si Si5 0.146676 0.979936 0.836236
Si Si6 0.702295 0.802691 0.826208
Si Si7 0.206027 0.853441 0.519186
O O1 0.752605 0.801653 0.601595
O O2 0.874834 0.618881 0.621539
O O3 0.063972 0.624366 0.427433
O O4 0.189767 0.800326 0.459718
O O5 0.640784 0.164564 0.758674
O O6 0.571380 0.430157 0.810157
O O7 0.310323 0.242155 0.984170
O O8 0.255410 0.183946 0.124051
O O9 0.900394 0.308059 0.228494
O O10 0.009409 0.055701 0.149529
O O11 0.365775 0.047851 0.167224
O O12 0.937816 0.000615 0.412977
O O13 0.987205 0.780492 0.664155
O O14 0.482934 0.693624 0.914040
#
# Coordination Sequence:
#
# PCOD9247691 Si02
#       7
#     4   4   4   4   4   4   4
#     4  10  22  39  65  91 134 170 234 271 342 413
#     4  10  22  40  68  93 135 181 215 289 347 396
#     4  10  22  44  65  99 131 175 230 273 351 401
#     4   9  24  44  65 102 140 167 235 283 331 415
#     4   9  22  38  62  95 122 174 223 282 329 411
#     4  10  25  43  70  97 137 178 225 283 337 411
#     4  10  25  42  67 102 133 183 222 284 342 401
#
# _framework density 23.860227999999999
#
# number of rings (size 3 to 8) (size 9 to 14) (size 15 to 20)
#    0.857    1.429    0.000    0.000   14.000    3.429 
#    0.000    2.143    0.000    0.000    0.000    0.000 
#    0.000    0.000    0.000    0.000    0.000    0.000 
#
# Total GULP energy -156068.617577 kJ/mol
# GULP energy per Si atom -5573.879199 kJ/mol
# Density = 2.380592 g / cm^3
# Si number density = 23.860228 Si / 1000 Ang^3
#
#
#
# Elastic Constant Matrix: (Units=GPa)
#
#
# Indices 1 2 3 4 5 6 
#
# 1 147.7424 20.7521 14.8021 0.0000 0.8431 0.0000
# 2 20.7521 66.1873 2.9017 0.0000 8.2451 0.0000
# 3 14.8021 2.9017 69.1107 0.0000 -7.3079 0.0000
# 4 0.0000 0.0000 0.0000 29.4098 0.0000 0.0645
# 5 0.8431 8.2451 -7.3079 0.0000 28.1159 0.0000
# 6 0.0000 0.0000 0.0000 0.0645 0.0000 22.6861
#
#
#
# Elastic Compliance Matrix: (Units=1/GPa)
#
#
# Indices 1 2 3 4 5 6 
#
# 1 0.007224 -0.002208 -0.001449 0.000000 0.000054 0.000000
# 2 -0.002208 0.016450 -0.000741 0.000000 -0.004950 0.000000
# 3 -0.001449 -0.000741 0.015258 0.000000 0.004227 0.000000
# 4 0.000000 0.000000 0.000000 0.034003 0.000000 -0.000097
# 5 0.000054 -0.004950 0.004227 0.000000 0.038116 0.000000
# 6 0.000000 0.000000 0.000000 -0.000097 0.000000 0.044080
#
#
# Mechanical properties :
#
#
# Convention : Reuss Voigt Hill
#
# Bulk Modulus (GPa) = 33.18340 39.99470 36.58905
# Shear Modulus (GPa) = 28.74040 32.34798 30.54419
#
# Velocity S-wave (km/s) = 3.47440 3.68602 3.58177
# Velocity P-wave (km/s) = 5.48023 5.90881 5.69855
#
# Compressibility (1/GPa) = 0.03013555
#
# Stress axis : x y z
#
# Youngs Moduli (GPa) = 138.43660 60.78972 65.53993
#
# Poissons Ratio (x) = 0.13423 0.09495
# Poissons Ratio (y) = 0.30568 0.04858
# Poissons Ratio (z) = 0.20055 0.04506
#
# Static dielectric constant tensor:
#      x y z
#    x 1.826910 0.000000 -0.051670 
#    y 0.000000 1.996860 0.000000 
#    z -0.051670 0.000000 2.093360 
# 
# From -- ./inp_files/73236.got.cif
#   From: 2010.05.17/outbox.cif.g08.bks.cpg/sg14_37_cif.got.tgz:73236.got - 2010.06.03 17:49:19.
