data_PCOD9247230
_publ_section_title
;
Structure prediction by ZEFSAII (Michael W. Deem and Ramdas Pophale) SiO2 
 PCOD9247230
Probable space group: P 21/C
;
_chemical_formula_sum "Si O2"
_cell_formula_units_Z 32
_cell_length_a 12.337041
_cell_length_b 11.301408
_cell_length_c 10.016344
_cell_angle_alpha 90.000000
_cell_angle_beta 63.349690
_cell_angle_gamma 90.000000
_cell_volume 1248.170921
_symmetry_space_group_name_H-M "P 21/C"
_symmetry_group_IT_number 14
_symmetry_cell_setting 'monoclinic'
loop_
_space_group_symop_operation_xyz
x,y,z
-x,1/2+y,1/2-z
-x,-y,-z
x,1/2-y,1/2+z
loop_
_atom_site_type_symbol
_atom_site_label
_atom_site_fract_x
_atom_site_fract_y
_atom_site_fract_z
Si Si1 0.328515 0.701804 0.447539
Si Si2 0.327626 0.568137 0.043464
Si Si3 0.916693 0.394585 0.710522
Si Si4 0.138440 0.128830 0.368481
Si Si5 0.126803 0.845225 0.392877
Si Si6 0.511659 0.902555 0.647908
Si Si7 0.173996 0.008442 0.017287
Si Si8 0.731796 0.758200 0.962474
O O1 0.359692 0.794373 0.542555
O O2 0.242626 0.783036 0.399291
O O3 0.445884 0.655145 0.308527
O O4 0.249102 0.594845 0.544110
O O5 0.185221 0.556012 0.134732
O O6 0.403026 0.526966 0.130928
O O7 0.391275 0.507613 0.883538
O O8 0.907690 0.252438 0.702394
O O9 0.870017 0.450512 0.596205
O O10 0.051608 0.442375 0.651846
O O11 0.186249 0.174386 0.486949
O O12 0.212382 0.202512 0.212862
O O13 0.995065 0.161165 0.447605
O O14 0.146018 0.985013 0.354444
O O15 0.601740 0.805705 0.530033
O O16 0.264049 0.118664 0.958782
#
# Coordination Sequence:
#
# PCOD9247230 Si02
#       8
#     4   4   4   4   4   4   4   4
#     4  11  25  44  72 105 146 196 247 309 383 454
#     4  11  25  46  72 102 142 196 252 308 368 457
#     4  10  21  45  75 102 145 191 251 309 381 450
#     4  11  27  48  75 111 156 197 249 317 386 452
#     4  10  22  49  71 108 150 193 242 320 387 450
#     4  11  27  45  71 100 143 201 249 309 364 446
#     4  10  23  43  70 108 143 190 240 316 373 456
#     4  12  28  46  73 112 152 201 252 312 370 454
#
# _framework density 25.637516000000002
#
# number of rings (size 3 to 8) (size 9 to 14) (size 15 to 20)
#    0.000    1.250    3.750    0.750    8.750    0.000 
#    6.750    1.250    0.000    0.000    0.000    0.000 
#    0.000    0.000    0.000    0.000    0.000    0.000 
#
# Total GULP energy -178684.870005 kJ/mol
# GULP energy per Si atom -5583.902188 kJ/mol
# Density = 2.557916 g / cm^3
# Si number density = 25.637516 Si / 1000 Ang^3
#
#
#
# Elastic Constant Matrix: (Units=GPa)
#
#
# Indices 1 2 3 4 5 6 
#
# 1 103.5766 38.7166 34.3728 0.0000 -33.6698 0.0000
# 2 38.7166 204.2029 67.0782 0.0000 -20.7202 0.0000
# 3 34.3728 67.0782 157.7968 0.0000 -32.8844 0.0000
# 4 0.0000 0.0000 0.0000 47.5481 0.0000 -6.4836
# 5 -33.6698 -20.7202 -32.8844 0.0000 44.3336 0.0000
# 6 0.0000 0.0000 0.0000 -6.4836 0.0000 40.5359
#
#
#
# Elastic Compliance Matrix: (Units=1/GPa)
#
#
# Indices 1 2 3 4 5 6 
#
# 1 0.013298 -0.001474 -0.000366 0.000000 0.009139 0.000000
# 2 -0.001474 0.005895 -0.002181 0.000000 0.000018 0.000000
# 3 -0.000366 -0.002181 0.008367 0.000000 0.004909 0.000000
# 4 0.000000 0.000000 0.000000 0.021500 0.000000 0.003439
# 5 0.009139 0.000018 0.004909 0.000000 0.033147 0.000000
# 6 0.000000 0.000000 0.000000 0.003439 0.000000 0.025220
#
#
# Mechanical properties :
#
#
# Convention : Reuss Voigt Hill
#
# Bulk Modulus (GPa) = 51.23236 82.87905 67.05571
# Shear Modulus (GPa) = 40.99241 48.17743 44.58492
#
# Velocity S-wave (km/s) = 4.00299 4.33965 4.17472
# Velocity P-wave (km/s) = 6.43366 7.58337 7.03205
#
# Compressibility (1/GPa) = 0.01951891
#
# Stress axis : x y z
#
# Youngs Moduli (GPa) = 75.20026 169.64117 119.51531
#
# Poissons Ratio (x) = 0.25002 0.04369
# Poissons Ratio (y) = 0.11083 0.26067
# Poissons Ratio (z) = 0.02749 0.37000
#
# Static dielectric constant tensor:
#      x y z
#    x 2.103850 0.000000 0.077410 
#    y 0.000000 2.089710 0.000000 
#    z 0.077410 0.000000 2.085100 
# 
# From -- ./inp_files/32364.got.cif
#   From: 2010.05.17/outbox.cif.g08.bks.cpg/sg14_17_cif.got.tgz:32364.got - 2010.06.03 17:49:19.
