data_PCOD9247196
_publ_section_title
;
Structure prediction by ZEFSAII (Michael W. Deem and Ramdas Pophale) SiO2 
 PCOD9247196
Probable space group: P 21/C
;
_chemical_formula_sum "Si O2"
_cell_formula_units_Z 28
_cell_length_a 12.028185
_cell_length_b 18.686482
_cell_length_c 8.003171
_cell_angle_alpha 90.000000
_cell_angle_beta 38.127651
_cell_angle_gamma 90.000000
_cell_volume 1110.624695
_symmetry_space_group_name_H-M "P 21/C"
_symmetry_group_IT_number 14
_symmetry_cell_setting 'monoclinic'
loop_
_space_group_symop_operation_xyz
x,y,z
-x,1/2+y,1/2-z
-x,-y,-z
x,1/2-y,1/2+z
loop_
_atom_site_type_symbol
_atom_site_label
_atom_site_fract_x
_atom_site_fract_y
_atom_site_fract_z
Si Si1 0.785209 0.377399 0.160691
Si Si2 0.525104 0.879099 0.182281
Si Si3 0.360641 0.916247 0.830257
Si Si4 0.335857 0.717726 0.144909
Si Si5 0.939663 0.672888 0.621712
Si Si6 0.853447 0.825014 0.615593
Si Si7 0.720587 0.544939 0.757501
O O1 0.668458 0.409588 0.147735
O O2 0.734161 0.423614 0.382090
O O3 0.684601 0.300479 0.294577
O O4 0.995284 0.357655 0.935222
O O5 0.480744 0.806837 0.338961
O O6 0.627974 0.926650 0.196320
O O7 0.666512 0.865346 0.867360
O O8 0.364152 0.833390 0.771097
O O9 0.565579 0.942218 0.577856
O O10 0.252143 0.962332 0.820049
O O11 0.136335 0.694252 0.323013
O O12 0.824920 0.741540 0.696134
O O13 0.878094 0.598117 0.618469
O O14 0.926311 0.669805 0.839681
#
# Coordination Sequence:
#
# PCOD9247196 Si02
#       7
#     4   4   4   4   4   4   4
#     4  11  23  41  68  97 137 169 228 282 331 402
#     4  11  25  39  66 100 133 177 220 277 346 390
#     4  10  21  45  65 100 133 182 230 271 339 410
#     4  10  23  40  68  98 127 178 224 281 337 393
#     4  11  23  43  65  97 138 171 227 280 336 403
#     4  11  25  41  66 102 133 173 224 288 333 399
#     4  10  24  41  69  96 138 182 227 274 338 415
#
# _framework density 25.211037000000001
#
# number of rings (size 3 to 8) (size 9 to 14) (size 15 to 20)
#    0.000    1.429    1.429    2.571   16.000    1.143 
#    0.000    2.143    0.000    0.000    0.000    0.000 
#    0.000    0.000    0.000    0.000    0.000    0.000 
#
# Total GULP energy -156576.539691 kJ/mol
# GULP energy per Si atom -5592.019275 kJ/mol
# Density = 2.515366 g / cm^3
# Si number density = 25.211037 Si / 1000 Ang^3
#
#
#
# Elastic Constant Matrix: (Units=GPa)
#
#
# Indices 1 2 3 4 5 6 
#
# 1 112.5890 21.5006 16.4792 0.0000 -7.4682 0.0000
# 2 21.5006 63.7922 11.7264 0.0000 -6.6947 0.0000
# 3 16.4792 11.7264 85.8848 0.0000 -2.2132 0.0000
# 4 0.0000 0.0000 0.0000 20.2061 0.0000 -5.8687
# 5 -7.4682 -6.6947 -2.2132 0.0000 31.2567 0.0000
# 6 0.0000 0.0000 0.0000 -5.8687 0.0000 35.9546
#
#
#
# Elastic Compliance Matrix: (Units=1/GPa)
#
#
# Indices 1 2 3 4 5 6 
#
# 1 0.009744 -0.002850 -0.001439 0.000000 0.001616 0.000000
# 2 -0.002850 0.017259 -0.001735 0.000000 0.002893 0.000000
# 3 -0.001439 -0.001735 0.012160 0.000000 0.000146 0.000000
# 4 0.000000 0.000000 0.000000 0.051953 0.000000 0.008480
# 5 0.001616 0.002893 0.000146 0.000000 0.033009 0.000000
# 6 0.000000 0.000000 0.000000 0.008480 0.000000 0.029197
#
#
# Mechanical properties :
#
#
# Convention : Reuss Voigt Hill
#
# Bulk Modulus (GPa) = 36.87968 40.18650 38.53309
# Shear Modulus (GPa) = 28.66833 31.65414 30.16123
#
# Velocity S-wave (km/s) = 3.37580 3.54724 3.46258
# Velocity P-wave (km/s) = 5.46396 5.72293 5.59494
#
# Compressibility (1/GPa) = 0.02711521
#
# Stress axis : x y z
#
# Youngs Moduli (GPa) = 102.62837 57.94075 82.23517
#
# Poissons Ratio (x) = 0.16513 0.11832
# Poissons Ratio (y) = 0.29249 0.14269
# Poissons Ratio (z) = 0.14767 0.10053
#
# Static dielectric constant tensor:
#      x y z
#    x 2.079840 0.000000 -0.009760 
#    y 0.000000 2.046030 0.000000 
#    z -0.009760 0.000000 1.951040 
# 
# From -- ./inp_files/14273.got.cif
#   From: 2010.05.17/outbox.cif.g08.bks.cpg/sg14_8_cif.got.tgz:14273.got - 2010.06.03 17:49:19.
