data_PCOD9247046
_publ_section_title
;
Structure prediction by ZEFSAII (Michael W. Deem and Ramdas Pophale) SiO2 
 PCOD9247046
Probable space group: P 21/C
;
_chemical_formula_sum "Si O2"
_cell_formula_units_Z 28
_cell_length_a 11.161191
_cell_length_b 16.847918
_cell_length_c 16.848785
_cell_angle_alpha 90.000000
_cell_angle_beta 22.150424
_cell_angle_gamma 90.000000
_cell_volume 1194.571765
_symmetry_space_group_name_H-M "P 21/C"
_symmetry_group_IT_number 14
_symmetry_cell_setting 'monoclinic'
loop_
_space_group_symop_operation_xyz
x,y,z
-x,1/2+y,1/2-z
-x,-y,-z
x,1/2-y,1/2+z
loop_
_atom_site_type_symbol
_atom_site_label
_atom_site_fract_x
_atom_site_fract_y
_atom_site_fract_z
Si Si1 0.131597 0.522729 0.226911
Si Si2 0.782141 0.870077 0.059277
Si Si3 0.752045 0.690068 0.020380
Si Si4 0.152435 0.852478 0.130993
Si Si5 0.077222 0.705639 0.507092
Si Si6 0.269418 0.429534 0.669643
Si Si7 0.053809 0.612988 0.978445
O O1 0.029047 0.570861 0.367600
O O2 0.936346 0.440843 0.342911
O O3 0.009306 0.572599 0.224671
O O4 0.500000 0.500000 0.000000
O O5 0.430499 0.898858 0.251512
O O6 0.814633 0.854593 0.133731
O O7 0.833651 0.780896 0.993587
O O8 0.869957 0.676336 0.859942
O O9 0.381818 0.685211 0.266153
O O10 0.920741 0.622782 0.971416
O O11 0.176779 0.803714 0.036156
O O12 0.483460 0.856214 0.976037
O O13 0.994508 0.796968 0.545626
O O14 0.500000 0.500000 0.500000
O O15 0.128000 0.440296 0.845319
#
# Coordination Sequence:
#
# PCOD9247046 Si02
#       7
#     4   4   4   4   4   4   4
#     4  11  25  44  62 100 138 174 228 273 338 407
#     4  10  23  42  65  99 136 177 222 280 351 399
#     4  10  21  43  69  97 131 177 227 279 333 404
#     4  11  23  43  69  97 135 178 226 275 337 409
#     4  10  22  41  66 104 135 169 222 282 339 404
#     4  10  23  44  65  97 131 178 234 268 333 412
#     4  10  21  43  68  97 135 172 228 285 334 400
#
# _framework density 23.439361000000002
#
# number of rings (size 3 to 8) (size 9 to 14) (size 15 to 20)
#    0.000    1.714    1.429    1.714    4.000    0.571 
#    7.714    4.286    0.000    0.000    0.000    0.000 
#    0.000    0.000    0.000    0.000    0.000    0.000 
#
# Total GULP energy -156514.336944 kJ/mol
# GULP energy per Si atom -5589.797748 kJ/mol
# Density = 2.338601 g / cm^3
# Si number density = 23.439361 Si / 1000 Ang^3
#
#
#
# Elastic Constant Matrix: (Units=GPa)
#
#
# Indices 1 2 3 4 5 6 
#
# 1 81.2409 15.3099 36.1829 0.0000 -7.8982 0.0000
# 2 15.3099 54.0989 31.8052 0.0000 0.9728 0.0000
# 3 36.1829 31.8052 103.8602 0.0000 14.4326 0.0000
# 4 0.0000 0.0000 0.0000 -4.8663 0.0000 11.3893
# 5 -7.8982 0.9728 14.4326 0.0000 37.6607 0.0000
# 6 0.0000 0.0000 0.0000 11.3893 0.0000 24.5846
#
#
#
# Elastic Compliance Matrix: (Units=1/GPa)
#
#
# Indices 1 2 3 4 5 6 
#
# 1 0.015687 -0.001062 -0.005916 0.000000 0.005584 0.000000
# 2 -0.001062 0.022786 -0.006860 0.000000 0.001818 0.000000
# 3 -0.005916 -0.006860 0.014722 0.000000 -0.006705 0.000000
# 4 0.000000 0.000000 0.000000 -0.098594 0.000000 0.045676
# 5 0.005584 0.001818 -0.006705 0.000000 0.030247 0.000000
# 6 0.000000 0.000000 0.000000 0.045676 0.000000 0.019516
#
#
# Mechanical properties :
#
#
# Convention : Reuss Voigt Hill
#
# Bulk Modulus (GPa) = 39.18733 45.08844 42.13789
# Shear Modulus (GPa) = 123.31928 21.86926 72.59427
#
# Velocity S-wave (km/s) = 7.26129 3.05784 5.57121
# Velocity P-wave (km/s) = 9.33041 5.63429 7.70720
#
# Compressibility (1/GPa) = 0.02551845
#
# Stress axis : x y z
#
# Youngs Moduli (GPa) = 63.74754 43.88705 67.92587
#
# Poissons Ratio (x) = 0.04660 0.40184
# Poissons Ratio (y) = 0.06769 0.46600
# Poissons Ratio (z) = 0.37712 0.30108
#
# Static dielectric constant tensor:
#      x y z
#    x 2.058840 0.000000 0.048090 
#    y 0.000000 1.917940 0.000000 
#    z 0.048090 0.000000 1.932520 
# 
# From -- ./inp_files/58170.got.cif
#   From: 2010.05.17/outbox.cif.g08.bks.cpg/sg14_30_cif.got.tgz:58170.got - 2010.06.03 17:49:19.
