data_PCOD9247895
_publ_section_title
;
Structure prediction by ZEFSAII (Michael W. Deem and Ramdas Pophale) SiO2 
 PCOD9247895
Probable space group: P 21/C
;
_chemical_formula_sum "Si O2"
_cell_formula_units_Z 32
_cell_length_a 15.487076
_cell_length_b 12.568784
_cell_length_c 16.903755
_cell_angle_alpha 90.000000
_cell_angle_beta 151.166563
_cell_angle_gamma 90.000000
_cell_volume 1586.834446
_symmetry_space_group_name_H-M "P 21/C"
_symmetry_group_IT_number 14
_symmetry_cell_setting 'monoclinic'
loop_
_space_group_symop_operation_xyz
x,y,z
-x,1/2+y,1/2-z
-x,-y,-z
x,1/2-y,1/2+z
loop_
_atom_site_type_symbol
_atom_site_label
_atom_site_fract_x
_atom_site_fract_y
_atom_site_fract_z
Si Si1 0.177603 0.847435 0.653665
Si Si2 0.786721 0.257269 0.143181
Si Si3 0.500460 0.728047 0.844178
Si Si4 0.386907 0.042969 0.834741
Si Si5 0.336749 0.920351 0.078053
Si Si6 0.191371 0.241601 0.160394
Si Si7 0.462430 0.121608 0.456019
Si Si8 0.171446 0.351532 0.468141
O O1 0.197107 0.804020 0.759356
O O2 0.338138 0.809368 0.726660
O O3 0.999538 0.793880 0.477577
O O4 0.207594 0.973323 0.683035
O O5 0.968552 0.325112 0.278555
O O6 0.761615 0.170573 0.053664
O O7 0.610737 0.331008 0.013913
O O8 0.435075 0.639503 0.729094
O O9 0.680242 0.789707 0.964578
O O10 0.521301 0.677252 0.946670
O O11 0.511171 0.034091 0.858074
O O12 0.332481 0.165817 0.795455
O O13 0.500000 0.000000 0.000000
O O14 0.216082 0.022281 0.004887
O O15 0.261125 0.141475 0.264817
O O16 0.194145 0.202623 0.072424
O O17 0.500000 0.000000 0.500000
#
# Coordination Sequence:
#
# PCOD9247895 Si02
#       8
#     4   4   4   4   4   4   4   4
#     4  10  22  40  65  96 124 173 225 260 336 406
#     4  10  23  43  63  94 131 171 223 274 326 409
#     4  11  23  40  62  93 126 169 216 270 335 398
#     4  12  20  39  70  94 131 175 218 271 342 395
#     4  12  23  42  68  95 137 171 217 285 338 393
#     4  11  23  42  65  95 136 171 224 279 323 411
#     4  11  23  42  67  89 127 179 227 268 333 402
#     4  11  24  41  65  95 134 174 211 279 346 389
#
# _framework density 20.165934
#
# number of rings (size 3 to 8) (size 9 to 14) (size 15 to 20)
#    0.000    1.000    5.000    1.875    0.000    3.000 
#    0.000    3.750    0.000    0.000    0.000    0.000 
#    0.000    0.000    0.000    0.000    0.000    0.000 
#
# Total GULP energy -178639.733612 kJ/mol
# GULP energy per Si atom -5582.491675 kJ/mol
# Density = 2.012004 g / cm^3
# Si number density = 20.165934 Si / 1000 Ang^3
#
#
#
# Elastic Constant Matrix: (Units=GPa)
#
#
# Indices 1 2 3 4 5 6 
#
# 1 71.7816 17.7480 29.7499 0.0000 6.6663 0.0000
# 2 17.7480 99.4871 31.7343 0.0000 10.2583 0.0000
# 3 29.7499 31.7343 106.4655 0.0000 9.6064 0.0000
# 4 0.0000 0.0000 0.0000 42.7012 0.0000 0.2219
# 5 6.6663 10.2583 9.6064 0.0000 22.6669 0.0000
# 6 0.0000 0.0000 0.0000 0.2219 0.0000 26.1262
#
#
#
# Elastic Compliance Matrix: (Units=1/GPa)
#
#
# Indices 1 2 3 4 5 6 
#
# 1 0.016105 -0.001386 -0.003864 0.000000 -0.002472 0.000000
# 2 -0.001386 0.011545 -0.002724 0.000000 -0.003663 0.000000
# 3 -0.003864 -0.002724 0.011511 0.000000 -0.002509 0.000000
# 4 0.000000 0.000000 0.000000 0.023420 0.000000 -0.000199
# 5 -0.002472 -0.003663 -0.002509 0.000000 0.047565 0.000000
# 6 0.000000 0.000000 0.000000 -0.000199 0.000000 0.038277
#
#
# Mechanical properties :
#
#
# Convention : Reuss Voigt Hill
#
# Bulk Modulus (GPa) = 43.07734 48.46652 45.77193
# Shear Modulus (GPa) = 29.05154 31.53232 30.29193
#
# Velocity S-wave (km/s) = 3.79967 3.95858 3.87994
# Velocity P-wave (km/s) = 6.37635 6.70670 6.54361
#
# Compressibility (1/GPa) = 0.02321406
#
# Stress axis : x y z
#
# Youngs Moduli (GPa) = 62.09340 86.61583 86.87552
#
# Poissons Ratio (x) = 0.12001 0.33570
# Poissons Ratio (y) = 0.08603 0.23661
# Poissons Ratio (z) = 0.23994 0.23591
#
# Static dielectric constant tensor:
#      x y z
#    x 1.694290 0.000000 0.003310 
#    y 0.000000 1.764900 0.000000 
#    z 0.003310 0.000000 1.742470 
# 
# From -- ./inp_files/59419.got.cif
#   From: 2010.05.17/outbox.cif.g08.bks.cpg/sg14_30_cif.got.tgz:59419.got - 2010.06.03 17:49:19.
