data_PCOD9247317
_publ_section_title
;
Structure prediction by ZEFSAII (Michael W. Deem and Ramdas Pophale) SiO2 
 PCOD9247317
Probable space group: P 21/C
;
_chemical_formula_sum "Si O2"
_cell_formula_units_Z 28
_cell_length_a 7.187420
_cell_length_b 7.365041
_cell_length_c 19.325967
_cell_angle_alpha 90.000000
_cell_angle_beta 83.557888
_cell_angle_gamma 90.000000
_cell_volume 1016.572778
_symmetry_space_group_name_H-M "P 21/C"
_symmetry_group_IT_number 14
_symmetry_cell_setting 'monoclinic'
loop_
_space_group_symop_operation_xyz
x,y,z
-x,1/2+y,1/2-z
-x,-y,-z
x,1/2-y,1/2+z
loop_
_atom_site_type_symbol
_atom_site_label
_atom_site_fract_x
_atom_site_fract_y
_atom_site_fract_z
Si Si1 0.984500 0.113451 0.349290
Si Si2 0.505637 0.358698 0.281490
Si Si3 0.688325 0.252794 0.521843
Si Si4 0.067736 0.267406 0.078643
Si Si5 0.607102 0.000354 0.909397
Si Si6 0.079112 0.004297 0.804695
Si Si7 0.597807 0.993506 0.639056
O O1 0.976721 0.042911 0.270931
O O2 0.520870 0.168166 0.321293
O O3 0.870584 0.968732 0.400447
O O4 0.192254 0.081669 0.369599
O O5 0.620483 0.494605 0.326046
O O6 0.290703 0.421740 0.291647
O O7 0.577795 0.356751 0.200710
O O8 0.963869 0.329252 0.344218
O O9 0.911726 0.235398 0.524860
O O10 0.601336 0.427979 0.565546
O O11 0.634251 0.307923 0.446828
O O12 0.585283 0.087732 0.565304
O O13 0.957674 0.171542 0.146988
O O14 0.247063 0.140274 0.062872
#
# Coordination Sequence:
#
# PCOD9247317 Si02
#       7
#     4   4   4   4   4   4   4
#     4  10  22  36  57  92 128 167 210 266 324 384
#     4  11  23  37  63  96 126 162 214 263 318 386
#     4  10  23  44  64  91 128 167 210 262 314 385
#     4  11  22  41  66  88 128 172 212 263 321 377
#     4  11  23  41  67  93 121 170 215 252 324 379
#     4  11  21  36  59  91 134 164 210 271 322 378
#     4  10  23  39  61  93 130 163 209 266 324 376
#
# _framework density 27.543527999999998
#
# number of rings (size 3 to 8) (size 9 to 14) (size 15 to 20)
#    0.000    1.429    2.857    2.143    6.000    1.714 
#    0.000    0.000    0.000    3.429    0.000    0.000 
#    0.000    0.000    0.000    0.000    0.000    0.000 
#
# Total GULP energy -156829.074884 kJ/mol
# GULP energy per Si atom -5601.038389 kJ/mol
# Density = 2.748084 g / cm^3
# Si number density = 27.543528 Si / 1000 Ang^3
#
#
#
# Elastic Constant Matrix: (Units=GPa)
#
#
# Indices 1 2 3 4 5 6 
#
# 1 76.6198 16.8182 7.4980 0.0000 -15.1270 0.0000
# 2 16.8182 129.0536 13.7933 0.0000 10.0101 0.0000
# 3 7.4980 13.7933 98.3932 0.0000 9.3234 0.0000
# 4 0.0000 0.0000 0.0000 49.0346 0.0000 -7.2472
# 5 -15.1270 10.0101 9.3234 0.0000 33.3511 0.0000
# 6 0.0000 0.0000 0.0000 -7.2472 0.0000 35.8573
#
#
#
# Elastic Compliance Matrix: (Units=1/GPa)
#
#
# Indices 1 2 3 4 5 6 
#
# 1 0.015358 -0.002463 -0.001597 0.000000 0.008152 0.000000
# 2 -0.002463 0.008409 -0.000664 0.000000 -0.003455 0.000000
# 3 -0.001597 -0.000664 0.010712 0.000000 -0.003520 0.000000
# 4 0.000000 0.000000 0.000000 0.021022 0.000000 0.004249
# 5 0.008152 -0.003455 -0.003520 0.000000 0.035702 0.000000
# 6 0.000000 0.000000 0.000000 0.004249 0.000000 0.028747
#
#
# Mechanical properties :
#
#
# Convention : Reuss Voigt Hill
#
# Bulk Modulus (GPa) = 39.95236 42.25396 41.10316
# Shear Modulus (GPa) = 36.30011 41.37907 38.83959
#
# Velocity S-wave (km/s) = 3.63425 3.88018 3.75923
# Velocity P-wave (km/s) = 5.66984 5.95386 5.81358
#
# Compressibility (1/GPa) = 0.02502981
#
# Stress axis : x y z
#
# Youngs Moduli (GPa) = 65.11365 118.92532 93.35667
#
# Poissons Ratio (x) = 0.29291 0.14914
# Poissons Ratio (y) = 0.16037 0.06196
# Poissons Ratio (z) = 0.10402 0.07893
#
# Static dielectric constant tensor:
#      x y z
#    x 2.115010 0.000000 -0.010460 
#    y 0.000000 2.203900 0.000000 
#    z -0.010460 0.000000 2.058100 
# 
# From -- ./inp_files/37531.got.cif
#   From: 2010.05.17/outbox.cif.g08.bks.cpg/sg14_19_cif.got.tgz:37531.got - 2010.06.03 17:49:19.
