data_PCOD9247825
_publ_section_title
;
Structure prediction by ZEFSAII (Michael W. Deem and Ramdas Pophale) SiO2 
 PCOD9247825
Probable space group: P 21/C
;
_chemical_formula_sum "Si O2"
_cell_formula_units_Z 20
_cell_length_a 6.209657
_cell_length_b 9.618877
_cell_length_c 13.985634
_cell_angle_alpha 90.000000
_cell_angle_beta 78.786004
_cell_angle_gamma 90.000000
_cell_volume 819.411918
_symmetry_space_group_name_H-M "P 21/C"
_symmetry_group_IT_number 14
_symmetry_cell_setting 'monoclinic'
loop_
_space_group_symop_operation_xyz
x,y,z
-x,1/2+y,1/2-z
-x,-y,-z
x,1/2-y,1/2+z
loop_
_atom_site_type_symbol
_atom_site_label
_atom_site_fract_x
_atom_site_fract_y
_atom_site_fract_z
Si Si1 0.185793 0.927144 0.619821
Si Si2 0.581474 0.653512 0.778164
Si Si3 0.244783 0.161998 0.085651
Si Si4 0.380319 0.643391 0.598370
Si Si5 0.142774 0.866506 0.408758
O O1 0.214971 0.766611 0.638366
O O2 0.222049 0.933268 0.501691
O O3 0.351873 0.014403 0.670393
O O4 0.958265 0.009380 0.646336
O O5 0.733604 0.772653 0.810066
O O6 0.556246 0.626117 0.668825
O O7 0.340914 0.696724 0.833991
O O8 0.043557 0.249050 0.058126
O O9 0.243143 0.995922 0.090846
O O10 0.467159 0.186613 0.004697
#
# Coordination Sequence:
#
# PCOD9247825 Si02
#       5
#     4   4   4   4   4
#     4  10  22  40  63  91 121 168 207 258 314 369
#     4  11  22  43  65  93 124 169 216 257 309 379
#     4  10  24  44  60  96 129 166 207 259 324 371
#     4  11  23  42  65  89 136 167 200 269 320 366
#     4  10  22  40  67  90 123 165 217 260 305 378
#
# _framework density 24.407748000000002
#
# number of rings (size 3 to 8) (size 9 to 14) (size 15 to 20)
#    0.000    1.600    2.000    1.800    5.600    2.400 
#    7.200    0.000    0.000    0.000    0.000    0.000 
#    0.000    0.000    0.000    0.000    0.000    0.000 
#
# Total GULP energy -111751.603204 kJ/mol
# GULP energy per Si atom -5587.580160 kJ/mol
# Density = 2.435220 g / cm^3
# Si number density = 24.407748 Si / 1000 Ang^3
#
#
#
# Elastic Constant Matrix: (Units=GPa)
#
#
# Indices 1 2 3 4 5 6 
#
# 1 32.9672 43.6722 19.8113 0.0000 14.6717 0.0000
# 2 43.6722 159.0083 25.2520 0.0000 13.7097 0.0000
# 3 19.8113 25.2520 94.0897 0.0000 26.2178 0.0000
# 4 0.0000 0.0000 0.0000 21.1100 0.0000 19.3551
# 5 14.6717 13.7097 26.2178 0.0000 31.5288 0.0000
# 6 0.0000 0.0000 0.0000 19.3551 0.0000 25.1241
#
#
#
# Elastic Compliance Matrix: (Units=1/GPa)
#
#
# Indices 1 2 3 4 5 6 
#
# 1 0.059523 -0.014183 -0.003549 0.000000 -0.018580 0.000000
# 2 -0.014183 0.010029 -0.000428 0.000000 0.002595 0.000000
# 3 -0.003549 -0.000428 0.014289 0.000000 -0.010044 0.000000
# 4 0.000000 0.000000 0.000000 0.161310 0.000000 -0.124269
# 5 -0.018580 0.002595 -0.010044 0.000000 0.047587 0.000000
# 6 0.000000 0.000000 0.000000 -0.124269 0.000000 0.135537
#
#
# Mechanical properties :
#
#
# Convention : Reuss Voigt Hill
#
# Bulk Modulus (GPa) = 21.04376 51.50404 36.27390
# Shear Modulus (GPa) = 10.40724 28.70789 19.55757
#
# Velocity S-wave (km/s) = 2.06716 3.43327 2.83377
# Velocity P-wave (km/s) = 3.78656 6.07155 5.05973
#
# Compressibility (1/GPa) = 0.04752003
#
# Stress axis : x y z
#
# Youngs Moduli (GPa) = 16.80029 99.71543 69.98248
#
# Poissons Ratio (x) = 1.41422 0.24839
# Poissons Ratio (y) = 0.23827 0.02998
# Poissons Ratio (z) = 0.05963 0.04272
#
# Static dielectric constant tensor:
#      x y z
#    x 1.938400 0.000000 0.030760 
#    y 0.000000 1.927220 0.000000 
#    z 0.030760 0.000000 1.965530 
# 
# From -- ./inp_files/36833.got.cif
#   From: 2010.05.17/outbox.cif.g08.bks.cpg/sg14_19_cif.got.tgz:36833.got - 2010.06.03 17:49:19.
