data_PCOD9247470
_publ_section_title
;
Structure prediction by ZEFSAII (Michael W. Deem and Ramdas Pophale) SiO2 
 PCOD9247470
Probable space group: P 21/C
;
_chemical_formula_sum "Si O2"
_cell_formula_units_Z 30
_cell_length_a 12.957106
_cell_length_b 9.643601
_cell_length_c 9.380235
_cell_angle_alpha 90.000000
_cell_angle_beta 74.620971
_cell_angle_gamma 90.000000
_cell_volume 1130.120438
_symmetry_space_group_name_H-M "P 21/C"
_symmetry_group_IT_number 14
_symmetry_cell_setting 'monoclinic'
loop_
_space_group_symop_operation_xyz
x,y,z
-x,1/2+y,1/2-z
-x,-y,-z
x,1/2-y,1/2+z
loop_
_atom_site_type_symbol
_atom_site_label
_atom_site_fract_x
_atom_site_fract_y
_atom_site_fract_z
Si Si1 0.413037 0.053273 0.734934
Si Si2 0.108986 0.705544 0.601437
Si Si3 0.390969 0.974185 0.172482
Si Si4 0.533974 0.309129 0.967416
Si Si5 0.000000 0.000000 0.000000
Si Si6 0.094488 0.189895 0.217542
Si Si7 0.306524 0.293428 0.489236
Si Si8 0.821581 0.068325 0.637318
O O1 0.488742 0.987541 0.827977
O O2 0.498366 0.163647 0.641117
O O3 0.400974 0.936375 0.622357
O O4 0.311093 0.131773 0.833943
O O5 0.162449 0.669001 0.730973
O O6 0.134881 0.849793 0.515484
O O7 0.118075 0.576188 0.491981
O O8 0.979186 0.695970 0.676569
O O9 0.402533 0.827768 0.089992
O O10 0.304142 0.958802 0.329236
O O11 0.339981 0.088995 0.090325
O O12 0.412800 0.301020 0.945324
O O13 0.022840 0.110132 0.126752
O O14 0.193767 0.254416 0.092657
O O15 0.126526 0.076148 0.326629
#
# Coordination Sequence:
#
# PCOD9247470 Si02
#       8
#     4   4   4   4   2   4   4   4
#     4  10  22  39  60  89 125 156 209 250 306 375
#     4  11  21  43  65  94 125 170 207 271 311 387
#     4  10  23  38  62  87 121 161 200 259 308 368
#     4  10  22  38  61  89 119 164 201 252 304 376
#     4  10  22  40  64  94 124 162 214 264 316 370
#     4  10  22  43  62  93 128 168 214 266 320 377
#     4  10  23  39  62  90 125 162 202 253 318 365
#     4  10  23  39  66  92 126 163 219 250 329 371
#
# _framework density 26.545845
#
# number of rings (size 3 to 8) (size 9 to 14) (size 15 to 20)
#    0.000    1.867    1.333    2.000    9.333    3.200 
#    2.400    1.333    0.000    0.000    0.000    0.000 
#    0.000    0.000    0.000    0.000    0.000    0.000 
#
# Total GULP energy -167222.514386 kJ/mol
# GULP energy per Si atom -5574.083813 kJ/mol
# Density = 2.648543 g / cm^3
# Si number density = 26.545845 Si / 1000 Ang^3
#
#
#
# Elastic Constant Matrix: (Units=GPa)
#
#
# Indices 1 2 3 4 5 6 
#
# 1 71.2499 1.5357 27.8583 0.0000 -13.8330 0.0000
# 2 1.5357 52.5800 -3.1599 0.0000 2.6427 0.0000
# 3 27.8583 -3.1599 74.4307 0.0000 -14.7809 0.0000
# 4 0.0000 0.0000 0.0000 32.4500 0.0000 5.2180
# 5 -13.8330 2.6427 -14.7809 0.0000 45.1420 0.0000
# 6 0.0000 0.0000 0.0000 5.2180 0.0000 29.6848
#
#
#
# Elastic Compliance Matrix: (Units=1/GPa)
#
#
# Indices 1 2 3 4 5 6 
#
# 1 0.016948 -0.001008 -0.005715 0.000000 0.003381 0.000000
# 2 -0.001008 0.019162 0.000970 0.000000 -0.001113 0.000000
# 3 -0.005715 0.000970 0.016317 0.000000 0.003535 0.000000
# 4 0.000000 0.000000 0.000000 0.031713 0.000000 -0.005574
# 5 0.003381 -0.001113 0.003535 0.000000 0.024411 0.000000
# 6 0.000000 0.000000 0.000000 -0.005574 0.000000 0.034667
#
#
# Mechanical properties :
#
#
# Convention : Reuss Voigt Hill
#
# Bulk Modulus (GPa) = 24.43724 27.85875 26.14800
# Shear Modulus (GPa) = 29.69736 32.92379 31.31058
#
# Velocity S-wave (km/s) = 3.34836 3.52556 3.43810
# Velocity P-wave (km/s) = 4.91674 5.20481 5.06282
#
# Compressibility (1/GPa) = 0.04092115
#
# Stress axis : x y z
#
# Youngs Moduli (GPa) = 59.00516 52.18577 61.28435
#
# Poissons Ratio (x) = 0.05262 0.35022
# Poissons Ratio (y) = 0.05950 -0.05944
# Poissons Ratio (z) = 0.33719 -0.05061
#
# Static dielectric constant tensor:
#      x y z
#    x 2.096200 0.000000 0.005240 
#    y 0.000000 0.984350 0.000000 
#    z 0.005240 0.000000 1.888780 
# 
# From -- ./inp_files/15718.got.cif
#   From: 2010.05.17/outbox.cif.g08.bks.cpg/sg14_8_cif.got.tgz:15718.got - 2010.06.03 17:49:19.
