data_PCOD9247139
_publ_section_title
;
Structure prediction by ZEFSAII (Michael W. Deem and Ramdas Pophale) SiO2 
 PCOD9247139
Probable space group: P 21/C
;
_chemical_formula_sum "Si O2"
_cell_formula_units_Z 30
_cell_length_a 7.628914
_cell_length_b 28.414026
_cell_length_c 7.513214
_cell_angle_alpha 90.000000
_cell_angle_beta 139.080524
_cell_angle_gamma 90.000000
_cell_volume 1066.746019
_symmetry_space_group_name_H-M "P 21/C"
_symmetry_group_IT_number 14
_symmetry_cell_setting 'monoclinic'
loop_
_space_group_symop_operation_xyz
x,y,z
-x,1/2+y,1/2-z
-x,-y,-z
x,1/2-y,1/2+z
loop_
_atom_site_type_symbol
_atom_site_label
_atom_site_fract_x
_atom_site_fract_y
_atom_site_fract_z
Si Si1 0.531975 0.680511 0.566303
Si Si2 0.042452 0.438113 0.836128
Si Si3 0.056205 0.672894 0.809143
Si Si4 0.384564 0.588569 0.043288
Si Si5 0.549141 0.931261 0.042450
Si Si6 0.813319 0.653428 0.241265
Si Si7 0.562011 0.227547 0.650197
Si Si8 0.500000 0.500000 0.000000
O O1 0.849568 0.691196 0.796834
O O2 0.525464 0.625059 0.548514
O O3 0.387221 0.699878 0.629261
O O4 0.432088 0.716038 0.336459
O O5 0.031335 0.382906 0.765210
O O6 0.732255 0.453895 0.607748
O O7 0.196768 0.445316 0.143988
O O8 0.250556 0.464219 0.865651
O O9 0.898375 0.653676 0.511710
O O10 0.237346 0.710965 0.848284
O O11 0.180947 0.624465 0.979105
O O12 0.548001 0.562456 0.327675
O O13 0.529560 0.626238 0.030096
O O14 0.294502 0.545555 0.856183
O O15 0.732170 0.706045 0.123813
#
# Coordination Sequence:
#
# PCOD9247139 Si02
#       8
#     4   4   4   4   4   4   4   2
#     4  12  25  46  71 111 150 204 267 316 374 462
#     4  11  26  46  79 107 151 198 252 322 393 473
#     4  11  24  47  74 103 153 206 253 318 394 458
#     4  10  24  45  74 105 148 192 248 317 394 463
#     4  12  25  48  74 109 152 207 252 310 397 463
#     4  10  21  44  68 102 147 197 248 315 383 456
#     4  11  26  43  67 107 148 201 264 317 377 441
#     4  10  26  52  74 118 142 194 254 328 396 480
#
# _framework density 28.122909
#
# number of rings (size 3 to 8) (size 9 to 14) (size 15 to 20)
#    0.000    1.067    2.667    2.400    5.600    4.800 
#    4.800    0.000    0.000    0.000    0.000    0.000 
#    0.000    0.000    0.000    0.000    0.000    0.000 
#
# Total GULP energy -167207.058280 kJ/mol
# GULP energy per Si atom -5573.568609 kJ/mol
# Density = 2.805890 g / cm^3
# Si number density = 28.122909 Si / 1000 Ang^3
#
#
#
# Elastic Constant Matrix: (Units=GPa)
#
#
# Indices 1 2 3 4 5 6 
#
# 1 115.1431 -17.0584 0.3164 0.0000 -1.3152 0.0000
# 2 -17.0584 128.5975 -9.9744 0.0000 1.8516 0.0000
# 3 0.3164 -9.9744 73.7465 0.0000 -12.8101 0.0000
# 4 0.0000 0.0000 0.0000 -32.2409 0.0000 41.9467
# 5 -1.3152 1.8516 -12.8101 0.0000 50.2305 0.0000
# 6 0.0000 0.0000 0.0000 41.9467 0.0000 -4.4982
#
#
#
# Elastic Compliance Matrix: (Units=1/GPa)
#
#
# Indices 1 2 3 4 5 6 
#
# 1 0.008863 0.001185 0.000162 0.000000 0.000230 0.000000
# 2 0.001185 0.008017 0.001081 0.000000 0.000011 0.000000
# 3 0.000162 0.001081 0.014334 0.000000 0.003620 0.000000
# 4 0.000000 0.000000 0.000000 0.002786 0.000000 0.025981
# 5 0.000230 0.000011 0.003620 0.000000 0.020837 0.000000
# 6 0.000000 0.000000 0.000000 0.025981 0.000000 0.019970
#
#
# Mechanical properties :
#
#
# Convention : Reuss Voigt Hill
#
# Bulk Modulus (GPa) = 27.72359 29.33939 28.53149
# Shear Modulus (GPa) = 60.99522 25.64520 43.32021
#
# Velocity S-wave (km/s) = 4.66218 3.02304 3.92904
# Velocity P-wave (km/s) = 6.23383 4.75818 5.54531
#
# Compressibility (1/GPa) = 0.03607036
#
# Stress axis : x y z
#
# Youngs Moduli (GPa) = 112.83419 124.73383 69.76268
#
# Poissons Ratio (x) = -0.14779 -0.01131
# Poissons Ratio (y) = -0.13370 -0.07543
# Poissons Ratio (z) = -0.01829 -0.13486
#
# Static dielectric constant tensor:
#      x y z
#    x 2.280690 0.000000 0.083010 
#    y 0.000000 2.194260 0.000000 
#    z 0.083010 0.000000 2.451760 
# 
# From -- ./inp_files/11346.got.cif
#   From: 2010.05.17/outbox.cif.g08.bks.cpg/sg14_6_cif.got.tgz:11346.got - 2010.06.03 17:49:19.
