data_PCOD9247347
_publ_section_title
;
Structure prediction by ZEFSAII (Michael W. Deem and Ramdas Pophale) SiO2 
 PCOD9247347
Probable space group: P 21/C
;
_chemical_formula_sum "Si O2"
_cell_formula_units_Z 28
_cell_length_a 7.287234
_cell_length_b 13.297830
_cell_length_c 12.330023
_cell_angle_alpha 90.000000
_cell_angle_beta 66.153202
_cell_angle_gamma 90.000000
_cell_volume 1092.830242
_symmetry_space_group_name_H-M "P 21/C"
_symmetry_group_IT_number 14
_symmetry_cell_setting 'monoclinic'
loop_
_space_group_symop_operation_xyz
x,y,z
-x,1/2+y,1/2-z
-x,-y,-z
x,1/2-y,1/2+z
loop_
_atom_site_type_symbol
_atom_site_label
_atom_site_fract_x
_atom_site_fract_y
_atom_site_fract_z
Si Si1 0.345889 0.445294 0.822840
Si Si2 0.580706 0.298165 0.629059
Si Si3 0.543273 0.882430 0.198038
Si Si4 0.175460 0.945231 0.186700
Si Si5 0.056787 0.872661 0.841647
Si Si6 0.835638 0.727028 0.025247
Si Si7 0.182844 0.729003 0.106486
O O1 0.397195 0.365648 0.713418
O O2 0.531729 0.523813 0.783958
O O3 0.167108 0.512924 0.813312
O O4 0.296895 0.373703 0.934685
O O5 0.583490 0.205423 0.712486
O O6 0.606583 0.252054 0.503983
O O7 0.779228 0.365831 0.602027
O O8 0.418141 0.929547 0.127524
O O9 0.732625 0.822304 0.111013
O O10 0.105617 0.834331 0.174956
O O11 0.067897 0.026008 0.137997
O O12 0.177717 0.851169 0.702638
O O13 0.908675 0.778154 0.897916
O O14 0.029916 0.697276 0.049444
#
# Coordination Sequence:
#
# PCOD9247347 Si02
#       7
#     4   4   4   4   4   4   4
#     4   9  20  41  58  88 114 157 194 238 291 348
#     4  10  22  38  63  82 126 152 190 247 294 337
#     4   9  20  41  58  88 114 157 194 238 291 348
#     4  10  22  36  65  85 118 153 202 236 287 348
#     4  11  22  40  57  92 116 156 196 242 288 349
#     4  10  22  38  63  82 126 152 190 247 294 337
#     4  11  22  40  57  92 116 156 196 242 288 349
#
# _framework density 25.621545999999999
#
# number of rings (size 3 to 8) (size 9 to 14) (size 15 to 20)
#    0.857    1.143    2.857    0.000    4.000    3.429 
#    2.571    2.857    0.000    1.714    0.000    0.000 
#    0.000    0.000    0.000    0.000    0.000    0.000 
#
# Total GULP energy -156029.401321 kJ/mol
# GULP energy per Si atom -5572.478619 kJ/mol
# Density = 2.556323 g / cm^3
# Si number density = 25.621546 Si / 1000 Ang^3
#
#
#
# Elastic Constant Matrix: (Units=GPa)
#
#
# Indices 1 2 3 4 5 6 
#
# 1 36.9189 9.5139 7.7579 0.0000 5.0656 0.0000
# 2 9.5139 84.7456 18.7421 0.0000 2.4039 0.0000
# 3 7.7579 18.7421 67.8571 0.0000 -8.7026 0.0000
# 4 0.0000 0.0000 0.0000 31.0115 0.0000 5.2971
# 5 5.0656 2.4039 -8.7026 0.0000 18.5340 0.0000
# 6 0.0000 0.0000 0.0000 5.2971 0.0000 39.3063
#
#
#
# Elastic Compliance Matrix: (Units=1/GPa)
#
#
# Indices 1 2 3 4 5 6 
#
# 1 0.029843 -0.002173 -0.004066 0.000000 -0.009784 0.000000
# 2 -0.002173 0.012939 -0.003686 0.000000 -0.002815 0.000000
# 3 -0.004066 -0.003686 0.017476 0.000000 0.009795 0.000000
# 4 0.000000 0.000000 0.000000 0.033006 0.000000 -0.004448
# 5 -0.009784 -0.002815 0.009795 0.000000 0.061594 0.000000
# 6 0.000000 0.000000 0.000000 -0.004448 0.000000 0.026041
#
#
# Mechanical properties :
#
#
# Convention : Reuss Voigt Hill
#
# Bulk Modulus (GPa) = 24.74862 29.06104 26.90483
# Shear Modulus (GPa) = 23.34047 28.00420 25.67234
#
# Velocity S-wave (km/s) = 3.02150 3.30963 3.16884
# Velocity P-wave (km/s) = 4.67471 5.09627 4.89003
#
# Compressibility (1/GPa) = 0.04040629
#
# Stress axis : x y z
#
# Youngs Moduli (GPa) = 33.50821 77.28494 57.22073
#
# Poissons Ratio (x) = 0.16798 0.23268
# Poissons Ratio (y) = 0.07283 0.21093
# Poissons Ratio (z) = 0.13626 0.28490
#
# Static dielectric constant tensor:
#      x y z
#    x 2.071170 0.000000 -0.021520 
#    y 0.000000 2.043090 0.000000 
#    z -0.021520 0.000000 2.063080 
# 
# From -- ./inp_files/25411.got.cif
#   From: 2010.05.17/outbox.cif.g08.bks.cpg/sg14_13_cif.got.tgz:25411.got - 2010.06.03 17:49:19.
