data_PCOD9247163
_publ_section_title
;
Structure prediction by ZEFSAII (Michael W. Deem and Ramdas Pophale) SiO2 
 PCOD9247163
Probable space group: P 21/C
;
_chemical_formula_sum "Si O2"
_cell_formula_units_Z 30
_cell_length_a 8.340554
_cell_length_b 13.163462
_cell_length_c 14.933870
_cell_angle_alpha 90.000000
_cell_angle_beta 53.705486
_cell_angle_gamma 90.000000
_cell_volume 1321.491361
_symmetry_space_group_name_H-M "P 21/C"
_symmetry_group_IT_number 14
_symmetry_cell_setting 'monoclinic'
loop_
_space_group_symop_operation_xyz
x,y,z
-x,1/2+y,1/2-z
-x,-y,-z
x,1/2-y,1/2+z
loop_
_atom_site_type_symbol
_atom_site_label
_atom_site_fract_x
_atom_site_fract_y
_atom_site_fract_z
Si Si1 0.715780 0.503170 0.471370
Si Si2 0.279181 0.125769 0.854750
Si Si3 0.867734 0.290383 0.494430
Si Si4 0.000000 0.500000 0.000000
Si Si5 0.118392 0.504204 0.253426
Si Si6 0.329233 0.080368 0.526018
Si Si7 0.684828 0.208835 0.380715
Si Si8 0.262633 0.840061 0.302689
O O1 0.500000 0.500000 0.500000
O O2 0.726292 0.591510 0.540807
O O3 0.774284 0.399736 0.504068
O O4 0.883951 0.515812 0.341135
O O5 0.502204 0.151925 0.753908
O O6 0.104715 0.207951 0.899639
O O7 0.206378 0.031705 0.818535
O O8 0.766854 0.218848 0.453904
O O9 0.823856 0.250413 0.607233
O O10 0.858952 0.437281 0.122072
O O11 0.200966 0.461201 0.986424
O O12 0.186385 0.418966 0.159635
O O13 0.209526 0.611077 0.195979
O O14 0.450340 0.182187 0.462605
O O15 0.500000 0.000000 0.500000
O O16 0.738823 0.304700 0.300638
#
# Coordination Sequence:
#
# PCOD9247163 Si02
#       8
#     4   4   4   2   4   4   4   4
#     4  11  24  43  67 102 144 191 247 292 373 466
#     4  11  24  44  72 100 144 200 236 308 381 455
#     4  11  25  46  68 107 143 186 251 311 382 445
#     4  12  28  44  76 104 152 204 258 306 400 462
#     4  10  21  44  71  94 143 190 233 301 373 440
#     4  10  23  46  73 105 145 190 254 306 385 463
#     4  11  23  44  71 108 141 187 246 316 370 448
#     4  12  26  45  69 107 147 190 255 313 372 460
#
# _framework density 22.701623000000001
#
# number of rings (size 3 to 8) (size 9 to 14) (size 15 to 20)
#    0.000    1.067    0.000    8.000    7.467    1.067 
#    2.400    0.000    0.000    0.000    0.000    0.000 
#    0.000    0.000    0.000    0.000    0.000    0.000 
#
# Total GULP energy -167258.890938 kJ/mol
# GULP energy per Si atom -5575.296365 kJ/mol
# Density = 2.264995 g / cm^3
# Si number density = 22.701623 Si / 1000 Ang^3
#
#
#
# Elastic Constant Matrix: (Units=GPa)
#
#
# Indices 1 2 3 4 5 6 
#
# 1 105.0355 9.1490 35.3090 0.0000 -18.1387 0.0000
# 2 9.1490 46.9063 34.4577 0.0000 -8.7687 0.0000
# 3 35.3090 34.4577 135.3698 0.0000 -17.6769 0.0000
# 4 0.0000 0.0000 0.0000 48.1744 0.0000 -0.6297
# 5 -18.1387 -8.7687 -17.6769 0.0000 51.0308 0.0000
# 6 0.0000 0.0000 0.0000 -0.6297 0.0000 25.4292
#
#
#
# Elastic Compliance Matrix: (Units=1/GPa)
#
#
# Indices 1 2 3 4 5 6 
#
# 1 0.010865 0.000295 -0.002512 0.000000 0.003042 0.000000
# 2 0.000295 0.026490 -0.006506 0.000000 0.002403 0.000000
# 3 -0.002512 -0.006506 0.009883 0.000000 0.001413 0.000000
# 4 0.000000 0.000000 0.000000 0.020765 0.000000 0.000514
# 5 0.003042 0.002403 0.001413 0.000000 0.021580 0.000000
# 6 0.000000 0.000000 0.000000 0.000514 0.000000 0.039338
#
#
# Mechanical properties :
#
#
# Convention : Reuss Voigt Hill
#
# Bulk Modulus (GPa) = 33.56634 49.46033 41.51333
# Shear Modulus (GPa) = 31.99057 38.81993 35.40525
#
# Velocity S-wave (km/s) = 3.75797 4.13971 3.95345
# Velocity P-wave (km/s) = 5.80067 6.68461 6.25827
#
# Compressibility (1/GPa) = 0.02979175
#
# Stress axis : x y z
#
# Youngs Moduli (GPa) = 92.04186 37.74980 101.18564
#
# Poissons Ratio (x) = -0.01112 0.25413
# Poissons Ratio (y) = -0.02712 0.65832
# Poissons Ratio (z) = 0.23117 0.24560
#
# Static dielectric constant tensor:
#      x y z
#    x 1.729390 0.000000 -0.062670 
#    y 0.000000 2.118530 0.000000 
#    z -0.062670 0.000000 1.812110 
# 
# From -- ./inp_files/41179.got.cif
#   From: 2010.05.17/outbox.cif.g08.bks.cpg/sg14_21_cif.got.tgz:41179.got - 2010.06.03 17:49:19.
