data_PCOD9247222
_publ_section_title
;
Structure prediction by ZEFSAII (Michael W. Deem and Ramdas Pophale) SiO2 
 PCOD9247222
Probable space group: P 21/C
;
_chemical_formula_sum "Si O2"
_cell_formula_units_Z 20
_cell_length_a 25.302307
_cell_length_b 7.617057
_cell_length_c 8.600236
_cell_angle_alpha 90.000000
_cell_angle_beta 149.570285
_cell_angle_gamma 90.000000
_cell_volume 839.500323
_symmetry_space_group_name_H-M "P 21/C"
_symmetry_group_IT_number 14
_symmetry_cell_setting 'monoclinic'
loop_
_space_group_symop_operation_xyz
x,y,z
-x,1/2+y,1/2-z
-x,-y,-z
x,1/2-y,1/2+z
loop_
_atom_site_type_symbol
_atom_site_label
_atom_site_fract_x
_atom_site_fract_y
_atom_site_fract_z
Si Si1 0.287787 0.924624 0.312124
Si Si2 0.529449 0.548822 0.899184
Si Si3 0.089970 0.913750 0.626966
Si Si4 0.839646 0.090271 0.521580
Si Si5 0.335650 0.402891 0.253291
O O1 0.242577 0.737046 0.253080
O O2 0.394427 0.909608 0.490196
O O3 0.304575 0.050943 0.499451
O O4 0.198720 0.989894 0.968526
O O5 0.423695 0.540483 0.532472
O O6 0.500000 0.500000 0.000000
O O7 0.602516 0.720701 0.079589
O O8 0.086244 0.950516 0.434936
O O9 0.100585 0.705729 0.696088
O O10 0.000000 0.000000 0.500000
O O11 0.768456 0.935809 0.408879
#
# Coordination Sequence:
#
# PCOD9247222 Si02
#       5
#     4   4   4   4   4
#     4  10  22  45  66 100 145 187 244 303 361 428
#     4  12  26  42  69 109 144 199 247 290 360 443
#     4  10  22  46  75 102 137 185 248 300 373 434
#     4  10  21  45  72 102 138 189 235 307 363 428
#     4  12  24  44  70 103 150 192 242 302 361 435
#
# _framework density 23.823696000000002
#
# number of rings (size 3 to 8) (size 9 to 14) (size 15 to 20)
#    1.200    0.000    2.000    4.200    0.000    3.200 
#    7.200    4.000    0.000    0.000    0.000    0.000 
#    0.000    0.000    0.000    0.000    0.000    0.000 
#
# Total GULP energy -111758.226504 kJ/mol
# GULP energy per Si atom -5587.911325 kJ/mol
# Density = 2.376947 g / cm^3
# Si number density = 23.823696 Si / 1000 Ang^3
#
#
#
# Elastic Constant Matrix: (Units=GPa)
#
#
# Indices 1 2 3 4 5 6 
#
# 1 184.9316 26.5513 9.8104 0.0000 22.8039 0.0000
# 2 26.5513 114.8426 -2.3171 0.0000 5.5494 0.0000
# 3 9.8104 -2.3171 37.7427 0.0000 0.8330 0.0000
# 4 0.0000 0.0000 0.0000 23.6089 0.0000 9.9855
# 5 22.8039 5.5494 0.8330 0.0000 44.8330 0.0000
# 6 0.0000 0.0000 0.0000 9.9855 0.0000 38.1216
#
#
#
# Elastic Compliance Matrix: (Units=1/GPa)
#
#
# Indices 1 2 3 4 5 6 
#
# 1 0.006031 -0.001287 -0.001583 0.000000 -0.002879 0.000000
# 2 -0.001287 0.009047 0.000901 0.000000 -0.000482 0.000000
# 3 -0.001583 0.000901 0.026958 0.000000 0.000193 0.000000
# 4 0.000000 0.000000 0.000000 0.047634 0.000000 -0.012477
# 5 -0.002879 -0.000482 0.000193 0.000000 0.023825 0.000000
# 6 0.000000 0.000000 0.000000 -0.012477 0.000000 0.029500
#
#
# Mechanical properties :
#
#
# Convention : Reuss Voigt Hill
#
# Bulk Modulus (GPa) = 26.24949 45.06736 35.65842
# Shear Modulus (GPa) = 31.32171 41.54417 36.43294
#
# Velocity S-wave (km/s) = 3.62985 4.18043 3.91483
# Velocity P-wave (km/s) = 5.34882 6.50073 5.95270
#
# Compressibility (1/GPa) = 0.03809598
#
# Stress axis : x y z
#
# Youngs Moduli (GPa) = 165.80424 110.53849 37.09510
#
# Poissons Ratio (x) = 0.14229 0.05873
# Poissons Ratio (y) = 0.21343 -0.03341
# Poissons Ratio (z) = 0.26250 -0.09955
#
# Static dielectric constant tensor:
#      x y z
#    x 1.890150 0.000000 0.024250 
#    y 0.000000 1.847890 0.000000 
#    z 0.024250 0.000000 1.887660 
# 
# From -- ./inp_files/19381.got.cif
#   From: 2010.05.17/outbox.cif.g08.bks.cpg/sg14_10_cif.got.tgz:19381.got - 2010.06.03 17:49:19.
