data_PCOD9247820
_publ_section_title
;
Structure prediction by ZEFSAII (Michael W. Deem and Ramdas Pophale) SiO2 
 PCOD9247820
Probable space group: P 21/C
;
_chemical_formula_sum "Si O2"
_cell_formula_units_Z 20
_cell_length_a 8.244719
_cell_length_b 4.842143
_cell_length_c 22.838124
_cell_angle_alpha 90.000000
_cell_angle_beta 56.046999
_cell_angle_gamma 90.000000
_cell_volume 756.289704
_symmetry_space_group_name_H-M "P 21/C"
_symmetry_group_IT_number 14
_symmetry_cell_setting 'monoclinic'
loop_
_space_group_symop_operation_xyz
x,y,z
-x,1/2+y,1/2-z
-x,-y,-z
x,1/2-y,1/2+z
loop_
_atom_site_type_symbol
_atom_site_label
_atom_site_fract_x
_atom_site_fract_y
_atom_site_fract_z
Si Si1 0.498467 0.642247 0.172270
Si Si2 0.725752 0.856819 0.746638
Si Si3 0.929896 0.634449 0.873658
Si Si4 0.508730 0.178542 0.556902
Si Si5 0.904648 0.104915 0.959282
O O1 0.423179 0.954153 0.185392
O O2 0.648533 0.609997 0.195283
O O3 0.578058 0.510481 0.097113
O O4 0.312382 0.455632 0.228192
O O5 0.938649 0.988135 0.701617
O O6 0.722220 0.727635 0.888744
O O7 0.920032 0.414053 0.929791
O O8 0.000122 0.913304 0.890281
O O9 0.668430 0.417255 0.514928
O O10 0.500000 0.000000 0.500000
O O11 0.000000 0.000000 0.000000
#
# Coordination Sequence:
#
# PCOD9247820 Si02
#       5
#     4   4   4   4   4
#     4  10  22  40  63  89 125 163 212 261 309 378
#     4  10  22  40  63  91 119 166 215 260 310 370
#     4  11  23  40  62  92 128 161 212 264 320 382
#     4  10  24  42  63  95 131 166 206 263 327 384
#     4  11  23  40  64  91 125 170 212 258 313 384
#
# _framework density 26.444890999999998
#
# number of rings (size 3 to 8) (size 9 to 14) (size 15 to 20)
#    0.000    1.600    0.000    3.600    0.000   12.800 
#    0.000    0.000    0.000    0.000    0.000    0.000 
#    0.000    0.000    0.000    0.000    0.000    0.000 
#
# Total GULP energy -111918.795138 kJ/mol
# GULP energy per Si atom -5595.939757 kJ/mol
# Density = 2.638470 g / cm^3
# Si number density = 26.444891 Si / 1000 Ang^3
#
#
#
# Elastic Constant Matrix: (Units=GPa)
#
#
# Indices 1 2 3 4 5 6 
#
# 1 105.6150 25.3477 17.9717 0.0000 -6.2810 0.0000
# 2 25.3477 117.4521 7.0822 0.0000 5.0195 0.0000
# 3 17.9717 7.0822 67.4792 0.0000 2.8391 0.0000
# 4 0.0000 0.0000 0.0000 40.4702 0.0000 2.6071
# 5 -6.2810 5.0195 2.8391 0.0000 60.4591 0.0000
# 6 0.0000 0.0000 0.0000 2.6071 0.0000 35.3471
#
#
#
# Elastic Compliance Matrix: (Units=1/GPa)
#
#
# Indices 1 2 3 4 5 6 
#
# 1 0.010521 -0.002171 -0.002633 0.000000 0.001397 0.000000
# 2 -0.002171 0.009044 -0.000330 0.000000 -0.000961 0.000000
# 3 -0.002633 -0.000330 0.015596 0.000000 -0.000978 0.000000
# 4 0.000000 0.000000 0.000000 0.024827 0.000000 -0.001831
# 5 0.001397 -0.000961 -0.000978 0.000000 0.016811 0.000000
# 6 0.000000 0.000000 0.000000 -0.001831 0.000000 0.028426
#
#
# Mechanical properties :
#
#
# Convention : Reuss Voigt Hill
#
# Bulk Modulus (GPa) = 40.17452 43.48327 41.82889
# Shear Modulus (GPa) = 40.39048 43.26494 41.82771
#
# Velocity S-wave (km/s) = 3.91237 4.04919 3.98137
# Velocity P-wave (km/s) = 5.96939 6.19192 6.08167
#
# Compressibility (1/GPa) = 0.02489140
#
# Stress axis : x y z
#
# Youngs Moduli (GPa) = 95.05191 110.57396 64.11728
#
# Poissons Ratio (x) = 0.24010 0.16881
# Poissons Ratio (y) = 0.20640 0.02119
# Poissons Ratio (z) = 0.25025 0.03654
#
# Static dielectric constant tensor:
#      x y z
#    x 2.111080 0.000000 -0.078440 
#    y 0.000000 1.996900 0.000000 
#    z -0.078440 0.000000 2.175320 
# 
# From -- ./inp_files/71519.got.cif
#   From: 2010.05.17/outbox.cif.g08.bks.cpg/sg14_36_cif.got.tgz:71519.got - 2010.06.03 17:49:19.
