data_PCOD9247216
_publ_section_title
;
Structure prediction by ZEFSAII (Michael W. Deem and Ramdas Pophale) SiO2 
 PCOD9247216
Probable space group: P 21/C
;
_chemical_formula_sum "Si O2"
_cell_formula_units_Z 26
_cell_length_a 7.588747
_cell_length_b 13.726500
_cell_length_c 13.930541
_cell_angle_alpha 90.000000
_cell_angle_beta 43.395763
_cell_angle_gamma 90.000000
_cell_volume 996.955932
_symmetry_space_group_name_H-M "P 21/C"
_symmetry_group_IT_number 14
_symmetry_cell_setting 'monoclinic'
loop_
_space_group_symop_operation_xyz
x,y,z
-x,1/2+y,1/2-z
-x,-y,-z
x,1/2-y,1/2+z
loop_
_atom_site_type_symbol
_atom_site_label
_atom_site_fract_x
_atom_site_fract_y
_atom_site_fract_z
Si Si1 0.828949 0.427609 0.931456
Si Si2 0.462623 0.255766 0.066365
Si Si3 0.547563 0.134656 0.860447
Si Si4 0.704237 0.188809 0.166409
Si Si5 0.934947 0.917843 0.237939
Si Si6 0.370931 0.473200 0.801542
Si Si7 0.000000 0.500000 0.500000
O O1 0.696775 0.329473 0.948370
O O2 0.791303 0.511595 0.869196
O O3 0.131450 0.430812 0.837128
O O4 0.712156 0.455407 0.081146
O O5 0.387743 0.192345 0.003468
O O6 0.578521 0.198922 0.110587
O O7 0.223621 0.318254 0.198133
O O8 0.677151 0.209341 0.732510
O O9 0.446834 0.037389 0.842995
O O10 0.784158 0.096963 0.830148
O O11 0.949526 0.121811 0.051696
O O12 0.509041 0.115949 0.296394
O O13 0.956852 0.967110 0.127680
#
# Coordination Sequence:
#
# PCOD9247216 Si02
#       7
#     4   4   4   4   4   4   2
#     4  10  21  45  71 102 141 186 245 292 364 437
#     4  12  24  44  72 106 140 189 247 291 375 437
#     4  11  25  48  68 110 142 187 250 296 366 446
#     4  12  26  44  73 103 145 191 239 307 360 438
#     4  11  25  46  75 103 147 193 240 312 362 441
#     4  10  23  43  72 105 143 188 241 306 364 431
#     4  12  26  48  68 106 152 192 248 300 374 426
#
# _framework density 26.079388999999999
#
# number of rings (size 3 to 8) (size 9 to 14) (size 15 to 20)
#    0.000    0.923    3.077    3.231    2.154    1.846 
#    0.000    0.000    0.000    0.000    0.000    0.000 
#    0.000    0.000    0.000    0.000    0.000    0.000 
#
# Total GULP energy -145168.309990 kJ/mol
# GULP energy per Si atom -5583.396538 kJ/mol
# Density = 2.602003 g / cm^3
# Si number density = 26.079389 Si / 1000 Ang^3
#
#
#
# Elastic Constant Matrix: (Units=GPa)
#
#
# Indices 1 2 3 4 5 6 
#
# 1 104.7611 35.5344 7.5668 0.0000 32.9993 0.0000
# 2 35.5344 92.5365 24.8609 0.0000 32.1911 0.0000
# 3 7.5668 24.8609 81.3500 0.0000 38.2570 0.0000
# 4 0.0000 0.0000 0.0000 30.4571 0.0000 25.0964
# 5 32.9993 32.1911 38.2570 0.0000 31.9842 0.0000
# 6 0.0000 0.0000 0.0000 25.0964 0.0000 47.5956
#
#
#
# Elastic Compliance Matrix: (Units=1/GPa)
#
#
# Indices 1 2 3 4 5 6 
#
# 1 0.024798 0.004475 0.023946 0.000000 -0.058731 0.000000
# 2 0.004475 0.019020 0.011303 0.000000 -0.037281 0.000000
# 3 0.023946 0.011303 0.053897 0.000000 -0.100549 0.000000
# 4 0.000000 0.000000 0.000000 0.058058 0.000000 -0.030613
# 5 -0.058731 -0.037281 -0.100549 0.000000 0.249652 0.000000
# 6 0.000000 0.000000 0.000000 -0.030613 0.000000 0.037152
#
#
# Mechanical properties :
#
#
# Convention : Reuss Voigt Hill
#
# Bulk Modulus (GPa) = 5.64449 46.06352 25.85400
# Shear Modulus (GPa) = 11.84321 36.05310 23.94815
#
# Velocity S-wave (km/s) = 2.13332 3.72215 3.03360
# Velocity P-wave (km/s) = 2.87004 6.01445 4.71226
#
# Compressibility (1/GPa) = 0.17716395
#
# Stress axis : x y z
#
# Youngs Moduli (GPa) = 40.32572 52.57535 18.55396
#
# Poissons Ratio (x) = -0.23529 -0.44429
# Poissons Ratio (y) = -0.18047 -0.20972
# Poissons Ratio (z) = -0.96563 -0.59428
#
# Static dielectric constant tensor:
#      x y z
#    x 1.914200 0.000000 -0.009350 
#    y 0.000000 2.056530 0.000000 
#    z -0.009350 0.000000 1.994330 
# 
# From -- ./inp_files/41411.got.cif
#   From: 2010.05.17/outbox.cif.g08.bks.cpg/sg14_21_cif.got.tgz:41411.got - 2010.06.03 17:49:19.
