data_PCOD9247270
_publ_section_title
;
Structure prediction by ZEFSAII (Michael W. Deem and Ramdas Pophale) SiO2 
 PCOD9247270
Probable space group: P 21/C
;
_chemical_formula_sum "Si O2"
_cell_formula_units_Z 20
_cell_length_a 8.758500
_cell_length_b 13.772945
_cell_length_c 9.785565
_cell_angle_alpha 90.000000
_cell_angle_beta 137.867013
_cell_angle_gamma 90.000000
_cell_volume 791.899857
_symmetry_space_group_name_H-M "P 21/C"
_symmetry_group_IT_number 14
_symmetry_cell_setting 'monoclinic'
loop_
_space_group_symop_operation_xyz
x,y,z
-x,1/2+y,1/2-z
-x,-y,-z
x,1/2-y,1/2+z
loop_
_atom_site_type_symbol
_atom_site_label
_atom_site_fract_x
_atom_site_fract_y
_atom_site_fract_z
Si Si1 0.640152 0.705717 0.548308
Si Si2 0.927683 0.885929 0.844913
Si Si3 0.585242 0.177146 0.830507
Si Si4 0.502310 0.972899 0.660425
Si Si5 0.014802 0.542818 0.856951
O O1 0.436714 0.692510 0.522399
O O2 0.542535 0.738836 0.337929
O O3 0.780160 0.798971 0.688091
O O4 0.812637 0.616267 0.684205
O O5 0.983394 0.958699 0.757109
O O6 0.239871 0.065700 0.154712
O O7 0.270946 0.911760 0.524321
O O8 0.840642 0.160792 0.947274
O O9 0.473574 0.071809 0.725701
O O10 0.500000 0.000000 0.500000
O O11 0.000000 0.500000 0.000000
#
# Coordination Sequence:
#
# PCOD9247270 Si02
#       5
#     4   4   4   4   4
#     4  12  27  49  80 119 162 204 277 335 399 491
#     4  11  27  48  80 113 164 212 260 333 410 487
#     4  12  27  49  76 117 156 215 268 330 408 477
#     4  10  21  48  78 108 154 204 260 320 408 472
#     4  11  23  50  85 118 161 210 272 337 405 477
#
# _framework density 25.255718000000002
#
# number of rings (size 3 to 8) (size 9 to 14) (size 15 to 20)
#    0.000    0.800    6.000    0.600    2.800    8.800 
#    0.000    0.000    0.000    0.000    0.000    0.000 
#    0.000    0.000    0.000    0.000    0.000    0.000 
#
# Total GULP energy -111913.443809 kJ/mol
# GULP energy per Si atom -5595.672190 kJ/mol
# Density = 2.519823 g / cm^3
# Si number density = 25.255718 Si / 1000 Ang^3
#
#
#
# Elastic Constant Matrix: (Units=GPa)
#
#
# Indices 1 2 3 4 5 6 
#
# 1 159.7255 49.2657 46.0362 0.0000 21.1942 0.0000
# 2 49.2657 114.7419 36.6233 0.0000 -7.9939 0.0000
# 3 46.0362 36.6233 85.5659 0.0000 4.5654 0.0000
# 4 0.0000 0.0000 0.0000 47.6613 0.0000 13.3337
# 5 21.1942 -7.9939 4.5654 0.0000 49.6924 0.0000
# 6 0.0000 0.0000 0.0000 13.3337 0.0000 51.4285
#
#
#
# Elastic Compliance Matrix: (Units=1/GPa)
#
#
# Indices 1 2 3 4 5 6 
#
# 1 0.008590 -0.002950 -0.003154 0.000000 -0.003849 0.000000
# 2 -0.002950 0.011315 -0.003437 0.000000 0.003394 0.000000
# 3 -0.003154 -0.003437 0.014886 0.000000 -0.000575 0.000000
# 4 0.000000 0.000000 0.000000 0.022622 0.000000 -0.005865
# 5 -0.003849 0.003394 -0.000575 0.000000 0.022364 0.000000
# 6 0.000000 0.000000 0.000000 -0.005865 0.000000 0.020965
#
#
# Mechanical properties :
#
#
# Convention : Reuss Voigt Hill
#
# Bulk Modulus (GPa) = 63.65551 69.32041 66.48796
# Shear Modulus (GPa) = 39.98062 44.96364 42.47213
#
# Velocity S-wave (km/s) = 3.98305 4.22398 4.10528
# Velocity P-wave (km/s) = 6.81264 7.16215 6.98958
#
# Compressibility (1/GPa) = 0.01570956
#
# Stress axis : x y z
#
# Youngs Moduli (GPa) = 116.41105 88.37621 67.17918
#
# Poissons Ratio (x) = 0.26069 0.21187
# Poissons Ratio (y) = 0.34339 0.23090
# Poissons Ratio (z) = 0.36714 0.30376
#
# Static dielectric constant tensor:
#      x y z
#    x 2.058470 0.000000 0.068240 
#    y 0.000000 2.054730 0.000000 
#    z 0.068240 0.000000 2.009350 
# 
# From -- ./inp_files/13829.got.cif
#   From: 2010.05.17/outbox.cif.g08.bks.cpg/sg14_7_cif.got.tgz:13829.got - 2010.06.03 17:49:19.
