data_PCOD9247200
_publ_section_title
;
Structure prediction by ZEFSAII (Michael W. Deem and Ramdas Pophale) SiO2 
 PCOD9247200
Probable space group: P 21/C
;
_chemical_formula_sum "Si O2"
_cell_formula_units_Z 24
_cell_length_a 24.176875
_cell_length_b 7.031555
_cell_length_c 12.974372
_cell_angle_alpha 90.000000
_cell_angle_beta 151.081108
_cell_angle_gamma 90.000000
_cell_volume 1066.591594
_symmetry_space_group_name_H-M "P 21/C"
_symmetry_group_IT_number 14
_symmetry_cell_setting 'monoclinic'
loop_
_space_group_symop_operation_xyz
x,y,z
-x,1/2+y,1/2-z
-x,-y,-z
x,1/2-y,1/2+z
loop_
_atom_site_type_symbol
_atom_site_label
_atom_site_fract_x
_atom_site_fract_y
_atom_site_fract_z
Si Si1 0.351673 0.258551 0.503715
Si Si2 0.068826 0.681138 0.567348
Si Si3 0.752743 0.452782 0.311970
Si Si4 0.254270 0.842971 0.528876
Si Si5 0.516500 0.498194 0.648065
Si Si6 0.829849 0.776683 0.122078
O O1 0.406090 0.423062 0.525580
O O2 0.237249 0.308425 0.379657
O O3 0.332037 0.076286 0.397541
O O4 0.442370 0.197166 0.738774
O O5 0.145554 0.610373 0.597804
O O6 0.155478 0.751966 0.797264
O O7 0.000000 0.500000 0.500000
O O8 0.964544 0.808146 0.358595
O O9 0.718897 0.266876 0.322181
O O10 0.789383 0.596321 0.461975
O O11 0.372266 0.860771 0.658051
O O12 0.206456 0.058032 0.465837
O O13 0.500000 0.500000 0.500000
#
# Coordination Sequence:
#
# PCOD9247200 Si02
#       6
#     4   4   4   4   4   4
#     4  11  24  45  69  98 137 172 224 287 331 405
#     4  10  21  45  65  99 142 165 226 284 320 411
#     4  12  24  43  72  97 131 183 218 274 350 393
#     4  10  24  45  65 101 136 173 229 273 331 405
#     4  11  25  44  69 100 135 179 227 283 336 398
#     4  10  24  45  67 104 137 174 226 274 338 403
#
# _framework density 22.501583
#
# number of rings (size 3 to 8) (size 9 to 14) (size 15 to 20)
#    0.000    1.333    5.000    2.000    9.333    1.333 
#    3.000    0.000    0.000    0.000    0.000    0.000 
#    0.000    0.000    0.000    0.000    0.000    0.000 
#
# Total GULP energy -134091.762092 kJ/mol
# GULP energy per Si atom -5587.156754 kJ/mol
# Density = 2.245037 g / cm^3
# Si number density = 22.501583 Si / 1000 Ang^3
#
#
#
# Elastic Constant Matrix: (Units=GPa)
#
#
# Indices 1 2 3 4 5 6 
#
# 1 55.9351 16.6068 -6.3079 0.0000 -18.0067 0.0000
# 2 16.6068 43.5959 9.1326 0.0000 -3.1953 0.0000
# 3 -6.3079 9.1326 85.8564 0.0000 -17.1775 0.0000
# 4 0.0000 0.0000 0.0000 36.6492 0.0000 -15.9168
# 5 -18.0067 -3.1953 -17.1775 0.0000 36.4288 0.0000
# 6 0.0000 0.0000 0.0000 -15.9168 0.0000 44.4831
#
#
#
# Elastic Compliance Matrix: (Units=1/GPa)
#
#
# Indices 1 2 3 4 5 6 
#
# 1 0.026428 -0.010231 0.006033 0.000000 0.015011 0.000000
# 2 -0.010231 0.027452 -0.004639 0.000000 -0.004837 0.000000
# 3 0.006033 -0.004639 0.014464 0.000000 0.009395 0.000000
# 4 0.000000 0.000000 0.000000 0.032306 0.000000 0.011560
# 5 0.015011 -0.004837 0.009395 0.000000 0.038877 0.000000
# 6 0.000000 0.000000 0.000000 0.011560 0.000000 0.026617
#
#
# Mechanical properties :
#
#
# Convention : Reuss Voigt Hill
#
# Bulk Modulus (GPa) = 19.73548 24.91671 22.32609
# Shear Modulus (GPa) = 24.91180 34.57595 29.74387
#
# Velocity S-wave (km/s) = 3.33094 3.92420 3.63968
# Velocity P-wave (km/s) = 4.85626 5.62404 5.25420
#
# Compressibility (1/GPa) = 0.05067018
#
# Stress axis : x y z
#
# Youngs Moduli (GPa) = 37.83867 36.42659 69.13770
#
# Poissons Ratio (x) = 0.37267 -0.41712
# Poissons Ratio (y) = 0.38712 0.32076
# Poissons Ratio (z) = -0.22829 0.16900
#
# Static dielectric constant tensor:
#      x y z
#    x 1.774870 0.000000 0.021940 
#    y 0.000000 1.898550 0.000000 
#    z 0.021940 0.000000 1.896280 
# 
# From -- ./inp_files/35788.got.cif
#   From: 2010.05.17/outbox.cif.g08.bks.cpg/sg14_18_cif.got.tgz:35788.got - 2010.06.03 17:49:19.
