data_PCOD9247022
_publ_section_title
;
Structure prediction by ZEFSAII (Michael W. Deem and Ramdas Pophale) SiO2 
 PCOD9247022
Probable space group: P 21/C
;
_chemical_formula_sum "Si O2"
_cell_formula_units_Z 30
_cell_length_a 22.783282
_cell_length_b 6.590958
_cell_length_c 18.556001
_cell_angle_alpha 90.000000
_cell_angle_beta 151.345369
_cell_angle_gamma 90.000000
_cell_volume 1336.176725
_symmetry_space_group_name_H-M "P 21/C"
_symmetry_group_IT_number 14
_symmetry_cell_setting 'monoclinic'
loop_
_space_group_symop_operation_xyz
x,y,z
-x,1/2+y,1/2-z
-x,-y,-z
x,1/2-y,1/2+z
loop_
_atom_site_type_symbol
_atom_site_label
_atom_site_fract_x
_atom_site_fract_y
_atom_site_fract_z
Si Si1 0.717200 0.290836 0.230532
Si Si2 0.103378 0.019782 0.492543
Si Si3 0.500000 0.000000 0.000000
Si Si4 0.602230 0.602913 0.831980
Si Si5 0.260527 0.402941 0.621127
Si Si6 0.822133 0.288547 0.055413
Si Si7 0.613055 0.887183 0.971431
Si Si8 0.848696 0.160912 0.242439
O O1 0.699676 0.479780 0.264037
O O2 0.798949 0.319731 0.247619
O O3 0.795520 0.117492 0.358007
O O4 0.590357 0.186076 0.074375
O O5 0.163104 0.235878 0.540586
O O6 0.977483 0.056056 0.397520
O O7 0.084048 0.905593 0.395565
O O8 0.541375 0.877251 0.969458
O O9 0.638215 0.777818 0.813581
O O10 0.618343 0.681957 0.930449
O O11 0.466851 0.532530 0.666964
O O12 0.697004 0.420147 0.919429
O O13 0.204969 0.570339 0.508090
O O14 0.863719 0.266042 0.181545
O O15 0.745422 0.986728 0.125004
#
# Coordination Sequence:
#
# PCOD9247022 Si02
#       8
#     4   4   2   4   4   4   4   4
#     4  10  23  45  65  94 133 170 213 271 330 395
#     4  10  23  41  68  89 133 176 211 265 327 384
#     4  10  22  42  64  94 128 162 210 276 322 374
#     4  11  23  42  67  94 129 173 216 270 331 393
#     4  10  21  43  67  91 126 172 214 258 332 388
#     4  10  22  41  63  97 127 165 220 269 321 381
#     4  11  23  40  66  93 130 169 215 268 327 387
#     4  11  23  42  62  99 131 166 222 269 320 385
#
# _framework density 22.452121000000002
#
# number of rings (size 3 to 8) (size 9 to 14) (size 15 to 20)
#    0.000    1.600    1.333    3.600    3.733    0.533 
#    9.600    3.333    0.000    0.000    0.000    0.000 
#    0.000    0.000    0.000    0.000    0.000    0.000 
#
# Total GULP energy -167284.000161 kJ/mol
# GULP energy per Si atom -5576.133339 kJ/mol
# Density = 2.240102 g / cm^3
# Si number density = 22.452121 Si / 1000 Ang^3
#
#
#
# Elastic Constant Matrix: (Units=GPa)
#
#
# Indices 1 2 3 4 5 6 
#
# 1 79.7606 -5.7161 21.9320 0.0000 -7.3489 0.0000
# 2 -5.7161 60.8669 37.8611 0.0000 1.3661 0.0000
# 3 21.9320 37.8611 19.6795 0.0000 5.9368 0.0000
# 4 0.0000 0.0000 0.0000 13.1939 0.0000 -11.6810
# 5 -7.3489 1.3661 5.9368 0.0000 33.4389 0.0000
# 6 0.0000 0.0000 0.0000 -11.6810 0.0000 36.5363
#
#
#
# Elastic Compliance Matrix: (Units=1/GPa)
#
#
# Indices 1 2 3 4 5 6 
#
# 1 0.004351 -0.015017 0.024901 0.000000 -0.002851 0.000000
# 2 -0.015017 -0.014101 0.047215 0.000000 -0.011107 0.000000
# 3 0.024901 0.047215 -0.072739 0.000000 0.016458 0.000000
# 4 0.000000 0.000000 0.000000 0.105715 0.000000 0.033798
# 5 -0.002851 -0.011107 0.016458 0.000000 0.026810 0.000000
# 6 0.000000 0.000000 0.000000 0.033798 0.000000 0.038176
#
#
# Mechanical properties :
#
#
# Convention : Reuss Voigt Hill
#
# Bulk Modulus (GPa) = 31.53502 29.82901 30.68201
# Shear Modulus (GPa) = -324.29870 23.71581 -150.29145
#
# Velocity S-wave (km/s) = -12.03136 3.25358 -8.19048
# Velocity P-wave (km/s) = 13.37643 5.23725 8.70345
#
# Compressibility (1/GPa) = 0.03171078
#
# Stress axis : x y z
#
# Youngs Moduli (GPa) = 229.80974 -70.91630 -13.74771
#
# Poissons Ratio (x) = -1.06494 0.34234
# Poissons Ratio (y) = 3.45101 0.64910
# Poissons Ratio (z) = -5.72259 3.34834
#
# Static dielectric constant tensor:
#      x y z
#    x 1.856590 0.000000 -0.040050 
#    y 0.000000 1.820180 0.000000 
#    z -0.040050 0.000000 1.847080 
# 
# From -- ./inp_files/70101.got.cif
#   From: 2010.05.17/outbox.cif.g08.bks.cpg/sg14_36_cif.got.tgz:70101.got - 2010.06.03 17:49:19.
