data_PCOD9247321
_publ_section_title
;
Structure prediction by ZEFSAII (Michael W. Deem and Ramdas Pophale) SiO2 
 PCOD9247321
Probable space group: P 21/C
;
_chemical_formula_sum "Si O2"
_cell_formula_units_Z 20
_cell_length_a 8.794633
_cell_length_b 10.619315
_cell_length_c 8.398032
_cell_angle_alpha 90.000000
_cell_angle_beta 89.415769
_cell_angle_gamma 90.000000
_cell_volume 784.276445
_symmetry_space_group_name_H-M "P 21/C"
_symmetry_group_IT_number 14
_symmetry_cell_setting 'monoclinic'
loop_
_space_group_symop_operation_xyz
x,y,z
-x,1/2+y,1/2-z
-x,-y,-z
x,1/2-y,1/2+z
loop_
_atom_site_type_symbol
_atom_site_label
_atom_site_fract_x
_atom_site_fract_y
_atom_site_fract_z
Si Si1 0.638973 0.989984 0.324099
Si Si2 0.459680 0.284252 0.967919
Si Si3 0.857723 0.864476 0.518626
Si Si4 0.933181 0.220282 0.765118
Si Si5 0.264198 0.622077 0.463092
O O1 0.530176 0.109161 0.351639
O O2 0.713245 0.003414 0.151229
O O3 0.550569 0.860626 0.361878
O O4 0.761767 0.988700 0.470384
O O5 0.280717 0.269597 0.939353
O O6 0.572954 0.168696 0.976676
O O7 0.982006 0.838432 0.650978
O O8 0.944358 0.836892 0.354452
O O9 0.798374 0.273561 0.659208
O O10 0.860048 0.125660 0.894953
#
# Coordination Sequence:
#
# PCOD9247321 Si02
#       5
#     4   4   4   4   4
#     4   9  20  38  63  87 113 159 207 229 294 354
#     4   9  20  37  63  85 116 157 202 236 289 352
#     4   9  21  38  60  86 116 157 199 234 295 351
#     4  10  22  36  58  90 122 157 185 249 302 337
#     4  11  20  39  61  88 121 154 198 246 294 345
#
# _framework density 25.501211999999999
#
# number of rings (size 3 to 8) (size 9 to 14) (size 15 to 20)
#    1.200    1.200    2.000    0.000    2.800    1.600 
#    0.000    1.000    0.000    0.000    0.000    0.000 
#    0.000    0.000    0.000    0.000    0.000    0.000 
#
# Total GULP energy -111578.904435 kJ/mol
# GULP energy per Si atom -5578.945222 kJ/mol
# Density = 2.544317 g / cm^3
# Si number density = 25.501212 Si / 1000 Ang^3
#
#
#
# Elastic Constant Matrix: (Units=GPa)
#
#
# Indices 1 2 3 4 5 6 
#
# 1 106.7584 7.3092 11.5227 0.0000 -14.9302 0.0000
# 2 7.3092 49.3597 -6.0869 0.0000 -7.2533 0.0000
# 3 11.5227 -6.0869 75.3614 0.0000 -20.5769 0.0000
# 4 0.0000 0.0000 0.0000 19.2021 0.0000 -12.9776
# 5 -14.9302 -7.2533 -20.5769 0.0000 48.3584 0.0000
# 6 0.0000 0.0000 0.0000 -12.9776 0.0000 18.7126
#
#
#
# Elastic Compliance Matrix: (Units=1/GPa)
#
#
# Indices 1 2 3 4 5 6 
#
# 1 0.009897 -0.001217 -0.000936 0.000000 0.002475 0.000000
# 2 -0.001217 0.021423 0.003045 0.000000 0.004133 0.000000
# 3 -0.000936 0.003045 0.015506 0.000000 0.006766 0.000000
# 4 0.000000 0.000000 0.000000 0.098022 0.000000 0.067981
# 5 0.002475 0.004133 0.006766 0.000000 0.024942 0.000000
# 6 0.000000 0.000000 0.000000 0.067981 0.000000 0.100586
#
#
# Mechanical properties :
#
#
# Convention : Reuss Voigt Hill
#
# Bulk Modulus (GPa) = 20.57233 28.55218 24.56226
# Shear Modulus (GPa) = 17.55649 31.83692 24.69671
#
# Velocity S-wave (km/s) = 2.62669 3.53717 3.11537
# Velocity P-wave (km/s) = 4.15741 5.28231 4.75326
#
# Compressibility (1/GPa) = 0.04860898
#
# Stress axis : x y z
#
# Youngs Moduli (GPa) = 101.03644 46.67984 64.49244
#
# Poissons Ratio (x) = 0.05683 0.06036
# Poissons Ratio (y) = 0.12300 -0.19637
# Poissons Ratio (z) = 0.09456 -0.14213
#
# Static dielectric constant tensor:
#      x y z
#    x 2.015640 0.000000 0.000230 
#    y 0.000000 2.077980 0.000000 
#    z 0.000230 0.000000 2.030950 
# 
# From -- ./inp_files/8174.got.cif
#   From: 2010.05.17/outbox.cif.g08.bks.cpg/sg14_5_cif.got.tgz:8174.got - 2010.06.03 17:49:19.
