data_PCOD9247272
_publ_section_title
;
Structure prediction by ZEFSAII (Michael W. Deem and Ramdas Pophale) SiO2 
 PCOD9247272
Probable space group: P 21/C
;
_chemical_formula_sum "Si O2"
_cell_formula_units_Z 28
_cell_length_a 8.437367
_cell_length_b 5.561072
_cell_length_c 30.218051
_cell_angle_alpha 90.000000
_cell_angle_beta 58.802209
_cell_angle_gamma 90.000000
_cell_volume 1212.811058
_symmetry_space_group_name_H-M "P 21/C"
_symmetry_group_IT_number 14
_symmetry_cell_setting 'monoclinic'
loop_
_space_group_symop_operation_xyz
x,y,z
-x,1/2+y,1/2-z
-x,-y,-z
x,1/2-y,1/2+z
loop_
_atom_site_type_symbol
_atom_site_label
_atom_site_fract_x
_atom_site_fract_y
_atom_site_fract_z
Si Si1 0.713942 0.572753 0.047249
Si Si2 0.717932 0.086831 0.192571
Si Si3 0.329224 0.281717 0.218254
Si Si4 0.310128 0.462108 0.123360
Si Si5 0.693458 0.623336 0.461035
Si Si6 0.094598 0.404376 0.825624
Si Si7 0.064217 0.690112 0.526368
O O1 0.507281 0.598954 0.094778
O O2 0.884233 0.639651 0.055115
O O3 0.729461 0.707365 0.998104
O O4 0.761486 0.306880 0.024137
O O5 0.525797 0.150773 0.196694
O O6 0.843599 0.326246 0.168630
O O7 0.670492 0.024689 0.251193
O O8 0.805920 0.828213 0.166268
O O9 0.293182 0.333880 0.172855
O O10 0.171629 0.122367 0.264314
O O11 0.314221 0.273783 0.082366
O O12 0.125614 0.615341 0.142802
O O13 0.500000 0.500000 0.500000
O O14 0.856939 0.428775 0.441216
O O15 0.000000 0.500000 0.500000
#
# Coordination Sequence:
#
# PCOD9247272 Si02
#       7
#     4   4   4   4   4   4   4
#     4  10  22  46  70 100 148 193 244 301 365 457
#     4  10  21  49  74 100 151 197 244 320 375 442
#     4  10  23  47  77 102 151 192 259 308 385 448
#     4  12  26  44  75 114 143 198 255 307 397 451
#     4  11  23  45  69 105 150 188 244 316 373 439
#     4  10  24  46  72 109 149 194 246 322 377 449
#     4   9  20  44  72  95 142 189 237 306 363 435
#
# _framework density 23.086862
#
# number of rings (size 3 to 8) (size 9 to 14) (size 15 to 20)
#    0.857    0.857    2.857    0.429    2.000    1.143 
#   10.286    1.429    0.000    0.000    0.000    0.000 
#    0.000    0.000    0.000    0.000    0.000    0.000 
#
# Total GULP energy -156256.391751 kJ/mol
# GULP energy per Si atom -5580.585420 kJ/mol
# Density = 2.303432 g / cm^3
# Si number density = 23.086862 Si / 1000 Ang^3
#
#
#
# Elastic Constant Matrix: (Units=GPa)
#
#
# Indices 1 2 3 4 5 6 
#
# 1 119.0323 40.4326 35.2944 0.0000 -26.2542 0.0000
# 2 40.4326 91.7865 17.7880 0.0000 -7.2103 0.0000
# 3 35.2944 17.7880 63.6331 0.0000 -7.3255 0.0000
# 4 0.0000 0.0000 0.0000 27.7603 0.0000 5.6147
# 5 -26.2542 -7.2103 -7.3255 0.0000 46.1970 0.0000
# 6 0.0000 0.0000 0.0000 5.6147 0.0000 33.0030
#
#
#
# Elastic Compliance Matrix: (Units=1/GPa)
#
#
# Indices 1 2 3 4 5 6 
#
# 1 0.012582 -0.004092 -0.005180 0.000000 0.005690 0.000000
# 2 -0.004092 0.012928 -0.001406 0.000000 -0.000530 0.000000
# 3 -0.005180 -0.001406 0.018963 0.000000 -0.000156 0.000000
# 4 0.000000 0.000000 0.000000 0.037306 0.000000 -0.006347
# 5 0.005690 -0.000530 -0.000156 0.000000 0.024773 0.000000
# 6 0.000000 0.000000 0.000000 -0.006347 0.000000 0.031380
#
#
# Mechanical properties :
#
#
# Convention : Reuss Voigt Hill
#
# Bulk Modulus (GPa) = 43.25426 51.27577 47.26501
# Shear Modulus (GPa) = 29.94155 33.45452 31.69803
#
# Velocity S-wave (km/s) = 3.60517 3.81080 3.70941
# Velocity P-wave (km/s) = 6.00881 6.45144 6.23405
#
# Compressibility (1/GPa) = 0.02311911
#
# Stress axis : x y z
#
# Youngs Moduli (GPa) = 79.47965 77.35195 52.73431
#
# Poissons Ratio (x) = 0.31649 0.27315
# Poissons Ratio (y) = 0.32519 0.07412
# Poissons Ratio (z) = 0.41168 0.10872
#
# Static dielectric constant tensor:
#      x y z
#    x 1.790560 0.000000 -0.075800 
#    y 0.000000 1.840740 0.000000 
#    z -0.075800 0.000000 1.831650 
# 
# From -- ./inp_files/79067.got.cif
#   From: 2010.05.17/outbox.cif.g08.bks.cpg/sg14_40_cif.got.tgz:79067.got - 2010.06.03 17:49:19.
