data_PCOD9247437
_publ_section_title
;
Structure prediction by ZEFSAII (Michael W. Deem and Ramdas Pophale) SiO2 
 PCOD9247437
Probable space group: P 21/C
;
_chemical_formula_sum "Si O2"
_cell_formula_units_Z 28
_cell_length_a 5.019154
_cell_length_b 9.578370
_cell_length_c 26.099534
_cell_angle_alpha 90.000000
_cell_angle_beta 72.308713
_cell_angle_gamma 90.000000
_cell_volume 1195.403604
_symmetry_space_group_name_H-M "P 21/C"
_symmetry_group_IT_number 14
_symmetry_cell_setting 'monoclinic'
loop_
_space_group_symop_operation_xyz
x,y,z
-x,1/2+y,1/2-z
-x,-y,-z
x,1/2-y,1/2+z
loop_
_atom_site_type_symbol
_atom_site_label
_atom_site_fract_x
_atom_site_fract_y
_atom_site_fract_z
Si Si1 0.821140 0.948135 0.431647
Si Si2 0.663617 0.894454 0.259431
Si Si3 0.288794 0.123345 0.451941
Si Si4 0.162393 0.715687 0.834977
Si Si5 0.685432 0.988481 0.143472
Si Si6 0.033645 0.841104 0.730737
Si Si7 0.757200 0.322569 0.381045
O O1 0.840417 0.863107 0.483796
O O2 0.914275 0.862686 0.377236
O O3 0.501872 0.992913 0.442824
O O4 0.036162 0.079643 0.428420
O O5 0.413181 0.894209 0.313728
O O6 0.607205 0.954423 0.206838
O O7 0.731943 0.731285 0.244683
O O8 0.907709 0.995628 0.266860
O O9 0.512080 0.244689 0.426738
O O10 0.114994 0.774964 0.780826
O O11 0.233385 0.850908 0.864458
O O12 0.406000 0.959049 0.128868
O O13 0.946151 0.883108 0.115992
O O14 0.185761 0.776619 0.671999
#
# Coordination Sequence:
#
# PCOD9247437 Si02
#       7
#     4   4   4   4   4   4   4
#     4  10  23  40  66  97 120 159 212 264 312 368
#     4  10  22  38  57  87 126 166 207 255 310 374
#     4  10  22  43  66  92 124 158 213 263 309 372
#     4  11  23  38  60  87 127 162 205 261 315 365
#     4  10  24  38  58  89 125 160 208 255 301 387
#     4  10  23  35  58  89 121 167 207 249 311 380
#     4  11  21  42  59  87 125 164 203 254 310 367
#
# _framework density 23.423051000000001
#
# number of rings (size 3 to 8) (size 9 to 14) (size 15 to 20)
#    0.000    1.714    1.429    1.714   10.000    0.000 
#    0.000    1.429    0.000    0.000    0.000    0.000 
#    0.000    0.000    0.000    0.000    0.000    0.000 
#
# Total GULP energy -156292.641835 kJ/mol
# GULP energy per Si atom -5581.880066 kJ/mol
# Density = 2.336974 g / cm^3
# Si number density = 23.423051 Si / 1000 Ang^3
#
#
#
# Elastic Constant Matrix: (Units=GPa)
#
#
# Indices 1 2 3 4 5 6 
#
# 1 68.7085 9.8970 23.0489 0.0000 -16.0871 0.0000
# 2 9.8970 55.0873 20.2125 0.0000 -8.8867 0.0000
# 3 23.0489 20.2125 82.1393 0.0000 -26.1331 0.0000
# 4 0.0000 0.0000 0.0000 22.4000 0.0000 -7.7543
# 5 -16.0871 -8.8867 -26.1331 0.0000 26.8956 0.0000
# 6 0.0000 0.0000 0.0000 -7.7543 0.0000 30.8648
#
#
#
# Elastic Compliance Matrix: (Units=1/GPa)
#
#
# Indices 1 2 3 4 5 6 
#
# 1 0.017263 -0.001064 -0.002040 0.000000 0.007992 0.000000
# 2 -0.001064 0.020150 -0.003972 0.000000 0.002162 0.000000
# 3 -0.002040 -0.003972 0.018699 0.000000 0.015637 0.000000
# 4 0.000000 0.000000 0.000000 0.048895 0.000000 0.012284
# 5 0.007992 0.002162 0.015637 0.000000 0.057869 0.000000
# 6 0.000000 0.000000 0.000000 0.012284 0.000000 0.035486
#
#
# Mechanical properties :
#
#
# Convention : Reuss Voigt Hill
#
# Bulk Modulus (GPa) = 23.83139 34.69467 29.26303
# Shear Modulus (GPa) = 22.07503 26.21720 24.14612
#
# Velocity S-wave (km/s) = 3.07326 3.34921 3.21420
# Velocity P-wave (km/s) = 4.77385 5.45899 5.12788
#
# Compressibility (1/GPa) = 0.04196146
#
# Stress axis : x y z
#
# Youngs Moduli (GPa) = 57.92759 49.62693 53.47855
#
# Poissons Ratio (x) = 0.05279 0.10907
# Poissons Ratio (y) = 0.06162 0.21242
# Poissons Ratio (z) = 0.11815 0.19712
#
# Static dielectric constant tensor:
#      x y z
#    x 1.966130 0.000000 0.031500 
#    y 0.000000 1.904740 0.000000 
#    z 0.031500 0.000000 1.881370 
# 
# From -- ./inp_files/75649.got.cif
#   From: 2010.05.17/outbox.cif.g08.bks.cpg/sg14_38_cif.got.tgz:75649.got - 2010.06.03 17:49:19.
