data_PCOD9247965
_publ_section_title
;
Structure prediction by ZEFSAII (Michael W. Deem and Ramdas Pophale) SiO2 
 PCOD9247965
Probable space group: P 21/C
;
_chemical_formula_sum "Si O2"
_cell_formula_units_Z 24
_cell_length_a 5.756056
_cell_length_b 10.627757
_cell_length_c 17.019901
_cell_angle_alpha 90.000000
_cell_angle_beta 67.527437
_cell_angle_gamma 90.000000
_cell_volume 962.110794
_symmetry_space_group_name_H-M "P 21/C"
_symmetry_group_IT_number 14
_symmetry_cell_setting 'monoclinic'
loop_
_space_group_symop_operation_xyz
x,y,z
-x,1/2+y,1/2-z
-x,-y,-z
x,1/2-y,1/2+z
loop_
_atom_site_type_symbol
_atom_site_label
_atom_site_fract_x
_atom_site_fract_y
_atom_site_fract_z
Si Si1 0.784106 0.996965 0.862381
Si Si2 0.427621 0.129898 0.253710
Si Si3 0.720758 0.859069 0.022978
Si Si4 0.216129 0.108297 0.565807
Si Si5 0.686519 0.048817 0.594180
Si Si6 0.239776 0.387627 0.311849
O O1 0.742744 0.893436 0.800897
O O2 0.527510 0.065951 0.918894
O O3 0.858937 0.929807 0.934240
O O4 0.975439 0.098824 0.802408
O O5 0.438096 0.279546 0.264162
O O6 0.314674 0.070849 0.347801
O O7 0.650295 0.029454 0.208396
O O8 0.856437 0.849329 0.088352
O O9 0.658194 0.724721 0.995389
O O10 0.393326 0.089728 0.619190
O O11 0.913396 0.132211 0.601810
O O12 0.240768 0.988052 0.504639
#
# Coordination Sequence:
#
# PCOD9247965 Si02
#       6
#     4   4   4   4   4   4
#     4  10  25  42  69 100 138 188 244 295 367 442
#     4  11  26  44  67 107 139 193 238 303 374 431
#     4  10  22  44  68 102 133 190 241 298 363 440
#     4  10  22  40  69 102 137 187 235 297 356 436
#     4  10  23  40  65 104 139 183 238 295 363 425
#     4  11  25  46  70  99 147 187 241 302 367 446
#
# _framework density 24.945153999999999
#
# number of rings (size 3 to 8) (size 9 to 14) (size 15 to 20)
#    0.000    1.667    1.667    0.500    7.000    5.333 
#    0.000    0.000    0.000    0.000    0.000    0.000 
#    0.000    0.000    0.000    0.000    0.000    0.000 
#
# Total GULP energy -133657.797741 kJ/mol
# GULP energy per Si atom -5569.074906 kJ/mol
# Density = 2.488838 g / cm^3
# Si number density = 24.945154 Si / 1000 Ang^3
#
#
#
# Elastic Constant Matrix: (Units=GPa)
#
#
# Indices 1 2 3 4 5 6 
#
# 1 98.1604 38.5175 47.0846 0.0000 5.2264 0.0000
# 2 38.5175 89.6692 25.3999 0.0000 5.2687 0.0000
# 3 47.0846 25.3999 93.6593 0.0000 3.7870 0.0000
# 4 0.0000 0.0000 0.0000 42.2609 0.0000 4.0003
# 5 5.2264 5.2687 3.7870 0.0000 23.6644 0.0000
# 6 0.0000 0.0000 0.0000 4.0003 0.0000 19.4116
#
#
#
# Elastic Compliance Matrix: (Units=1/GPa)
#
#
# Indices 1 2 3 4 5 6 
#
# 1 0.015081 -0.004624 -0.006275 0.000000 -0.001297 0.000000
# 2 -0.004624 0.013611 -0.001294 0.000000 -0.001802 0.000000
# 3 -0.006275 -0.001294 0.014207 0.000000 -0.000600 0.000000
# 4 0.000000 0.000000 0.000000 0.024133 0.000000 -0.004973
# 5 -0.001297 -0.001802 -0.000600 0.000000 0.043041 0.000000
# 6 0.000000 0.000000 0.000000 -0.004973 0.000000 0.052540
#
#
# Mechanical properties :
#
#
# Convention : Reuss Voigt Hill
#
# Bulk Modulus (GPa) = 54.01731 55.94363 54.98047
# Shear Modulus (GPa) = 25.88395 28.43318 27.15857
#
# Velocity S-wave (km/s) = 3.22473 3.37980 3.30317
# Velocity P-wave (km/s) = 5.96377 6.14052 6.05279
#
# Compressibility (1/GPa) = 0.01851258
#
# Stress axis : x y z
#
# Youngs Moduli (GPa) = 66.30883 73.47111 70.38977
#
# Poissons Ratio (x) = 0.33976 0.44169
# Poissons Ratio (y) = 0.30664 0.09105
# Poissons Ratio (z) = 0.41609 0.09504
#
# Static dielectric constant tensor:
#      x y z
#    x 2.119200 0.000000 -0.003820 
#    y 0.000000 1.964920 0.000000 
#    z -0.003820 0.000000 2.011390 
# 
# From -- ./inp_files/52941.got.cif
#   From: 2010.05.17/outbox.cif.g08.bks.cpg/sg14_27_cif.got.tgz:52941.got - 2010.06.03 17:49:19.
