data_PCOD9247177
_publ_section_title
;
Structure prediction by ZEFSAII (Michael W. Deem and Ramdas Pophale) SiO2 
 PCOD9247177
Probable space group: P 21/C
;
_chemical_formula_sum "Si O2"
_cell_formula_units_Z 20
_cell_length_a 10.058442
_cell_length_b 10.512555
_cell_length_c 9.096184
_cell_angle_alpha 90.000000
_cell_angle_beta 130.193211
_cell_angle_gamma 90.000000
_cell_volume 734.715346
_symmetry_space_group_name_H-M "P 21/C"
_symmetry_group_IT_number 14
_symmetry_cell_setting 'monoclinic'
loop_
_space_group_symop_operation_xyz
x,y,z
-x,1/2+y,1/2-z
-x,-y,-z
x,1/2-y,1/2+z
loop_
_atom_site_type_symbol
_atom_site_label
_atom_site_fract_x
_atom_site_fract_y
_atom_site_fract_z
Si Si1 0.534536 0.357332 0.921987
Si Si2 0.413599 0.905332 0.213438
Si Si3 0.859201 0.996138 0.211089
Si Si4 0.151188 0.115471 0.278161
Si Si5 0.955310 0.704225 0.008292
O O1 0.553924 0.226555 0.849157
O O2 0.564888 0.486794 0.848979
O O3 0.331992 0.374766 0.824757
O O4 0.628915 0.364762 0.147949
O O5 0.281919 0.982092 0.013605
O O6 0.052929 0.993538 0.275337
O O7 0.877335 0.125118 0.321224
O O8 0.847589 0.884533 0.319055
O O9 0.152196 0.211962 0.418221
O O10 0.014361 0.169977 0.061072
#
# Coordination Sequence:
#
# PCOD9247177 Si02
#       5
#     4   4   4   4   4
#     4  11  27  51  70 111 144 206 235 306 364 454
#     4  11  27  49  73 105 152 189 252 296 377 426
#     4   9  23  44  70 105 138 185 236 311 349 436
#     4  10  21  44  73  97 145 183 242 297 364 436
#     4   9  21  42  71 107 134 182 240 301 370 415
#
# _framework density 27.221426999999998
#
# number of rings (size 3 to 8) (size 9 to 14) (size 15 to 20)
#    1.200    0.800    0.000    1.200    8.400    1.600 
#   14.400    0.000    0.000    0.000    0.000    0.000 
#    0.000    0.000    0.000    0.000    0.000    0.000 
#
# Total GULP energy -111671.101870 kJ/mol
# GULP energy per Si atom -5583.555093 kJ/mol
# Density = 2.715947 g / cm^3
# Si number density = 27.221427 Si / 1000 Ang^3
#
#
#
# Elastic Constant Matrix: (Units=GPa)
#
#
# Indices 1 2 3 4 5 6 
#
# 1 67.5983 41.6961 39.6021 0.0000 -26.7330 0.0000
# 2 41.6961 99.7060 63.1677 0.0000 -29.4667 0.0000
# 3 39.6021 63.1677 242.4754 0.0000 -23.2982 0.0000
# 4 0.0000 0.0000 0.0000 69.7953 0.0000 -22.1144
# 5 -26.7330 -29.4667 -23.2982 0.0000 39.8983 0.0000
# 6 0.0000 0.0000 0.0000 -22.1144 0.0000 44.8220
#
#
#
# Elastic Compliance Matrix: (Units=1/GPa)
#
#
# Indices 1 2 3 4 5 6 
#
# 1 0.023311 -0.005813 -0.001276 0.000000 0.010581 0.000000
# 2 -0.005813 0.016003 -0.002604 0.000000 0.006403 0.000000
# 3 -0.001276 -0.002604 0.005026 0.000000 0.000156 0.000000
# 4 0.000000 0.000000 0.000000 0.016982 0.000000 0.008379
# 5 0.010581 0.006403 0.000156 0.000000 0.036973 0.000000
# 6 0.000000 0.000000 0.000000 0.008379 0.000000 0.026444
#
#
# Mechanical properties :
#
#
# Convention : Reuss Voigt Hill
#
# Bulk Modulus (GPa) = 40.07588 77.63460 58.85524
# Shear Modulus (GPa) = 32.79897 48.59070 40.69483
#
# Velocity S-wave (km/s) = 3.47493 4.22953 3.87066
# Velocity P-wave (km/s) = 5.55466 7.24110 6.45321
#
# Compressibility (1/GPa) = 0.02495266
#
# Stress axis : x y z
#
# Youngs Moduli (GPa) = 42.89875 62.48975 198.96382
#
# Poissons Ratio (x) = 0.36324 0.25393
# Poissons Ratio (y) = 0.24936 0.51815
# Poissons Ratio (z) = 0.05475 0.16274
#
# Static dielectric constant tensor:
#      x y z
#    x 2.150460 0.000000 0.035810 
#    y 0.000000 2.245150 0.000000 
#    z 0.035810 0.000000 2.098440 
# 
# From -- ./inp_files/12260.got.cif
#   From: 2010.05.17/outbox.cif.g08.bks.cpg/sg14_7_cif.got.tgz:12260.got - 2010.06.03 17:49:19.
