data_PCOD9247845
_publ_section_title
;
Structure prediction by ZEFSAII (Michael W. Deem and Ramdas Pophale) SiO2 
 PCOD9247845
Probable space group: P 21/C
;
_chemical_formula_sum "Si O2"
_cell_formula_units_Z 30
_cell_length_a 15.847037
_cell_length_b 8.205679
_cell_length_c 11.840049
_cell_angle_alpha 90.000000
_cell_angle_beta 59.290112
_cell_angle_gamma 90.000000
_cell_volume 1323.717857
_symmetry_space_group_name_H-M "P 21/C"
_symmetry_group_IT_number 14
_symmetry_cell_setting 'monoclinic'
loop_
_space_group_symop_operation_xyz
x,y,z
-x,1/2+y,1/2-z
-x,-y,-z
x,1/2-y,1/2+z
loop_
_atom_site_type_symbol
_atom_site_label
_atom_site_fract_x
_atom_site_fract_y
_atom_site_fract_z
Si Si1 0.220677 0.753303 0.054933
Si Si2 0.626131 0.421121 0.924350
Si Si3 0.607209 0.043564 0.175434
Si Si4 0.466831 0.348386 0.599553
Si Si5 0.000000 0.000000 0.000000
Si Si6 0.681748 0.758745 0.965380
Si Si7 0.115504 0.089081 0.141222
Si Si8 0.041872 0.635034 0.057779
O O1 0.272210 0.674865 0.128034
O O2 0.153177 0.629539 0.030067
O O3 0.159233 0.909915 0.136796
O O4 0.310505 0.825801 0.919733
O O5 0.612680 0.471024 0.804512
O O6 0.642133 0.575957 0.993894
O O7 0.536320 0.303464 0.017643
O O8 0.502383 0.103319 0.199572
O O9 0.635149 0.877055 0.091558
O O10 0.500000 0.500000 0.500000
O O11 0.356704 0.319492 0.632147
O O12 0.078043 0.077667 0.039598
O O13 0.033672 0.814704 0.011681
O O14 0.797648 0.781656 0.898058
O O15 0.026276 0.126055 0.284799
O O16 0.000000 0.500000 0.000000
#
# Coordination Sequence:
#
# PCOD9247845 Si02
#       8
#     4   4   4   4   2   4   4   4
#     4   9  23  42  62  95 132 163 226 291 323 423
#     4  11  22  39  70  94 132 182 216 275 353 408
#     4   9  21  42  63  93 129 177 215 272 349 397
#     4   9  20  42  63  95 135 165 221 278 328 415
#     4  10  26  46  68  96 138 174 234 298 342 418
#     4  10  22  40  63  97 134 166 227 281 327 416
#     4  10  24  45  66  98 133 182 230 291 356 407
#     4  11  26  42  69  97 134 183 235 286 363 420
#
# _framework density 22.663440999999999
#
# number of rings (size 3 to 8) (size 9 to 14) (size 15 to 20)
#    0.000    2.133    0.000    1.200    7.467    7.467 
#    0.000    4.000    0.000    0.000    0.000    0.000 
#    0.000    0.000    0.000    0.000    0.000    0.000 
#
# Total GULP energy -167084.589572 kJ/mol
# GULP energy per Si atom -5569.486319 kJ/mol
# Density = 2.261186 g / cm^3
# Si number density = 22.663441 Si / 1000 Ang^3
#
#
#
# Elastic Constant Matrix: (Units=GPa)
#
#
# Indices 1 2 3 4 5 6 
#
# 1 189.7027 56.1850 49.2933 0.0000 29.5799 0.0000
# 2 56.1850 88.7242 32.8357 0.0000 14.8886 0.0000
# 3 49.2933 32.8357 60.0432 0.0000 15.7259 0.0000
# 4 0.0000 0.0000 0.0000 6.3667 0.0000 7.3651
# 5 29.5799 14.8886 15.7259 0.0000 28.5970 0.0000
# 6 0.0000 0.0000 0.0000 7.3651 0.0000 36.3304
#
#
#
# Elastic Compliance Matrix: (Units=1/GPa)
#
#
# Indices 1 2 3 4 5 6 
#
# 1 0.007759 -0.002799 -0.003644 0.000000 -0.004565 0.000000
# 2 -0.002799 0.015471 -0.005621 0.000000 -0.002068 0.000000
# 3 -0.003644 -0.005621 0.024494 0.000000 -0.006774 0.000000
# 4 0.000000 0.000000 0.000000 0.205186 0.000000 -0.041597
# 5 -0.004565 -0.002068 -0.006774 0.000000 0.044493 0.000000
# 6 0.000000 0.000000 0.000000 -0.041597 0.000000 0.035958
#
#
# Mechanical properties :
#
#
# Convention : Reuss Voigt Hill
#
# Bulk Modulus (GPa) = 42.37847 68.34423 55.36135
# Shear Modulus (GPa) = 13.68540 27.60256 20.64398
#
# Velocity S-wave (km/s) = 2.46001 3.49368 3.02138
# Velocity P-wave (km/s) = 5.17769 6.81880 6.05411
#
# Compressibility (1/GPa) = 0.02359689
#
# Stress axis : x y z
#
# Youngs Moduli (GPa) = 128.88405 64.63878 40.82622
#
# Poissons Ratio (x) = 0.18092 0.14875
# Poissons Ratio (y) = 0.36074 0.22948
# Poissons Ratio (z) = 0.46960 0.36332
#
# Static dielectric constant tensor:
#      x y z
#    x 1.850500 0.000000 0.005670 
#    y 0.000000 1.898870 0.000000 
#    z 0.005670 0.000000 1.763670 
# 
# From -- ./inp_files/31548.got.cif
#   From: 2010.05.17/outbox.cif.g08.bks.cpg/sg14_16_cif.got.tgz:31548.got - 2010.06.03 17:49:19.
