data_PCOD9247294
_publ_section_title
;
Structure prediction by ZEFSAII (Michael W. Deem and Ramdas Pophale) SiO2 
 PCOD9247294
Probable space group: P 21/C
;
_chemical_formula_sum "Si O2"
_cell_formula_units_Z 28
_cell_length_a 11.813262
_cell_length_b 8.009809
_cell_length_c 20.083182
_cell_angle_alpha 90.000000
_cell_angle_beta 43.052313
_cell_angle_gamma 90.000000
_cell_volume 1297.276895
_symmetry_space_group_name_H-M "P 21/C"
_symmetry_group_IT_number 14
_symmetry_cell_setting 'monoclinic'
loop_
_space_group_symop_operation_xyz
x,y,z
-x,1/2+y,1/2-z
-x,-y,-z
x,1/2-y,1/2+z
loop_
_atom_site_type_symbol
_atom_site_label
_atom_site_fract_x
_atom_site_fract_y
_atom_site_fract_z
Si Si1 0.007251 0.652749 0.551208
Si Si2 0.655696 0.168637 0.140691
Si Si3 0.547623 0.920593 0.074507
Si Si4 0.343631 0.096719 0.752538
Si Si5 0.071917 0.782607 0.176704
Si Si6 0.756207 0.904984 0.855964
Si Si7 0.630854 0.416867 0.893620
O O1 0.164957 0.749912 0.452399
O O2 0.064131 0.647522 0.604603
O O3 0.000000 0.500000 0.500000
O O4 0.813697 0.694896 0.647442
O O5 0.509959 0.300142 0.193596
O O6 0.624325 0.004622 0.107047
O O7 0.654042 0.083571 0.212920
O O8 0.415186 0.063467 0.109101
O O9 0.449537 0.745944 0.108669
O O10 0.693190 0.894042 0.958501
O O11 0.328329 0.047518 0.682014
O O12 0.138251 0.926755 0.195571
O O13 0.210997 0.640883 0.130402
O O14 0.891278 0.726759 0.276555
O O15 0.500000 0.500000 0.000000
#
# Coordination Sequence:
#
# PCOD9247294 Si02
#       7
#     4   4   4   4   4   4   4
#     4  10  22  39  64  96 125 170 223 269 332 406
#     4  11  22  44  69  92 134 180 224 282 343 404
#     4  10  22  39  59  92 128 170 217 273 337 395
#     4  11  24  42  69  97 131 181 228 278 342 415
#     4  11  21  39  60  95 131 169 216 275 337 392
#     4  10  22  35  62  91 128 169 216 268 334 400
#     4  11  25  38  62  98 131 170 225 281 336 411
#
# _framework density 21.583670999999999
#
# number of rings (size 3 to 8) (size 9 to 14) (size 15 to 20)
#    0.000    1.429    1.429    3.429    8.000    0.000 
#    0.000    0.714    0.000    0.000    0.000    0.000 
#    0.000    0.000    0.000    0.000    0.000    0.000 
#
# Total GULP energy -155872.344093 kJ/mol
# GULP energy per Si atom -5566.869432 kJ/mol
# Density = 2.153455 g / cm^3
# Si number density = 21.583671 Si / 1000 Ang^3
#
#
#
# Elastic Constant Matrix: (Units=GPa)
#
#
# Indices 1 2 3 4 5 6 
#
# 1 79.2679 8.0139 60.0322 0.0000 -3.6134 0.0000
# 2 8.0139 36.3361 40.9249 0.0000 -21.8911 0.0000
# 3 60.0322 40.9249 173.1933 0.0000 -25.8430 0.0000
# 4 0.0000 0.0000 0.0000 35.2968 0.0000 -13.0006
# 5 -3.6134 -21.8911 -25.8430 0.0000 36.8467 0.0000
# 6 0.0000 0.0000 0.0000 -13.0006 0.0000 27.9383
#
#
#
# Elastic Compliance Matrix: (Units=1/GPa)
#
#
# Indices 1 2 3 4 5 6 
#
# 1 0.017572 0.003323 -0.007063 0.000000 -0.001257 0.000000
# 2 0.003323 0.052947 -0.009963 0.000000 0.024795 0.000000
# 3 -0.007063 -0.009963 0.010711 0.000000 0.000900 0.000000
# 4 0.000000 0.000000 0.000000 0.034191 0.000000 0.015910
# 5 -0.001257 0.024795 0.000900 0.000000 0.042378 0.000000
# 6 0.000000 0.000000 0.000000 0.015910 0.000000 0.043197
#
#
# Mechanical properties :
#
#
# Convention : Reuss Voigt Hill
#
# Bulk Modulus (GPa) = 18.57973 56.30435 37.44204
# Shear Modulus (GPa) = 20.29682 32.00479 26.15081
#
# Velocity S-wave (km/s) = 3.06989 3.85492 3.48458
# Velocity P-wave (km/s) = 4.60353 6.77917 5.79438
#
# Compressibility (1/GPa) = 0.05382210
#
# Stress axis : x y z
#
# Youngs Moduli (GPa) = 56.91029 18.88671 93.36378
#
# Poissons Ratio (x) = -0.06276 0.65946
# Poissons Ratio (y) = -0.18911 0.93021
# Poissons Ratio (z) = 0.40198 0.18817
#
# Static dielectric constant tensor:
#      x y z
#    x 1.831580 0.000000 -0.003960 
#    y 0.000000 1.844930 0.000000 
#    z -0.003960 0.000000 1.801700 
# 
# From -- ./inp_files/66970.got.cif
#   From: 2010.05.17/outbox.cif.g08.bks.cpg/sg14_34_cif.got.tgz:66970.got - 2010.06.03 17:49:19.
