data_PCOD9247659
_publ_section_title
;
Structure prediction by ZEFSAII (Michael W. Deem and Ramdas Pophale) SiO2 
 PCOD9247659
Probable space group: P 21/C
;
_chemical_formula_sum "Si O2"
_cell_formula_units_Z 28
_cell_length_a 9.210675
_cell_length_b 13.537911
_cell_length_c 14.167944
_cell_angle_alpha 90.000000
_cell_angle_beta 127.204012
_cell_angle_gamma 90.000000
_cell_volume 1407.112927
_symmetry_space_group_name_H-M "P 21/C"
_symmetry_group_IT_number 14
_symmetry_cell_setting 'monoclinic'
loop_
_space_group_symop_operation_xyz
x,y,z
-x,1/2+y,1/2-z
-x,-y,-z
x,1/2-y,1/2+z
loop_
_atom_site_type_symbol
_atom_site_label
_atom_site_fract_x
_atom_site_fract_y
_atom_site_fract_z
Si Si1 0.916175 0.649732 0.233790
Si Si2 0.610183 0.338538 0.867164
Si Si3 0.242745 0.228213 0.670807
Si Si4 0.109089 0.968814 0.134912
Si Si5 0.950410 0.244170 0.391296
Si Si6 0.478554 0.117682 0.506204
Si Si7 0.528873 0.940763 0.292708
O O1 0.896353 0.736634 0.302882
O O2 0.929559 0.548050 0.297774
O O3 0.722755 0.644919 0.104836
O O4 0.051400 0.675447 0.202235
O O5 0.415174 0.302994 0.748352
O O6 0.773326 0.279941 0.884067
O O7 0.604734 0.328338 0.979110
O O8 0.625126 0.455675 0.853965
O O9 0.341297 0.122816 0.723220
O O10 0.126675 0.229447 0.528552
O O11 0.054445 0.858201 0.141488
O O12 0.321430 0.966882 0.187561
O O13 0.000000 0.000000 0.000000
O O14 0.498273 0.128854 0.625103
O O15 0.500000 0.000000 0.500000
#
# Coordination Sequence:
#
# PCOD9247659 Si02
#       7
#     4   4   4   4   4   4   4
#     4  11  23  41  64  95 135 166 226 275 329 404
#     4  10  22  39  63  97 128 168 226 270 330 393
#     4  11  22  42  63  96 132 171 220 274 333 397
#     4  12  23  43  66  92 136 183 212 267 353 394
#     4  12  25  40  67  99 128 177 227 277 327 408
#     4   9  17  37  63  89 117 169 211 264 326 380
#     4  11  20  40  70  88 131 175 219 276 330 395
#
# _framework density 19.898899
#
# number of rings (size 3 to 8) (size 9 to 14) (size 15 to 20)
#    0.000    1.143    8.571    0.000    0.000    2.857 
#    0.000    1.429    0.000    3.429    0.000    0.000 
#    0.000    0.000    0.000    0.000    0.000    0.000 
#
# Total GULP energy -156105.829296 kJ/mol
# GULP energy per Si atom -5575.208189 kJ/mol
# Density = 1.985361 g / cm^3
# Si number density = 19.898899 Si / 1000 Ang^3
#
#
#
# Elastic Constant Matrix: (Units=GPa)
#
#
# Indices 1 2 3 4 5 6 
#
# 1 85.2334 11.6052 32.9234 0.0000 -12.7128 0.0000
# 2 11.6052 57.3727 18.0007 0.0000 -8.6567 0.0000
# 3 32.9234 18.0007 93.0801 0.0000 -5.9609 0.0000
# 4 0.0000 0.0000 0.0000 24.8590 0.0000 -5.8235
# 5 -12.7128 -8.6567 -5.9609 0.0000 21.9598 0.0000
# 6 0.0000 0.0000 0.0000 -5.8235 0.0000 32.9209
#
#
#
# Elastic Compliance Matrix: (Units=1/GPa)
#
#
# Indices 1 2 3 4 5 6 
#
# 1 0.014635 -0.000442 -0.004640 0.000000 0.007038 0.000000
# 2 -0.000442 0.019513 -0.003197 0.000000 0.006569 0.000000
# 3 -0.004640 -0.003197 0.012976 0.000000 -0.000424 0.000000
# 4 0.000000 0.000000 0.000000 0.041966 0.000000 0.007423
# 5 0.007038 0.006569 -0.000424 0.000000 0.052087 0.000000
# 6 0.000000 0.000000 0.000000 0.007423 0.000000 0.031689
#
#
# Mechanical properties :
#
#
# Convention : Reuss Voigt Hill
#
# Bulk Modulus (GPa) = 32.71646 40.08276 36.39961
# Shear Modulus (GPa) = 25.04851 27.49172 26.27012
#
# Velocity S-wave (km/s) = 3.55179 3.72098 3.63737
# Velocity P-wave (km/s) = 5.77038 6.21674 5.99772
#
# Compressibility (1/GPa) = 0.03056565
#
# Stress axis : x y z
#
# Youngs Moduli (GPa) = 68.32971 51.24689 77.06686
#
# Poissons Ratio (x) = 0.02267 0.35761
# Poissons Ratio (y) = 0.03023 0.24635
# Poissons Ratio (z) = 0.31707 0.16381
#
# Static dielectric constant tensor:
#      x y z
#    x 1.741700 0.000000 -0.028030 
#    y 0.000000 1.703940 0.000000 
#    z -0.028030 0.000000 1.663810 
# 
# From -- ./inp_files/41282.got.cif
#   From: 2010.05.17/outbox.cif.g08.bks.cpg/sg14_21_cif.got.tgz:41282.got - 2010.06.03 17:49:19.
