data_PCOD9247165
_publ_section_title
;
Structure prediction by ZEFSAII (Michael W. Deem and Ramdas Pophale) SiO2 
 PCOD9247165
Probable space group: P 21/C
;
_chemical_formula_sum "Si O2"
_cell_formula_units_Z 16
_cell_length_a 5.085448
_cell_length_b 19.760060
_cell_length_c 6.858676
_cell_angle_alpha 90.000000
_cell_angle_beta 66.724831
_cell_angle_gamma 90.000000
_cell_volume 633.129547
_symmetry_space_group_name_H-M "P 21/C"
_symmetry_group_IT_number 14
_symmetry_cell_setting 'monoclinic'
loop_
_space_group_symop_operation_xyz
x,y,z
-x,1/2+y,1/2-z
-x,-y,-z
x,1/2-y,1/2+z
loop_
_atom_site_type_symbol
_atom_site_label
_atom_site_fract_x
_atom_site_fract_y
_atom_site_fract_z
Si Si1 0.710856 0.819854 0.354560
Si Si2 0.167321 0.464957 0.128429
Si Si3 0.632615 0.310718 0.418629
Si Si4 0.670443 0.447385 0.584634
O O1 0.759020 0.888831 0.456547
O O2 0.545218 0.757384 0.497475
O O3 0.502316 0.841277 0.238362
O O4 0.029537 0.795751 0.198201
O O5 0.346957 0.522750 0.191996
O O6 0.971201 0.446392 0.379202
O O7 0.000000 0.500000 0.000000
O O8 0.583321 0.369044 0.591954
O O9 0.500000 0.500000 0.500000
#
# Coordination Sequence:
#
# PCOD9247165 Si02
#       4
#     4   4   4   4
#     4  11  24  47  71 108 147 195 247 305 374 452
#     4  10  23  44  74 106 143 190 256 304 372 448
#     4  11  24  46  73 104 150 195 246 305 379 442
#     4  10  21  44  72 100 146 192 237 311 373 434
#
# _framework density 25.271291000000002
#
# number of rings (size 3 to 8) (size 9 to 14) (size 15 to 20)
#    0.000    1.500    2.500    1.500    0.000    3.000 
#   13.500    0.000    0.000    0.000    0.000    0.000 
#    0.000    0.000    0.000    0.000    0.000    0.000 
#
# Total GULP energy -89379.273761 kJ/mol
# GULP energy per Si atom -5586.204610 kJ/mol
# Density = 2.521377 g / cm^3
# Si number density = 25.271291 Si / 1000 Ang^3
#
#
#
# Elastic Constant Matrix: (Units=GPa)
#
#
# Indices 1 2 3 4 5 6 
#
# 1 91.8123 41.6680 -1.6169 0.0000 8.4633 0.0000
# 2 41.6680 244.0432 45.1551 0.0000 -5.6436 0.0000
# 3 -1.6169 45.1551 81.0107 0.0000 20.1031 0.0000
# 4 0.0000 0.0000 0.0000 38.2422 0.0000 1.4187
# 5 8.4633 -5.6436 20.1031 0.0000 52.5206 0.0000
# 6 0.0000 0.0000 0.0000 1.4187 0.0000 46.6581
#
#
#
# Elastic Compliance Matrix: (Units=1/GPa)
#
#
# Indices 1 2 3 4 5 6 
#
# 1 0.012451 -0.002673 0.002550 0.000000 -0.003270 0.000000
# 2 -0.002673 0.005271 -0.003579 0.000000 0.002367 0.000000
# 3 0.002550 -0.003579 0.016118 0.000000 -0.006965 0.000000
# 4 0.000000 0.000000 0.000000 0.026179 0.000000 -0.000796
# 5 -0.003270 0.002367 -0.006965 0.000000 0.022487 0.000000
# 6 0.000000 0.000000 0.000000 -0.000796 0.000000 0.021457
#
#
# Mechanical properties :
#
#
# Convention : Reuss Voigt Hill
#
# Bulk Modulus (GPa) = 37.82678 65.25318 51.53998
# Shear Modulus (GPa) = 41.60438 49.59483 45.59960
#
# Velocity S-wave (km/s) = 4.06188 4.43481 4.25244
# Velocity P-wave (km/s) = 6.08270 7.21807 6.67457
#
# Compressibility (1/GPa) = 0.02643630
#
# Stress axis : x y z
#
# Youngs Moduli (GPa) = 80.31224 189.71673 62.04192
#
# Poissons Ratio (x) = 0.50719 -0.15821
# Poissons Ratio (y) = 0.21471 0.22204
# Poissons Ratio (z) = -0.20480 0.67896
#
# Static dielectric constant tensor:
#      x y z
#    x 2.236150 0.000000 -0.112870 
#    y 0.000000 2.086370 0.000000 
#    z -0.112870 0.000000 2.227500 
# 
# From -- ./inp_files/270.got.cif
#   From: 2010.05.17/outbox.cif.g08.bks.cpg/sg14_1_cif.got.tgz:270.got - 2010.06.03 17:49:19.
