data_PCOD9247088
_publ_section_title
;
Structure prediction by ZEFSAII (Michael W. Deem and Ramdas Pophale) SiO2 
 PCOD9247088
Probable space group: P 21/C
;
_chemical_formula_sum "Si O2"
_cell_formula_units_Z 32
_cell_length_a 16.619452
_cell_length_b 12.459956
_cell_length_c 13.595624
_cell_angle_alpha 90.000000
_cell_angle_beta 26.790983
_cell_angle_gamma 90.000000
_cell_volume 1268.982474
_symmetry_space_group_name_H-M "P 21/C"
_symmetry_group_IT_number 14
_symmetry_cell_setting 'monoclinic'
loop_
_space_group_symop_operation_xyz
x,y,z
-x,1/2+y,1/2-z
-x,-y,-z
x,1/2-y,1/2+z
loop_
_atom_site_type_symbol
_atom_site_label
_atom_site_fract_x
_atom_site_fract_y
_atom_site_fract_z
Si Si1 0.474081 0.876699 0.564003
Si Si2 0.339687 0.840062 0.163096
Si Si3 0.970270 0.385902 0.642536
Si Si4 0.162392 0.382536 0.227330
Si Si5 0.987433 0.674802 0.814865
Si Si6 0.420926 0.051185 0.945204
Si Si7 0.935623 0.878909 0.578625
Si Si8 0.253339 0.512805 0.449645
O O1 0.426073 0.776546 0.547511
O O2 0.648131 0.850484 0.436918
O O3 0.308355 0.891578 0.817840
O O4 0.500000 0.000000 0.500000
O O5 0.125826 0.828286 0.400710
O O6 0.397842 0.934732 0.024002
O O7 0.418151 0.885332 0.180423
O O8 0.026115 0.369351 0.468019
O O9 0.906719 0.282476 0.771723
O O10 0.153779 0.421986 0.496789
O O11 0.845590 0.489606 0.784764
O O12 0.110153 0.324716 0.183004
O O13 0.871703 0.659966 0.040267
O O14 0.111897 0.569994 0.675108
O O15 0.238104 0.118090 0.164390
O O16 0.418643 0.029401 0.831888
O O17 0.000000 0.000000 0.500000
#
# Coordination Sequence:
#
# PCOD9247088 Si02
#       8
#     4   4   4   4   4   4   4   4
#     4  12  27  47  69 100 151 205 240 304 377 452
#     4  10  24  44  73 106 145 191 239 309 371 437
#     4  10  24  46  75  98 143 194 244 307 358 452
#     4  10  25  48  68 105 144 192 248 300 374 452
#     4  11  24  44  75 108 134 189 248 303 368 446
#     4  10  23  47  74 109 149 185 243 317 377 437
#     4  10  21  43  74 103 144 184 234 309 377 431
#     4  11  24  47  66 105 144 183 252 296 362 458
#
# _framework density 25.217051999999999
#
# number of rings (size 3 to 8) (size 9 to 14) (size 15 to 20)
#    0.000    1.500    3.750    0.000    5.250    4.000 
#    6.750    0.000    0.000    0.000    0.000    0.000 
#    0.000    0.000    0.000    0.000    0.000    0.000 
#
# Total GULP energy -178898.670622 kJ/mol
# GULP energy per Si atom -5590.583457 kJ/mol
# Density = 2.515966 g / cm^3
# Si number density = 25.217052 Si / 1000 Ang^3
#
#
#
# Elastic Constant Matrix: (Units=GPa)
#
#
# Indices 1 2 3 4 5 6 
#
# 1 161.2928 70.8364 31.7356 0.0000 -18.8136 0.0000
# 2 70.8364 153.2268 20.2944 0.0000 -4.2265 0.0000
# 3 31.7356 20.2944 48.8753 0.0000 -3.5633 0.0000
# 4 0.0000 0.0000 0.0000 16.2601 0.0000 -0.5683
# 5 -18.8136 -4.2265 -3.5633 0.0000 31.6857 0.0000
# 6 0.0000 0.0000 0.0000 -0.5683 0.0000 45.5917
#
#
#
# Elastic Compliance Matrix: (Units=1/GPa)
#
#
# Indices 1 2 3 4 5 6 
#
# 1 0.009078 -0.003530 -0.004103 0.000000 0.004458 0.000000
# 2 -0.003530 0.008290 -0.001233 0.000000 -0.001129 0.000000
# 3 -0.004103 -0.001233 0.023641 0.000000 0.000058 0.000000
# 4 0.000000 0.000000 0.000000 0.061527 0.000000 0.000767
# 5 0.004458 -0.001129 0.000058 0.000000 0.034063 0.000000
# 6 0.000000 0.000000 0.000000 0.000767 0.000000 0.021943
#
#
# Mechanical properties :
#
#
# Convention : Reuss Voigt Hill
#
# Bulk Modulus (GPa) = 42.96189 67.68083 55.32136
# Shear Modulus (GPa) = 27.16908 34.74272 30.95590
#
# Velocity S-wave (km/s) = 3.28595 3.71583 3.50748
# Velocity P-wave (km/s) = 5.60985 6.73108 6.19588
#
# Compressibility (1/GPa) = 0.02327644
#
# Stress axis : x y z
#
# Youngs Moduli (GPa) = 110.16156 120.62233 42.29996
#
# Poissons Ratio (x) = 0.42581 0.17358
# Poissons Ratio (y) = 0.38888 0.05214
# Poissons Ratio (z) = 0.45204 0.14867
#
# Static dielectric constant tensor:
#      x y z
#    x 1.979710 0.000000 0.039810 
#    y 0.000000 2.102800 0.000000 
#    z 0.039810 0.000000 1.993870 
# 
# From -- ./inp_files/48993.got.cif
#   From: 2010.05.17/outbox.cif.g08.bks.cpg/sg14_25_cif.got.tgz:48993.got - 2010.06.03 17:49:19.
