data_PCOD9247183
_publ_section_title
;
Structure prediction by ZEFSAII (Michael W. Deem and Ramdas Pophale) SiO2 
 PCOD9247183
Probable space group: P 21/C
;
_chemical_formula_sum "Si O2"
_cell_formula_units_Z 20
_cell_length_a 19.548990
_cell_length_b 7.984453
_cell_length_c 5.585387
_cell_angle_alpha 90.000000
_cell_angle_beta 117.251278
_cell_angle_gamma 90.000000
_cell_volume 775.046766
_symmetry_space_group_name_H-M "P 21/C"
_symmetry_group_IT_number 14
_symmetry_cell_setting 'monoclinic'
loop_
_space_group_symop_operation_xyz
x,y,z
-x,1/2+y,1/2-z
-x,-y,-z
x,1/2-y,1/2+z
loop_
_atom_site_type_symbol
_atom_site_label
_atom_site_fract_x
_atom_site_fract_y
_atom_site_fract_z
Si Si1 0.779254 0.169521 0.383864
Si Si2 0.645086 0.558040 0.796491
Si Si3 0.586495 0.948273 0.703726
Si Si4 0.913353 0.996976 0.779800
Si Si5 0.821288 0.787795 0.932634
O O1 0.759411 0.283618 0.581378
O O2 0.731284 0.001401 0.370614
O O3 0.871302 0.138190 0.558440
O O4 0.612717 0.750501 0.758665
O O5 0.600489 0.484438 0.494325
O O6 0.632292 0.488543 0.043447
O O7 0.500000 0.000000 0.500000
O O8 0.856787 0.966224 0.917930
O O9 0.895464 0.830329 0.596373
O O10 0.000000 0.000000 0.000000
O O11 0.781871 0.718102 0.627315
#
# Coordination Sequence:
#
# PCOD9247183 Si02
#       5
#     4   4   4   4   4
#     4  12  29  46  68 100 150 203 238 297 377 444
#     4  10  23  46  66 108 149 185 236 293 355 440
#     4  10  21  44  79 108 137 183 235 298 355 424
#     4  10  24  42  71  96 137 177 254 309 364 431
#     4   8  20  38  60  94 116 162 220 300 360 404
#
# _framework density 25.804893
#
# number of rings (size 3 to 8) (size 9 to 14) (size 15 to 20)
#    1.200    0.800    0.000    1.800    5.600    4.000 
#   21.600    0.000    0.000    0.000    0.000    0.000 
#    0.000    0.000    0.000    0.000    0.000    0.000 
#
# Total GULP energy -111341.918238 kJ/mol
# GULP energy per Si atom -5567.095912 kJ/mol
# Density = 2.574616 g / cm^3
# Si number density = 25.804893 Si / 1000 Ang^3
#
#
#
# Elastic Constant Matrix: (Units=GPa)
#
#
# Indices 1 2 3 4 5 6 
#
# 1 87.6287 25.1362 58.3003 0.0000 -11.4102 0.0000
# 2 25.1362 60.2272 33.3850 0.0000 0.0815 0.0000
# 3 58.3003 33.3850 194.7133 0.0000 -26.1388 0.0000
# 4 0.0000 0.0000 0.0000 35.8932 0.0000 5.5462
# 5 -11.4102 0.0815 -26.1388 0.0000 77.8087 0.0000
# 6 0.0000 0.0000 0.0000 5.5462 0.0000 24.6695
#
#
#
# Elastic Compliance Matrix: (Units=1/GPa)
#
#
# Indices 1 2 3 4 5 6 
#
# 1 0.015233 -0.004315 -0.003687 0.000000 0.001000 0.000000
# 2 -0.004315 0.019665 -0.002270 0.000000 -0.001416 0.000000
# 3 -0.003687 -0.002270 0.006866 0.000000 0.001768 0.000000
# 4 0.000000 0.000000 0.000000 0.028863 0.000000 -0.006489
# 5 0.001000 -0.001416 0.001768 0.000000 0.013594 0.000000
# 6 0.000000 0.000000 0.000000 -0.006489 0.000000 0.041995
#
#
# Mechanical properties :
#
#
# Convention : Reuss Voigt Hill
#
# Bulk Modulus (GPa) = 47.12469 64.02356 55.57413
# Shear Modulus (GPa) = 32.50291 42.72414 37.61353
#
# Velocity S-wave (km/s) = 3.55288 4.07340 3.82201
# Velocity P-wave (km/s) = 5.92724 6.85477 6.40781
#
# Compressibility (1/GPa) = 0.02122030
#
# Stress axis : x y z
#
# Youngs Moduli (GPa) = 65.64849 50.85233 145.64102
#
# Poissons Ratio (x) = 0.21943 0.53695
# Poissons Ratio (y) = 0.28328 0.33056
# Poissons Ratio (z) = 0.24203 0.11542
#
# Static dielectric constant tensor:
#      x y z
#    x 2.019830 0.000000 -0.037130 
#    y 0.000000 2.320680 0.000000 
#    z -0.037130 0.000000 2.057460 
# 
# From -- ./inp_files/4328.got.cif
#   From: 2010.05.17/outbox.cif.g08.bks.cpg/sg14_3_cif.got.tgz:4328.got - 2010.06.03 17:49:19.
