data_PCOD9247279
_publ_section_title
;
Structure prediction by ZEFSAII (Michael W. Deem and Ramdas Pophale) SiO2 
 PCOD9247279
Probable space group: P 21/C
;
_chemical_formula_sum "Si O2"
_cell_formula_units_Z 32
_cell_length_a 10.960871
_cell_length_b 9.104260
_cell_length_c 17.484188
_cell_angle_alpha 90.000000
_cell_angle_beta 48.178970
_cell_angle_gamma 90.000000
_cell_volume 1300.248242
_symmetry_space_group_name_H-M "P 21/C"
_symmetry_group_IT_number 14
_symmetry_cell_setting 'monoclinic'
loop_
_space_group_symop_operation_xyz
x,y,z
-x,1/2+y,1/2-z
-x,-y,-z
x,1/2-y,1/2+z
loop_
_atom_site_type_symbol
_atom_site_label
_atom_site_fract_x
_atom_site_fract_y
_atom_site_fract_z
Si Si1 0.991843 0.486957 0.778878
Si Si2 0.479585 0.228336 0.421027
Si Si3 0.842522 0.705054 0.743544
Si Si4 0.795766 0.009809 0.125404
Si Si5 0.489467 0.745192 0.926048
Si Si6 0.201494 0.827163 0.301618
Si Si7 0.233704 0.492878 0.533647
Si Si8 0.577807 0.012816 0.676134
O O1 0.009760 0.320010 0.802058
O O2 0.055079 0.596274 0.817960
O O3 0.109107 0.492829 0.655527
O O4 0.836379 0.568785 0.806695
O O5 0.512185 0.165536 0.491409
O O6 0.649951 0.292794 0.318520
O O7 0.345217 0.350744 0.491379
O O8 0.409562 0.127742 0.382950
O O9 0.841129 0.625789 0.662098
O O10 0.674214 0.793614 0.826994
O O11 0.836830 0.169560 0.144074
O O12 0.848904 0.997323 0.015484
O O13 0.594663 0.003612 0.207396
O O14 0.359918 0.873964 0.987124
O O15 0.439944 0.644090 0.876562
O O16 0.274421 0.943742 0.331254
#
# Coordination Sequence:
#
# PCOD9247279 Si02
#       8
#     4   4   4   4   4   4   4   4
#     4  12  26  45  69  93 135 183 226 267 333 405
#     4  11  21  35  62 100 133 165 214 279 336 387
#     4  11  26  45  67  94 136 182 224 270 333 404
#     4  10  23  40  67  97 136 172 222 272 336 396
#     4  11  21  43  66 101 130 170 218 284 330 396
#     4  11  21  39  65  99 135 170 221 270 336 398
#     4  12  22  40  70 101 129 172 227 279 331 397
#     4  10  22  34  62 101 137 165 208 283 346 380
#
# _framework density 24.610686000000001
#
# number of rings (size 3 to 8) (size 9 to 14) (size 15 to 20)
#    0.000    1.000    5.000    2.250    1.750    0.500 
#    2.250    0.000    0.000    2.250    0.000    0.000 
#    0.000    0.000    0.000    0.000    0.000    0.000 
#
# Total GULP energy -179251.626103 kJ/mol
# GULP energy per Si atom -5601.613316 kJ/mol
# Density = 2.455467 g / cm^3
# Si number density = 24.610686 Si / 1000 Ang^3
#
#
#
# Elastic Constant Matrix: (Units=GPa)
#
#
# Indices 1 2 3 4 5 6 
#
# 1 81.0625 19.1884 27.9964 0.0000 29.4844 0.0000
# 2 19.1884 95.7071 17.6288 0.0000 5.5396 0.0000
# 3 27.9964 17.6288 91.0609 0.0000 20.7000 0.0000
# 4 0.0000 0.0000 0.0000 23.9720 0.0000 6.4713
# 5 29.4844 5.5396 20.7000 0.0000 43.3341 0.0000
# 6 0.0000 0.0000 0.0000 6.4713 0.0000 48.1588
#
#
#
# Elastic Compliance Matrix: (Units=1/GPa)
#
#
# Indices 1 2 3 4 5 6 
#
# 1 0.017597 -0.002452 -0.002563 0.000000 -0.010435 0.000000
# 2 -0.002452 0.011184 -0.001644 0.000000 0.001024 0.000000
# 3 -0.002563 -0.001644 0.013062 0.000000 -0.004285 0.000000
# 4 0.000000 0.000000 0.000000 0.043286 0.000000 -0.005817
# 5 -0.010435 0.001024 -0.004285 0.000000 0.032093 0.000000
# 6 0.000000 0.000000 0.000000 -0.005817 0.000000 0.021546
#
#
# Mechanical properties :
#
#
# Convention : Reuss Voigt Hill
#
# Bulk Modulus (GPa) = 35.05758 44.16197 39.60978
# Shear Modulus (GPa) = 30.94156 36.62743 33.78449
#
# Velocity S-wave (km/s) = 3.54961 3.86200 3.70909
# Velocity P-wave (km/s) = 5.57453 6.15385 5.87134
#
# Compressibility (1/GPa) = 0.02852450
#
# Stress axis : x y z
#
# Youngs Moduli (GPa) = 56.82636 89.41590 76.55687
#
# Poissons Ratio (x) = 0.21924 0.19625
# Poissons Ratio (y) = 0.13934 0.12586
# Poissons Ratio (z) = 0.14567 0.14700
#
# Static dielectric constant tensor:
#      x y z
#    x 2.039020 0.000000 -0.017230 
#    y 0.000000 1.481480 0.000000 
#    z -0.017230 0.000000 1.905810 
# 
# From -- ./inp_files/57280.got.cif
#   From: 2010.05.17/outbox.cif.g08.bks.cpg/sg14_29_cif.got.tgz:57280.got - 2010.06.03 17:49:19.
