data_PCOD9247537
_publ_section_title
;
Structure prediction by ZEFSAII (Michael W. Deem and Ramdas Pophale) SiO2 
 PCOD9247537
Probable space group: P 21/C
;
_chemical_formula_sum "Si O2"
_cell_formula_units_Z 28
_cell_length_a 12.336343
_cell_length_b 12.574464
_cell_length_c 7.579504
_cell_angle_alpha 90.000000
_cell_angle_beta 114.156500
_cell_angle_gamma 90.000000
_cell_volume 1072.795077
_symmetry_space_group_name_H-M "P 21/C"
_symmetry_group_IT_number 14
_symmetry_cell_setting 'monoclinic'
loop_
_space_group_symop_operation_xyz
x,y,z
-x,1/2+y,1/2-z
-x,-y,-z
x,1/2-y,1/2+z
loop_
_atom_site_type_symbol
_atom_site_label
_atom_site_fract_x
_atom_site_fract_y
_atom_site_fract_z
Si Si1 0.125401 0.344226 0.500672
Si Si2 0.919186 0.119553 0.579264
Si Si3 0.299311 0.688134 0.214008
Si Si4 0.528625 0.171682 0.459997
Si Si5 0.446588 0.104241 0.747571
Si Si6 0.893297 0.882246 0.607105
Si Si7 0.311795 0.998531 0.959938
O O1 0.084715 0.360083 0.673237
O O2 0.174975 0.224343 0.503132
O O3 0.223065 0.432294 0.516173
O O4 0.012793 0.359058 0.296272
O O5 0.816091 0.204606 0.480267
O O6 0.994377 0.117168 0.449225
O O7 0.855538 0.005624 0.569117
O O8 0.366382 0.789067 0.337731
O O9 0.263550 0.611212 0.349492
O O10 0.398975 0.628776 0.159215
O O11 0.438531 0.110930 0.529257
O O12 0.469439 0.277214 0.340733
O O13 0.343351 0.064860 0.805966
O O14 0.564996 0.034371 0.866123
#
# Coordination Sequence:
#
# PCOD9247537 Si02
#       7
#     4   4   4   4   4   4   4
#     4  12  25  44  67  98 133 174 222 268 326 394
#     4  11  25  46  64  95 138 174 219 272 319 397
#     4  10  22  38  66  92 126 168 215 267 325 394
#     4   9  20  39  62  95 119 165 223 263 323 391
#     4   9  20  41  62  90 127 164 212 272 327 385
#     4  11  25  43  64  93 135 175 220 265 328 386
#     4  10  22  40  63  92 130 167 210 272 332 387
#
# _framework density 26.100045000000001
#
# number of rings (size 3 to 8) (size 9 to 14) (size 15 to 20)
#    0.000    1.714    1.429    2.143    4.000    1.714 
#    5.143    0.000    0.000    0.000    0.000    0.000 
#    0.000    0.000    0.000    0.000    0.000    0.000 
#
# Total GULP energy -156662.141105 kJ/mol
# GULP energy per Si atom -5595.076468 kJ/mol
# Density = 2.604064 g / cm^3
# Si number density = 26.100045 Si / 1000 Ang^3
#
#
#
# Elastic Constant Matrix: (Units=GPa)
#
#
# Indices 1 2 3 4 5 6 
#
# 1 40.0488 29.0390 52.9699 0.0000 -15.9741 0.0000
# 2 29.0390 103.4336 36.7173 0.0000 -17.9998 0.0000
# 3 52.9699 36.7173 139.6586 0.0000 -29.5236 0.0000
# 4 0.0000 0.0000 0.0000 43.0408 0.0000 -20.3477
# 5 -15.9741 -17.9998 -29.5236 0.0000 51.2080 0.0000
# 6 0.0000 0.0000 0.0000 -20.3477 0.0000 43.9616
#
#
#
# Elastic Compliance Matrix: (Units=1/GPa)
#
#
# Indices 1 2 3 4 5 6 
#
# 1 0.057804 -0.008865 -0.018722 0.000000 0.004122 0.000000
# 2 -0.008865 0.012295 0.000523 0.000000 0.001858 0.000000
# 3 -0.018722 0.000523 0.014722 0.000000 0.002832 0.000000
# 4 0.000000 0.000000 0.000000 0.029742 0.000000 0.013766
# 5 0.004122 0.001858 0.002832 0.000000 0.023099 0.000000
# 6 0.000000 0.000000 0.000000 0.013766 0.000000 0.029119
#
#
# Mechanical properties :
#
#
# Convention : Reuss Voigt Hill
#
# Bulk Modulus (GPa) = 32.58171 57.84371 45.21271
# Shear Modulus (GPa) = 21.63189 38.60306 30.11748
#
# Velocity S-wave (km/s) = 2.88202 3.85000 3.40063
# Velocity P-wave (km/s) = 4.85646 6.47872 5.72534
#
# Compressibility (1/GPa) = 0.03069206
#
# Stress axis : x y z
#
# Youngs Moduli (GPa) = 17.29988 81.33629 67.92388
#
# Poissons Ratio (x) = 0.72106 1.27167
# Poissons Ratio (y) = 0.15337 -0.03551
# Poissons Ratio (z) = 0.32389 -0.04252
#
# Static dielectric constant tensor:
#      x y z
#    x 2.039430 0.000000 0.039470 
#    y 0.000000 2.113330 0.000000 
#    z 0.039470 0.000000 2.048690 
# 
# From -- ./inp_files/12893.got.cif
#   From: 2010.05.17/outbox.cif.g08.bks.cpg/sg14_7_cif.got.tgz:12893.got - 2010.06.03 17:49:19.
