data_PCOD9247652
_publ_section_title
;
Structure prediction by ZEFSAII (Michael W. Deem and Ramdas Pophale) SiO2 
 PCOD9247652
Probable space group: P 21/C
;
_chemical_formula_sum "Si O2"
_cell_formula_units_Z 28
_cell_length_a 9.338493
_cell_length_b 28.015845
_cell_length_c 9.687198
_cell_angle_alpha 90.000000
_cell_angle_beta 31.134091
_cell_angle_gamma 90.000000
_cell_volume 1310.403742
_symmetry_space_group_name_H-M "P 21/C"
_symmetry_group_IT_number 14
_symmetry_cell_setting 'monoclinic'
loop_
_space_group_symop_operation_xyz
x,y,z
-x,1/2+y,1/2-z
-x,-y,-z
x,1/2-y,1/2+z
loop_
_atom_site_type_symbol
_atom_site_label
_atom_site_fract_x
_atom_site_fract_y
_atom_site_fract_z
Si Si1 0.330167 0.340214 0.647587
Si Si2 0.019645 0.747437 0.142645
Si Si3 0.237828 0.533819 0.242838
Si Si4 0.232602 0.696034 0.208281
Si Si5 0.043443 0.655773 0.782665
Si Si6 0.383209 0.387379 0.048480
Si Si7 0.158273 0.393096 0.527664
O O1 0.626529 0.343126 0.475928
O O2 0.241937 0.287455 0.665525
O O3 0.318504 0.378006 0.532336
O O4 0.092422 0.350498 0.955648
O O5 0.247936 0.718339 0.043367
O O6 0.961974 0.793016 0.285526
O O7 0.137690 0.766341 0.900954
O O8 0.612766 0.422901 0.796128
O O9 0.066271 0.564677 0.270194
O O10 0.000000 0.500000 0.500000
O O11 0.500000 0.500000 0.000000
O O12 0.999984 0.655270 0.385521
O O13 0.493125 0.665669 0.041343
O O14 0.899034 0.616726 0.803392
O O15 0.334849 0.404484 0.245599
#
# Coordination Sequence:
#
# PCOD9247652 Si02
#       7
#     4   4   4   4   4   4   4
#     4  11  28  42  63  95 137 189 227 276 335 390
#     4  11  22  41  60  93 132 186 242 277 320 384
#     4  11  23  42  77 111 131 164 221 285 352 421
#     4  10  22  39  63  93 136 180 232 280 330 384
#     4  12  26  42  64  93 136 186 224 279 333 392
#     4  11  24  43  71 101 138 172 229 287 344 400
#     4  10  23  43  68 102 134 176 222 289 331 408
#
# _framework density 21.367460000000001
#
# number of rings (size 3 to 8) (size 9 to 14) (size 15 to 20)
#    0.000    1.143    4.286    0.857   10.000    1.143 
#    2.571    0.000    0.000    5.143    0.000    0.000 
#    0.000    0.000    0.000    0.000    0.000    0.000 
#
# Total GULP energy -156282.278248 kJ/mol
# GULP energy per Si atom -5581.509937 kJ/mol
# Density = 2.131883 g / cm^3
# Si number density = 21.367460 Si / 1000 Ang^3
#
#
#
# Elastic Constant Matrix: (Units=GPa)
#
#
# Indices 1 2 3 4 5 6 
#
# 1 100.2012 38.8400 20.5774 0.0000 -16.4583 0.0000
# 2 38.8400 72.7386 18.2169 0.0000 -16.1120 0.0000
# 3 20.5774 18.2169 70.6105 0.0000 -8.9338 0.0000
# 4 0.0000 0.0000 0.0000 31.7245 0.0000 -9.7459
# 5 -16.4583 -16.1120 -8.9338 0.0000 39.8003 0.0000
# 6 0.0000 0.0000 0.0000 -9.7459 0.0000 10.6373
#
#
#
# Elastic Compliance Matrix: (Units=1/GPa)
#
#
# Indices 1 2 3 4 5 6 
#
# 1 0.013107 -0.005937 -0.001962 0.000000 0.002576 0.000000
# 2 -0.005937 0.018535 -0.002483 0.000000 0.004491 0.000000
# 3 -0.001962 -0.002483 0.015588 0.000000 0.001682 0.000000
# 4 0.000000 0.000000 0.000000 0.043868 0.000000 0.040192
# 5 0.002576 0.004491 0.001682 0.000000 0.028386 0.000000
# 6 0.000000 0.000000 0.000000 0.040192 0.000000 0.130832
#
#
# Mechanical properties :
#
#
# Convention : Reuss Voigt Hill
#
# Bulk Modulus (GPa) = 37.78627 44.31321 41.04974
# Shear Modulus (GPa) = 17.86336 27.49349 22.67843
#
# Velocity S-wave (km/s) = 2.89452 3.59095 3.26138
# Velocity P-wave (km/s) = 5.37526 6.16254 5.78231
#
# Compressibility (1/GPa) = 0.02646464
#
# Stress axis : x y z
#
# Youngs Moduli (GPa) = 76.29364 53.95322 64.15379
#
# Poissons Ratio (x) = 0.32031 0.12588
# Poissons Ratio (y) = 0.45294 0.15933
# Poissons Ratio (z) = 0.14970 0.13399
#
# Static dielectric constant tensor:
#      x y z
#    x 1.800960 0.000000 -0.007330 
#    y 0.000000 1.831030 0.000000 
#    z -0.007330 0.000000 1.838270 
# 
# From -- ./inp_files/11160.got.cif
#   From: 2010.05.17/outbox.cif.g08.bks.cpg/sg14_6_cif.got.tgz:11160.got - 2010.06.03 17:49:19.
