data_PCOD9247853
_publ_section_title
;
Structure prediction by ZEFSAII (Michael W. Deem and Ramdas Pophale) SiO2 
 PCOD9247853
Probable space group: P 21/C
;
_chemical_formula_sum "Si O2"
_cell_formula_units_Z 28
_cell_length_a 19.808544
_cell_length_b 5.241241
_cell_length_c 15.026210
_cell_angle_alpha 90.000000
_cell_angle_beta 129.001275
_cell_angle_gamma 90.000000
_cell_volume 1212.358067
_symmetry_space_group_name_H-M "P 21/C"
_symmetry_group_IT_number 14
_symmetry_cell_setting 'monoclinic'
loop_
_space_group_symop_operation_xyz
x,y,z
-x,1/2+y,1/2-z
-x,-y,-z
x,1/2-y,1/2+z
loop_
_atom_site_type_symbol
_atom_site_label
_atom_site_fract_x
_atom_site_fract_y
_atom_site_fract_z
Si Si1 0.305804 0.020671 0.878263
Si Si2 0.921835 0.735117 0.402274
Si Si3 0.257241 0.523341 0.734142
Si Si4 0.485132 0.074437 0.118256
Si Si5 0.864652 0.039019 0.184587
Si Si6 0.020457 0.344282 0.371512
Si Si7 0.583957 0.576715 0.237613
O O1 0.281009 0.806354 0.785362
O O2 0.238977 0.943459 0.902974
O O3 0.288564 0.310982 0.832297
O O4 0.405807 0.009371 0.988298
O O5 0.844585 0.531472 0.359389
O O6 0.951569 0.837856 0.523166
O O7 0.996615 0.594701 0.408182
O O8 0.880586 0.922864 0.296119
O O9 0.314630 0.465413 0.695393
O O10 0.530428 0.348825 0.145482
O O11 0.442749 0.072627 0.181801
O O12 0.554982 0.848680 0.175440
O O13 0.931744 0.275515 0.245434
O O14 0.903948 0.874616 0.137174
#
# Coordination Sequence:
#
# PCOD9247853 Si02
#       7
#     4   4   4   4   4   4   4
#     4  11  24  39  64  91 129 156 212 260 313 370
#     4  10  23  39  61  90 126 163 216 257 315 382
#     4  11  23  41  61  95 125 162 204 267 305 377
#     4  10  22  41  62  92 121 168 202 258 307 386
#     4  11  22  40  62  93 125 166 213 269 311 391
#     4  11  21  40  64  86 124 171 208 260 325 370
#     4  10  22  40  64  87 129 159 211 249 315 381
#
# _framework density 23.095489000000001
#
# number of rings (size 3 to 8) (size 9 to 14) (size 15 to 20)
#    0.000    1.429    2.857    2.143    2.000    3.429 
#    0.000    0.000    6.286    0.000    0.000    0.000 
#    0.000    0.000    0.000    0.000    0.000    0.000 
#
# Total GULP energy -156363.933457 kJ/mol
# GULP energy per Si atom -5584.426195 kJ/mol
# Density = 2.304292 g / cm^3
# Si number density = 23.095489 Si / 1000 Ang^3
#
#
#
# Elastic Constant Matrix: (Units=GPa)
#
#
# Indices 1 2 3 4 5 6 
#
# 1 112.7109 -1.4558 1.8084 0.0000 -13.3800 0.0000
# 2 -1.4558 78.0430 6.4979 0.0000 -6.9663 0.0000
# 3 1.8084 6.4979 64.1631 0.0000 -4.9689 0.0000
# 4 0.0000 0.0000 0.0000 24.5006 0.0000 3.7714
# 5 -13.3800 -6.9663 -4.9689 0.0000 29.5676 0.0000
# 6 0.0000 0.0000 0.0000 3.7714 0.0000 31.2146
#
#
#
# Elastic Compliance Matrix: (Units=1/GPa)
#
#
# Indices 1 2 3 4 5 6 
#
# 1 0.009400 0.000566 0.000018 0.000000 0.004390 0.000000
# 2 0.000566 0.013200 -0.001106 0.000000 0.003180 0.000000
# 3 0.000018 -0.001106 0.015884 0.000000 0.002417 0.000000
# 4 0.000000 0.000000 0.000000 0.041589 0.000000 -0.005025
# 5 0.004390 0.003180 0.002417 0.000000 0.036963 0.000000
# 6 0.000000 0.000000 0.000000 -0.005025 0.000000 0.032643
#
#
# Mechanical properties :
#
#
# Convention : Reuss Voigt Hill
#
# Bulk Modulus (GPa) = 26.71046 29.84643 28.27845
# Shear Modulus (GPa) = 30.63635 33.59432 32.11534
#
# Velocity S-wave (km/s) = 3.64608 3.81804 3.73305
# Velocity P-wave (km/s) = 5.41438 5.69102 5.55442
#
# Compressibility (1/GPa) = 0.03743852
#
# Stress axis : x y z
#
# Youngs Moduli (GPa) = 106.37793 75.75762 62.95646
#
# Poissons Ratio (x) = -0.04286 -0.00112
# Poissons Ratio (y) = -0.06018 0.06966
# Poissons Ratio (z) = -0.00189 0.08382
#
# Static dielectric constant tensor:
#      x y z
#    x 1.913830 0.000000 0.008400 
#    y 0.000000 1.917700 0.000000 
#    z 0.008400 0.000000 1.909120 
# 
# From -- ./inp_files/48217.got.cif
#   From: 2010.05.17/outbox.cif.g08.bks.cpg/sg14_25_cif.got.tgz:48217.got - 2010.06.03 17:49:19.
