data_PCOD9247431
_publ_section_title
;
Structure prediction by ZEFSAII (Michael W. Deem and Ramdas Pophale) SiO2 
 PCOD9247431
Probable space group: P 21/C
;
_chemical_formula_sum "Si O2"
_cell_formula_units_Z 20
_cell_length_a 8.080703
_cell_length_b 18.381750
_cell_length_c 5.194843
_cell_angle_alpha 90.000000
_cell_angle_beta 80.363824
_cell_angle_gamma 90.000000
_cell_volume 760.741534
_symmetry_space_group_name_H-M "P 21/C"
_symmetry_group_IT_number 14
_symmetry_cell_setting 'monoclinic'
loop_
_space_group_symop_operation_xyz
x,y,z
-x,1/2+y,1/2-z
-x,-y,-z
x,1/2-y,1/2+z
loop_
_atom_site_type_symbol
_atom_site_label
_atom_site_fract_x
_atom_site_fract_y
_atom_site_fract_z
Si Si1 0.871458 0.708145 0.683956
Si Si2 0.482469 0.949623 0.760690
Si Si3 0.189080 0.583962 0.036779
Si Si4 0.821226 0.912614 0.550192
Si Si5 0.724818 0.291050 0.352835
O O1 0.809137 0.757099 0.938643
O O2 0.824162 0.625352 0.769227
O O3 0.073808 0.713570 0.647293
O O4 0.299296 0.916069 0.765211
O O5 0.641192 0.896192 0.718570
O O6 0.500000 0.000000 0.500000
O O7 0.500000 0.000000 0.000000
O O8 0.284652 0.632400 0.799632
O O9 0.998469 0.611977 0.127103
O O10 0.172240 0.500210 0.955256
O O11 0.659295 0.235725 0.146831
#
# Coordination Sequence:
#
# PCOD9247431 Si02
#       5
#     4   4   4   4   4
#     4   9  18  33  53  79 112 147 185 234 288 338
#     4  10  22  38  56  84 118 146 183 238 287 330
#     4   9  19  37  61  86 114 153 197 238 286 346
#     4   9  19  37  61  86 114 153 197 238 286 346
#     4   9  18  33  53  79 112 147 185 234 288 338
#
# _framework density 26.290141999999999
#
# number of rings (size 3 to 8) (size 9 to 14) (size 15 to 20)
#    0.000    2.800    0.000    0.000    0.000    7.200 
#    0.000   14.000    0.000    0.000    0.000    0.000 
#    0.000    0.000    0.000    0.000    0.000    0.000 
#
# Total GULP energy -111706.351312 kJ/mol
# GULP energy per Si atom -5585.317566 kJ/mol
# Density = 2.623030 g / cm^3
# Si number density = 26.290142 Si / 1000 Ang^3
#
#
#
# Elastic Constant Matrix: (Units=GPa)
#
#
# Indices 1 2 3 4 5 6 
#
# 1 142.7847 -19.9110 14.1195 0.0000 20.0416 0.0000
# 2 -19.9110 133.2753 11.2907 0.0000 10.4610 0.0000
# 3 14.1195 11.2907 125.8857 0.0000 21.2243 0.0000
# 4 0.0000 0.0000 0.0000 50.2011 0.0000 0.2732
# 5 20.0416 10.4610 21.2243 0.0000 23.3006 0.0000
# 6 0.0000 0.0000 0.0000 0.2732 0.0000 19.0768
#
#
#
# Elastic Compliance Matrix: (Units=1/GPa)
#
#
# Indices 1 2 3 4 5 6 
#
# 1 0.008409 0.001887 0.000295 0.000000 -0.008349 0.000000
# 2 0.001887 0.008202 -0.000062 0.000000 -0.005248 0.000000
# 3 0.000295 -0.000062 0.009398 0.000000 -0.008786 0.000000
# 4 0.000000 0.000000 0.000000 0.019921 0.000000 -0.000285
# 5 -0.008349 -0.005248 -0.008786 0.000000 0.060458 0.000000
# 6 0.000000 0.000000 0.000000 -0.000285 0.000000 0.052424
#
#
# Mechanical properties :
#
#
# Convention : Reuss Voigt Hill
#
# Bulk Modulus (GPa) = 33.05977 45.88267 39.47122
# Shear Modulus (GPa) = 30.36631 44.94549 37.65590
#
# Velocity S-wave (km/s) = 3.40228 4.13921 3.78871
# Velocity P-wave (km/s) = 5.29493 6.35094 5.84682
#
# Compressibility (1/GPa) = 0.03024824
#
# Stress axis : x y z
#
# Youngs Moduli (GPa) = 118.91543 121.91596 106.41102
#
# Poissons Ratio (x) = -0.23001 -0.03142
# Poissons Ratio (y) = -0.22435 0.00664
# Poissons Ratio (z) = -0.03511 0.00761
#
# Static dielectric constant tensor:
#      x y z
#    x 2.168990 0.000000 -0.063880 
#    y 0.000000 2.181790 0.000000 
#    z -0.063880 0.000000 2.120080 
# 
# From -- ./inp_files/1148.got.cif
#   From: 2010.05.17/outbox.cif.g08.bks.cpg/sg14_1_cif.got.tgz:1148.got - 2010.06.03 17:49:19.
