data_PCOD9247593
_publ_section_title
;
Structure prediction by ZEFSAII (Michael W. Deem and Ramdas Pophale) SiO2 
 PCOD9247593
Probable space group: P 21/C
;
_chemical_formula_sum "Si O2"
_cell_formula_units_Z 32
_cell_length_a 12.782289
_cell_length_b 11.423930
_cell_length_c 15.893495
_cell_angle_alpha 90.000000
_cell_angle_beta 38.748097
_cell_angle_gamma 90.000000
_cell_volume 1452.602677
_symmetry_space_group_name_H-M "P 21/C"
_symmetry_group_IT_number 14
_symmetry_cell_setting 'monoclinic'
loop_
_space_group_symop_operation_xyz
x,y,z
-x,1/2+y,1/2-z
-x,-y,-z
x,1/2-y,1/2+z
loop_
_atom_site_type_symbol
_atom_site_label
_atom_site_fract_x
_atom_site_fract_y
_atom_site_fract_z
Si Si1 0.650778 0.668908 0.466946
Si Si2 0.184864 0.419277 0.145398
Si Si3 0.571221 0.160529 0.046372
Si Si4 0.108569 0.675479 0.775152
Si Si5 0.427860 0.579938 0.899936
Si Si6 0.310906 0.566642 0.352883
Si Si7 0.054019 0.071487 0.108845
Si Si8 0.326384 0.670812 0.789200
O O1 0.716149 0.799153 0.404969
O O2 0.562820 0.619152 0.438519
O O3 0.809538 0.597682 0.402445
O O4 0.507600 0.678649 0.629056
O O5 0.053745 0.393594 0.152803
O O6 0.070397 0.466231 0.291658
O O7 0.307426 0.523134 0.043230
O O8 0.518556 0.290622 0.107777
O O9 0.594192 0.084985 0.116362
O O10 0.750308 0.174392 0.886748
O O11 0.197349 0.624991 0.801523
O O12 0.047363 0.807815 0.833154
O O13 0.575188 0.490142 0.789563
O O14 0.338342 0.596376 0.865992
O O15 0.163556 0.475273 0.463160
O O16 0.270421 0.698500 0.351404
#
# Coordination Sequence:
#
# PCOD9247593 Si02
#       8
#     4   4   4   4   4   4   4   4
#     4  10  22  39  62  89 116 155 203 240 284 356
#     4  11  22  39  61  88 120 155 192 243 298 345
#     4  10  22  39  62  89 116 155 203 240 284 356
#     4  10  22  39  60  89 120 153 199 246 288 346
#     4  11  22  39  61  88 120 155 192 243 298 345
#     4  11  22  39  61  88 120 155 192 243 298 345
#     4  11  22  39  61  88 120 155 192 243 298 345
#     4  10  22  39  60  89 120 153 199 246 288 346
#
# _framework density 22.029423000000001
#
# number of rings (size 3 to 8) (size 9 to 14) (size 15 to 20)
#    0.000    1.500    5.000    0.000    0.000    4.000 
#    0.000    2.500    0.000    0.000    0.000    0.000 
#    0.000    0.000    0.000    0.000    0.000    0.000 
#
# Total GULP energy -178898.340674 kJ/mol
# GULP energy per Si atom -5590.573146 kJ/mol
# Density = 2.197928 g / cm^3
# Si number density = 22.029423 Si / 1000 Ang^3
#
#
#
# Elastic Constant Matrix: (Units=GPa)
#
#
# Indices 1 2 3 4 5 6 
#
# 1 88.7774 -12.9275 13.3774 0.0000 -5.5634 0.0000
# 2 -12.9275 66.5428 -7.7258 0.0000 -8.4210 0.0000
# 3 13.3774 -7.7258 53.0523 0.0000 -8.2689 0.0000
# 4 0.0000 0.0000 0.0000 26.8314 0.0000 1.6626
# 5 -5.5634 -8.4210 -8.2689 0.0000 21.9120 0.0000
# 6 0.0000 0.0000 0.0000 1.6626 0.0000 -14.6865
#
#
#
# Elastic Compliance Matrix: (Units=1/GPa)
#
#
# Indices 1 2 3 4 5 6 
#
# 1 0.012164 0.002516 -0.002198 0.000000 0.003226 0.000000
# 2 0.002516 0.016934 0.003130 0.000000 0.008328 0.000000
# 3 -0.002198 0.003130 0.021207 0.000000 0.008648 0.000000
# 4 0.000000 0.000000 0.000000 0.037010 0.000000 0.004190
# 5 0.003226 0.008328 0.008648 0.000000 0.052920 0.000000
# 6 0.000000 0.000000 0.000000 0.004190 0.000000 -0.067615
#
#
# Mechanical properties :
#
#
# Convention : Reuss Voigt Hill
#
# Bulk Modulus (GPa) = 17.48236 21.53563 19.50899
# Shear Modulus (GPa) = 58.96858 21.18794 40.07826
#
# Velocity S-wave (km/s) = 5.17940 3.10466 4.26996
# Velocity P-wave (km/s) = 6.61222 4.75909 5.76066
#
# Compressibility (1/GPa) = 0.05720053
#
# Stress axis : x y z
#
# Youngs Moduli (GPa) = 82.21056 59.05286 47.15396
#
# Poissons Ratio (x) = -0.14859 0.10364
# Poissons Ratio (y) = -0.20686 -0.14757
# Poissons Ratio (z) = 0.18070 -0.18481
#
# Static dielectric constant tensor:
#      x y z
#    x 1.838690 0.000000 -0.013350 
#    y 0.000000 1.778730 0.000000 
#    z -0.013350 0.000000 1.752820 
# 
# From -- ./inp_files/16243.got.cif
#   From: 2010.05.17/outbox.cif.g08.bks.cpg/sg14_9_cif.got.tgz:16243.got - 2010.06.03 17:49:19.
