data_PCOD9247580
_publ_section_title
;
Structure prediction by ZEFSAII (Michael W. Deem and Ramdas Pophale) SiO2 
 PCOD9247580
Probable space group: P 21/C
;
_chemical_formula_sum "Si O2"
_cell_formula_units_Z 20
_cell_length_a 10.483467
_cell_length_b 7.845096
_cell_length_c 13.619772
_cell_angle_alpha 90.000000
_cell_angle_beta 138.663112
_cell_angle_gamma 90.000000
_cell_volume 739.837138
_symmetry_space_group_name_H-M "P 21/C"
_symmetry_group_IT_number 14
_symmetry_cell_setting 'monoclinic'
loop_
_space_group_symop_operation_xyz
x,y,z
-x,1/2+y,1/2-z
-x,-y,-z
x,1/2-y,1/2+z
loop_
_atom_site_type_symbol
_atom_site_label
_atom_site_fract_x
_atom_site_fract_y
_atom_site_fract_z
Si Si1 0.728971 0.770987 0.988967
Si Si2 0.175285 0.742791 0.690647
Si Si3 0.238364 0.756646 0.436470
Si Si4 0.849973 0.915536 0.733997
Si Si5 0.440002 0.561626 0.202424
O O1 0.606424 0.622354 0.866295
O O2 0.611903 0.931405 0.880307
O O3 0.740072 0.733338 0.111660
O O4 0.945394 0.760652 0.072188
O O5 0.268124 0.816927 0.844781
O O6 0.228283 0.538501 0.724741
O O7 0.252163 0.860177 0.649811
O O8 0.431043 0.810747 0.603535
O O9 0.061550 0.653280 0.381733
O O10 0.142591 0.940981 0.348775
#
# Coordination Sequence:
#
# PCOD9247580 Si02
#       5
#     4   4   4   4   4
#     4  10  22  39  59  89 121 149 195 245 285 346
#     4   9  20  40  62  80 118 162 192 232 298 348
#     4   8  18  35  55  83 114 148 195 235 283 342
#     4   8  17  36  58  78 116 154 189 236 284 338
#     4  11  22  38  61  86 122 149 197 245 289 345
#
# _framework density 27.032976999999999
#
# number of rings (size 3 to 8) (size 9 to 14) (size 15 to 20)
#    1.200    1.600    0.000    0.600    2.800    1.600 
#    0.000    3.000    0.000    0.000    0.000    0.000 
#    0.000    0.000    0.000    0.000    0.000    0.000 
#
# Total GULP energy -111556.783323 kJ/mol
# GULP energy per Si atom -5577.839166 kJ/mol
# Density = 2.697145 g / cm^3
# Si number density = 27.032977 Si / 1000 Ang^3
#
#
#
# Elastic Constant Matrix: (Units=GPa)
#
#
# Indices 1 2 3 4 5 6 
#
# 1 42.1132 -12.7931 -0.6562 0.0000 13.2332 0.0000
# 2 -12.7931 62.5767 16.4538 0.0000 1.3084 0.0000
# 3 -0.6562 16.4538 130.4705 0.0000 19.2469 0.0000
# 4 0.0000 0.0000 0.0000 54.3809 0.0000 8.4312
# 5 13.2332 1.3084 19.2469 0.0000 33.4502 0.0000
# 6 0.0000 0.0000 0.0000 8.4312 0.0000 13.5903
#
#
#
# Elastic Compliance Matrix: (Units=1/GPa)
#
#
# Indices 1 2 3 4 5 6 
#
# 1 0.029556 0.005975 0.001262 0.000000 -0.012652 0.000000
# 2 0.005975 0.017748 -0.001920 0.000000 -0.001953 0.000000
# 3 0.001262 -0.001920 0.008715 0.000000 -0.005439 0.000000
# 4 0.000000 0.000000 0.000000 0.020346 0.000000 -0.012622
# 5 -0.012652 -0.001953 -0.005439 0.000000 0.038106 0.000000
# 6 0.000000 0.000000 0.000000 -0.012622 0.000000 0.081413
#
#
# Mechanical properties :
#
#
# Convention : Reuss Voigt Hill
#
# Bulk Modulus (GPa) = 15.00316 26.79660 20.89988
# Shear Modulus (GPa) = 24.10016 35.76133 29.93075
#
# Velocity S-wave (km/s) = 2.98906 3.64108 3.33106
# Velocity P-wave (km/s) = 4.18026 5.25459 4.74791
#
# Compressibility (1/GPa) = 0.06665262
#
# Stress axis : x y z
#
# Youngs Moduli (GPa) = 33.83408 56.34548 114.74000
#
# Poissons Ratio (x) = -0.33668 -0.14475
# Poissons Ratio (y) = -0.20217 0.22030
# Poissons Ratio (z) = -0.04268 0.10818
#
# Static dielectric constant tensor:
#      x y z
#    x 2.205640 0.000000 -0.072180 
#    y 0.000000 2.222710 0.000000 
#    z -0.072180 0.000000 2.142260 
# 
# From -- ./inp_files/54718.got.cif
#   From: 2010.05.17/outbox.cif.g08.bks.cpg/sg14_28_cif.got.tgz:54718.got - 2010.06.03 17:49:19.
