data_PCOD9247023
_publ_section_title
;
Structure prediction by ZEFSAII (Michael W. Deem and Ramdas Pophale) SiO2 
 PCOD9247023
Probable space group: P 21/C
;
_chemical_formula_sum "Si O2"
_cell_formula_units_Z 32
_cell_length_a 20.302982
_cell_length_b 10.693299
_cell_length_c 20.501274
_cell_angle_alpha 90.000000
_cell_angle_beta 160.261201
_cell_angle_gamma 90.000000
_cell_volume 1503.230310
_symmetry_space_group_name_H-M "P 21/C"
_symmetry_group_IT_number 14
_symmetry_cell_setting 'monoclinic'
loop_
_space_group_symop_operation_xyz
x,y,z
-x,1/2+y,1/2-z
-x,-y,-z
x,1/2-y,1/2+z
loop_
_atom_site_type_symbol
_atom_site_label
_atom_site_fract_x
_atom_site_fract_y
_atom_site_fract_z
Si Si1 0.193576 0.925041 0.403926
Si Si2 0.967089 0.175428 0.617602
Si Si3 0.620852 0.774406 0.028346
Si Si4 0.555926 0.846779 0.328592
Si Si5 0.592095 0.676037 0.240368
Si Si6 0.831583 0.053139 0.997626
Si Si7 0.784761 0.099484 0.320360
Si Si8 0.807758 0.685814 0.829587
O O1 0.111744 0.836089 0.383439
O O2 0.364533 0.860402 0.521347
O O3 0.293065 0.040490 0.535060
O O4 0.014590 0.981136 0.197720
O O5 0.915375 0.317428 0.547612
O O6 0.861531 0.088845 0.466635
O O7 0.196840 0.148403 0.831333
O O8 0.725437 0.730513 0.193050
O O9 0.561505 0.690960 0.910609
O O10 0.425084 0.838910 0.870315
O O11 0.604084 0.733842 0.324826
O O12 0.341197 0.902037 0.114654
O O13 0.717150 0.549418 0.348515
O O14 0.686995 0.774799 0.280028
O O15 0.955843 0.181450 0.445380
O O16 0.768126 0.960509 0.276546
#
# Coordination Sequence:
#
# PCOD9247023 Si02
#       8
#     4   4   4   4   4   4   4   4
#     4  11  23  39  62  95 129 163 216 260 313 381
#     4  11  21  40  65  94 128 170 208 261 316 385
#     4  11  21  40  67  92 126 172 208 254 320 380
#     4  11  22  41  68  93 127 167 211 260 323 382
#     4  11  24  41  63  97 130 164 208 270 319 373
#     4  11  23  39  61  93 130 168 211 256 320 380
#     4  10  21  43  67  93 128 164 212 263 322 379
#     4  10  24  41  65  98 127 161 217 266 316 377
#
# _framework density 21.287489999999998
#
# number of rings (size 3 to 8) (size 9 to 14) (size 15 to 20)
#    0.000    1.250    3.750    1.875    0.000    4.000 
#    0.000    5.000    0.000    0.000    0.000    0.000 
#    0.000    0.000    0.000    0.000    0.000    0.000 
#
# Total GULP energy -178308.924216 kJ/mol
# GULP energy per Si atom -5572.153882 kJ/mol
# Density = 2.123904 g / cm^3
# Si number density = 21.287490 Si / 1000 Ang^3
#
#
#
# Elastic Constant Matrix: (Units=GPa)
#
#
# Indices 1 2 3 4 5 6 
#
# 1 82.0494 25.7588 45.4649 0.0000 15.5273 0.0000
# 2 25.7588 57.4901 24.6119 0.0000 6.5446 0.0000
# 3 45.4649 24.6119 138.3922 0.0000 37.1371 0.0000
# 4 0.0000 0.0000 0.0000 15.2783 0.0000 8.5667
# 5 15.5273 6.5446 37.1371 0.0000 30.6396 0.0000
# 6 0.0000 0.0000 0.0000 8.5667 0.0000 28.2476
#
#
#
# Elastic Compliance Matrix: (Units=1/GPa)
#
#
# Indices 1 2 3 4 5 6 
#
# 1 0.016477 -0.005486 -0.003722 0.000000 -0.002667 0.000000
# 2 -0.005486 0.020654 -0.002124 0.000000 0.000943 0.000000
# 3 -0.003722 -0.002124 0.012150 0.000000 -0.012387 0.000000
# 4 0.000000 0.000000 0.000000 0.078863 0.000000 -0.023917
# 5 -0.002667 0.000943 -0.012387 0.000000 0.048802 0.000000
# 6 0.000000 0.000000 0.000000 -0.023917 0.000000 0.042655
#
#
# Mechanical properties :
#
#
# Convention : Reuss Voigt Hill
#
# Bulk Modulus (GPa) = 37.56741 52.17809 44.87275
# Shear Modulus (GPa) = 19.90950 26.97284 23.44117
#
# Velocity S-wave (km/s) = 3.06153 3.56346 3.32199
# Velocity P-wave (km/s) = 5.49393 6.44169 5.98659
#
# Compressibility (1/GPa) = 0.02661882
#
# Stress axis : x y z
#
# Youngs Moduli (GPa) = 60.69059 48.41633 82.30277
#
# Poissons Ratio (x) = 0.26560 0.30630
# Poissons Ratio (y) = 0.33293 0.17481
# Poissons Ratio (z) = 0.22587 0.10283
#
# Static dielectric constant tensor:
#      x y z
#    x 1.779510 0.000000 0.006530 
#    y 0.000000 1.803740 0.000000 
#    z 0.006530 0.000000 1.803290 
# 
# From -- ./inp_files/69942.got.cif
#   From: 2010.05.17/outbox.cif.g08.bks.cpg/sg14_35_cif.got.tgz:69942.got - 2010.06.03 17:49:19.
