data_PCOD9247179
_publ_section_title
;
Structure prediction by ZEFSAII (Michael W. Deem and Ramdas Pophale) SiO2 
 PCOD9247179
Probable space group: P 21/C
;
_chemical_formula_sum "Si O2"
_cell_formula_units_Z 32
_cell_length_a 5.379601
_cell_length_b 33.575789
_cell_length_c 7.792390
_cell_angle_alpha 90.000000
_cell_angle_beta 85.300284
_cell_angle_gamma 90.000000
_cell_volume 1402.763073
_symmetry_space_group_name_H-M "P 21/C"
_symmetry_group_IT_number 14
_symmetry_cell_setting 'monoclinic'
loop_
_space_group_symop_operation_xyz
x,y,z
-x,1/2+y,1/2-z
-x,-y,-z
x,1/2-y,1/2+z
loop_
_atom_site_type_symbol
_atom_site_label
_atom_site_fract_x
_atom_site_fract_y
_atom_site_fract_z
Si Si1 0.160166 0.911978 0.804767
Si Si2 0.750000 0.473947 0.000000
Si Si3 0.250000 0.763061 1.000000
Si Si4 0.750000 0.877284 1.000000
Si Si5 0.083568 0.668438 0.719696
Si Si6 0.583567 0.168438 0.219696
Si Si7 0.660166 0.411978 0.304768
Si Si8 0.750000 0.788634 0.500000
O O1 0.227146 0.946494 0.670945
O O2 0.270625 0.870297 0.724291
O O3 0.250000 0.919125 1.000000
O O4 0.864382 0.904397 0.844592
O O5 0.500000 0.500000 0.000000
O O6 0.727146 0.446494 0.170945
O O7 0.000000 0.500000 0.000000
O O8 0.257059 0.792683 0.835196
O O9 0.507173 0.738484 0.976782
O O10 0.992828 0.738484 0.023218
O O11 0.242942 0.792683 0.164804
O O12 0.635619 0.904397 0.155407
O O13 0.964707 0.848553 0.052478
O O14 0.535294 0.848553 0.947522
O O15 0.229376 0.629703 0.775708
O O16 0.852197 0.682910 0.845347
O O17 0.352196 0.182910 0.345347
#
# Coordination Sequence:
#
# PCOD9247179 Si02
#       8
#     4   4   4   4   4   4   4   4
#     4  10  25  48  80 106 149 203 247 297 364 447
#     4  12  32  52  80 124 157 180 236 307 376 456
#     4  12  24  45  60 101 144 194 244 316 373 421
#     4  10  21  44  74  99 137 190 260 293 349 438
#     4  11  24  43  68  99 138 198 255 298 358 446
#     4  11  24  43  68  99 138 198 255 298 358 446
#     4  10  25  48  80 106 149 203 247 297 364 447
#     4  12  29  37  68 100 148 186 246 320 380 399
#
# _framework density 22.812118000000002
#
# number of rings (size 3 to 8) (size 9 to 14) (size 15 to 20)
#    0.000    1.000    3.750    2.250   14.000    1.000 
#    0.000    0.000    0.000    0.000    0.000    0.000 
#    0.000    0.000    0.000    0.000    0.000    0.000 
#
# Total GULP energy -178746.032265 kJ/mol
# GULP energy per Si atom -5585.813508 kJ/mol
# Density = 2.276020 g / cm^3
# Si number density = 22.812118 Si / 1000 Ang^3
#
#
#
# Elastic Constant Matrix: (Units=GPa)
#
#
# Indices 1 2 3 4 5 6 
#
# 1 136.3343 82.8661 49.3627 0.0000 -33.0058 0.0000
# 2 82.8661 166.9880 87.1388 0.0000 -24.8547 0.0000
# 3 49.3627 87.1388 136.3996 0.0000 -31.1045 0.0000
# 4 0.0000 0.0000 0.0000 60.3466 0.0000 -17.2754
# 5 -33.0058 -24.8547 -31.1045 0.0000 44.4721 0.0000
# 6 0.0000 0.0000 0.0000 -17.2754 0.0000 27.3420
#
#
#
# Elastic Compliance Matrix: (Units=1/GPa)
#
#
# Indices 1 2 3 4 5 6 
#
# 1 0.011818 -0.005172 0.000438 0.000000 0.006187 0.000000
# 2 -0.005172 0.011301 -0.005690 0.000000 -0.001503 0.000000
# 3 0.000438 -0.005690 0.012084 0.000000 0.005597 0.000000
# 4 0.000000 0.000000 0.000000 0.020230 0.000000 0.012782
# 5 0.006187 -0.001503 0.005597 0.000000 0.030152 0.000000
# 6 0.000000 0.000000 0.000000 0.012782 0.000000 0.044650
#
#
# Mechanical properties :
#
#
# Convention : Reuss Voigt Hill
#
# Bulk Modulus (GPa) = 69.66591 97.60635 83.63613
# Shear Modulus (GPa) = 32.07824 41.12243 36.60033
#
# Velocity S-wave (km/s) = 3.75399 4.25038 4.00987
# Velocity P-wave (km/s) = 7.02817 8.18337 7.62767
#
# Compressibility (1/GPa) = 0.01435422
#
# Stress axis : x y z
#
# Youngs Moduli (GPa) = 84.61817 88.48842 82.75094
#
# Poissons Ratio (x) = 0.45769 -0.03627
# Poissons Ratio (y) = 0.43768 0.47089
# Poissons Ratio (z) = -0.03709 0.50354
#
# Static dielectric constant tensor:
#      x y z
#    x 1.956550 0.000000 -0.020130 
#    y 0.000000 1.842550 0.000000 
#    z -0.020130 0.000000 1.959540 
# 
# From -- ./inp_files/6954.got.cif
#   From: 2010.05.17/outbox.cif.g08.bks.cpg/sg14_4_cif.got.tgz:6954.got - 2010.06.03 17:49:19.
