data_PCOD9247517
_publ_section_title
;
Structure prediction by ZEFSAII (Michael W. Deem and Ramdas Pophale) SiO2 
 PCOD9247517
Probable space group: P 21/C
;
_chemical_formula_sum "Si O2"
_cell_formula_units_Z 22
_cell_length_a 11.056844
_cell_length_b 8.877188
_cell_length_c 13.011376
_cell_angle_alpha 90.000000
_cell_angle_beta 142.390304
_cell_angle_gamma 90.000000
_cell_volume 779.396440
_symmetry_space_group_name_H-M "P 21/C"
_symmetry_group_IT_number 14
_symmetry_cell_setting 'monoclinic'
loop_
_space_group_symop_operation_xyz
x,y,z
-x,1/2+y,1/2-z
-x,-y,-z
x,1/2-y,1/2+z
loop_
_atom_site_type_symbol
_atom_site_label
_atom_site_fract_x
_atom_site_fract_y
_atom_site_fract_z
Si Si1 0.078382 0.812137 0.519380
Si Si2 0.117890 0.551889 0.816209
Si Si3 0.729354 0.789502 0.045084
Si Si4 0.402034 0.595284 0.722170
Si Si5 0.500000 0.500000 0.000000
Si Si6 0.677401 0.931805 0.225577
O O1 0.109577 0.893381 0.428818
O O2 0.180232 0.653116 0.574992
O O3 0.846298 0.818756 0.385884
O O4 0.197372 0.913506 0.681337
O O5 0.175125 0.373363 0.853455
O O6 0.912466 0.610106 0.631614
O O7 0.306993 0.612448 0.882453
O O8 0.645638 0.869088 0.090965
O O9 0.550427 0.732127 0.855537
O O10 0.485187 0.556451 0.666490
O O11 0.447585 0.476354 0.841660
#
# Coordination Sequence:
#
# PCOD9247517 Si02
#       6
#     4   4   4   4   2   4
#     4  10  22  43  69  91 138 187 222 280 338 410
#     4  10  22  44  69  97 138 180 226 283 339 406
#     4  10  23  43  68  99 134 181 229 281 341 405
#     4  11  24  41  68 102 134 179 226 286 334 409
#     4  10  22  38  64  96 128 178 216 272 338 390
#     4  10  22  43  67  97 136 179 228 276 347 399
#
# _framework density 28.226970000000001
#
# number of rings (size 3 to 8) (size 9 to 14) (size 15 to 20)
#    0.000    1.818    3.636    0.000    7.636    0.727 
#    6.545    0.909    0.000    0.000    0.000    0.000 
#    0.000    0.000    0.000    0.000    0.000    0.000 
#
# Total GULP energy -122774.687659 kJ/mol
# GULP energy per Si atom -5580.667621 kJ/mol
# Density = 2.816272 g / cm^3
# Si number density = 28.226970 Si / 1000 Ang^3
#
#
#
# Elastic Constant Matrix: (Units=GPa)
#
#
# Indices 1 2 3 4 5 6 
#
# 1 97.0445 6.1724 18.1314 0.0000 -11.1537 0.0000
# 2 6.1724 95.9476 42.6016 0.0000 -21.2789 0.0000
# 3 18.1314 42.6016 69.9585 0.0000 -2.7277 0.0000
# 4 0.0000 0.0000 0.0000 68.6075 0.0000 2.3139
# 5 -11.1537 -21.2789 -2.7277 0.0000 48.5734 0.0000
# 6 0.0000 0.0000 0.0000 2.3139 0.0000 45.8509
#
#
#
# Elastic Compliance Matrix: (Units=1/GPa)
#
#
# Indices 1 2 3 4 5 6 
#
# 1 0.011266 0.001651 -0.003805 0.000000 0.003097 0.000000
# 2 0.001651 0.016354 -0.010115 0.000000 0.006976 0.000000
# 3 -0.003805 -0.010115 0.021280 0.000000 -0.004110 0.000000
# 4 0.000000 0.000000 0.000000 0.014601 0.000000 -0.000737
# 5 0.003097 0.006976 -0.004110 0.000000 0.024124 0.000000
# 6 0.000000 0.000000 0.000000 -0.000737 0.000000 0.021847
#
#
# Mechanical properties :
#
#
# Convention : Reuss Voigt Hill
#
# Bulk Modulus (GPa) = 41.04526 44.08459 42.56493
# Shear Modulus (GPa) = 35.17919 45.67605 40.42762
#
# Velocity S-wave (km/s) = 3.53412 4.02701 3.78859
# Velocity P-wave (km/s) = 5.58803 6.10526 5.85236
#
# Compressibility (1/GPa) = 0.02436335
#
# Stress axis : x y z
#
# Youngs Moduli (GPa) = 88.76013 61.14589 46.99321
#
# Poissons Ratio (x) = -0.10098 0.17880
# Poissons Ratio (y) = -0.14658 0.47534
# Poissons Ratio (z) = 0.33772 0.61849
#
# Static dielectric constant tensor:
#      x y z
#    x 15.811250 0.000000 5.968160 
#    y 0.000000 2.837380 0.000000 
#    z 5.968160 0.000000 4.832090 
# 
# From -- ./inp_files/39222.got.cif
#   From: 2010.05.17/outbox.cif.g08.bks.cpg/sg14_20_cif.got.tgz:39222.got - 2010.06.03 17:49:19.
