data_PCOD9247933
_publ_section_title
;
Structure prediction by ZEFSAII (Michael W. Deem and Ramdas Pophale) SiO2 
 PCOD9247933
Probable space group: P 21/C
;
_chemical_formula_sum "Si O2"
_cell_formula_units_Z 32
_cell_length_a 14.769090
_cell_length_b 8.172465
_cell_length_c 24.040187
_cell_angle_alpha 90.000000
_cell_angle_beta 154.024590
_cell_angle_gamma 90.000000
_cell_volume 1270.879128
_symmetry_space_group_name_H-M "P 21/C"
_symmetry_group_IT_number 14
_symmetry_cell_setting 'monoclinic'
loop_
_space_group_symop_operation_xyz
x,y,z
-x,1/2+y,1/2-z
-x,-y,-z
x,1/2-y,1/2+z
loop_
_atom_site_type_symbol
_atom_site_label
_atom_site_fract_x
_atom_site_fract_y
_atom_site_fract_z
Si Si1 0.460407 0.485726 0.149627
Si Si2 0.968653 0.916987 0.543315
Si Si3 0.550557 0.186688 0.799500
Si Si4 0.158865 0.459108 0.843676
Si Si5 0.595234 0.501335 0.680789
Si Si6 0.084207 0.459919 0.485329
Si Si7 0.536137 0.844565 0.584251
Si Si8 0.850514 0.871908 0.098346
O O1 0.527133 0.640364 0.223346
O O2 0.543956 0.332518 0.229760
O O3 0.554544 0.515813 0.142066
O O4 0.214891 0.497962 0.022120
O O5 0.881284 0.734958 0.486147
O O6 0.179985 0.920930 0.695436
O O7 0.000000 0.000000 0.500000
O O8 0.420884 0.056345 0.763506
O O9 0.773259 0.122903 0.941983
O O10 0.307042 0.374518 0.879085
O O11 0.128836 0.317795 0.872987
O O12 0.943318 0.521380 0.699754
O O13 0.296980 0.619539 0.935639
O O14 0.577789 0.669747 0.635562
O O15 0.392038 0.400958 0.550096
O O16 0.024441 0.435076 0.386978
O O17 0.000000 0.500000 0.500000
#
# Coordination Sequence:
#
# PCOD9247933 Si02
#       8
#     4   4   4   4   4   4   4   4
#     4  11  22  42  68 100 146 191 244 301 375 444
#     4  12  24  42  67 104 150 198 247 302 375 465
#     4  10  22  40  66  99 143 188 238 301 366 455
#     4  11  25  48  76 109 144 191 256 310 378 443
#     4  10  24  45  69 105 144 192 245 304 379 443
#     4  11  26  43  69 108 145 195 243 310 382 455
#     4  10  25  44  72 107 140 192 247 309 369 444
#     4  11  26  49  74 108 146 197 251 317 375 452
#
# _framework density 25.179421000000001
#
# number of rings (size 3 to 8) (size 9 to 14) (size 15 to 20)
#    0.000    1.250    1.250    3.000    3.500    8.500 
#    0.000    0.000    0.000    0.000    0.000    0.000 
#    0.000    0.000    0.000    0.000    0.000    0.000 
#
# Total GULP energy -178417.590042 kJ/mol
# GULP energy per Si atom -5575.549689 kJ/mol
# Density = 2.512211 g / cm^3
# Si number density = 25.179421 Si / 1000 Ang^3
#
#
#
# Elastic Constant Matrix: (Units=GPa)
#
#
# Indices 1 2 3 4 5 6 
#
# 1 96.6866 4.1663 28.0728 0.0000 -11.7389 0.0000
# 2 4.1663 78.2222 45.0900 0.0000 -3.7466 0.0000
# 3 28.0728 45.0900 168.7675 0.0000 1.5660 0.0000
# 4 0.0000 0.0000 0.0000 39.4363 0.0000 -16.1748
# 5 -11.7389 -3.7466 1.5660 0.0000 32.6145 0.0000
# 6 0.0000 0.0000 0.0000 -16.1748 0.0000 38.8443
#
#
#
# Elastic Compliance Matrix: (Units=1/GPa)
#
#
# Indices 1 2 3 4 5 6 
#
# 1 0.011463 0.000850 -0.002174 0.000000 0.004328 0.000000
# 2 0.000850 0.015297 -0.004249 0.000000 0.002267 0.000000
# 3 -0.002174 -0.004249 0.007437 0.000000 -0.001628 0.000000
# 4 0.000000 0.000000 0.000000 0.030580 0.000000 0.012734
# 5 0.004328 0.002267 -0.001628 0.000000 0.032557 0.000000
# 6 0.000000 0.000000 0.000000 0.012734 0.000000 0.031046
#
#
# Mechanical properties :
#
#
# Convention : Reuss Voigt Hill
#
# Bulk Modulus (GPa) = 43.38358 55.37052 49.37705
# Shear Modulus (GPa) = 33.96493 39.93550 36.95021
#
# Velocity S-wave (km/s) = 3.67674 3.98683 3.83492
# Velocity P-wave (km/s) = 5.94069 6.57504 6.26590
#
# Compressibility (1/GPa) = 0.02305020
#
# Stress axis : x y z
#
# Youngs Moduli (GPa) = 87.23934 65.37287 134.45695
#
# Poissons Ratio (x) = -0.05556 0.29230
# Poissons Ratio (y) = -0.07414 0.57135
# Poissons Ratio (z) = 0.18965 0.27779
#
# Static dielectric constant tensor:
#      x y z
#    x 2.020940 0.000000 -0.001880 
#    y 0.000000 2.371910 0.000000 
#    z -0.001880 0.000000 2.124120 
# 
# From -- ./inp_files/73757.got.cif
#   From: 2010.05.17/outbox.cif.g08.bks.cpg/sg14_37_cif.got.tgz:73757.got - 2010.06.03 17:49:19.
