data_PCOD9247056
_publ_section_title
;
Structure prediction by ZEFSAII (Michael W. Deem and Ramdas Pophale) SiO2 
 PCOD9247056
Probable space group: P 21/C
;
_chemical_formula_sum "Si O2"
_cell_formula_units_Z 20
_cell_length_a 27.424781
_cell_length_b 7.853053
_cell_length_c 18.602121
_cell_angle_alpha 90.000000
_cell_angle_beta 166.569382
_cell_angle_gamma 90.000000
_cell_volume 930.535603
_symmetry_space_group_name_H-M "P 21/C"
_symmetry_group_IT_number 14
_symmetry_cell_setting 'monoclinic'
loop_
_space_group_symop_operation_xyz
x,y,z
-x,1/2+y,1/2-z
-x,-y,-z
x,1/2-y,1/2+z
loop_
_atom_site_type_symbol
_atom_site_label
_atom_site_fract_x
_atom_site_fract_y
_atom_site_fract_z
Si Si1 0.707144 0.445594 0.987954
Si Si2 0.016619 0.241856 0.837647
Si Si3 0.483721 0.715974 0.148751
Si Si4 0.375729 0.010246 0.897151
Si Si5 0.687082 0.995242 0.824897
O O1 0.659021 0.647111 0.926851
O O2 0.523857 0.396371 0.667887
O O3 0.925042 0.392471 0.263778
O O4 0.662551 0.346936 0.997172
O O5 0.820290 0.334388 0.520037
O O6 0.161985 0.387683 0.080774
O O7 0.155742 0.149981 0.977688
O O8 0.359312 0.823049 0.909105
O O9 0.596265 0.558873 0.271593
O O10 0.500000 0.000000 0.000000
O O11 0.500000 0.000000 0.500000
#
# Coordination Sequence:
#
# PCOD9247056 Si02
#       5
#     4   4   4   4   4
#     4  10  23  43  66  98 136 180 227 286 345 400
#     4  12  23  41  70 100 134 186 237 281 342 421
#     4  10  23  46  67  95 146 177 222 297 342 400
#     4  10  21  43  69  92 142 175 226 287 345 395
#     4  12  26  42  72 105 138 183 234 284 347 411
#
# _framework density 21.492998
#
# number of rings (size 3 to 8) (size 9 to 14) (size 15 to 20)
#    1.200    0.000    2.000    4.800    2.800    0.800 
#    0.000    2.000    0.000    0.000    0.000    0.000 
#    0.000    0.000    0.000    0.000    0.000    0.000 
#
# Total GULP energy -111717.184915 kJ/mol
# GULP energy per Si atom -5585.859246 kJ/mol
# Density = 2.144408 g / cm^3
# Si number density = 21.492998 Si / 1000 Ang^3
#
#
#
# Elastic Constant Matrix: (Units=GPa)
#
#
# Indices 1 2 3 4 5 6 
#
# 1 94.6791 -7.0943 -3.2517 0.0000 2.0379 0.0000
# 2 -7.0943 40.3606 -1.1669 0.0000 -9.6458 0.0000
# 3 -3.2517 -1.1669 45.1158 0.0000 1.9727 0.0000
# 4 0.0000 0.0000 0.0000 37.1077 0.0000 -11.3430
# 5 2.0379 -9.6458 1.9727 0.0000 15.9739 0.0000
# 6 0.0000 0.0000 0.0000 -11.3430 0.0000 31.1860
#
#
#
# Elastic Compliance Matrix: (Units=1/GPa)
#
#
# Indices 1 2 3 4 5 6 
#
# 1 0.010735 0.001822 0.000837 0.000000 -0.000373 0.000000
# 2 0.001822 0.029265 0.000126 0.000000 0.017423 0.000000
# 3 0.000837 0.000126 0.022351 0.000000 -0.002791 0.000000
# 4 0.000000 0.000000 0.000000 0.030320 0.000000 0.011028
# 5 -0.000373 0.017423 -0.002791 0.000000 0.073515 0.000000
# 6 0.000000 0.000000 0.000000 0.011028 0.000000 0.036077
#
#
# Mechanical properties :
#
#
# Convention : Reuss Voigt Hill
#
# Bulk Modulus (GPa) = 14.72274 17.45885 16.09079
# Shear Modulus (GPa) = 22.79653 29.63141 26.21397
#
# Velocity S-wave (km/s) = 3.26029 3.71705 3.49614
# Velocity P-wave (km/s) = 4.58667 5.15390 4.87854
#
# Compressibility (1/GPa) = 0.06792214
#
# Stress axis : x y z
#
# Youngs Moduli (GPa) = 93.15065 34.17094 44.74107
#
# Poissons Ratio (x) = -0.06226 -0.03746
# Poissons Ratio (y) = -0.16973 -0.00566
# Poissons Ratio (z) = -0.07798 -0.00432
#
# Static dielectric constant tensor:
#      x y z
#    x 1.743630 0.000000 -0.028430 
#    y 0.000000 1.851280 0.000000 
#    z -0.028430 0.000000 1.753610 
# 
# From -- ./inp_files/70728.got.cif
#   From: 2010.05.17/outbox.cif.g08.bks.cpg/sg14_36_cif.got.tgz:70728.got - 2010.06.03 17:49:19.
