data_PCOD9247986
_publ_section_title
;
Structure prediction by ZEFSAII (Michael W. Deem and Ramdas Pophale) SiO2 
 PCOD9247986
Probable space group: P 21/C
;
_chemical_formula_sum "Si O2"
_cell_formula_units_Z 30
_cell_length_a 13.609704
_cell_length_b 14.114542
_cell_length_c 8.809563
_cell_angle_alpha 90.000000
_cell_angle_beta 132.970745
_cell_angle_gamma 90.000000
_cell_volume 1238.237573
_symmetry_space_group_name_H-M "P 21/C"
_symmetry_group_IT_number 14
_symmetry_cell_setting 'monoclinic'
loop_
_space_group_symop_operation_xyz
x,y,z
-x,1/2+y,1/2-z
-x,-y,-z
x,1/2-y,1/2+z
loop_
_atom_site_type_symbol
_atom_site_label
_atom_site_fract_x
_atom_site_fract_y
_atom_site_fract_z
Si Si1 0.719510 0.819953 0.753643
Si Si2 0.166306 0.344051 0.922019
Si Si3 0.500000 0.500000 0.500000
Si Si4 0.533793 0.332083 0.231625
Si Si5 0.672596 0.979884 0.948568
Si Si6 0.892748 0.385065 0.806230
Si Si7 0.759468 0.446993 0.942948
Si Si8 0.694306 0.209284 0.612998
O O1 0.845461 0.821852 0.769222
O O2 0.596504 0.815215 0.505552
O O3 0.689648 0.913537 0.823040
O O4 0.750387 0.736069 0.902323
O O5 0.028474 0.359417 0.866339
O O6 0.236736 0.445791 0.000148
O O7 0.384175 0.428860 0.462008
O O8 0.626012 0.435573 0.700647
O O9 0.550460 0.439482 0.316988
O O10 0.564787 0.256018 0.393510
O O11 0.655395 0.322790 0.239547
O O12 0.807959 0.036678 0.123453
O O13 0.889000 0.424553 0.974600
O O14 0.804689 0.290387 0.726571
O O15 0.745269 0.378023 0.068760
#
# Coordination Sequence:
#
# PCOD9247986 Si02
#       8
#     4   4   2   4   4   4   4   4
#     4  12  27  44  67 104 141 186 224 301 348 420
#     4  12  29  43  67  99 144 190 237 283 348 419
#     4  10  22  40  72 104 130 170 222 290 352 418
#     4  11  22  41  67 103 134 170 222 281 356 416
#     4  10  23  44  73  99 139 174 234 287 359 415
#     4  10  25  45  68 101 132 187 237 287 347 419
#     4  11  23  42  70  98 136 183 226 293 351 416
#     4  11  22  40  71  99 131 174 227 290 342 421
#
# _framework density 24.227985
#
# number of rings (size 3 to 8) (size 9 to 14) (size 15 to 20)
#    0.000    1.067    1.333    4.000    7.467    1.600 
#    0.000    0.000    0.000    0.000    0.000    0.000 
#    0.000    0.000    0.000    0.000    0.000    0.000 
#
# Total GULP energy -167521.417538 kJ/mol
# GULP energy per Si atom -5584.047251 kJ/mol
# Density = 2.417284 g / cm^3
# Si number density = 24.227985 Si / 1000 Ang^3
#
#
#
# Elastic Constant Matrix: (Units=GPa)
#
#
# Indices 1 2 3 4 5 6 
#
# 1 101.9739 9.1384 4.1709 0.0000 -3.7228 0.0000
# 2 9.1384 85.1738 8.6314 0.0000 -0.7979 0.0000
# 3 4.1709 8.6314 31.5866 0.0000 -5.9534 0.0000
# 4 0.0000 0.0000 0.0000 38.7872 0.0000 -10.9009
# 5 -3.7228 -0.7979 -5.9534 0.0000 42.0337 0.0000
# 6 0.0000 0.0000 0.0000 -10.9009 0.0000 25.7504
#
#
#
# Elastic Compliance Matrix: (Units=1/GPa)
#
#
# Indices 1 2 3 4 5 6 
#
# 1 0.009957 -0.000969 -0.000912 0.000000 0.000734 0.000000
# 2 -0.000969 0.012172 -0.003258 0.000000 -0.000316 0.000000
# 3 -0.000912 -0.003258 0.033538 0.000000 0.004608 0.000000
# 4 0.000000 0.000000 0.000000 0.029263 0.000000 0.012388
# 5 0.000734 -0.000316 0.004608 0.000000 0.024502 0.000000
# 6 0.000000 0.000000 0.000000 0.012388 0.000000 0.044079
#
#
# Mechanical properties :
#
#
# Convention : Reuss Voigt Hill
#
# Bulk Modulus (GPa) = 22.03108 29.17953 25.60531
# Shear Modulus (GPa) = 27.94570 34.43381 31.18976
#
# Velocity S-wave (km/s) = 3.39993 3.77403 3.59185
# Velocity P-wave (km/s) = 4.95234 5.57323 5.27193
#
# Compressibility (1/GPa) = 0.04539042
#
# Stress axis : x y z
#
# Youngs Moduli (GPa) = 100.42813 82.15683 29.81686
#
# Poissons Ratio (x) = 0.07962 0.02718
# Poissons Ratio (y) = 0.09732 0.09714
# Poissons Ratio (z) = 0.09155 0.26765
#
# Static dielectric constant tensor:
#      x y z
#    x 1.846730 0.000000 0.128490 
#    y 0.000000 1.832960 0.000000 
#    z 0.128490 0.000000 1.857890 
# 
# From -- ./inp_files/13435.got.cif
#   From: 2010.05.17/outbox.cif.g08.bks.cpg/sg14_7_cif.got.tgz:13435.got - 2010.06.03 17:49:19.
