data_PCOD9247007
_publ_section_title
;
Structure prediction by ZEFSAII (Michael W. Deem and Ramdas Pophale) SiO2 
 PCOD9247007
Probable space group: P 21/C
;
_chemical_formula_sum "Si O2"
_cell_formula_units_Z 26
_cell_length_a 11.340774
_cell_length_b 11.768797
_cell_length_c 13.607665
_cell_angle_alpha 90.000000
_cell_angle_beta 147.788352
_cell_angle_gamma 90.000000
_cell_volume 968.110507
_symmetry_space_group_name_H-M "P 21/C"
_symmetry_group_IT_number 14
_symmetry_cell_setting 'monoclinic'
loop_
_space_group_symop_operation_xyz
x,y,z
-x,1/2+y,1/2-z
-x,-y,-z
x,1/2-y,1/2+z
loop_
_atom_site_type_symbol
_atom_site_label
_atom_site_fract_x
_atom_site_fract_y
_atom_site_fract_z
Si Si1 0.483517 0.001841 0.606110
Si Si2 0.813811 0.286347 0.045056
Si Si3 0.000000 0.000000 0.000000
Si Si4 0.380081 0.170694 0.783201
Si Si5 0.297229 0.248993 0.952634
Si Si6 0.042613 0.752258 0.081587
Si Si7 0.376617 0.931034 0.827541
O O1 0.387690 0.129597 0.550752
O O2 0.500000 0.000000 0.500000
O O3 0.310191 0.904429 0.518692
O O4 0.728274 0.977234 0.821474
O O5 0.633349 0.187723 0.933504
O O6 0.894507 0.274345 0.989590
O O7 0.033727 0.268918 0.265870
O O8 0.070765 0.885568 0.112373
O O9 0.352708 0.228699 0.872527
O O10 0.215296 0.231872 0.593591
O O11 0.294349 0.040956 0.712834
O O12 0.442358 0.146191 0.097475
O O13 0.193115 0.655957 0.236079
O O14 0.500000 0.000000 0.000000
#
# Coordination Sequence:
#
# PCOD9247007 Si02
#       7
#     4   4   2   4   4   4   4
#     4  12  23  47  75 102 149 197 247 314 380 455
#     4  11  24  41  68 107 142 190 246 314 379 449
#     4  12  24  46  78 104 148 202 248 318 388 456
#     4  10  21  43  66  95 141 188 232 308 375 441
#     4  10  22  42  66 101 140 187 249 292 376 458
#     4  11  23  45  66 105 144 184 254 309 377 456
#     4  10  22  42  68  94 137 192 238 296 374 449
#
# _framework density 26.856438000000001
#
# number of rings (size 3 to 8) (size 9 to 14) (size 15 to 20)
#    0.000    1.231    4.615    1.385    2.154    1.231 
#    2.769    3.077    0.000    0.000    0.000    0.000 
#    0.000    0.000    0.000    0.000    0.000    0.000 
#
# Total GULP energy -144947.255788 kJ/mol
# GULP energy per Si atom -5574.894453 kJ/mol
# Density = 2.679531 g / cm^3
# Si number density = 26.856438 Si / 1000 Ang^3
#
#
#
# Elastic Constant Matrix: (Units=GPa)
#
#
# Indices 1 2 3 4 5 6 
#
# 1 90.8466 16.8905 0.4284 0.0000 18.1298 0.0000
# 2 16.8905 189.9586 63.6004 0.0000 14.8476 0.0000
# 3 0.4284 63.6004 190.4862 0.0000 16.3158 0.0000
# 4 0.0000 0.0000 0.0000 64.3678 0.0000 5.8935
# 5 18.1298 14.8476 16.3158 0.0000 40.1255 0.0000
# 6 0.0000 0.0000 0.0000 5.8935 0.0000 25.7068
#
#
#
# Elastic Compliance Matrix: (Units=1/GPa)
#
#
# Indices 1 2 3 4 5 6 
#
# 1 0.012274 -0.000911 0.000749 0.000000 -0.005513 0.000000
# 2 -0.000911 0.006076 -0.001937 0.000000 -0.001049 0.000000
# 3 0.000749 -0.001937 0.006074 0.000000 -0.002091 0.000000
# 4 0.000000 0.000000 0.000000 0.015869 0.000000 -0.003638
# 5 -0.005513 -0.001049 -0.002091 0.000000 0.028651 0.000000
# 6 0.000000 0.000000 0.000000 -0.003638 0.000000 0.039734
#
#
# Mechanical properties :
#
#
# Convention : Reuss Voigt Hill
#
# Bulk Modulus (GPa) = 49.44344 70.34778 59.89561
# Shear Modulus (GPa) = 41.80000 52.06483 46.93242
#
# Velocity S-wave (km/s) = 3.94943 4.40777 4.18488
# Velocity P-wave (km/s) = 6.26479 7.22187 6.76029
#
# Compressibility (1/GPa) = 0.02022513
#
# Stress axis : x y z
#
# Youngs Moduli (GPa) = 81.47553 164.58885 164.64123
#
# Poissons Ratio (x) = 0.14996 -0.12329
# Poissons Ratio (y) = 0.07424 0.31886
# Poissons Ratio (z) = -0.06101 0.31876
#
# Static dielectric constant tensor:
#      x y z
#    x 2.482630 0.000000 -0.089980 
#    y 0.000000 2.157120 0.000000 
#    z -0.089980 0.000000 2.131980 
# 
# From -- ./inp_files/68561.got.cif
#   From: 2010.05.17/outbox.cif.g08.bks.cpg/sg14_35_cif.got.tgz:68561.got - 2010.06.03 17:49:19.
