data_PCOD9247307
_publ_section_title
;
Structure prediction by ZEFSAII (Michael W. Deem and Ramdas Pophale) SiO2 
 PCOD9247307
Probable space group: P 21/C
;
_chemical_formula_sum "Si O2"
_cell_formula_units_Z 24
_cell_length_a 9.523871
_cell_length_b 14.724102
_cell_length_c 9.162207
_cell_angle_alpha 90.000000
_cell_angle_beta 43.156947
_cell_angle_gamma 90.000000
_cell_volume 878.816061
_symmetry_space_group_name_H-M "P 21/C"
_symmetry_group_IT_number 14
_symmetry_cell_setting 'monoclinic'
loop_
_space_group_symop_operation_xyz
x,y,z
-x,1/2+y,1/2-z
-x,-y,-z
x,1/2-y,1/2+z
loop_
_atom_site_type_symbol
_atom_site_label
_atom_site_fract_x
_atom_site_fract_y
_atom_site_fract_z
Si Si1 0.000000 0.500000 0.000000
Si Si2 1.000000 0.023701 0.250000
Si Si3 0.739498 0.664060 0.234266
Si Si4 0.730870 0.353105 0.395714
Si Si5 0.730870 0.853105 0.395715
Si Si6 0.260502 0.835940 0.765735
Si Si7 0.000000 0.500000 0.500000
O O1 0.895747 0.590958 0.188545
O O2 0.184142 0.511542 0.986052
O O3 0.880319 0.934304 0.226861
O O4 0.119681 0.934304 0.273140
O O5 0.184141 0.011542 0.986053
O O6 0.510104 0.632785 0.447212
O O7 0.784277 0.762000 0.266998
O O8 0.755199 0.671675 0.047942
O O9 0.755199 0.328325 0.547941
O O10 0.784278 0.262000 0.266997
O O11 0.489896 0.867215 0.552789
O O12 0.104253 0.909042 0.811455
#
# Coordination Sequence:
#
# PCOD9247307 Si02
#       7
#     2   4   4   4   4   4   2
#     4  10  22  36  54  82 116 148 192 244 296 338
#     4  10  22  36  54  82 114 152 196 242 292 352
#     4   9  19  37  58  83 114 152 194 243 292 348
#     4   9  19  36  58  82 113 150 196 238 290 356
#     4   9  19  36  58  82 113 150 196 238 290 356
#     4   9  19  37  58  83 114 152 194 243 292 348
#     4  10  22  36  54  82 116 148 192 244 296 338
#
# _framework density 27.309467999999999
#
# number of rings (size 3 to 8) (size 9 to 14) (size 15 to 20)
#    0.000    2.667    0.000    0.000    0.000   10.667 
#    0.000    0.000    0.000    0.000    0.000    0.000 
#    0.000    0.000    0.000    0.000    0.000    1.000 
#
# Total GULP energy -133705.512799 kJ/mol
# GULP energy per Si atom -5571.063033 kJ/mol
# Density = 2.724731 g / cm^3
# Si number density = 27.309468 Si / 1000 Ang^3
#
#
#
# Elastic Constant Matrix: (Units=GPa)
#
#
# Indices 1 2 3 4 5 6 
#
# 1 206.9559 89.9085 118.3645 0.0000 61.5736 0.0000
# 2 89.9085 245.0337 107.2970 0.0000 -9.3578 0.0000
# 3 118.3645 107.2970 183.1226 0.0000 38.5818 0.0000
# 4 0.0000 0.0000 0.0000 52.4720 0.0000 1.6881
# 5 61.5736 -9.3578 38.5818 0.0000 118.1027 0.0000
# 6 0.0000 0.0000 0.0000 1.6881 0.0000 42.9173
#
#
#
# Elastic Compliance Matrix: (Units=1/GPa)
#
#
# Indices 1 2 3 4 5 6 
#
# 1 0.008880 -0.001603 -0.004079 0.000000 -0.003424 0.000000
# 2 -0.001603 0.006074 -0.003007 0.000000 0.002299 0.000000
# 3 -0.004079 -0.003007 0.010161 0.000000 -0.001431 0.000000
# 4 0.000000 0.000000 0.000000 0.019082 0.000000 -0.000751
# 5 -0.003424 0.002299 -0.001431 0.000000 0.010902 0.000000
# 6 0.000000 0.000000 0.000000 -0.000751 0.000000 0.023330
#
#
# Mechanical properties :
#
#
# Convention : Reuss Voigt Hill
#
# Bulk Modulus (GPa) = 129.26095 140.69470 134.97782
# Shear Modulus (GPa) = 50.82007 64.00121 57.41064
#
# Velocity S-wave (km/s) = 4.31849 4.84628 4.58998
# Velocity P-wave (km/s) = 8.50297 9.10745 8.81040
#
# Compressibility (1/GPa) = 0.00773629
#
# Stress axis : x y z
#
# Youngs Moduli (GPa) = 112.61237 164.64064 98.41527
#
# Poissons Ratio (x) = 0.26389 0.40146
# Poissons Ratio (y) = 0.18050 0.29596
# Poissons Ratio (z) = 0.45937 0.49512
#
# Static dielectric constant tensor:
#      x y z
#    x 2.223550 0.000000 0.176500 
#    y 0.000000 2.181130 0.000000 
#    z 0.176500 0.000000 2.145520 
# 
# From -- ./inp_files/29504.got.cif
#   From: 2010.05.17/outbox.cif.g08.bks.cpg/sg14_15_cif.got.tgz:29504.got - 2010.06.03 17:49:19.
