data_PCOD9247809
_publ_section_title
;
Structure prediction by ZEFSAII (Michael W. Deem and Ramdas Pophale) SiO2 
 PCOD9247809
Probable space group: P 21/C
;
_chemical_formula_sum "Si O2"
_cell_formula_units_Z 32
_cell_length_a 12.364871
_cell_length_b 21.382864
_cell_length_c 8.801482
_cell_angle_alpha 90.000000
_cell_angle_beta 44.745386
_cell_angle_gamma 90.000000
_cell_volume 1638.165322
_symmetry_space_group_name_H-M "P 21/C"
_symmetry_group_IT_number 14
_symmetry_cell_setting 'monoclinic'
loop_
_space_group_symop_operation_xyz
x,y,z
-x,1/2+y,1/2-z
-x,-y,-z
x,1/2-y,1/2+z
loop_
_atom_site_type_symbol
_atom_site_label
_atom_site_fract_x
_atom_site_fract_y
_atom_site_fract_z
Si Si1 0.429718 0.311808 0.153922
Si Si2 0.923330 0.438226 0.146248
Si Si3 0.415862 0.559349 0.652652
Si Si4 0.583608 0.439178 0.980590
Si Si5 0.065820 0.314441 0.522223
Si Si6 0.926549 0.063260 0.007384
Si Si7 0.934482 0.307709 0.990483
Si Si8 0.433833 0.804197 0.153165
O O1 0.485343 0.378182 0.033626
O O2 0.248634 0.313884 0.365568
O O3 0.529446 0.303601 0.206042
O O4 0.474609 0.253097 0.007654
O O5 0.751039 0.439971 0.254880
O O6 0.928864 0.439102 0.322633
O O7 0.985787 0.371688 0.022803
O O8 0.000000 0.500000 0.000000
O O9 0.500000 0.500000 0.500000
O O10 0.407257 0.556185 0.844696
O O11 0.487278 0.627297 0.542712
O O12 0.500000 0.500000 0.000000
O O13 0.752781 0.432837 0.742318
O O14 0.016859 0.376246 0.478868
O O15 0.978691 0.314127 0.770178
O O16 0.015132 0.252765 0.481250
O O17 0.000000 0.000000 0.000000
O O18 0.749565 0.299629 0.190341
#
# Coordination Sequence:
#
# PCOD9247809 Si02
#       8
#     4   4   4   4   4   4   4   4
#     4  11  24  40  62  92 125 162 208 262 319 382
#     4  11  24  41  64  91 122 164 210 263 324 389
#     4  10  22  40  62  91 124 163 209 257 315 383
#     4  11  23  41  64  93 128 169 213 265 325 392
#     4  12  24  41  64  96 129 166 214 270 326 391
#     4  12  24  42  65  93 127 168 216 271 330 396
#     4  11  23  42  65  92 127 169 215 264 324 394
#     4  10  22  41  62  88 122 165 209 256 314 381
#
# _framework density 19.534049
#
# number of rings (size 3 to 8) (size 9 to 14) (size 15 to 20)
#    0.000    1.000    0.000    8.250    0.000    8.000 
#    0.000    1.250    0.000    0.000    0.000    0.000 
#    0.000    0.000    0.000    0.000    0.000    0.000 
#
# Total GULP energy -178908.577213 kJ/mol
# GULP energy per Si atom -5590.893038 kJ/mol
# Density = 1.948959 g / cm^3
# Si number density = 19.534049 Si / 1000 Ang^3
#
#
#
# Elastic Constant Matrix: (Units=GPa)
#
#
# Indices 1 2 3 4 5 6 
#
# 1 69.9849 37.9249 13.1697 0.0000 18.7219 0.0000
# 2 37.9249 179.2504 44.6721 0.0000 19.9841 0.0000
# 3 13.1697 44.6721 83.4088 0.0000 14.3993 0.0000
# 4 0.0000 0.0000 0.0000 37.0738 0.0000 0.9064
# 5 18.7219 19.9841 14.3993 0.0000 40.2797 0.0000
# 6 0.0000 0.0000 0.0000 0.9064 0.0000 44.2241
#
#
#
# Elastic Compliance Matrix: (Units=1/GPa)
#
#
# Indices 1 2 3 4 5 6 
#
# 1 0.017718 -0.002989 -0.000033 0.000000 -0.006740 0.000000
# 2 -0.002989 0.007112 -0.003163 0.000000 -0.001008 0.000000
# 3 -0.000033 -0.003163 0.014297 0.000000 -0.003526 0.000000
# 4 0.000000 0.000000 0.000000 0.026987 0.000000 -0.000553
# 5 -0.006740 -0.001008 -0.003526 0.000000 0.029720 0.000000
# 6 0.000000 0.000000 0.000000 -0.000553 0.000000 0.022623
#
#
# Mechanical properties :
#
#
# Convention : Reuss Voigt Hill
#
# Bulk Modulus (GPa) = 37.37342 58.24195 47.80769
# Shear Modulus (GPa) = 35.77912 40.10735 37.94324
#
# Velocity S-wave (km/s) = 4.28440 4.53614 4.41207
# Velocity P-wave (km/s) = 6.60672 7.57072 7.10509
#
# Compressibility (1/GPa) = 0.02675698
#
# Stress axis : x y z
#
# Youngs Moduli (GPa) = 56.44012 140.61007 69.94406
#
# Poissons Ratio (x) = 0.42028 0.00231
# Poissons Ratio (y) = 0.16870 0.22123
# Poissons Ratio (z) = 0.00187 0.44474
#
# Static dielectric constant tensor:
#      x y z
#    x 1.681910 0.000000 -0.010110 
#    y 0.000000 1.710870 0.000000 
#    z -0.010110 0.000000 1.648420 
# 
# From -- ./inp_files/14283.got.cif
#   From: 2010.05.17/outbox.cif.g08.bks.cpg/sg14_8_cif.got.tgz:14283.got - 2010.06.03 17:49:19.
