data_PCOD9247074
_publ_section_title
;
Structure prediction by ZEFSAII (Michael W. Deem and Ramdas Pophale) SiO2 
 PCOD9247074
Probable space group: P 21/C
;
_chemical_formula_sum "Si O2"
_cell_formula_units_Z 24
_cell_length_a 7.466413
_cell_length_b 9.125638
_cell_length_c 14.726950
_cell_angle_alpha 90.000000
_cell_angle_beta 80.645455
_cell_angle_gamma 90.000000
_cell_volume 990.088038
_symmetry_space_group_name_H-M "P 21/C"
_symmetry_group_IT_number 14
_symmetry_cell_setting 'monoclinic'
loop_
_space_group_symop_operation_xyz
x,y,z
-x,1/2+y,1/2-z
-x,-y,-z
x,1/2-y,1/2+z
loop_
_atom_site_type_symbol
_atom_site_label
_atom_site_fract_x
_atom_site_fract_y
_atom_site_fract_z
Si Si1 0.744775 0.986118 0.753915
Si Si2 0.962530 0.591072 0.911862
Si Si3 0.651748 0.149450 0.070886
Si Si4 0.643040 0.102331 0.437114
Si Si5 0.773238 0.900326 0.944669
Si Si6 0.491964 0.750100 0.732234
O O1 0.821222 0.990524 0.849447
O O2 0.689590 0.817968 0.737020
O O3 0.556798 0.078885 0.764163
O O4 0.877379 0.059034 0.671357
O O5 0.789337 0.507238 0.884188
O O6 0.897014 0.756376 0.937689
O O7 0.000000 0.500000 0.000000
O O8 0.439850 0.138842 0.056084
O O9 0.637480 0.186539 0.177428
O O10 0.721550 0.284984 0.004969
O O11 0.762213 0.005611 0.032695
O O12 0.555675 0.193184 0.363403
O O13 0.500000 0.000000 0.500000
#
# Coordination Sequence:
#
# PCOD9247074 Si02
#       6
#     4   4   4   4   4   4
#     4  11  26  45  70 104 142 188 240 296 366 430
#     4  12  27  45  68 106 145 186 243 304 360 428
#     4  10  21  43  71 102 134 191 242 287 358 429
#     4  12  23  44  72 103 144 187 237 300 358 436
#     4  10  23  44  68  98 146 184 235 299 355 431
#     4  11  24  44  72 104 136 189 245 289 361 437
#
# _framework density 24.240266999999999
#
# number of rings (size 3 to 8) (size 9 to 14) (size 15 to 20)
#    0.000    1.000    3.333    3.000    4.667    0.000 
#    0.000    5.000    0.000    0.000    0.000    0.000 
#    0.000    0.000    0.000    0.000    0.000    0.000 
#
# Total GULP energy -134254.059098 kJ/mol
# GULP energy per Si atom -5593.919129 kJ/mol
# Density = 2.418510 g / cm^3
# Si number density = 24.240267 Si / 1000 Ang^3
#
#
#
# Elastic Constant Matrix: (Units=GPa)
#
#
# Indices 1 2 3 4 5 6 
#
# 1 56.8820 27.9955 13.4122 0.0000 -21.1105 0.0000
# 2 27.9955 123.8241 44.6466 0.0000 -24.3191 0.0000
# 3 13.4122 44.6466 149.9858 0.0000 -9.1414 0.0000
# 4 0.0000 0.0000 0.0000 35.2404 0.0000 -2.0699
# 5 -21.1105 -24.3191 -9.1414 0.0000 22.4540 0.0000
# 6 0.0000 0.0000 0.0000 -2.0699 0.0000 56.1361
#
#
#
# Elastic Compliance Matrix: (Units=1/GPa)
#
#
# Indices 1 2 3 4 5 6 
#
# 1 0.027250 -0.001218 -0.000608 0.000000 0.024053 0.000000
# 2 -0.001218 0.011261 -0.002635 0.000000 0.009979 0.000000
# 3 -0.000608 -0.002635 0.007483 0.000000 -0.000379 0.000000
# 4 0.000000 0.000000 0.000000 0.028438 0.000000 0.001049
# 5 0.024053 0.009979 -0.000379 0.000000 0.077803 0.000000
# 6 0.000000 0.000000 0.000000 0.001049 0.000000 0.017853
#
#
# Mechanical properties :
#
#
# Convention : Reuss Voigt Hill
#
# Bulk Modulus (GPa) = 26.97462 55.86671 41.42066
# Shear Modulus (GPa) = 26.12791 39.07528 32.60159
#
# Velocity S-wave (km/s) = 3.28666 4.01933 3.67131
# Velocity P-wave (km/s) = 5.05520 6.68110 5.92419
#
# Compressibility (1/GPa) = 0.03707188
#
# Stress axis : x y z
#
# Youngs Moduli (GPa) = 36.69780 88.79986 133.63701
#
# Poissons Ratio (x) = 0.10812 0.08129
# Poissons Ratio (y) = 0.04468 0.35214
# Poissons Ratio (z) = 0.02232 0.23399
#
# Static dielectric constant tensor:
#      x y z
#    x 2.035630 0.000000 0.035420 
#    y 0.000000 1.973320 0.000000 
#    z 0.035420 0.000000 1.910080 
# 
# From -- ./inp_files/38898.got.cif
#   From: 2010.05.17/outbox.cif.g08.bks.cpg/sg14_20_cif.got.tgz:38898.got - 2010.06.03 17:49:19.
