data_PCOD9247452
_publ_section_title
;
Structure prediction by ZEFSAII (Michael W. Deem and Ramdas Pophale) SiO2 
 PCOD9247452
Probable space group: P 21/C
;
_chemical_formula_sum "Si O2"
_cell_formula_units_Z 30
_cell_length_a 4.986932
_cell_length_b 13.625357
_cell_length_c 20.955906
_cell_angle_alpha 90.000000
_cell_angle_beta 112.239084
_cell_angle_gamma 90.000000
_cell_volume 1318.004973
_symmetry_space_group_name_H-M "P 21/C"
_symmetry_group_IT_number 14
_symmetry_cell_setting 'monoclinic'
loop_
_space_group_symop_operation_xyz
x,y,z
-x,1/2+y,1/2-z
-x,-y,-z
x,1/2-y,1/2+z
loop_
_atom_site_type_symbol
_atom_site_label
_atom_site_fract_x
_atom_site_fract_y
_atom_site_fract_z
Si Si1 0.469307 0.841401 0.974342
Si Si2 0.040218 0.440418 0.618273
Si Si3 0.618595 0.769962 0.609864
Si Si4 0.623110 0.579415 0.790871
Si Si5 0.029713 0.407246 0.299577
Si Si6 0.205780 0.856569 0.678290
Si Si7 0.000000 0.500000 0.500000
Si Si8 0.484814 0.780472 0.832138
O O1 0.187835 0.912125 0.960452
O O2 0.394254 0.800774 0.896873
O O3 0.491873 0.758360 0.029636
O O4 0.751587 0.907511 0.996602
O O5 0.880371 0.488125 0.662858
O O6 0.187457 0.520447 0.586271
O O7 0.245560 0.353345 0.655358
O O8 0.377285 0.794684 0.640448
O O9 0.808531 0.676801 0.648460
O O10 0.863824 0.854453 0.633098
O O11 0.315577 0.586003 0.727215
O O12 0.673270 0.467325 0.814981
O O13 0.593507 0.668562 0.837396
O O14 0.880111 0.603070 0.765261
O O15 0.269726 0.808823 0.754327
#
# Coordination Sequence:
#
# PCOD9247452 Si02
#       8
#     4   4   4   4   4   4   2   4
#     4  11  26  41  70  99 151 182 231 286 362 426
#     4  11  24  39  68 103 143 175 226 283 364 429
#     4  12  26  45  70 104 141 185 230 290 354 426
#     4  12  26  44  70 101 136 184 239 292 343 411
#     4  12  23  40  73 102 139 178 225 288 364 419
#     4  12  26  47  70 101 139 184 243 291 346 420
#     4  10  22  38  60 100 134 180 208 276 344 434
#     4  11  25  44  69 101 137 183 232 292 347 422
#
# _framework density 22.761676000000001
#
# number of rings (size 3 to 8) (size 9 to 14) (size 15 to 20)
#    0.000    0.533    5.333    2.000    9.333    0.000 
#    0.000    1.333    0.000    0.000    0.000    0.000 
#    0.000    0.000    0.000    0.000    0.000    0.000 
#
# Total GULP energy -167427.381344 kJ/mol
# GULP energy per Si atom -5580.912711 kJ/mol
# Density = 2.270987 g / cm^3
# Si number density = 22.761676 Si / 1000 Ang^3
#
#
#
# Elastic Constant Matrix: (Units=GPa)
#
#
# Indices 1 2 3 4 5 6 
#
# 1 85.2436 4.5389 26.7662 0.0000 -12.6132 0.0000
# 2 4.5389 84.6441 40.6864 0.0000 -19.0558 0.0000
# 3 26.7662 40.6864 113.3864 0.0000 -22.1603 0.0000
# 4 0.0000 0.0000 0.0000 39.4723 0.0000 -2.3864
# 5 -12.6132 -19.0558 -22.1603 0.0000 35.4348 0.0000
# 6 0.0000 0.0000 0.0000 -2.3864 0.0000 37.1606
#
#
#
# Elastic Compliance Matrix: (Units=1/GPa)
#
#
# Indices 1 2 3 4 5 6 
#
# 1 0.013110 0.001528 -0.002928 0.000000 0.003657 0.000000
# 2 0.001528 0.015311 -0.004716 0.000000 0.005829 0.000000
# 3 -0.002928 -0.004716 0.011966 0.000000 0.003905 0.000000
# 4 0.000000 0.000000 0.000000 0.025433 0.000000 0.001633
# 5 0.003657 0.005829 0.003905 0.000000 0.035099 0.000000
# 6 0.000000 0.000000 0.000000 0.001633 0.000000 0.027015
#
#
# Mechanical properties :
#
#
# Convention : Reuss Voigt Hill
#
# Bulk Modulus (GPa) = 35.51734 47.47299 41.49516
# Shear Modulus (GPa) = 33.43318 36.49904 34.96611
#
# Velocity S-wave (km/s) = 3.83670 4.00875 3.92367
# Velocity P-wave (km/s) = 5.93842 6.50605 6.22870
#
# Compressibility (1/GPa) = 0.02815527
#
# Stress axis : x y z
#
# Youngs Moduli (GPa) = 76.27561 65.31204 83.57024
#
# Poissons Ratio (x) = -0.09979 0.24473
# Poissons Ratio (y) = -0.11654 0.39408
# Poissons Ratio (z) = 0.22336 0.30799
#
# Static dielectric constant tensor:
#      x y z
#    x 1.926780 0.000000 -0.011280 
#    y 0.000000 1.950030 0.000000 
#    z -0.011280 0.000000 1.938430 
# 
# From -- ./inp_files/63748.got.cif
#   From: 2010.05.17/outbox.cif.g08.bks.cpg/sg14_32_cif.got.tgz:63748.got - 2010.06.03 17:49:19.
