data_PCOD9247054
_publ_section_title
;
Structure prediction by ZEFSAII (Michael W. Deem and Ramdas Pophale) SiO2 
 PCOD9247054
Probable space group: P 21/C
;
_chemical_formula_sum "Si O2"
_cell_formula_units_Z 30
_cell_length_a 8.459032
_cell_length_b 10.952041
_cell_length_c 18.484650
_cell_angle_alpha 90.000000
_cell_angle_beta 49.041843
_cell_angle_gamma 90.000000
_cell_volume 1293.249524
_symmetry_space_group_name_H-M "P 21/C"
_symmetry_group_IT_number 14
_symmetry_cell_setting 'monoclinic'
loop_
_space_group_symop_operation_xyz
x,y,z
-x,1/2+y,1/2-z
-x,-y,-z
x,1/2-y,1/2+z
loop_
_atom_site_type_symbol
_atom_site_label
_atom_site_fract_x
_atom_site_fract_y
_atom_site_fract_z
Si Si1 0.362600 0.059209 0.290511
Si Si2 0.623725 0.472149 0.367579
Si Si3 0.786606 0.340353 0.654517
Si Si4 0.053051 0.245735 0.367575
Si Si5 0.755517 0.204182 0.332161
Si Si6 0.711229 0.127270 0.565447
Si Si7 0.500000 0.500000 0.000000
Si Si8 0.838186 0.996679 0.948406
O O1 0.612370 0.054506 0.212480
O O2 0.286520 0.199929 0.311333
O O3 0.287990 0.998333 0.238251
O O4 0.284211 0.989971 0.384363
O O5 0.623461 0.328039 0.384646
O O6 0.384456 0.516922 0.446424
O O7 0.768318 0.529321 0.386611
O O8 0.796829 0.298335 0.734530
O O9 0.704407 0.240508 0.622706
O O10 0.015234 0.390206 0.565358
O O11 0.971566 0.221886 0.310949
O O12 0.918839 0.153233 0.457188
O O13 0.978516 0.381582 0.407145
O O14 0.630688 0.090227 0.403412
O O15 0.541455 0.100528 0.554150
#
# Coordination Sequence:
#
# PCOD9247054 Si02
#       8
#     4   4   4   4   4   4   2   4
#     4  12  24  40  70 103 143 188 244 307 367 442
#     4  10  22  46  72 103 143 192 245 309 379 458
#     4  12  25  42  71 108 143 191 249 314 369 440
#     4  10  24  43  67  97 145 189 238 305 373 454
#     4  10  21  43  69 101 143 185 247 300 377 453
#     4  11  24  44  68 105 142 187 253 305 373 445
#     4  10  22  46  70 102 144 200 242 308 384 448
#     4  10  24  46  70 102 145 191 243 305 380 447
#
# _framework density 23.197381
#
# number of rings (size 3 to 8) (size 9 to 14) (size 15 to 20)
#    0.000    1.333    2.667    2.000    1.867    4.267 
#    4.800    0.000    0.000    0.000    0.000    0.000 
#    0.000    0.000    0.000    0.000    0.000    0.000 
#
# Total GULP energy -167002.217694 kJ/mol
# GULP energy per Si atom -5566.740590 kJ/mol
# Density = 2.314458 g / cm^3
# Si number density = 23.197381 Si / 1000 Ang^3
#
#
#
# Elastic Constant Matrix: (Units=GPa)
#
#
# Indices 1 2 3 4 5 6 
#
# 1 81.7457 48.4526 48.6049 0.0000 7.7359 0.0000
# 2 48.4526 74.8538 9.5224 0.0000 -0.4943 0.0000
# 3 48.6049 9.5224 81.7293 0.0000 44.3494 0.0000
# 4 0.0000 0.0000 0.0000 38.1407 0.0000 4.6540
# 5 7.7359 -0.4943 44.3494 0.0000 46.1729 0.0000
# 6 0.0000 0.0000 0.0000 4.6540 0.0000 36.9436
#
#
#
# Elastic Compliance Matrix: (Units=1/GPa)
#
#
# Indices 1 2 3 4 5 6 
#
# 1 0.058362 -0.030690 -0.053569 0.000000 0.041347 0.000000
# 2 -0.030690 0.029971 0.024636 0.000000 -0.018200 0.000000
# 3 -0.053569 0.024636 0.075627 0.000000 -0.063401 0.000000
# 4 0.000000 0.000000 0.000000 0.026628 0.000000 -0.003355
# 5 0.041347 -0.018200 -0.063401 0.000000 0.075433 0.000000
# 6 0.000000 0.000000 0.000000 -0.003355 0.000000 0.027491
#
#
# Mechanical properties :
#
#
# Convention : Reuss Voigt Hill
#
# Bulk Modulus (GPa) = 22.36471 50.16541 36.26506
# Shear Modulus (GPa) = 11.69144 33.03469 22.36307
#
# Velocity S-wave (km/s) = 2.24743 3.77778 3.10826
# Velocity P-wave (km/s) = 4.04927 6.37975 5.34312
#
# Compressibility (1/GPa) = 0.04471329
#
# Stress axis : x y z
#
# Youngs Moduli (GPa) = 17.13435 33.36581 13.22280
#
# Poissons Ratio (x) = 1.02400 0.70833
# Poissons Ratio (y) = 0.52585 -0.32575
# Poissons Ratio (z) = 0.91787 -0.82199
#
# Static dielectric constant tensor:
#      x y z
#    x 1.898230 0.000000 0.017360 
#    y 0.000000 1.869270 0.000000 
#    z 0.017360 0.000000 1.872050 
# 
# From -- ./inp_files/55597.got.cif
#   From: 2010.05.17/outbox.cif.g08.bks.cpg/sg14_28_cif.got.tgz:55597.got - 2010.06.03 17:49:19.
