data_PCOD9247526
_publ_section_title
;
Structure prediction by ZEFSAII (Michael W. Deem and Ramdas Pophale) SiO2 
 PCOD9247526
Probable space group: P 21/C
;
_chemical_formula_sum "Si O2"
_cell_formula_units_Z 20
_cell_length_a 8.845909
_cell_length_b 7.639786
_cell_length_c 19.139230
_cell_angle_alpha 90.000000
_cell_angle_beta 42.796979
_cell_angle_gamma 90.000000
_cell_volume 878.770233
_symmetry_space_group_name_H-M "P 21/C"
_symmetry_group_IT_number 14
_symmetry_cell_setting 'monoclinic'
loop_
_space_group_symop_operation_xyz
x,y,z
-x,1/2+y,1/2-z
-x,-y,-z
x,1/2-y,1/2+z
loop_
_atom_site_type_symbol
_atom_site_label
_atom_site_fract_x
_atom_site_fract_y
_atom_site_fract_z
Si Si1 0.620407 0.166985 0.133513
Si Si2 0.822294 0.587594 0.847911
Si Si3 0.650651 0.231724 0.970313
Si Si4 0.652757 0.486078 0.762718
Si Si5 0.684635 0.370589 0.309587
O O1 0.532852 0.362024 0.180322
O O2 0.742377 0.077182 0.157465
O O3 0.405838 0.041723 0.196688
O O4 0.729025 0.170273 0.019947
O O5 0.785473 0.403095 0.899136
O O6 0.821497 0.555673 0.764421
O O7 0.056189 0.662151 0.792453
O O8 0.603883 0.701674 0.935435
O O9 0.659788 0.105550 0.900959
O O10 0.557807 0.305917 0.829169
#
# Coordination Sequence:
#
# PCOD9247526 Si02
#       5
#     4   4   4   4   4
#     4  11  21  41  64  95 131 171 210 258 325 371
#     4   9  21  41  67  94 130 165 212 271 313 366
#     4   9  21  39  65  96 125 166 218 263 312 378
#     4  10  22  38  65  93 131 170 205 262 322 371
#     4  11  22  41  71  91 126 172 220 257 316 384
#
# _framework density 22.759076
#
# number of rings (size 3 to 8) (size 9 to 14) (size 15 to 20)
#    0.000    2.000    2.000    1.800   11.200    0.000 
#    0.000    2.000    0.000    0.000    0.000    0.000 
#    0.000    0.000    0.000    0.000    0.000    0.000 
#
# Total GULP energy -111630.199921 kJ/mol
# GULP energy per Si atom -5581.509996 kJ/mol
# Density = 2.270728 g / cm^3
# Si number density = 22.759076 Si / 1000 Ang^3
#
#
#
# Elastic Constant Matrix: (Units=GPa)
#
#
# Indices 1 2 3 4 5 6 
#
# 1 67.4795 19.8190 50.4234 0.0000 20.6334 0.0000
# 2 19.8190 104.9634 17.5463 0.0000 -2.1015 0.0000
# 3 50.4234 17.5463 72.1158 0.0000 28.3816 0.0000
# 4 0.0000 0.0000 0.0000 32.4265 0.0000 18.5492
# 5 20.6334 -2.1015 28.3816 0.0000 41.4710 0.0000
# 6 0.0000 0.0000 0.0000 18.5492 0.0000 21.8342
#
#
#
# Elastic Compliance Matrix: (Units=1/GPa)
#
#
# Indices 1 2 3 4 5 6 
#
# 1 0.031661 -0.002515 -0.020907 0.000000 -0.001572 0.000000
# 2 -0.002515 0.010402 -0.002015 0.000000 0.003157 0.000000
# 3 -0.020907 -0.002015 0.034108 0.000000 -0.013043 0.000000
# 4 0.000000 0.000000 0.000000 0.059995 0.000000 -0.050969
# 5 -0.001572 0.003157 -0.013043 0.000000 0.033981 0.000000
# 6 0.000000 0.000000 0.000000 -0.050969 0.000000 0.089100
#
#
# Mechanical properties :
#
#
# Convention : Reuss Voigt Hill
#
# Bulk Modulus (GPa) = 39.52976 46.68179 43.10578
# Shear Modulus (GPa) = 15.69592 29.59767 22.64679
#
# Velocity S-wave (km/s) = 2.62898 3.61013 3.15789
# Velocity P-wave (km/s) = 5.15964 6.15899 5.68133
#
# Compressibility (1/GPa) = 0.02529739
#
# Stress axis : x y z
#
# Youngs Moduli (GPa) = 31.58463 96.13488 29.31867
#
# Poissons Ratio (x) = 0.24175 0.61296
# Poissons Ratio (y) = 0.07943 0.05908
# Poissons Ratio (z) = 0.66033 0.19373
#
# Static dielectric constant tensor:
#      x y z
#    x 1.843100 0.000000 0.067150 
#    y 0.000000 1.868370 0.000000 
#    z 0.067150 0.000000 1.859910 
# 
# From -- ./inp_files/46106.got.cif
#   From: 2010.05.17/outbox.cif.g08.bks.cpg/sg14_24_cif.got.tgz:46106.got - 2010.06.03 17:49:19.
