data_PCOD9247907
_publ_section_title
;
Structure prediction by ZEFSAII (Michael W. Deem and Ramdas Pophale) SiO2 
 PCOD9247907
Probable space group: P 21/C
;
_chemical_formula_sum "Si O2"
_cell_formula_units_Z 20
_cell_length_a 7.763632
_cell_length_b 4.924146
_cell_length_c 23.456957
_cell_angle_alpha 90.000000
_cell_angle_beta 55.426697
_cell_angle_gamma 90.000000
_cell_volume 738.378179
_symmetry_space_group_name_H-M "P 21/C"
_symmetry_group_IT_number 14
_symmetry_cell_setting 'monoclinic'
loop_
_space_group_symop_operation_xyz
x,y,z
-x,1/2+y,1/2-z
-x,-y,-z
x,1/2-y,1/2+z
loop_
_atom_site_type_symbol
_atom_site_label
_atom_site_fract_x
_atom_site_fract_y
_atom_site_fract_z
Si Si1 0.648569 0.054923 0.648696
Si Si2 0.768992 0.093499 0.020988
Si Si3 0.613060 0.295805 0.936765
Si Si4 0.753923 0.937515 0.193511
Si Si5 0.951155 0.045087 0.293189
O O1 0.702616 0.159404 0.575464
O O2 0.426820 0.082035 0.723693
O O3 0.689400 0.737845 0.649820
O O4 0.784514 0.264113 0.662360
O O5 0.560025 0.903728 0.057204
O O6 0.776271 0.159374 0.951371
O O7 0.000000 0.000000 0.000000
O O8 0.727858 0.456037 0.864810
O O9 0.500000 0.500000 0.000000
O O10 0.919456 0.737296 0.189799
O O11 0.039822 0.748126 0.263189
#
# Coordination Sequence:
#
# PCOD9247907 Si02
#       5
#     4   4   4   4   4
#     4  10  22  40  68  99 140 187 247 310 370 448
#     4  11  26  47  75 105 154 208 252 313 398 461
#     4  11  29  47  75 116 158 197 269 327 384 484
#     4  10  22  40  66 102 138 186 255 306 367 457
#     4  12  27  46  76 104 152 207 257 323 401 459
#
# _framework density 27.086392
#
# number of rings (size 3 to 8) (size 9 to 14) (size 15 to 20)
#    0.000    1.200    0.000    3.600   14.000    2.400 
#    0.000    0.000    0.000    0.000    0.000    0.000 
#    0.000    0.000    0.000    0.000    0.000    0.000 
#
# Total GULP energy -111743.112916 kJ/mol
# GULP energy per Si atom -5587.155646 kJ/mol
# Density = 2.702474 g / cm^3
# Si number density = 27.086392 Si / 1000 Ang^3
#
#
#
# Elastic Constant Matrix: (Units=GPa)
#
#
# Indices 1 2 3 4 5 6 
#
# 1 123.9726 6.9954 25.7301 0.0000 24.4805 0.0000
# 2 6.9954 109.0119 27.5730 0.0000 -0.2720 0.0000
# 3 25.7301 27.5730 112.0617 0.0000 13.0900 0.0000
# 4 0.0000 0.0000 0.0000 57.0715 0.0000 9.1569
# 5 24.4805 -0.2720 13.0900 0.0000 60.2796 0.0000
# 6 0.0000 0.0000 0.0000 9.1569 0.0000 35.1695
#
#
#
# Elastic Compliance Matrix: (Units=1/GPa)
#
#
# Indices 1 2 3 4 5 6 
#
# 1 0.009076 -0.000173 -0.001653 0.000000 -0.003328 0.000000
# 2 -0.000173 0.009805 -0.002448 0.000000 0.000646 0.000000
# 3 -0.001653 -0.002448 0.010084 0.000000 -0.001530 0.000000
# 4 0.000000 0.000000 0.000000 0.018286 0.000000 -0.004761
# 5 -0.003328 0.000646 -0.001530 0.000000 0.018276 0.000000
# 6 0.000000 0.000000 0.000000 -0.004761 0.000000 0.029673
#
#
# Mechanical properties :
#
#
# Convention : Reuss Voigt Hill
#
# Bulk Modulus (GPa) = 48.97627 51.73813 50.35720
# Shear Modulus (GPa) = 45.22655 49.48730 47.35693
#
# Velocity S-wave (km/s) = 4.09065 4.27900 4.18588
# Velocity P-wave (km/s) = 6.35861 6.59968 6.48027
#
# Compressibility (1/GPa) = 0.02041805
#
# Stress axis : x y z
#
# Youngs Moduli (GPa) = 110.17809 101.98571 99.16452
#
# Poissons Ratio (x) = 0.01761 0.16389
# Poissons Ratio (y) = 0.01903 0.24280
# Poissons Ratio (z) = 0.18210 0.24970
#
# Static dielectric constant tensor:
#      x y z
#    x 2.434610 0.000000 0.134280 
#    y 0.000000 2.037540 0.000000 
#    z 0.134280 0.000000 2.226000 
# 
# From -- ./inp_files/63980.got.cif
#   From: 2010.05.17/outbox.cif.g08.bks.cpg/sg14_32_cif.got.tgz:63980.got - 2010.06.03 17:49:19.
