data_PCOD9247826
_publ_section_title
;
Structure prediction by ZEFSAII (Michael W. Deem and Ramdas Pophale) SiO2 
 PCOD9247826
Probable space group: P 21/C
;
_chemical_formula_sum "Si O2"
_cell_formula_units_Z 28
_cell_length_a 9.827157
_cell_length_b 7.076348
_cell_length_c 19.975696
_cell_angle_alpha 90.000000
_cell_angle_beta 53.842136
_cell_angle_gamma 90.000000
_cell_volume 1121.565773
_symmetry_space_group_name_H-M "P 21/C"
_symmetry_group_IT_number 14
_symmetry_cell_setting 'monoclinic'
loop_
_space_group_symop_operation_xyz
x,y,z
-x,1/2+y,1/2-z
-x,-y,-z
x,1/2-y,1/2+z
loop_
_atom_site_type_symbol
_atom_site_label
_atom_site_fract_x
_atom_site_fract_y
_atom_site_fract_z
Si Si1 0.226935 0.571914 0.415108
Si Si2 0.200667 0.585320 0.018504
Si Si3 0.073667 0.313267 0.570407
Si Si4 0.229964 0.682055 0.155680
Si Si5 0.528335 0.604337 0.148549
Si Si6 0.598507 0.699435 0.271378
Si Si7 0.143969 0.256321 0.694896
O O1 0.162360 0.759365 0.473854
O O2 0.181658 0.401337 0.478086
O O3 0.422915 0.599201 0.343252
O O4 0.107869 0.584475 0.384345
O O5 0.066386 0.416760 0.069131
O O6 0.248004 0.701895 0.070977
O O7 0.359794 0.468775 0.945035
O O8 0.154309 0.353976 0.619414
O O9 0.384572 0.735870 0.158524
O O10 0.215345 0.453951 0.165681
O O11 0.051853 0.760964 0.230583
O O12 0.630674 0.677147 0.183115
O O13 0.442267 0.418115 0.204200
O O14 0.752357 0.648866 0.275229
#
# Coordination Sequence:
#
# PCOD9247826 Si02
#       7
#     4   4   4   4   4   4   4
#     4  10  22  40  63  91 123 161 205 254 309 369
#     4  10  22  40  64  94 122 164 206 260 308 370
#     4  10  22  40  63  91 123 161 205 254 309 369
#     4  10  22  41  63  89 125 162 203 256 310 368
#     4  10  22  41  63  89 125 162 203 256 310 368
#     4  10  23  40  60  90 123 160 206 251 308 372
#     4  10  23  40  60  90 123 160 206 251 308 372
#
# _framework density 24.965097
#
# number of rings (size 3 to 8) (size 9 to 14) (size 15 to 20)
#    0.000    2.000    0.000    1.714    4.000    8.571 
#    0.000    0.000    0.000    0.000    0.000    0.000 
#    0.000    0.000    0.000    0.000    0.000    0.000 
#
# Total GULP energy -156634.072730 kJ/mol
# GULP energy per Si atom -5594.074026 kJ/mol
# Density = 2.490827 g / cm^3
# Si number density = 24.965097 Si / 1000 Ang^3
#
#
#
# Elastic Constant Matrix: (Units=GPa)
#
#
# Indices 1 2 3 4 5 6 
#
# 1 158.3318 3.9300 33.0662 0.0000 26.4597 0.0000
# 2 3.9300 65.1656 -7.0870 0.0000 6.2908 0.0000
# 3 33.0662 -7.0870 85.0646 0.0000 14.4795 0.0000
# 4 0.0000 0.0000 0.0000 -22.0242 0.0000 10.2861
# 5 26.4597 6.2908 14.4795 0.0000 27.4794 0.0000
# 6 0.0000 0.0000 0.0000 10.2861 0.0000 21.1250
#
#
#
# Elastic Compliance Matrix: (Units=1/GPa)
#
#
# Indices 1 2 3 4 5 6 
#
# 1 0.007805 -0.000055 -0.001935 0.000000 -0.006483 0.000000
# 2 -0.000055 0.016044 0.002169 0.000000 -0.004763 0.000000
# 3 -0.001935 0.002169 0.013683 0.000000 -0.005843 0.000000
# 4 0.000000 0.000000 0.000000 -0.036992 0.000000 0.018012
# 5 -0.006483 -0.004763 -0.005843 0.000000 0.046803 0.000000
# 6 0.000000 0.000000 0.000000 0.018012 0.000000 0.038567
#
#
# Mechanical properties :
#
#
# Convention : Reuss Voigt Hill
#
# Bulk Modulus (GPa) = 26.39234 40.93117 33.66176
# Shear Modulus (GPa) = 50.92576 23.89290 37.40933
#
# Velocity S-wave (km/s) = 4.52140 3.09698 3.87520
# Velocity P-wave (km/s) = 6.15240 5.40549 5.79100
#
# Compressibility (1/GPa) = 0.03788979
#
# Stress axis : x y z
#
# Youngs Moduli (GPa) = 128.12782 62.32669 73.08194
#
# Poissons Ratio (x) = 0.00345 0.14141
# Poissons Ratio (y) = 0.00708 -0.15851
# Poissons Ratio (z) = 0.24792 -0.13518
#
# Static dielectric constant tensor:
#      x y z
#    x 2.008510 0.000000 0.011630 
#    y 0.000000 2.029720 0.000000 
#    z 0.011630 0.000000 1.958690 
# 
# From -- ./inp_files/64978.got.cif
#   From: 2010.05.17/outbox.cif.g08.bks.cpg/sg14_33_cif.got.tgz:64978.got - 2010.06.03 17:49:19.
