data_PCOD9247004
_publ_section_title
;
Structure prediction by ZEFSAII (Michael W. Deem and Ramdas Pophale) SiO2 
 PCOD9247004
Probable space group: P 21/C
;
_chemical_formula_sum "Si O2"
_cell_formula_units_Z 28
_cell_length_a 14.176752
_cell_length_b 8.727581
_cell_length_c 14.541893
_cell_angle_alpha 90.000000
_cell_angle_beta 136.566150
_cell_angle_gamma 90.000000
_cell_volume 1237.014508
_symmetry_space_group_name_H-M "P 21/C"
_symmetry_group_IT_number 14
_symmetry_cell_setting 'monoclinic'
loop_
_space_group_symop_operation_xyz
x,y,z
-x,1/2+y,1/2-z
-x,-y,-z
x,1/2-y,1/2+z
loop_
_atom_site_type_symbol
_atom_site_label
_atom_site_fract_x
_atom_site_fract_y
_atom_site_fract_z
Si Si1 0.373158 0.855549 0.812850
Si Si2 0.118298 0.931274 0.359978
Si Si3 0.317367 0.036286 0.942642
Si Si4 0.096065 0.266548 0.396984
Si Si5 0.846763 0.931309 0.894758
Si Si6 0.263964 0.797576 0.061099
Si Si7 0.659739 0.465054 0.112718
O O1 0.300690 0.987365 0.823807
O O2 0.344100 0.821323 0.684583
O O3 0.328604 0.700077 0.831939
O O4 0.534343 0.886432 0.940202
O O5 0.124867 0.793640 0.436789
O O6 0.275951 0.959298 0.442901
O O7 0.038273 0.868521 0.215510
O O8 0.061682 0.092210 0.351217
O O9 0.204556 0.152326 0.904478
O O10 0.318139 0.879883 0.006029
O O11 0.146584 0.281879 0.536911
O O12 0.765498 0.054689 0.898533
O O13 0.758007 0.920030 0.739635
O O14 0.000000 0.000000 0.000000
O O15 0.500000 0.500000 0.000000
#
# Coordination Sequence:
#
# PCOD9247004 Si02
#       7
#     4   4   4   4   4   4   4
#     4  10  22  42  67  95 135 177 219 277 342 401
#     4  12  24  42  66  97 135 171 227 278 345 403
#     4  10  21  43  66  93 134 177 222 276 338 401
#     4  11  24  41  67  96 132 178 220 281 341 403
#     4  10  21  43  68  95 135 179 225 274 342 407
#     4  10  23  41  66  97 132 177 222 284 333 403
#     4  11  23  41  68  98 134 177 226 277 338 404
#
# _framework density 22.635142999999999
#
# number of rings (size 3 to 8) (size 9 to 14) (size 15 to 20)
#    0.000    1.429    2.857    2.571    0.000    4.571 
#    7.714    1.429    0.000    0.000    0.000    0.000 
#    0.000    0.000    0.000    0.000    0.000    0.000 
#
# Total GULP energy -156161.879577 kJ/mol
# GULP energy per Si atom -5577.209985 kJ/mol
# Density = 2.258362 g / cm^3
# Si number density = 22.635143 Si / 1000 Ang^3
#
#
#
# Elastic Constant Matrix: (Units=GPa)
#
#
# Indices 1 2 3 4 5 6 
#
# 1 50.2255 -9.5956 -1.3463 0.0000 5.0600 0.0000
# 2 -9.5956 71.9530 12.3451 0.0000 -18.1400 0.0000
# 3 -1.3463 12.3451 77.0571 0.0000 -12.8858 0.0000
# 4 0.0000 0.0000 0.0000 30.4368 0.0000 4.7682
# 5 5.0600 -18.1400 -12.8858 0.0000 35.4457 0.0000
# 6 0.0000 0.0000 0.0000 4.7682 0.0000 16.1888
#
#
#
# Elastic Compliance Matrix: (Units=1/GPa)
#
#
# Indices 1 2 3 4 5 6 
#
# 1 0.020533 0.002325 -0.000325 0.000000 -0.001859 0.000000
# 2 0.002325 0.016337 -0.001314 0.000000 0.007551 0.000000
# 3 -0.000325 -0.001314 0.013924 0.000000 0.004436 0.000000
# 4 0.000000 0.000000 0.000000 0.034444 0.000000 -0.010145
# 5 -0.001859 0.007551 0.004436 0.000000 0.033955 0.000000
# 6 0.000000 0.000000 0.000000 -0.010145 0.000000 0.064759
#
#
# Mechanical properties :
#
#
# Convention : Reuss Voigt Hill
#
# Bulk Modulus (GPa) = 19.16904 22.44912 20.80908
# Shear Modulus (GPa) = 25.00393 29.60308 27.30350
#
# Velocity S-wave (km/s) = 3.32723 3.62033 3.47687
# Velocity P-wave (km/s) = 4.82159 5.23594 5.03303
#
# Compressibility (1/GPa) = 0.05216746
#
# Stress axis : x y z
#
# Youngs Moduli (GPa) = 48.70199 61.20983 71.81851
#
# Poissons Ratio (x) = -0.14233 0.02332
# Poissons Ratio (y) = -0.11324 0.09437
# Poissons Ratio (z) = 0.01581 0.08043
#
# Static dielectric constant tensor:
#      x y z
#    x 1.869120 0.000000 -0.047940 
#    y 0.000000 1.863360 0.000000 
#    z -0.047940 0.000000 1.924440 
# 
# From -- ./inp_files/43484.got.cif
#   From: 2010.05.17/outbox.cif.g08.bks.cpg/sg14_22_cif.got.tgz:43484.got - 2010.06.03 17:49:19.
