data_PCOD9247374
_publ_section_title
;
Structure prediction by ZEFSAII (Michael W. Deem and Ramdas Pophale) SiO2 
 PCOD9247374
Probable space group: P 21/C
;
_chemical_formula_sum "Si O2"
_cell_formula_units_Z 28
_cell_length_a 12.175335
_cell_length_b 10.613055
_cell_length_c 9.066716
_cell_angle_alpha 90.000000
_cell_angle_beta 86.564601
_cell_angle_gamma 90.000000
_cell_volume 1169.473044
_symmetry_space_group_name_H-M "P 21/C"
_symmetry_group_IT_number 14
_symmetry_cell_setting 'monoclinic'
loop_
_space_group_symop_operation_xyz
x,y,z
-x,1/2+y,1/2-z
-x,-y,-z
x,1/2-y,1/2+z
loop_
_atom_site_type_symbol
_atom_site_label
_atom_site_fract_x
_atom_site_fract_y
_atom_site_fract_z
Si Si1 0.743837 0.846268 0.383428
Si Si2 0.386437 0.746144 0.488821
Si Si3 0.284266 0.390637 0.790878
Si Si4 0.466480 0.920015 0.220210
Si Si5 0.686133 0.081188 0.245133
Si Si6 0.990280 0.694225 0.903212
Si Si7 0.020015 0.075599 0.286885
O O1 0.684725 0.886953 0.538367
O O2 0.687833 0.741338 0.288233
O O3 0.858842 0.790819 0.429168
O O4 0.765708 0.968177 0.281024
O O5 0.445567 0.832599 0.363533
O O6 0.473662 0.663235 0.572936
O O7 0.301960 0.660137 0.403537
O O8 0.323199 0.826542 0.615768
O O9 0.355499 0.499052 0.712238
O O10 0.153571 0.411747 0.784947
O O11 0.568195 0.011321 0.237825
O O12 0.025403 0.830104 0.836483
O O13 0.004954 0.575659 0.790170
O O14 0.028307 0.637644 0.057202
#
# Coordination Sequence:
#
# PCOD9247374 Si02
#       7
#     4   4   4   4   4   4   4
#     4  10  22  37  59  84 112 149 190 230 281 341
#     4  10  24  40  54  84 114 146 196 234 276 336
#     4  10  22  37  59  84 112 149 190 230 281 341
#     4  11  23  39  59  80 117 149 190 234 283 332
#     4  11  23  39  59  80 117 149 190 234 283 332
#     4   9  19  39  59  84 115 147 189 236 284 342
#     4   9  19  39  59  84 115 147 189 236 284 342
#
# _framework density 23.942409000000001
#
# number of rings (size 3 to 8) (size 9 to 14) (size 15 to 20)
#    0.000    2.000    1.429    0.857    6.000    0.571 
#    5.143    0.000    0.000    0.000    0.000    0.000 
#    0.000    0.000    0.000    0.000    0.000    0.000 
#
# Total GULP energy -156499.072838 kJ/mol
# GULP energy per Si atom -5589.252601 kJ/mol
# Density = 2.388792 g / cm^3
# Si number density = 23.942409 Si / 1000 Ang^3
#
#
#
# Elastic Constant Matrix: (Units=GPa)
#
#
# Indices 1 2 3 4 5 6 
#
# 1 39.2612 -0.0915 2.4378 0.0000 3.1659 0.0000
# 2 -0.0915 88.4239 24.1587 0.0000 -0.1326 0.0000
# 3 2.4378 24.1587 60.0013 0.0000 13.6723 0.0000
# 4 0.0000 0.0000 0.0000 48.1944 0.0000 10.7531
# 5 3.1659 -0.1326 13.6723 0.0000 17.5552 0.0000
# 6 0.0000 0.0000 0.0000 10.7531 0.0000 25.6929
#
#
#
# Elastic Compliance Matrix: (Units=1/GPa)
#
#
# Indices 1 2 3 4 5 6 
#
# 1 0.025846 0.000018 0.000006 0.000000 -0.004665 0.000000
# 2 0.000018 0.013073 -0.006427 0.000000 0.005101 0.000000
# 3 0.000006 -0.006427 0.023421 0.000000 -0.018291 0.000000
# 4 0.000000 0.000000 0.000000 0.022886 0.000000 -0.009579
# 5 -0.004665 0.005101 -0.018291 0.000000 0.072088 0.000000
# 6 0.000000 0.000000 0.000000 -0.009579 0.000000 0.042930
#
#
# Mechanical properties :
#
#
# Convention : Reuss Voigt Hill
#
# Bulk Modulus (GPa) = 20.18769 26.74402 23.46585
# Shear Modulus (GPa) = 21.78060 29.03393 25.40726
#
# Velocity S-wave (km/s) = 3.01941 3.48610 3.26111
# Velocity P-wave (km/s) = 4.53937 5.23433 4.89919
#
# Compressibility (1/GPa) = 0.04953515
#
# Stress axis : x y z
#
# Youngs Moduli (GPa) = 38.69021 76.49559 42.69591
#
# Poissons Ratio (x) = -0.00139 -0.00024
# Poissons Ratio (y) = -0.00070 0.27439
# Poissons Ratio (z) = -0.00022 0.49160
#
# Static dielectric constant tensor:
#      x y z
#    x 1.934930 0.000000 0.005250 
#    y 0.000000 1.929110 0.000000 
#    z 0.005250 0.000000 1.919320 
# 
# From -- ./inp_files/15330.got.cif
#   From: 2010.05.17/outbox.cif.g08.bks.cpg/sg14_8_cif.got.tgz:15330.got - 2010.06.03 17:49:19.
