data_PCOD9247206
_publ_section_title
;
Structure prediction by ZEFSAII (Michael W. Deem and Ramdas Pophale) SiO2 
 PCOD9247206
Probable space group: P 21/C
;
_chemical_formula_sum "Si O2"
_cell_formula_units_Z 16
_cell_length_a 7.778576
_cell_length_b 8.342958
_cell_length_c 10.916753
_cell_angle_alpha 90.000000
_cell_angle_beta 108.993950
_cell_angle_gamma 90.000000
_cell_volume 669.883828
_symmetry_space_group_name_H-M "P 21/C"
_symmetry_group_IT_number 14
_symmetry_cell_setting 'monoclinic'
loop_
_space_group_symop_operation_xyz
x,y,z
-x,1/2+y,1/2-z
-x,-y,-z
x,1/2-y,1/2+z
loop_
_atom_site_type_symbol
_atom_site_label
_atom_site_fract_x
_atom_site_fract_y
_atom_site_fract_z
Si Si1 0.493748 0.309017 0.516923
Si Si2 0.779363 0.374616 0.228363
Si Si3 0.600024 0.660505 0.761026
Si Si4 0.058613 0.935626 0.645120
O O1 0.500000 0.500000 0.500000
O O2 0.688013 0.227763 0.594590
O O3 0.373313 0.256992 0.606045
O O4 0.419644 0.244341 0.370621
O O5 0.599932 0.415582 0.263408
O O6 0.899836 0.251104 0.334239
O O7 0.906520 0.511667 0.206650
O O8 0.753826 0.528278 0.782561
O O9 0.000000 0.000000 0.500000
#
# Coordination Sequence:
#
# PCOD9247206 Si02
#       4
#     4   4   4   4
#     4  10  21  45  68 100 136 188 233 285 351 423
#     4  10  26  42  74 102 144 182 241 287 360 415
#     4  10  23  45  70  98 144 183 236 288 355 415
#     4  12  26  45  70 110 144 184 239 295 360 420
#
# _framework density 23.884737000000001
#
# number of rings (size 3 to 8) (size 9 to 14) (size 15 to 20)
#    1.500    0.000    2.500    1.500    3.500    5.000 
#    0.000    3.750    0.000    0.000    0.000    0.000 
#    0.000    0.000    0.000    0.000    0.000    0.000 
#
# Total GULP energy -89432.929177 kJ/mol
# GULP energy per Si atom -5589.558074 kJ/mol
# Density = 2.383037 g / cm^3
# Si number density = 23.884737 Si / 1000 Ang^3
#
#
#
# Elastic Constant Matrix: (Units=GPa)
#
#
# Indices 1 2 3 4 5 6 
#
# 1 143.8643 36.3037 31.3985 0.0000 4.4158 0.0000
# 2 36.3037 51.0543 3.5617 0.0000 0.6626 0.0000
# 3 31.3985 3.5617 132.1077 0.0000 -26.3526 0.0000
# 4 0.0000 0.0000 0.0000 37.6537 0.0000 -1.9311
# 5 4.4158 0.6626 -26.3526 0.0000 39.7249 0.0000
# 6 0.0000 0.0000 0.0000 -1.9311 0.0000 22.3574
#
#
#
# Elastic Compliance Matrix: (Units=1/GPa)
#
#
# Indices 1 2 3 4 5 6 
#
# 1 0.009176 -0.006315 -0.002527 0.000000 -0.002591 0.000000
# 2 -0.006315 0.023991 0.001054 0.000000 0.001001 0.000000
# 3 -0.002527 0.001054 0.009444 0.000000 0.006528 0.000000
# 4 0.000000 0.000000 0.000000 0.026676 0.000000 0.002304
# 5 -0.002591 0.001001 0.006528 0.000000 0.029775 0.000000
# 6 0.000000 0.000000 0.000000 0.002304 0.000000 0.044927
#
#
# Mechanical properties :
#
#
# Convention : Reuss Voigt Hill
#
# Bulk Modulus (GPa) = 36.99102 52.17268 44.58185
# Shear Modulus (GPa) = 29.66006 36.99803 33.32904
#
# Velocity S-wave (km/s) = 3.52774 3.94003 3.73957
# Velocity P-wave (km/s) = 5.66694 6.52606 6.11161
#
# Compressibility (1/GPa) = 0.02703359
#
# Stress axis : x y z
#
# Youngs Moduli (GPa) = 108.98410 41.68272 105.88546
#
# Poissons Ratio (x) = 0.26321 0.26762
# Poissons Ratio (y) = 0.68820 -0.11157
# Poissons Ratio (z) = 0.27545 -0.04392
#
# Static dielectric constant tensor:
#      x y z
#    x 1.875850 0.000000 -0.004540 
#    y 0.000000 1.927310 0.000000 
#    z -0.004540 0.000000 1.969690 
# 
# From -- ./inp_files/12116.got.cif
#   From: 2010.05.17/outbox.cif.g08.bks.cpg/sg14_7_cif.got.tgz:12116.got - 2010.06.03 17:49:19.
