data_PCOD9247300
_publ_section_title
;
Structure prediction by ZEFSAII (Michael W. Deem and Ramdas Pophale) SiO2 
 PCOD9247300
Probable space group: P 21/C
;
_chemical_formula_sum "Si O2"
_cell_formula_units_Z 32
_cell_length_a 17.260311
_cell_length_b 7.618091
_cell_length_c 17.493428
_cell_angle_alpha 90.000000
_cell_angle_beta 36.983478
_cell_angle_gamma 90.000000
_cell_volume 1383.778179
_symmetry_space_group_name_H-M "P 21/C"
_symmetry_group_IT_number 14
_symmetry_cell_setting 'monoclinic'
loop_
_space_group_symop_operation_xyz
x,y,z
-x,1/2+y,1/2-z
-x,-y,-z
x,1/2-y,1/2+z
loop_
_atom_site_type_symbol
_atom_site_label
_atom_site_fract_x
_atom_site_fract_y
_atom_site_fract_z
Si Si1 0.047689 0.368822 0.353975
Si Si2 0.995634 0.467733 0.135135
Si Si3 0.188322 0.085904 0.607868
Si Si4 0.226153 0.975276 0.949102
Si Si5 0.525112 0.585522 0.348587
Si Si6 0.737154 0.531834 0.402007
Si Si7 0.613816 0.349145 0.143905
Si Si8 0.202702 0.208624 0.367897
O O1 0.120162 0.493387 0.236429
O O2 0.143038 0.319041 0.346269
O O3 0.912760 0.453082 0.480048
O O4 0.999648 0.179342 0.358435
O O5 0.067275 0.373253 0.148629
O O6 0.841375 0.447425 0.262297
O O7 0.084719 0.407262 0.994283
O O8 0.252886 0.257968 0.594308
O O9 0.282395 0.971996 0.481226
O O10 0.316904 0.808139 0.863518
O O11 0.259824 0.166601 0.890023
O O12 0.220252 0.971919 0.045861
O O13 0.410596 0.520402 0.493032
O O14 0.532320 0.457433 0.269218
O O15 0.471012 0.766112 0.356148
O O16 0.671707 0.603857 0.259852
#
# Coordination Sequence:
#
# PCOD9247300 Si02
#       8
#     4   4   4   4   4   4   4   4
#     4  11  24  38  63  98 132 168 210 266 331 380
#     4  11  21  41  66  92 123 167 216 266 313 374
#     4  11  20  40  65  96 121 158 222 269 311 370
#     4  11  20  36  60  93 122 163 214 266 317 367
#     4  11  22  38  60  93 129 164 210 266 324 385
#     4  10  22  35  65  95 117 160 218 269 311 366
#     4  11  21  37  64  95 118 164 222 272 315 368
#     4  12  24  41  61  96 139 169 204 264 328 396
#
# _framework density 23.125093
#
# number of rings (size 3 to 8) (size 9 to 14) (size 15 to 20)
#    0.000    1.000    5.000    3.000    0.000    2.000 
#    0.000    3.125    0.000    3.000    0.000    0.000 
#    0.000    0.000    0.000    0.000    0.000    0.000 
#
# Total GULP energy -178537.558280 kJ/mol
# GULP energy per Si atom -5579.298696 kJ/mol
# Density = 2.307246 g / cm^3
# Si number density = 23.125093 Si / 1000 Ang^3
#
#
#
# Elastic Constant Matrix: (Units=GPa)
#
#
# Indices 1 2 3 4 5 6 
#
# 1 80.5561 0.4870 36.8415 0.0000 -19.5118 0.0000
# 2 0.4870 62.5305 45.6065 0.0000 -10.2088 0.0000
# 3 36.8415 45.6065 189.1347 0.0000 -34.6333 0.0000
# 4 0.0000 0.0000 0.0000 11.8483 0.0000 -3.4372
# 5 -19.5118 -10.2088 -34.6333 0.0000 25.3452 0.0000
# 6 0.0000 0.0000 0.0000 -3.4372 0.0000 27.8540
#
#
#
# Elastic Compliance Matrix: (Units=1/GPa)
#
#
# Indices 1 2 3 4 5 6 
#
# 1 0.015875 0.002981 -0.001805 0.000000 0.010955 0.000000
# 2 0.002981 0.020034 -0.004686 0.000000 0.003961 0.000000
# 3 -0.001805 -0.004686 0.008227 0.000000 0.007965 0.000000
# 4 0.000000 0.000000 0.000000 0.087534 0.000000 0.010802
# 5 0.010955 0.003961 0.007965 0.000000 0.060369 0.000000
# 6 0.000000 0.000000 0.000000 0.010802 0.000000 0.037234
#
#
# Mechanical properties :
#
#
# Convention : Reuss Voigt Hill
#
# Bulk Modulus (GPa) = 26.94241 55.34347 41.14294
# Shear Modulus (GPa) = 20.10741 29.62858 24.86800
#
# Velocity S-wave (km/s) = 2.95194 3.58331 3.28284
# Velocity P-wave (km/s) = 4.82645 6.41127 5.67446
#
# Compressibility (1/GPa) = 0.03711620
#
# Stress axis : x y z
#
# Youngs Moduli (GPa) = 62.99307 49.91636 121.54537
#
# Poissons Ratio (x) = -0.14883 0.21940
# Poissons Ratio (y) = -0.18781 0.56958
# Poissons Ratio (z) = 0.11371 0.23391
#
# Static dielectric constant tensor:
#      x y z
#    x 1.841410 0.000000 -0.004090 
#    y 0.000000 1.937610 0.000000 
#    z -0.004090 0.000000 1.972170 
# 
# From -- ./inp_files/69774.got.cif
#   From: 2010.05.17/outbox.cif.g08.bks.cpg/sg14_35_cif.got.tgz:69774.got - 2010.06.03 17:49:19.
