data_PCOD9247281
_publ_section_title
;
Structure prediction by ZEFSAII (Michael W. Deem and Ramdas Pophale) SiO2 
 PCOD9247281
Probable space group: P 21/C
;
_chemical_formula_sum "Si O2"
_cell_formula_units_Z 20
_cell_length_a 11.971534
_cell_length_b 5.481832
_cell_length_c 14.803826
_cell_angle_alpha 90.000000
_cell_angle_beta 58.517509
_cell_angle_gamma 90.000000
_cell_volume 828.507767
_symmetry_space_group_name_H-M "P 21/C"
_symmetry_group_IT_number 14
_symmetry_cell_setting 'monoclinic'
loop_
_space_group_symop_operation_xyz
x,y,z
-x,1/2+y,1/2-z
-x,-y,-z
x,1/2-y,1/2+z
loop_
_atom_site_type_symbol
_atom_site_label
_atom_site_fract_x
_atom_site_fract_y
_atom_site_fract_z
Si Si1 0.470799 0.028792 0.640599
Si Si2 0.078292 0.748191 0.945094
Si Si3 0.449202 0.524665 0.683235
Si Si4 0.299193 0.698978 0.498351
Si Si5 0.077909 0.667943 0.736287
O O1 0.398381 0.776528 0.667377
O O2 0.533603 0.027596 0.716395
O O3 0.384545 0.273725 0.677921
O O4 0.599066 0.078250 0.525588
O O5 0.207332 0.747499 0.951756
O O6 0.107921 0.731559 0.826963
O O7 0.000000 0.500000 0.000000
O O8 0.000000 0.000000 0.000000
O O9 0.595317 0.502998 0.577767
O O10 0.201351 0.633280 0.618594
O O11 0.998343 0.411427 0.766930
#
# Coordination Sequence:
#
# PCOD9247281 Si02
#       5
#     4   4   4   4   4
#     4   8  16  30  52  82 104 140 188 226 273 339
#     4  12  24  40  57  83 117 155 196 238 282 341
#     4   8  16  30  52  82 104 140 188 226 273 339
#     4  10  22  34  64  76 120 148 190 234 290 326
#     4  12  24  40  57  83 117 155 196 238 282 341
#
# _framework density 24.139786000000001
#
# number of rings (size 3 to 8) (size 9 to 14) (size 15 to 20)
#    1.200    0.800    4.000    0.000    5.600    0.000 
#    0.000    0.000    0.000    2.400    0.000    0.000 
#    0.000    0.000    0.000    0.000    0.000    0.000 
#
# Total GULP energy -111645.542420 kJ/mol
# GULP energy per Si atom -5582.277121 kJ/mol
# Density = 2.408484 g / cm^3
# Si number density = 24.139786 Si / 1000 Ang^3
#
#
#
# Elastic Constant Matrix: (Units=GPa)
#
#
# Indices 1 2 3 4 5 6 
#
# 1 86.0760 20.0881 21.8898 0.0000 7.9974 0.0000
# 2 20.0881 171.6400 -7.1839 0.0000 -15.4380 0.0000
# 3 21.8898 -7.1839 161.3903 0.0000 -7.8297 0.0000
# 4 0.0000 0.0000 0.0000 36.5518 0.0000 -0.6403
# 5 7.9974 -15.4380 -7.8297 0.0000 39.5909 0.0000
# 6 0.0000 0.0000 0.0000 -0.6403 0.0000 -6.1842
#
#
#
# Elastic Compliance Matrix: (Units=1/GPa)
#
#
# Indices 1 2 3 4 5 6 
#
# 1 0.012934 -0.001937 -0.002023 0.000000 -0.003768 0.000000
# 2 -0.001937 0.006352 0.000691 0.000000 0.003005 0.000000
# 3 -0.002023 0.000691 0.006598 0.000000 0.001983 0.000000
# 4 0.000000 0.000000 0.000000 0.027309 0.000000 -0.002827
# 5 -0.003768 0.003005 0.001983 0.000000 0.027583 0.000000
# 6 0.000000 0.000000 0.000000 -0.002827 0.000000 -0.161410
#
#
# Mechanical properties :
#
#
# Convention : Reuss Voigt Hill
#
# Bulk Modulus (GPa) = 51.69260 54.29937 52.99598
# Shear Modulus (GPa) = -73.91408 39.61253 -17.15077
#
# Velocity S-wave (km/s) = -5.53946 4.05528 -2.66837
# Velocity P-wave (km/s) = 4.41065 6.66855 3.53664
#
# Compressibility (1/GPa) = 0.01934513
#
# Stress axis : x y z
#
# Youngs Moduli (GPa) = 77.31270 157.42787 151.57080
#
# Poissons Ratio (x) = 0.30501 0.30669
# Poissons Ratio (y) = 0.14979 -0.10478
# Poissons Ratio (z) = 0.15643 -0.10883
#
# Static dielectric constant tensor:
#      x y z
#    x 1.870220 0.000000 0.042310 
#    y 0.000000 2.025860 0.000000 
#    z 0.042310 0.000000 1.942100 
# 
# From -- ./inp_files/6356.got.cif
#   From: 2010.05.17/outbox.cif.g08.bks.cpg/sg14_4_cif.got.tgz:6356.got - 2010.06.03 17:49:19.
