data_PCOD9247240
_publ_section_title
;
Structure prediction by ZEFSAII (Michael W. Deem and Ramdas Pophale) SiO2 
 PCOD9247240
Probable space group: P 21/C
;
_chemical_formula_sum "Si O2"
_cell_formula_units_Z 28
_cell_length_a 15.530891
_cell_length_b 9.825481
_cell_length_c 10.537177
_cell_angle_alpha 90.000000
_cell_angle_beta 132.141143
_cell_angle_gamma 90.000000
_cell_volume 1192.290936
_symmetry_space_group_name_H-M "P 21/C"
_symmetry_group_IT_number 14
_symmetry_cell_setting 'monoclinic'
loop_
_space_group_symop_operation_xyz
x,y,z
-x,1/2+y,1/2-z
-x,-y,-z
x,1/2-y,1/2+z
loop_
_atom_site_type_symbol
_atom_site_label
_atom_site_fract_x
_atom_site_fract_y
_atom_site_fract_z
Si Si1 0.678438 0.472160 0.600260
Si Si2 0.102685 0.893090 0.324063
Si Si3 0.213984 0.518480 0.690084
Si Si4 0.899673 0.420085 0.689304
Si Si5 0.572174 0.195816 0.490603
Si Si6 0.360084 0.985197 0.650010
Si Si7 0.350545 0.282414 0.951120
O O1 0.813584 0.431294 0.723571
O O2 0.611604 0.342749 0.476796
O O3 0.624353 0.479639 0.686762
O O4 0.673874 0.625640 0.547669
O O5 0.112299 0.936043 0.185805
O O6 0.069150 0.736603 0.300802
O O7 0.233665 0.917524 0.501894
O O8 0.012474 0.987549 0.307046
O O9 0.174480 0.531540 0.506988
O O10 0.321554 0.621060 0.829017
O O11 0.255394 0.368264 0.775357
O O12 0.551356 0.099831 0.348721
O O13 0.466589 0.204798 0.482383
O O14 0.357891 0.135048 0.589518
#
# Coordination Sequence:
#
# PCOD9247240 Si02
#       7
#     4   4   4   4   4   4   4
#     4  12  25  40  66 100 135 167 218 272 320 380
#     4  10  24  42  67  93 125 170 220 264 330 386
#     4  10  22  46  67  90 130 173 212 264 328 388
#     4  12  25  43  66  95 129 170 216 270 328 387
#     4  10  21  46  68  93 132 174 216 265 326 381
#     4  10  23  46  63  94 135 170 215 269 321 389
#     4  10  24  43  67  98 129 175 218 263 318 387
#
# _framework density 23.484200999999999
#
# number of rings (size 3 to 8) (size 9 to 14) (size 15 to 20)
#    0.000    1.714    2.857    3.429    6.000    1.714 
#    5.143    0.000    0.000    0.000    0.000    0.000 
#    0.000    0.000    0.000    0.000    0.000    0.000 
#
# Total GULP energy -156735.492971 kJ/mol
# GULP energy per Si atom -5597.696178 kJ/mol
# Density = 2.343075 g / cm^3
# Si number density = 23.484201 Si / 1000 Ang^3
#
#
#
# Elastic Constant Matrix: (Units=GPa)
#
#
# Indices 1 2 3 4 5 6 
#
# 1 67.0174 -3.8324 -6.5916 0.0000 1.4702 0.0000
# 2 -3.8324 163.1482 10.7981 0.0000 6.8295 0.0000
# 3 -6.5916 10.7981 47.7419 0.0000 -3.5289 0.0000
# 4 0.0000 0.0000 0.0000 6.5097 0.0000 5.2973
# 5 1.4702 6.8295 -3.5289 0.0000 28.0447 0.0000
# 6 0.0000 0.0000 0.0000 5.2973 0.0000 41.0057
#
#
#
# Elastic Compliance Matrix: (Units=1/GPa)
#
#
# Indices 1 2 3 4 5 6 
#
# 1 0.015145 0.000249 0.001990 0.000000 -0.000604 0.000000
# 2 0.000249 0.006309 -0.001521 0.000000 -0.001741 0.000000
# 3 0.001990 -0.001521 0.021787 0.000000 0.003008 0.000000
# 4 0.000000 0.000000 0.000000 0.171664 0.000000 -0.022176
# 5 -0.000604 -0.001741 0.003008 0.000000 0.036491 0.000000
# 6 0.000000 0.000000 0.000000 -0.022176 0.000000 0.027252
#
#
# Mechanical properties :
#
#
# Convention : Reuss Voigt Hill
#
# Bulk Modulus (GPa) = 22.38295 30.96176 26.67235
# Shear Modulus (GPa) = 17.11720 33.61425 25.36573
#
# Velocity S-wave (km/s) = 2.70271 3.78743 3.29008
# Velocity P-wave (km/s) = 4.39218 5.68673 5.08085
#
# Compressibility (1/GPa) = 0.04467687
#
# Stress axis : x y z
#
# Youngs Moduli (GPa) = 66.02952 158.50867 45.89881
#
# Poissons Ratio (x) = -0.03952 -0.09134
# Poissons Ratio (y) = -0.01646 0.06982
# Poissons Ratio (z) = -0.13140 0.24112
#
# Static dielectric constant tensor:
#      x y z
#    x 1.869210 0.000000 0.005810 
#    y 0.000000 1.878950 0.000000 
#    z 0.005810 0.000000 1.930180 
# 
# From -- ./inp_files/31895.got.cif
#   From: 2010.05.17/outbox.cif.g08.bks.cpg/sg14_16_cif.got.tgz:31895.got - 2010.06.03 17:49:19.
