data_PCOD9247804
_publ_section_title
;
Structure prediction by ZEFSAII (Michael W. Deem and Ramdas Pophale) SiO2 
 PCOD9247804
Probable space group: P 21/C
;
_chemical_formula_sum "Si O2"
_cell_formula_units_Z 32
_cell_length_a 22.950140
_cell_length_b 12.175586
_cell_length_c 17.210077
_cell_angle_alpha 90.000000
_cell_angle_beta 19.899571
_cell_angle_gamma 90.000000
_cell_volume 1636.863642
_symmetry_space_group_name_H-M "P 21/C"
_symmetry_group_IT_number 14
_symmetry_cell_setting 'monoclinic'
loop_
_space_group_symop_operation_xyz
x,y,z
-x,1/2+y,1/2-z
-x,-y,-z
x,1/2-y,1/2+z
loop_
_atom_site_type_symbol
_atom_site_label
_atom_site_fract_x
_atom_site_fract_y
_atom_site_fract_z
Si Si1 0.085533 0.115959 0.393648
Si Si2 0.587067 0.272226 0.730004
Si Si3 0.441505 0.384414 0.535342
Si Si4 0.648647 0.003958 0.249444
Si Si5 0.091068 0.928869 0.950224
Si Si6 0.785563 0.725290 0.884936
Si Si7 0.238262 0.757310 0.650904
Si Si8 0.593587 0.758106 0.272447
O O1 0.261140 0.102569 0.219191
O O2 0.138912 0.160314 0.241941
O O3 0.942232 0.196087 0.610872
O O4 0.000000 0.000000 0.500000
O O5 0.638169 0.386304 0.709123
O O6 0.713239 0.236033 0.501253
O O7 0.571961 0.172640 0.810889
O O8 0.394041 0.290284 0.936937
O O9 0.500000 0.500000 0.500000
O O10 0.403558 0.290403 0.646079
O O11 0.816370 0.011387 0.094191
O O12 0.500000 0.000000 0.500000
O O13 0.620408 0.890062 0.238824
O O14 0.220906 0.858872 0.733330
O O15 0.936974 0.856941 0.176454
O O16 0.000000 0.000000 0.000000
O O17 0.740445 0.717522 0.031127
O O18 0.415684 0.708879 0.461567
#
# Coordination Sequence:
#
# PCOD9247804 Si02
#       8
#     4   4   4   4   4   4   4   4
#     4  10  22  40  62  89 123 166 204 257 317 375
#     4  10  22  42  64  92 121 168 217 260 317 385
#     4  11  23  41  63  90 129 167 211 262 318 375
#     4  12  22  39  69  94 128 165 216 265 319 384
#     4  11  23  40  64  93 128 169 205 265 322 376
#     4   9  23  42  61  90 127 160 213 259 316 385
#     4  10  22  40  64  89 124 164 211 257 315 379
#     4  11  23  42  65  95 124 168 210 266 317 381
#
# _framework density 19.549582999999998
#
# number of rings (size 3 to 8) (size 9 to 14) (size 15 to 20)
#    0.000    1.500    2.500    1.500    5.250    3.000 
#    4.500    0.000    0.000    0.000    0.000    0.000 
#    0.000    0.000    0.000    0.000    0.000    0.000 
#
# Total GULP energy -178173.872908 kJ/mol
# GULP energy per Si atom -5567.933528 kJ/mol
# Density = 1.950509 g / cm^3
# Si number density = 19.549583 Si / 1000 Ang^3
#
#
#
# Elastic Constant Matrix: (Units=GPa)
#
#
# Indices 1 2 3 4 5 6 
#
# 1 40.5606 0.3642 16.9034 0.0000 15.3789 0.0000
# 2 0.3642 45.6883 8.4494 0.0000 -3.2587 0.0000
# 3 16.9034 8.4494 92.5047 0.0000 21.2434 0.0000
# 4 0.0000 0.0000 0.0000 8.6005 0.0000 -13.6586
# 5 15.3789 -3.2587 21.2434 0.0000 37.8300 0.0000
# 6 0.0000 0.0000 0.0000 -13.6586 0.0000 28.1365
#
#
#
# Elastic Compliance Matrix: (Units=1/GPa)
#
#
# Indices 1 2 3 4 5 6 
#
# 1 0.029894 -0.000430 -0.003012 0.000000 -0.010498 0.000000
# 2 -0.000430 0.022684 -0.002850 0.000000 0.003729 0.000000
# 3 -0.003012 -0.002850 0.013083 0.000000 -0.006368 0.000000
# 4 0.000000 0.000000 0.000000 0.507604 0.000000 0.246412
# 5 -0.010498 0.003729 -0.006368 0.000000 0.034599 0.000000
# 6 0.000000 0.000000 0.000000 0.246412 0.000000 0.155160
#
#
# Mechanical properties :
#
#
# Convention : Reuss Voigt Hill
#
# Bulk Modulus (GPa) = 18.84049 25.57641 22.20845
# Shear Modulus (GPa) = 6.30278 25.11583 15.70931
#
# Velocity S-wave (km/s) = 1.79750 3.58819 2.83779
# Velocity P-wave (km/s) = 3.73714 5.50255 4.70342
#
# Compressibility (1/GPa) = 0.05307717
#
# Stress axis : x y z
#
# Youngs Moduli (GPa) = 33.45120 44.08422 76.43301
#
# Poissons Ratio (x) = 0.01896 0.23025
# Poissons Ratio (y) = 0.01438 0.21781
# Poissons Ratio (z) = 0.10077 0.12563
#
# Static dielectric constant tensor:
#      x y z
#    x 1.814930 0.000000 -0.168150 
#    y 0.000000 1.674880 0.000000 
#    z -0.168150 0.000000 1.924930 
# 
# From -- ./inp_files/61990.got.cif
#   From: 2010.05.17/outbox.cif.g08.bks.cpg/sg14_31_cif.got.tgz:61990.got - 2010.06.03 17:49:19.
