data_PCOD9247428
_publ_section_title
;
Structure prediction by ZEFSAII (Michael W. Deem and Ramdas Pophale) SiO2 
 PCOD9247428
Probable space group: P 21/C
;
_chemical_formula_sum "Si O2"
_cell_formula_units_Z 20
_cell_length_a 14.239483
_cell_length_b 5.439290
_cell_length_c 18.846996
_cell_angle_alpha 90.000000
_cell_angle_beta 141.125747
_cell_angle_gamma 90.000000
_cell_volume 916.158668
_symmetry_space_group_name_H-M "P 21/C"
_symmetry_group_IT_number 14
_symmetry_cell_setting 'monoclinic'
loop_
_space_group_symop_operation_xyz
x,y,z
-x,1/2+y,1/2-z
-x,-y,-z
x,1/2-y,1/2+z
loop_
_atom_site_type_symbol
_atom_site_label
_atom_site_fract_x
_atom_site_fract_y
_atom_site_fract_z
Si Si1 0.175820 0.460869 0.520560
Si Si2 0.372451 0.807425 0.402308
Si Si3 0.439682 0.924767 0.078827
Si Si4 0.739378 0.839107 0.769938
Si Si5 0.994123 0.029382 0.581324
O O1 0.338761 0.465729 0.580919
O O2 0.194290 0.434721 0.616741
O O3 0.100897 0.723553 0.459684
O O4 0.082911 0.222807 0.438899
O O5 0.459497 0.623208 0.402099
O O6 0.332717 0.682394 0.453627
O O7 0.500000 0.000000 0.500000
O O8 0.253269 0.956407 0.286651
O O9 0.565439 0.732020 0.179126
O O10 0.836524 0.606202 0.800269
O O11 0.000000 0.000000 0.500000
#
# Coordination Sequence:
#
# PCOD9247428 Si02
#       5
#     4   4   4   4   4
#     4  11  25  39  68 102 136 164 223 283 322 380
#     4   9  21  41  64  88 133 175 213 264 335 388
#     4  10  23  39  67  96 131 170 225 276 322 387
#     4  10  22  37  70  93 130 178 222 259 338 396
#     4  10  23  42  62  97 138 175 206 271 340 391
#
# _framework density 21.830282
#
# number of rings (size 3 to 8) (size 9 to 14) (size 15 to 20)
#    0.000    2.000    0.000    2.400   16.800    0.000 
#    0.000    0.000   13.200    0.000    0.000    0.000 
#    0.000    0.000    0.000    0.000    0.000    0.000 
#
# Total GULP energy -111596.807908 kJ/mol
# GULP energy per Si atom -5579.840395 kJ/mol
# Density = 2.178060 g / cm^3
# Si number density = 21.830282 Si / 1000 Ang^3
#
#
#
# Elastic Constant Matrix: (Units=GPa)
#
#
# Indices 1 2 3 4 5 6 
#
# 1 26.6212 21.0751 37.8850 0.0000 7.4871 0.0000
# 2 21.0751 126.2106 49.1013 0.0000 0.2376 0.0000
# 3 37.8850 49.1013 99.5684 0.0000 4.4931 0.0000
# 4 0.0000 0.0000 0.0000 48.5906 0.0000 1.9253
# 5 7.4871 0.2376 4.4931 0.0000 25.7565 0.0000
# 6 0.0000 0.0000 0.0000 1.9253 0.0000 19.9035
#
#
#
# Elastic Compliance Matrix: (Units=1/GPa)
#
#
# Indices 1 2 3 4 5 6 
#
# 1 0.092415 -0.002577 -0.032941 0.000000 -0.021094 0.000000
# 2 -0.002577 0.009891 -0.003958 0.000000 0.001348 0.000000
# 3 -0.032941 -0.003958 0.024286 0.000000 0.005375 0.000000
# 4 0.000000 0.000000 0.000000 0.020659 0.000000 -0.001998
# 5 -0.021094 0.001348 0.005375 0.000000 0.044007 0.000000
# 6 0.000000 0.000000 0.000000 -0.001998 0.000000 0.050436
#
#
# Mechanical properties :
#
#
# Convention : Reuss Voigt Hill
#
# Bulk Modulus (GPa) = 20.99019 52.05812 36.52416
# Shear Modulus (GPa) = 14.85775 28.47270 21.66523
#
# Velocity S-wave (km/s) = 2.61167 3.61539 3.15372
# Velocity P-wave (km/s) = 4.32787 6.42858 5.47983
#
# Compressibility (1/GPa) = 0.04764129
#
# Stress axis : x y z
#
# Youngs Moduli (GPa) = 10.82077 101.10378 41.17551
#
# Poissons Ratio (x) = 0.26052 1.35635
# Poissons Ratio (y) = 0.02788 0.16297
# Poissons Ratio (z) = 0.35644 0.40017
#
# Static dielectric constant tensor:
#      x y z
#    x 1.781460 0.000000 0.027180 
#    y 0.000000 1.878970 0.000000 
#    z 0.027180 0.000000 1.892240 
# 
# From -- ./inp_files/56465.got.cif
#   From: 2010.05.17/outbox.cif.g08.bks.cpg/sg14_29_cif.got.tgz:56465.got - 2010.06.03 17:49:19.
