data_PCOD9247411
_publ_section_title
;
Structure prediction by ZEFSAII (Michael W. Deem and Ramdas Pophale) SiO2 
 PCOD9247411
Probable space group: P 21/C
;
_chemical_formula_sum "Si O2"
_cell_formula_units_Z 32
_cell_length_a 16.063420
_cell_length_b 10.980952
_cell_length_c 17.231754
_cell_angle_alpha 90.000000
_cell_angle_beta 26.313784
_cell_angle_gamma 90.000000
_cell_volume 1347.386971
_symmetry_space_group_name_H-M "P 21/C"
_symmetry_group_IT_number 14
_symmetry_cell_setting 'monoclinic'
loop_
_space_group_symop_operation_xyz
x,y,z
-x,1/2+y,1/2-z
-x,-y,-z
x,1/2-y,1/2+z
loop_
_atom_site_type_symbol
_atom_site_label
_atom_site_fract_x
_atom_site_fract_y
_atom_site_fract_z
Si Si1 0.197231 0.029781 0.715201
Si Si2 0.047592 0.187467 0.111738
Si Si3 0.458692 0.581218 0.258095
Si Si4 0.777774 0.541050 0.280190
Si Si5 0.698532 0.752025 0.963517
Si Si6 0.181587 0.436230 0.934221
Si Si7 0.431781 0.388418 0.154474
Si Si8 0.314224 0.673144 0.530752
O O1 0.025493 0.937716 0.863282
O O2 0.383028 0.950298 0.539000
O O3 0.182545 0.132932 0.661729
O O4 0.257226 0.097631 0.743408
O O5 0.865046 0.242326 0.307523
O O6 0.203130 0.177968 0.048425
O O7 0.108706 0.296411 0.003192
O O8 0.398055 0.466835 0.258845
O O9 0.315296 0.617812 0.444362
O O10 0.508573 0.691978 0.156915
O O11 0.651172 0.549622 0.143750
O O12 0.695202 0.658992 0.392804
O O13 0.310748 0.573057 0.600880
O O14 0.004029 0.523201 0.102794
O O15 0.755633 0.537198 0.206091
O O16 0.499454 0.254461 0.118213
#
# Coordination Sequence:
#
# PCOD9247411 Si02
#       8
#     4   4   4   4   4   4   4   4
#     4   9  19  39  63  89 124 168 205 267 321 379
#     4   9  20  40  65  89 123 169 212 262 322 387
#     4  10  22  40  62  91 127 165 209 274 316 382
#     4  10  22  40  62  93 124 169 214 264 324 387
#     4  10  22  37  65  91 127 164 215 266 326 378
#     4   9  21  42  62  90 128 165 215 267 319 381
#     4   9  20  39  59  88 129 166 211 257 324 386
#     4  10  22  37  64  91 125 168 211 264 322 388
#
# _framework density 23.749673000000001
#
# number of rings (size 3 to 8) (size 9 to 14) (size 15 to 20)
#    0.000    2.500    0.000    0.000   12.250    0.500 
#    2.250    3.125    0.000    0.000    0.000    0.000 
#    0.000    0.000    0.000    0.000    0.000    0.000 
#
# Total GULP energy -179073.790828 kJ/mol
# GULP energy per Si atom -5596.055963 kJ/mol
# Density = 2.369562 g / cm^3
# Si number density = 23.749673 Si / 1000 Ang^3
#
#
#
# Elastic Constant Matrix: (Units=GPa)
#
#
# Indices 1 2 3 4 5 6 
#
# 1 87.5401 31.0193 29.9213 0.0000 28.6096 0.0000
# 2 31.0193 75.9649 19.6773 0.0000 18.5406 0.0000
# 3 29.9213 19.6773 104.0947 0.0000 23.2641 0.0000
# 4 0.0000 0.0000 0.0000 14.1962 0.0000 7.0319
# 5 28.6096 18.5406 23.2641 0.0000 41.2052 0.0000
# 6 0.0000 0.0000 0.0000 7.0319 0.0000 37.9658
#
#
#
# Elastic Compliance Matrix: (Units=1/GPa)
#
#
# Indices 1 2 3 4 5 6 
#
# 1 0.016291 -0.004092 -0.002052 0.000000 -0.008312 0.000000
# 2 -0.004092 0.016023 -0.001003 0.000000 -0.003802 0.000000
# 3 -0.002052 -0.001003 0.011406 0.000000 -0.004564 0.000000
# 4 0.000000 0.000000 0.000000 0.077557 0.000000 -0.014365
# 5 -0.008312 -0.003802 -0.004564 0.000000 0.034327 0.000000
# 6 0.000000 0.000000 0.000000 -0.014365 0.000000 0.029000
#
#
# Mechanical properties :
#
#
# Convention : Reuss Voigt Hill
#
# Bulk Modulus (GPa) = 33.98320 47.64839 40.81580
# Shear Modulus (GPa) = 23.95715 31.13888 27.54802
#
# Velocity S-wave (km/s) = 3.17951 3.62488 3.40947
# Velocity P-wave (km/s) = 5.27437 6.13400 5.72036
#
# Compressibility (1/GPa) = 0.02942630
#
# Stress axis : x y z
#
# Youngs Moduli (GPa) = 61.38361 62.41151 87.67369
#
# Poissons Ratio (x) = 0.25540 0.17987
# Poissons Ratio (y) = 0.25119 0.08792
# Poissons Ratio (z) = 0.12594 0.06259
#
# Static dielectric constant tensor:
#      x y z
#    x 1.864870 0.000000 -0.003220 
#    y 0.000000 1.886750 0.000000 
#    z -0.003220 0.000000 1.945990 
# 
# From -- ./inp_files/59385.got.cif
#   From: 2010.05.17/outbox.cif.g08.bks.cpg/sg14_30_cif.got.tgz:59385.got - 2010.06.03 17:49:19.
