data_PCOD9247261
_publ_section_title
;
Structure prediction by ZEFSAII (Michael W. Deem and Ramdas Pophale) SiO2 
 PCOD9247261
Probable space group: P 21/C
;
_chemical_formula_sum "Si O2"
_cell_formula_units_Z 20
_cell_length_a 12.415237
_cell_length_b 11.729426
_cell_length_c 16.634280
_cell_angle_alpha 90.000000
_cell_angle_beta 20.584940
_cell_angle_gamma 90.000000
_cell_volume 851.685412
_symmetry_space_group_name_H-M "P 21/C"
_symmetry_group_IT_number 14
_symmetry_cell_setting 'monoclinic'
loop_
_space_group_symop_operation_xyz
x,y,z
-x,1/2+y,1/2-z
-x,-y,-z
x,1/2-y,1/2+z
loop_
_atom_site_type_symbol
_atom_site_label
_atom_site_fract_x
_atom_site_fract_y
_atom_site_fract_z
Si Si1 0.150461 0.195212 0.588872
Si Si2 0.194639 0.599763 0.404284
Si Si3 0.983305 0.801929 0.646609
Si Si4 0.209785 0.973351 0.274562
Si Si5 0.419263 0.405091 0.345139
O O1 0.498800 0.146156 0.352741
O O2 0.165436 0.306912 0.520898
O O3 0.035463 0.238788 0.755273
O O4 0.955357 0.101519 0.677623
O O5 0.986090 0.704807 0.576515
O O6 0.320835 0.532471 0.394072
O O7 0.000000 0.500000 0.500000
O O8 0.311544 0.865262 0.403343
O O9 0.738800 0.901054 0.797953
O O10 0.473117 0.907294 0.137766
O O11 0.000000 0.000000 0.500000
#
# Coordination Sequence:
#
# PCOD9247261 Si02
#       5
#     4   4   4   4   4
#     4  11  24  44  68 104 132 177 239 284 344 412
#     4  11  25  43  68  99 144 182 224 290 353 411
#     4  10  24  43  69 103 131 180 231 291 344 410
#     4  10  21  47  70  98 138 184 233 284 355 414
#     4  10  24  44  71  97 137 187 231 285 353 418
#
# _framework density 23.482848000000001
#
# number of rings (size 3 to 8) (size 9 to 14) (size 15 to 20)
#    0.000    1.600    4.000    0.000   11.200    1.600 
#    3.600    0.000    0.000    0.000    0.000    0.000 
#    0.000    0.000    0.000    0.000    0.000    0.000 
#
# Total GULP energy -111683.876332 kJ/mol
# GULP energy per Si atom -5584.193817 kJ/mol
# Density = 2.342940 g / cm^3
# Si number density = 23.482848 Si / 1000 Ang^3
#
#
#
# Elastic Constant Matrix: (Units=GPa)
#
#
# Indices 1 2 3 4 5 6 
#
# 1 108.3740 51.5591 44.7422 0.0000 19.6504 0.0000
# 2 51.5591 181.2349 37.7755 0.0000 5.4639 0.0000
# 3 44.7422 37.7755 83.9912 0.0000 26.5530 0.0000
# 4 0.0000 0.0000 0.0000 20.3783 0.0000 15.4667
# 5 19.6504 5.4639 26.5530 0.0000 31.4928 0.0000
# 6 0.0000 0.0000 0.0000 15.4667 0.0000 52.4143
#
#
#
# Elastic Compliance Matrix: (Units=1/GPa)
#
#
# Indices 1 2 3 4 5 6 
#
# 1 0.013067 -0.002653 -0.004547 0.000000 -0.003859 0.000000
# 2 -0.002653 0.006695 -0.002392 0.000000 0.002510 0.000000
# 3 -0.004547 -0.002392 0.019600 0.000000 -0.013274 0.000000
# 4 0.000000 0.000000 0.000000 0.063234 0.000000 -0.018659
# 5 -0.003859 0.002510 -0.013274 0.000000 0.044917 0.000000
# 6 0.000000 0.000000 0.000000 -0.018659 0.000000 0.024585
#
#
# Mechanical properties :
#
#
# Convention : Reuss Voigt Hill
#
# Bulk Modulus (GPa) = 49.55882 71.30595 60.43238
# Shear Modulus (GPa) = 25.25148 36.82531 31.03840
#
# Velocity S-wave (km/s) = 3.28276 3.96432 3.63953
# Velocity P-wave (km/s) = 5.95976 7.16837 6.59182
#
# Compressibility (1/GPa) = 0.02017804
#
# Stress axis : x y z
#
# Youngs Moduli (GPa) = 76.53110 149.35924 51.01953
#
# Poissons Ratio (x) = 0.39627 0.23201
# Poissons Ratio (y) = 0.20305 0.12201
# Poissons Ratio (z) = 0.34802 0.35719
#
# Static dielectric constant tensor:
#      x y z
#    x 1.941000 0.000000 -0.055560 
#    y 0.000000 1.938770 0.000000 
#    z -0.055560 0.000000 1.981250 
# 
# From -- ./inp_files/44222.got.cif
#   From: 2010.05.17/outbox.cif.g08.bks.cpg/sg14_23_cif.got.tgz:44222.got - 2010.06.03 17:49:19.
