data_PCOD9247792
_publ_section_title
;
Structure prediction by ZEFSAII (Michael W. Deem and Ramdas Pophale) SiO2 
 PCOD9247792
Probable space group: P 21/C
;
_chemical_formula_sum "Si O2"
_cell_formula_units_Z 20
_cell_length_a 11.605576
_cell_length_b 10.318844
_cell_length_c 11.042593
_cell_angle_alpha 90.000000
_cell_angle_beta 144.768736
_cell_angle_gamma 90.000000
_cell_volume 762.874107
_symmetry_space_group_name_H-M "P 21/C"
_symmetry_group_IT_number 14
_symmetry_cell_setting 'monoclinic'
loop_
_space_group_symop_operation_xyz
x,y,z
-x,1/2+y,1/2-z
-x,-y,-z
x,1/2-y,1/2+z
loop_
_atom_site_type_symbol
_atom_site_label
_atom_site_fract_x
_atom_site_fract_y
_atom_site_fract_z
Si Si1 0.229885 0.149370 0.957496
Si Si2 0.622721 0.264875 0.729802
Si Si3 0.798259 0.049376 0.575004
Si Si4 0.239580 0.495228 0.692652
Si Si5 0.104409 0.577562 0.201162
O O1 0.987845 0.149153 0.747008
O O2 0.255122 0.016790 0.900423
O O3 0.383550 0.240255 0.019191
O O4 0.280454 0.128102 0.142980
O O5 0.696359 0.122709 0.826256
O O6 0.762954 0.307361 0.737903
O O7 0.663341 0.378950 0.861558
O O8 0.693736 0.019060 0.611847
O O9 0.910253 0.918775 0.622758
O O10 0.000000 0.500000 0.500000
O O11 0.000000 0.500000 0.000000
#
# Coordination Sequence:
#
# PCOD9247792 Si02
#       5
#     4   4   4   4   4
#     4   9  20  39  59  90 121 156 204 257 295 373
#     4  11  20  37  65  87 118 167 200 247 321 363
#     4   8  20  38  60  88 120 155 203 252 307 365
#     4  10  22  40  61  89 129 161 203 266 310 373
#     4   8  17  36  63  89 117 157 206 248 300 372
#
# _framework density 26.216646999999998
#
# number of rings (size 3 to 8) (size 9 to 14) (size 15 to 20)
#    1.200    1.600    0.000    0.600    2.800    0.800 
#    0.000   20.000    0.000    0.000    0.000    0.000 
#    0.000    0.000    0.000    0.000    0.000    0.000 
#
# Total GULP energy -111443.015119 kJ/mol
# GULP energy per Si atom -5572.150756 kJ/mol
# Density = 2.615698 g / cm^3
# Si number density = 26.216647 Si / 1000 Ang^3
#
#
#
# Elastic Constant Matrix: (Units=GPa)
#
#
# Indices 1 2 3 4 5 6 
#
# 1 151.9397 23.6816 36.4714 0.0000 26.5691 0.0000
# 2 23.6816 50.6097 17.8533 0.0000 10.7378 0.0000
# 3 36.4714 17.8533 53.9818 0.0000 0.1389 0.0000
# 4 0.0000 0.0000 0.0000 19.6600 0.0000 7.9043
# 5 26.5691 10.7378 0.1389 0.0000 55.7570 0.0000
# 6 0.0000 0.0000 0.0000 7.9043 0.0000 38.1989
#
#
#
# Elastic Compliance Matrix: (Units=1/GPa)
#
#
# Indices 1 2 3 4 5 6 
#
# 1 0.008793 -0.001349 -0.005485 0.000000 -0.003917 0.000000
# 2 -0.001349 0.023651 -0.006901 0.000000 -0.003895 0.000000
# 3 -0.005485 -0.006901 0.024503 0.000000 0.003881 0.000000
# 4 0.000000 0.000000 0.000000 0.055480 0.000000 -0.011480
# 5 -0.003917 -0.003895 0.003881 0.000000 0.020542 0.000000
# 6 0.000000 0.000000 0.000000 -0.011480 0.000000 0.028554
#
#
# Mechanical properties :
#
#
# Convention : Reuss Voigt Hill
#
# Bulk Modulus (GPa) = 33.92328 45.83819 39.88074
# Shear Modulus (GPa) = 25.14868 34.62484 29.88676
#
# Velocity S-wave (km/s) = 3.10056 3.63811 3.38004
# Velocity P-wave (km/s) = 5.07796 5.93044 5.52068
#
# Compressibility (1/GPa) = 0.02947828
#
# Stress axis : x y z
#
# Youngs Moduli (GPa) = 113.72383 42.28176 40.81190
#
# Poissons Ratio (x) = 0.05703 0.22384
# Poissons Ratio (y) = 0.15339 0.28163
# Poissons Ratio (z) = 0.62375 0.29177
#
# Static dielectric constant tensor:
#      x y z
#    x 2.077860 0.000000 -0.064100 
#    y 0.000000 2.038320 0.000000 
#    z -0.064100 0.000000 2.110400 
# 
# From -- ./inp_files/29267.got.cif
#   From: 2010.05.17/outbox.cif.g08.bks.cpg/sg14_15_cif.got.tgz:29267.got - 2010.06.03 17:49:19.
