data_PCOD9247173
_publ_section_title
;
Structure prediction by ZEFSAII (Michael W. Deem and Ramdas Pophale) SiO2 
 PCOD9247173
Probable space group: P 21/C
;
_chemical_formula_sum "Si O2"
_cell_formula_units_Z 26
_cell_length_a 8.221616
_cell_length_b 13.568348
_cell_length_c 13.354587
_cell_angle_alpha 90.000000
_cell_angle_beta 133.825891
_cell_angle_gamma 90.000000
_cell_volume 1074.779288
_symmetry_space_group_name_H-M "P 21/C"
_symmetry_group_IT_number 14
_symmetry_cell_setting 'monoclinic'
loop_
_space_group_symop_operation_xyz
x,y,z
-x,1/2+y,1/2-z
-x,-y,-z
x,1/2-y,1/2+z
loop_
_atom_site_type_symbol
_atom_site_label
_atom_site_fract_x
_atom_site_fract_y
_atom_site_fract_z
Si Si1 0.557457 0.297867 0.921727
Si Si2 0.141497 0.783415 0.284764
Si Si3 0.397669 0.516684 0.290773
Si Si4 0.530592 0.670544 0.802396
Si Si5 0.940555 0.600606 0.090306
Si Si6 0.307302 0.376369 0.436201
Si Si7 0.500000 0.500000 0.000000
O O1 0.531818 0.257731 0.799523
O O2 0.414900 0.218337 0.926704
O O3 0.807601 0.288727 0.075927
O O4 0.479579 0.408034 0.910340
O O5 0.369607 0.822945 0.329795
O O6 0.060765 0.675341 0.219757
O O7 0.952427 0.854508 0.162213
O O8 0.511455 0.432638 0.272418
O O9 0.323278 0.462874 0.361973
O O10 0.566919 0.597873 0.407440
O O11 0.164792 0.550611 0.140706
O O12 0.788454 0.665053 0.949100
O O13 0.755153 0.530167 0.062386
#
# Coordination Sequence:
#
# PCOD9247173 Si02
#       7
#     4   4   4   4   4   4   2
#     4  11  24  48  72 107 151 196 250 312 380 448
#     4  12  23  47  73 104 152 195 248 312 376 453
#     4  10  23  43  75 105 150 200 247 316 384 450
#     4  11  27  46  72 116 148 196 255 310 388 456
#     4  12  25  46  76 110 150 201 254 319 372 458
#     4  10  21  44  73 107 148 202 252 308 387 451
#     4  12  24  48  78 112 140 200 266 302 378 460
#
# _framework density 24.191013999999999
#
# number of rings (size 3 to 8) (size 9 to 14) (size 15 to 20)
#    0.000    0.923    4.615    1.385    0.000    5.538 
#    0.000    0.000    0.000    0.000    0.000    0.000 
#    0.000    0.000    0.000    0.000    0.000    0.000 
#
# Total GULP energy -144936.535583 kJ/mol
# GULP energy per Si atom -5574.482138 kJ/mol
# Density = 2.413595 g / cm^3
# Si number density = 24.191014 Si / 1000 Ang^3
#
#
#
# Elastic Constant Matrix: (Units=GPa)
#
#
# Indices 1 2 3 4 5 6 
#
# 1 67.9073 17.7461 40.5581 0.0000 10.0939 0.0000
# 2 17.7461 69.7219 38.5836 0.0000 7.1254 0.0000
# 3 40.5581 38.5836 162.9303 0.0000 5.9832 0.0000
# 4 0.0000 0.0000 0.0000 29.2113 0.0000 4.8288
# 5 10.0939 7.1254 5.9832 0.0000 34.8524 0.0000
# 6 0.0000 0.0000 0.0000 4.8288 0.0000 40.5634
#
#
#
# Elastic Compliance Matrix: (Units=1/GPa)
#
#
# Indices 1 2 3 4 5 6 
#
# 1 0.018210 -0.002053 -0.003893 0.000000 -0.004186 0.000000
# 2 -0.002053 0.016998 -0.003430 0.000000 -0.002292 0.000000
# 3 -0.003893 -0.003430 0.007902 0.000000 0.000472 0.000000
# 4 0.000000 0.000000 0.000000 0.034920 0.000000 -0.004157
# 5 -0.004186 -0.002292 0.000472 0.000000 0.030292 0.000000
# 6 0.000000 0.000000 0.000000 -0.004157 0.000000 0.025148
#
#
# Mechanical properties :
#
#
# Convention : Reuss Voigt Hill
#
# Bulk Modulus (GPa) = 41.05560 54.92613 47.99086
# Shear Modulus (GPa) = 31.18372 34.50353 32.84362
#
# Velocity S-wave (km/s) = 3.59425 3.78073 3.68867
# Velocity P-wave (km/s) = 5.85090 6.46630 6.16628
#
# Compressibility (1/GPa) = 0.02435721
#
# Stress axis : x y z
#
# Youngs Moduli (GPa) = 54.91554 58.83211 126.55607
#
# Poissons Ratio (x) = 0.12076 0.49270
# Poissons Ratio (y) = 0.11272 0.43409
# Poissons Ratio (z) = 0.21379 0.20180
#
# Static dielectric constant tensor:
#      x y z
#    x 1.968280 0.000000 -0.050480 
#    y 0.000000 1.976130 0.000000 
#    z -0.050480 0.000000 1.977400 
# 
# From -- ./inp_files/41457.got.cif
#   From: 2010.05.17/outbox.cif.g08.bks.cpg/sg14_21_cif.got.tgz:41457.got - 2010.06.03 17:49:19.
