data_PCOD9247765
_publ_section_title
;
Structure prediction by ZEFSAII (Michael W. Deem and Ramdas Pophale) SiO2 
 PCOD9247765
Probable space group: P 21/C
;
_chemical_formula_sum "Si O2"
_cell_formula_units_Z 30
_cell_length_a 14.733073
_cell_length_b 5.098004
_cell_length_c 18.105541
_cell_angle_alpha 90.000000
_cell_angle_beta 68.304844
_cell_angle_gamma 90.000000
_cell_volume 1263.564202
_symmetry_space_group_name_H-M "P 21/C"
_symmetry_group_IT_number 14
_symmetry_cell_setting 'monoclinic'
loop_
_space_group_symop_operation_xyz
x,y,z
-x,1/2+y,1/2-z
-x,-y,-z
x,1/2-y,1/2+z
loop_
_atom_site_type_symbol
_atom_site_label
_atom_site_fract_x
_atom_site_fract_y
_atom_site_fract_z
Si Si1 0.508327 0.572624 0.846907
Si Si2 0.000000 0.500000 0.500000
Si Si3 0.020796 0.901944 0.627781
Si Si4 0.590680 0.935341 0.157910
Si Si5 0.207668 0.162874 0.519796
Si Si6 0.853159 0.125252 0.781492
Si Si7 0.785469 0.161157 0.072788
Si Si8 0.724390 0.895232 0.343170
O O1 0.433636 0.332445 0.876943
O O2 0.534417 0.585675 0.752008
O O3 0.612588 0.568805 0.854479
O O4 0.452807 0.839009 0.880572
O O5 0.001103 0.267493 0.436988
O O6 0.894679 0.389119 0.564434
O O7 0.093664 0.132334 0.577319
O O8 0.081283 0.718188 0.667636
O O9 0.929485 0.023537 0.697849
O O10 0.698229 0.039046 0.146439
O O11 0.224644 0.963149 0.447142
O O12 0.267150 0.063707 0.571572
O O13 0.224547 0.463986 0.494976
O O14 0.775629 0.888686 0.816251
O O15 0.791159 0.385992 0.783446
#
# Coordination Sequence:
#
# PCOD9247765 Si02
#       8
#     4   2   4   4   4   4   4   4
#     4  10  22  42  66  91 123 157 216 269 324 372
#     4  10  24  40  66  94 138 168 230 256 328 394
#     4  10  22  42  61  97 131 183 214 279 317 399
#     4  10  22  42  64  89 125 165 201 271 328 376
#     4  10  22  40  60  86 132 164 202 260 327 368
#     4  11  23  38  66  92 135 169 225 263 336 368
#     4  11  23  42  62  91 127 172 204 259 319 395
#     4  11  22  40  65  95 120 167 215 274 310 393
#
# _framework density 23.742363000000001
#
# number of rings (size 3 to 8) (size 9 to 14) (size 15 to 20)
#    0.000    1.600    0.000    5.600    1.867    4.267 
#    2.400    4.000    0.000    0.000    0.000    0.000 
#    0.000    0.000    0.000    0.000    0.000    0.000 
#
# Total GULP energy -167257.056602 kJ/mol
# GULP energy per Si atom -5575.235220 kJ/mol
# Density = 2.368832 g / cm^3
# Si number density = 23.742363 Si / 1000 Ang^3
#
#
#
# Elastic Constant Matrix: (Units=GPa)
#
#
# Indices 1 2 3 4 5 6 
#
# 1 100.4810 34.7258 -2.8739 0.0000 -5.1234 0.0000
# 2 34.7258 86.2039 20.2327 0.0000 -6.9956 0.0000
# 3 -2.8739 20.2327 37.8105 0.0000 -10.9611 0.0000
# 4 0.0000 0.0000 0.0000 30.1757 0.0000 -10.9029
# 5 -5.1234 -6.9956 -10.9611 0.0000 30.3897 0.0000
# 6 0.0000 0.0000 0.0000 -10.9029 0.0000 27.0111
#
#
#
# Elastic Compliance Matrix: (Units=1/GPa)
#
#
# Indices 1 2 3 4 5 6 
#
# 1 0.012234 -0.005849 0.004766 0.000000 0.002435 0.000000
# 2 -0.005849 0.016071 -0.009222 0.000000 -0.000613 0.000000
# 3 0.004766 -0.009222 0.035024 0.000000 0.011313 0.000000
# 4 0.000000 0.000000 0.000000 0.038798 0.000000 0.015661
# 5 0.002435 -0.000613 0.011313 0.000000 0.037256 0.000000
# 6 0.000000 0.000000 0.000000 0.015661 0.000000 0.043343
#
#
# Mechanical properties :
#
#
# Convention : Reuss Voigt Hill
#
# Bulk Modulus (GPa) = 23.40901 36.51829 29.96365
# Shear Modulus (GPa) = 22.98032 29.00936 25.99484
#
# Velocity S-wave (km/s) = 3.11449 3.49927 3.31247
# Velocity P-wave (km/s) = 4.77644 5.63392 5.22281
#
# Compressibility (1/GPa) = 0.04271859
#
# Stress axis : x y z
#
# Youngs Moduli (GPa) = 81.73896 62.22212 28.55149
#
# Poissons Ratio (x) = 0.36395 -0.13607
# Poissons Ratio (y) = 0.47811 0.26331
# Poissons Ratio (z) = -0.38955 0.57382
#
# Static dielectric constant tensor:
#      x y z
#    x 2.145760 0.000000 0.017980 
#    y 0.000000 1.933670 0.000000 
#    z 0.017980 0.000000 1.940870 
# 
# From -- ./inp_files/58552.got.cif
#   From: 2010.05.17/outbox.cif.g08.bks.cpg/sg14_30_cif.got.tgz:58552.got - 2010.06.03 17:49:19.
