data_PCOD9247167
_publ_section_title
;
Structure prediction by ZEFSAII (Michael W. Deem and Ramdas Pophale) SiO2 
 PCOD9247167
Probable space group: P 21/C
;
_chemical_formula_sum "Si O2"
_cell_formula_units_Z 24
_cell_length_a 7.561140
_cell_length_b 12.768544
_cell_length_c 10.786225
_cell_angle_alpha 90.000000
_cell_angle_beta 56.355156
_cell_angle_gamma 90.000000
_cell_volume 866.914049
_symmetry_space_group_name_H-M "P 21/C"
_symmetry_group_IT_number 14
_symmetry_cell_setting 'monoclinic'
loop_
_space_group_symop_operation_xyz
x,y,z
-x,1/2+y,1/2-z
-x,-y,-z
x,1/2-y,1/2+z
loop_
_atom_site_type_symbol
_atom_site_label
_atom_site_fract_x
_atom_site_fract_y
_atom_site_fract_z
Si Si1 0.173149 0.738034 0.808170
Si Si2 0.673372 0.627499 0.204253
Si Si3 0.612196 0.642778 0.726194
Si Si4 0.005758 0.535145 0.811756
Si Si5 0.382037 0.614585 0.072095
Si Si6 0.748578 0.429444 0.541026
O O1 0.389228 0.671993 0.746466
O O2 0.992415 0.651219 0.874771
O O3 0.219563 0.789560 0.657322
O O4 0.156037 0.836532 0.908362
O O5 0.528782 0.609241 0.137685
O O6 0.740312 0.748377 0.178562
O O7 0.850742 0.541974 0.160785
O O8 0.495354 0.609249 0.381847
O O9 0.525235 0.627507 0.897851
O O10 0.122014 0.551195 0.634212
O O11 0.783577 0.478670 0.880299
O O12 0.277845 0.457744 0.378535
#
# Coordination Sequence:
#
# PCOD9247167 Si02
#       6
#     4   4   4   4   4   4
#     4  10  23  44  72 109 150 192 256 321 374 459
#     4  10  24  43  76 108 147 205 249 308 389 461
#     4  10  21  44  72 109 154 188 258 318 380 455
#     4  12  24  49  77 106 151 205 255 308 398 453
#     4  10  25  47  69 111 152 195 246 332 372 448
#     4  10  22  43  77 106 142 204 250 312 379 461
#
# _framework density 27.684405999999999
#
# number of rings (size 3 to 8) (size 9 to 14) (size 15 to 20)
#    0.000    2.000    1.667    2.500    4.667    6.000 
#   15.000    1.667    3.667    0.000    0.000    0.000 
#    0.000    0.000    0.000    0.000    0.000    0.000 
#
# Total GULP energy -134585.372961 kJ/mol
# GULP energy per Si atom -5607.723873 kJ/mol
# Density = 2.762139 g / cm^3
# Si number density = 27.684406 Si / 1000 Ang^3
#
#
#
# Elastic Constant Matrix: (Units=GPa)
#
#
# Indices 1 2 3 4 5 6 
#
# 1 105.1840 93.7224 35.5062 0.0000 -5.6547 0.0000
# 2 93.7224 295.0892 105.9125 0.0000 4.0022 0.0000
# 3 35.5062 105.9125 193.9944 0.0000 2.6768 0.0000
# 4 0.0000 0.0000 0.0000 57.3320 0.0000 -4.1923
# 5 -5.6547 4.0022 2.6768 0.0000 21.8216 0.0000
# 6 0.0000 0.0000 0.0000 -4.1923 0.0000 59.2443
#
#
#
# Elastic Compliance Matrix: (Units=1/GPa)
#
#
# Indices 1 2 3 4 5 6 
#
# 1 0.013665 -0.004328 -0.000198 0.000000 0.004359 0.000000
# 2 -0.004328 0.005591 -0.002234 0.000000 -0.001873 0.000000
# 3 -0.000198 -0.002234 0.006417 0.000000 -0.000429 0.000000
# 4 0.000000 0.000000 0.000000 0.017533 0.000000 0.001241
# 5 0.004359 -0.001873 -0.000429 0.000000 0.047352 0.000000
# 6 0.000000 0.000000 0.000000 0.001241 0.000000 0.016967
#
#
# Mechanical properties :
#
#
# Convention : Reuss Voigt Hill
#
# Bulk Modulus (GPa) = 82.29640 118.28333 100.28987
# Shear Modulus (GPa) = 39.96933 51.62135 45.79534
#
# Velocity S-wave (km/s) = 3.80379 4.32283 4.07159
# Velocity P-wave (km/s) = 7.00592 8.23008 7.64255
#
# Compressibility (1/GPa) = 0.01215120
#
# Stress axis : x y z
#
# Youngs Moduli (GPa) = 73.18062 178.86703 155.84004
#
# Poissons Ratio (x) = 0.77414 0.03090
# Poissons Ratio (y) = 0.31673 0.34820
# Poissons Ratio (z) = 0.01451 0.39965
#
# Static dielectric constant tensor:
#      x y z
#    x 2.170580 0.000000 0.025390 
#    y 0.000000 2.259520 0.000000 
#    z 0.025390 0.000000 2.171640 
# 
# From -- ./inp_files/39380.got.cif
#   From: 2010.05.17/outbox.cif.g08.bks.cpg/sg14_20_cif.got.tgz:39380.got - 2010.06.03 17:49:19.
