data_PCOD9247041
_publ_section_title
;
Structure prediction by ZEFSAII (Michael W. Deem and Ramdas Pophale) SiO2 
 PCOD9247041
Probable space group: P 21/C
;
_chemical_formula_sum "Si O2"
_cell_formula_units_Z 32
_cell_length_a 9.090161
_cell_length_b 11.535273
_cell_length_c 12.263420
_cell_angle_alpha 90.000000
_cell_angle_beta 84.341075
_cell_angle_gamma 90.000000
_cell_volume 1279.644556
_symmetry_space_group_name_H-M "P 21/C"
_symmetry_group_IT_number 14
_symmetry_cell_setting 'monoclinic'
loop_
_space_group_symop_operation_xyz
x,y,z
-x,1/2+y,1/2-z
-x,-y,-z
x,1/2-y,1/2+z
loop_
_atom_site_type_symbol
_atom_site_label
_atom_site_fract_x
_atom_site_fract_y
_atom_site_fract_z
Si Si1 0.582189 0.442045 0.651286
Si Si2 0.154456 0.021297 0.613672
Si Si3 0.297638 0.104948 0.029715
Si Si4 0.131172 0.501118 0.737402
Si Si5 0.265894 0.728204 0.823617
Si Si6 0.566966 0.634357 0.817613
Si Si7 0.226899 0.218987 0.356984
Si Si8 0.044939 0.802868 0.514432
O O1 0.694969 0.505103 0.561800
O O2 0.449647 0.396657 0.586108
O O3 0.661378 0.347620 0.721940
O O4 0.518040 0.543924 0.728531
O O5 0.317853 0.066730 0.617409
O O6 0.067512 0.114436 0.545224
O O7 0.152093 0.894914 0.562158
O O8 0.043556 0.010720 0.725330
O O9 0.171446 0.066847 0.123955
O O10 0.291732 0.225356 0.963520
O O11 0.201626 0.629149 0.749182
O O12 0.202477 0.415802 0.826182
O O13 0.411534 0.677349 0.873812
O O14 0.139356 0.762932 0.918345
O O15 0.672640 0.726769 0.745946
O O16 0.055416 0.259578 0.387864
#
# Coordination Sequence:
#
# PCOD9247041 Si02
#       8
#     4   4   4   4   4   4   4   4
#     4  10  23  42  60  99 135 170 225 280 340 395
#     4   9  21  41  62  91 131 171 225 277 329 401
#     4  10  21  43  68  93 137 181 219 276 341 403
#     4  10  21  44  67  96 133 179 220 282 345 393
#     4  11  23  42  65  94 138 169 223 283 331 404
#     4  11  23  41  66  99 131 174 230 273 336 416
#     4  10  23  40  72  96 130 178 229 266 334 422
#     4   9  21  43  61  94 133 170 221 278 337 391
#
# _framework density 25.006944000000001
#
# number of rings (size 3 to 8) (size 9 to 14) (size 15 to 20)
#    0.000    2.000    1.250    1.500    3.500    2.500 
#   11.250    2.500    0.000    0.000    0.000    0.000 
#    0.000    0.000    0.000    0.000    0.000    0.000 
#
# Total GULP energy -178564.546500 kJ/mol
# GULP energy per Si atom -5580.142078 kJ/mol
# Density = 2.495003 g / cm^3
# Si number density = 25.006944 Si / 1000 Ang^3
#
#
#
# Elastic Constant Matrix: (Units=GPa)
#
#
# Indices 1 2 3 4 5 6 
#
# 1 79.8206 4.4864 12.6057 0.0000 -1.6419 0.0000
# 2 4.4864 60.9548 6.1706 0.0000 11.1770 0.0000
# 3 12.6057 6.1706 57.3161 0.0000 -7.4446 0.0000
# 4 0.0000 0.0000 0.0000 14.2129 0.0000 -9.3109
# 5 -1.6419 11.1770 -7.4446 0.0000 45.0008 0.0000
# 6 0.0000 0.0000 0.0000 -9.3109 0.0000 23.2056
#
#
#
# Elastic Compliance Matrix: (Units=1/GPa)
#
#
# Indices 1 2 3 4 5 6 
#
# 1 0.013008 -0.000714 -0.002759 0.000000 0.000196 0.000000
# 2 -0.000714 0.017573 -0.002356 0.000000 -0.004781 0.000000
# 3 -0.002759 -0.002356 0.018774 0.000000 0.003590 0.000000
# 4 0.000000 0.000000 0.000000 0.095447 0.000000 0.038297
# 5 0.000196 -0.004781 0.003590 0.000000 0.024010 0.000000
# 6 0.000000 0.000000 0.000000 0.038297 0.000000 0.058459
#
#
# Mechanical properties :
#
#
# Convention : Reuss Voigt Hill
#
# Bulk Modulus (GPa) = 26.52657 27.17966 26.85312
# Shear Modulus (GPa) = 19.88119 28.13911 24.01015
#
# Velocity S-wave (km/s) = 2.82268 3.35812 3.10197
# Velocity P-wave (km/s) = 4.61022 5.09199 4.85708
#
# Compressibility (1/GPa) = 0.03769805
#
# Stress axis : x y z
#
# Youngs Moduli (GPa) = 76.87639 56.90481 53.26585
#
# Poissons Ratio (x) = 0.04063 0.14694
# Poissons Ratio (y) = 0.05489 0.12548
# Poissons Ratio (z) = 0.21207 0.13406
#
# Static dielectric constant tensor:
#      x y z
#    x 1.976130 0.000000 0.007930 
#    y 0.000000 2.055840 0.000000 
#    z 0.007930 0.000000 2.023250 
# 
# From -- ./inp_files/40329.got.cif
#   From: 2010.05.17/outbox.cif.g08.bks.cpg/sg14_21_cif.got.tgz:40329.got - 2010.06.03 17:49:19.
