data_PCOD9247905
_publ_section_title
;
Structure prediction by ZEFSAII (Michael W. Deem and Ramdas Pophale) SiO2 
 PCOD9247905
Probable space group: P 21/C
;
_chemical_formula_sum "Si O2"
_cell_formula_units_Z 24
_cell_length_a 6.769737
_cell_length_b 7.679617
_cell_length_c 20.304020
_cell_angle_alpha 90.000000
_cell_angle_beta 108.775323
_cell_angle_gamma 90.000000
_cell_volume 999.415595
_symmetry_space_group_name_H-M "P 21/C"
_symmetry_group_IT_number 14
_symmetry_cell_setting 'monoclinic'
loop_
_space_group_symop_operation_xyz
x,y,z
-x,1/2+y,1/2-z
-x,-y,-z
x,1/2-y,1/2+z
loop_
_atom_site_type_symbol
_atom_site_label
_atom_site_fract_x
_atom_site_fract_y
_atom_site_fract_z
Si Si1 0.631802 0.749363 0.881831
Si Si2 0.156075 0.107456 0.969699
Si Si3 0.239396 0.939943 0.843661
Si Si4 0.523331 0.256355 0.831466
Si Si5 0.127409 0.912440 0.572878
Si Si6 0.766697 0.999683 0.780060
O O1 0.766309 0.576687 0.879381
O O2 0.380672 0.767625 0.849822
O O3 0.726683 0.890570 0.842746
O O4 0.683416 0.805528 0.962294
O O5 0.230197 0.980864 0.920573
O O6 0.036868 0.268038 0.920673
O O7 0.000000 0.000000 0.000000
O O8 0.370335 0.097280 0.826782
O O9 0.007166 0.959946 0.790201
O O10 0.658600 0.300418 0.911127
O O11 0.690106 0.191430 0.794266
O O12 0.386288 0.413468 0.789346
O O13 0.000000 0.000000 0.500000
#
# Coordination Sequence:
#
# PCOD9247905 Si02
#       6
#     4   4   4   4   4   4
#     4  10  22  40  66 101 128 175 222 274 344 401
#     4  11  19  42  70  92 139 178 219 278 345 407
#     4  11  23  42  67 102 132 177 228 278 350 418
#     4  11  24  43  67  96 132 178 231 277 350 414
#     4  10  22  42  66  95 136 175 220 282 343 402
#     4  11  23  44  69  93 137 178 221 289 338 415
#
# _framework density 24.014033000000001
#
# number of rings (size 3 to 8) (size 9 to 14) (size 15 to 20)
#    0.000    1.333    3.333    2.500    0.000    4.000 
#    6.000    2.500    0.000    0.000    0.000    0.000 
#    0.000    0.000    0.000    0.000    0.000    0.000 
#
# Total GULP energy -133806.742715 kJ/mol
# GULP energy per Si atom -5575.280946 kJ/mol
# Density = 2.395938 g / cm^3
# Si number density = 24.014033 Si / 1000 Ang^3
#
#
#
# Elastic Constant Matrix: (Units=GPa)
#
#
# Indices 1 2 3 4 5 6 
#
# 1 118.5177 39.3624 49.6652 0.0000 48.5095 0.0000
# 2 39.3624 105.5754 19.3451 0.0000 14.6765 0.0000
# 3 49.6652 19.3451 104.5838 0.0000 29.4043 0.0000
# 4 0.0000 0.0000 0.0000 34.7784 0.0000 12.0329
# 5 48.5095 14.6765 29.4043 0.0000 47.4099 0.0000
# 6 0.0000 0.0000 0.0000 12.0329 0.0000 35.5068
#
#
#
# Elastic Compliance Matrix: (Units=1/GPa)
#
#
# Indices 1 2 3 4 5 6 
#
# 1 0.016783 -0.003703 -0.003366 0.000000 -0.013938 0.000000
# 2 -0.003703 0.010835 -0.000446 0.000000 0.000711 0.000000
# 3 -0.003366 -0.000446 0.012397 0.000000 -0.004107 0.000000
# 4 0.000000 0.000000 0.000000 0.032573 0.000000 -0.011039
# 5 -0.013938 0.000711 -0.004107 0.000000 0.037681 0.000000
# 6 0.000000 0.000000 0.000000 -0.011039 0.000000 0.031904
#
#
# Mechanical properties :
#
#
# Convention : Reuss Voigt Hill
#
# Bulk Modulus (GPa) = 40.02247 60.60248 50.31248
# Shear Modulus (GPa) = 30.20567 38.22596 34.21582
#
# Velocity S-wave (km/s) = 3.55044 3.99409 3.77878
# Velocity P-wave (km/s) = 5.78878 6.82359 6.32738
#
# Compressibility (1/GPa) = 0.02498596
#
# Stress axis : x y z
#
# Youngs Moduli (GPa) = 59.58461 92.29096 80.66232
#
# Poissons Ratio (x) = 0.34174 0.27153
# Poissons Ratio (y) = 0.22063 0.03595
# Poissons Ratio (z) = 0.20058 0.04113
#
# Static dielectric constant tensor:
#      x y z
#    x 2.030490 0.000000 -0.124610 
#    y 0.000000 2.585950 0.000000 
#    z -0.124610 0.000000 2.251380 
# 
# From -- ./inp_files/71077.got.cif
#   From: 2010.05.17/outbox.cif.g08.bks.cpg/sg14_36_cif.got.tgz:71077.got - 2010.06.03 17:49:19.
