data_PCOD9247367
_publ_section_title
;
Structure prediction by ZEFSAII (Michael W. Deem and Ramdas Pophale) SiO2 
 PCOD9247367
Probable space group: P 21/C
;
_chemical_formula_sum "Si O2"
_cell_formula_units_Z 32
_cell_length_a 19.822175
_cell_length_b 12.720407
_cell_length_c 8.694065
_cell_angle_alpha 90.000000
_cell_angle_beta 42.953067
_cell_angle_gamma 90.000000
_cell_volume 1493.745885
_symmetry_space_group_name_H-M "P 21/C"
_symmetry_group_IT_number 14
_symmetry_cell_setting 'monoclinic'
loop_
_space_group_symop_operation_xyz
x,y,z
-x,1/2+y,1/2-z
-x,-y,-z
x,1/2-y,1/2+z
loop_
_atom_site_type_symbol
_atom_site_label
_atom_site_fract_x
_atom_site_fract_y
_atom_site_fract_z
Si Si1 0.072681 0.064235 0.488915
Si Si2 0.769754 0.601659 0.775133
Si Si3 0.220103 0.290142 0.557356
Si Si4 0.388483 0.448459 0.364651
Si Si5 0.064768 0.930047 0.006916
Si Si6 0.765146 0.294671 0.886620
Si Si7 0.382878 0.556483 0.040877
Si Si8 0.750690 0.408807 0.234385
O O1 0.153232 0.983510 0.425112
O O2 0.003275 0.106784 0.740186
O O3 0.131061 0.149171 0.290433
O O4 0.000000 0.000000 0.500000
O O5 0.790191 0.667196 0.893060
O O6 0.776063 0.685718 0.628660
O O7 0.847019 0.511512 0.598386
O O8 0.664196 0.545536 0.963394
O O9 0.320406 0.345470 0.454088
O O10 0.377743 0.520958 0.228260
O O11 0.342732 0.516480 0.578756
O O12 0.503554 0.423067 0.189129
O O13 0.123755 0.833467 0.835901
O O14 0.000000 0.000000 0.000000
O O15 0.686958 0.349204 0.899701
O O16 0.760018 0.171685 0.861897
O O17 0.743379 0.340844 0.091504
#
# Coordination Sequence:
#
# PCOD9247367 Si02
#       8
#     4   4   4   4   4   4   4   4
#     4  11  23  41  60  83 117 157 198 239 292 346
#     4  10  22  37  58  86 116 150 190 235 288 340
#     4  10  22  37  58  86 116 150 190 238 284 345
#     4   9  20  41  64  86 117 155 193 239 299 346
#     4  11  23  41  58  85 117 155 196 241 288 344
#     4  11  24  39  60  88 121 154 197 245 291 348
#     4   9  20  41  64  86 118 154 191 244 294 349
#     4  11  24  39  60  90 118 156 197 243 292 349
#
# _framework density 21.422654000000001
#
# number of rings (size 3 to 8) (size 9 to 14) (size 15 to 20)
#    0.000    1.750    2.500    0.750    5.250    4.500 
#    0.000    2.500    0.000    0.000    0.000    0.000 
#    0.000    0.000    0.000    0.000    0.000    0.000 
#
# Total GULP energy -178799.392122 kJ/mol
# GULP energy per Si atom -5587.481004 kJ/mol
# Density = 2.137389 g / cm^3
# Si number density = 21.422654 Si / 1000 Ang^3
#
#
#
# Elastic Constant Matrix: (Units=GPa)
#
#
# Indices 1 2 3 4 5 6 
#
# 1 54.8514 -1.2359 23.4282 0.0000 -17.2314 0.0000
# 2 -1.2359 42.9847 13.6322 0.0000 -4.8459 0.0000
# 3 23.4282 13.6322 94.8429 0.0000 -22.3784 0.0000
# 4 0.0000 0.0000 0.0000 23.7408 0.0000 10.1227
# 5 -17.2314 -4.8459 -22.3784 0.0000 31.7677 0.0000
# 6 0.0000 0.0000 0.0000 10.1227 0.0000 23.3480
#
#
#
# Elastic Compliance Matrix: (Units=1/GPa)
#
#
# Indices 1 2 3 4 5 6 
#
# 1 0.023148 0.003011 -0.003694 0.000000 0.010413 0.000000
# 2 0.003011 0.024827 -0.003638 0.000000 0.002858 0.000000
# 3 -0.003694 -0.003638 0.013643 0.000000 0.007052 0.000000
# 4 0.000000 0.000000 0.000000 0.051674 0.000000 -0.022404
# 5 0.010413 0.002858 0.007052 0.000000 0.042530 0.000000
# 6 0.000000 0.000000 0.000000 -0.022404 0.000000 0.052544
#
#
# Mechanical properties :
#
#
# Convention : Reuss Voigt Hill
#
# Bulk Modulus (GPa) = 18.87654 29.36978 24.12316
# Shear Modulus (GPa) = 21.30690 26.22827 23.76758
#
# Velocity S-wave (km/s) = 3.15714 3.50283 3.33447
# Velocity P-wave (km/s) = 4.70326 5.48627 5.10979
#
# Compressibility (1/GPa) = 0.05297582
#
# Stress axis : x y z
#
# Youngs Moduli (GPa) = 43.20055 40.27947 73.29733
#
# Poissons Ratio (x) = -0.12128 0.27075
# Poissons Ratio (y) = -0.13007 0.26665
# Poissons Ratio (z) = 0.15957 0.14653
#
# Static dielectric constant tensor:
#      x y z
#    x 1.794570 0.000000 0.036180 
#    y 0.000000 1.763330 0.000000 
#    z 0.036180 0.000000 1.759930 
# 
# From -- ./inp_files/15794.got.cif
#   From: 2010.05.17/outbox.cif.g08.bks.cpg/sg14_8_cif.got.tgz:15794.got - 2010.06.03 17:49:19.
