data_PCOD9247764
_publ_section_title
;
Structure prediction by ZEFSAII (Michael W. Deem and Ramdas Pophale) SiO2 
 PCOD9247764
Probable space group: P 21/C
;
_chemical_formula_sum "Si O2"
_cell_formula_units_Z 20
_cell_length_a 8.890934
_cell_length_b 4.847773
_cell_length_c 19.711420
_cell_angle_alpha 90.000000
_cell_angle_beta 78.797075
_cell_angle_gamma 90.000000
_cell_volume 833.397776
_symmetry_space_group_name_H-M "P 21/C"
_symmetry_group_IT_number 14
_symmetry_cell_setting 'monoclinic'
loop_
_space_group_symop_operation_xyz
x,y,z
-x,1/2+y,1/2-z
-x,-y,-z
x,1/2-y,1/2+z
loop_
_atom_site_type_symbol
_atom_site_label
_atom_site_fract_x
_atom_site_fract_y
_atom_site_fract_z
Si Si1 0.078798 0.470969 0.274717
Si Si2 0.326254 0.498225 0.493785
Si Si3 0.026914 0.135264 0.071908
Si Si4 0.241921 0.999501 0.415455
Si Si5 0.602672 0.270551 0.729196
O O1 0.248869 0.591445 0.247985
O O2 0.046267 0.169538 0.249398
O O3 0.046400 0.483062 0.357655
O O4 0.500000 0.500000 0.500000
O O5 0.209939 0.378748 0.560436
O O6 0.285190 0.807067 0.475515
O O7 0.293757 0.302258 0.431691
O O8 0.938042 0.427128 0.079365
O O9 0.000000 0.000000 0.000000
O O10 0.332582 0.882020 0.343281
O O11 0.487634 0.525226 0.724714
#
# Coordination Sequence:
#
# PCOD9247764 Si02
#       5
#     4   4   4   4   4
#     4  11  25  43  66 100 136 171 221 282 337 387
#     4  11  22  37  61  93 122 157 209 274 323 370
#     4   9  22  43  67  91 127 178 221 262 326 409
#     4  10  22  40  60  86 123 166 215 259 317 394
#     4  11  23  41  65  92 128 178 221 265 328 404
#
# _framework density 23.998142000000001
#
# number of rings (size 3 to 8) (size 9 to 14) (size 15 to 20)
#    0.000    1.600    0.000    3.600    0.000   16.000 
#    0.000    0.000    0.000    0.000    0.000    0.000 
#    0.000    0.000    0.000    0.000    0.000    0.000 
#
# Total GULP energy -111851.947996 kJ/mol
# GULP energy per Si atom -5592.597400 kJ/mol
# Density = 2.394352 g / cm^3
# Si number density = 23.998142 Si / 1000 Ang^3
#
#
#
# Elastic Constant Matrix: (Units=GPa)
#
#
# Indices 1 2 3 4 5 6 
#
# 1 150.4024 20.7614 26.5269 0.0000 -26.8679 0.0000
# 2 20.7614 87.5298 23.2822 0.0000 -5.5272 0.0000
# 3 26.5269 23.2822 88.9773 0.0000 -12.9163 0.0000
# 4 0.0000 0.0000 0.0000 38.2278 0.0000 7.6124
# 5 -26.8679 -5.5272 -12.9163 0.0000 37.9418 0.0000
# 6 0.0000 0.0000 0.0000 7.6124 0.0000 36.4262
#
#
#
# Elastic Compliance Matrix: (Units=1/GPa)
#
#
# Indices 1 2 3 4 5 6 
#
# 1 0.007943 -0.001216 -0.001324 0.000000 0.004997 0.000000
# 2 -0.001216 0.012485 -0.002909 0.000000 -0.000033 0.000000
# 3 -0.001324 -0.002909 0.012831 0.000000 0.003006 0.000000
# 4 0.000000 0.000000 0.000000 0.027295 0.000000 -0.005704
# 5 0.004997 -0.000033 0.003006 0.000000 0.030913 0.000000
# 6 0.000000 0.000000 0.000000 -0.005704 0.000000 0.028645
#
#
# Mechanical properties :
#
#
# Convention : Reuss Voigt Hill
#
# Bulk Modulus (GPa) = 44.72330 52.00559 48.36445
# Shear Modulus (GPa) = 36.11036 39.60841 37.85939
#
# Velocity S-wave (km/s) = 3.88327 4.06702 3.97621
# Velocity P-wave (km/s) = 6.22760 6.61603 6.42475
#
# Compressibility (1/GPa) = 0.02235971
#
# Stress axis : x y z
#
# Youngs Moduli (GPa) = 125.89853 80.09708 77.93447
#
# Poissons Ratio (x) = 0.09741 0.10322
# Poissons Ratio (y) = 0.15312 0.22671
# Poissons Ratio (z) = 0.16675 0.23300
#
# Static dielectric constant tensor:
#      x y z
#    x 1.986680 0.000000 -0.027780 
#    y 0.000000 1.908960 0.000000 
#    z -0.027780 0.000000 1.915980 
# 
# From -- ./inp_files/63994.got.cif
#   From: 2010.05.17/outbox.cif.g08.bks.cpg/sg14_32_cif.got.tgz:63994.got - 2010.06.03 17:49:19.
