data_PCOD9247333
_publ_section_title
;
Structure prediction by ZEFSAII (Michael W. Deem and Ramdas Pophale) SiO2 
 PCOD9247333
Probable space group: P 21/C
;
_chemical_formula_sum "Si O2"
_cell_formula_units_Z 32
_cell_length_a 19.695454
_cell_length_b 6.213086
_cell_length_c 31.155227
_cell_angle_alpha 90.000000
_cell_angle_beta 155.180206
_cell_angle_gamma 90.000000
_cell_volume 1600.336079
_symmetry_space_group_name_H-M "P 21/C"
_symmetry_group_IT_number 14
_symmetry_cell_setting 'monoclinic'
loop_
_space_group_symop_operation_xyz
x,y,z
-x,1/2+y,1/2-z
-x,-y,-z
x,1/2-y,1/2+z
loop_
_atom_site_type_symbol
_atom_site_label
_atom_site_fract_x
_atom_site_fract_y
_atom_site_fract_z
Si Si1 0.401009 0.420637 0.522208
Si Si2 0.077444 0.812181 0.515652
Si Si3 0.044482 0.557601 0.127732
Si Si4 0.359290 0.245351 0.806658
Si Si5 0.623756 0.427125 0.107252
Si Si6 0.120448 0.407821 0.875290
Si Si7 0.826132 0.273177 0.654266
Si Si8 0.185983 0.940147 0.151763
O O1 0.483790 0.593234 0.601382
O O2 0.545801 0.274281 0.587121
O O3 0.265827 0.260981 0.463640
O O4 0.306214 0.540663 0.429137
O O5 0.211590 0.700336 0.623115
O O6 0.947135 0.623372 0.433922
O O7 0.000000 0.000000 0.500000
O O8 0.094290 0.935393 0.480084
O O9 0.202184 0.406510 0.215624
O O10 0.104888 0.780096 0.140447
O O11 0.981193 0.581649 0.139532
O O12 0.352692 0.379178 0.846800
O O13 0.337620 0.427782 0.757631
O O14 0.778323 0.361153 0.168818
O O15 0.500000 0.500000 0.000000
O O16 0.184627 0.637266 0.895656
O O17 0.004513 0.350560 0.768344
#
# Coordination Sequence:
#
# PCOD9247333 Si02
#       8
#     4   4   4   4   4   4   4   4
#     4  12  24  40  55  80 118 160 215 258 299 356
#     4   8  16  33  60  92 131 148 183 243 312 371
#     4  10  22  36  61  92 130 157 196 256 312 371
#     4  11  22  36  60  86 120 158 206 256 307 364
#     4  12  24  39  59  81 114 160 212 260 301 353
#     4  12  25  38  55  82 122 168 211 251 310 359
#     4  12  25  39  57  78 116 168 208 256 308 353
#     4   9  17  35  59  94 129 147 191 247 311 374
#
# _framework density 19.995799000000002
#
# number of rings (size 3 to 8) (size 9 to 14) (size 15 to 20)
#    0.000    1.250    3.750    2.625    3.500    2.000 
#    0.000    0.000    0.000    0.000    0.000    0.000 
#  603.750    0.000    0.000    0.000    0.000    0.125 
#
# Total GULP energy -178444.199407 kJ/mol
# GULP energy per Si atom -5576.381231 kJ/mol
# Density = 1.995029 g / cm^3
# Si number density = 19.995799 Si / 1000 Ang^3
#
#
#
# Elastic Constant Matrix: (Units=GPa)
#
#
# Indices 1 2 3 4 5 6 
#
# 1 52.1166 38.1099 36.1498 0.0000 -10.9235 0.0000
# 2 38.1099 107.5537 36.7613 0.0000 -14.5861 0.0000
# 3 36.1498 36.7613 73.0425 0.0000 -14.7587 0.0000
# 4 0.0000 0.0000 0.0000 53.5493 0.0000 -10.2708
# 5 -10.9235 -14.5861 -14.7587 0.0000 28.7896 0.0000
# 6 0.0000 0.0000 0.0000 -10.2708 0.0000 19.2378
#
#
#
# Elastic Compliance Matrix: (Units=1/GPa)
#
#
# Indices 1 2 3 4 5 6 
#
# 1 0.033772 -0.007336 -0.012477 0.000000 0.002701 0.000000
# 2 -0.007336 0.013079 -0.002427 0.000000 0.002599 0.000000
# 3 -0.012477 -0.002427 0.022179 0.000000 0.005407 0.000000
# 4 0.000000 0.000000 0.000000 0.020805 0.000000 0.011107
# 5 0.002701 0.002599 0.005407 0.000000 0.039848 0.000000
# 6 0.000000 0.000000 0.000000 0.011107 0.000000 0.057911
#
#
# Mechanical properties :
#
#
# Convention : Reuss Voigt Hill
#
# Bulk Modulus (GPa) = 40.72936 50.52830 45.62883
# Shear Modulus (GPa) = 20.81105 28.42813 24.61959
#
# Velocity S-wave (km/s) = 3.22960 3.77464 3.51271
# Velocity P-wave (km/s) = 5.85835 6.65744 6.27064
#
# Compressibility (1/GPa) = 0.02455231
#
# Stress axis : x y z
#
# Youngs Moduli (GPa) = 29.61000 76.45891 45.08730
#
# Poissons Ratio (x) = 0.56090 0.56253
# Poissons Ratio (y) = 0.21722 0.10941
# Poissons Ratio (z) = 0.36943 0.18554
#
# Static dielectric constant tensor:
#      x y z
#    x 1.738230 0.000000 0.016550 
#    y 0.000000 1.751460 0.000000 
#    z 0.016550 0.000000 1.810880 
# 
# From -- ./inp_files/80335.got.cif
#   From: 2010.05.17/outbox.cif.g08.bks.cpg/sg14_41_cif.got.tgz:80335.got - 2010.06.03 17:49:19.
