data_PCOD9247973
_publ_section_title
;
Structure prediction by ZEFSAII (Michael W. Deem and Ramdas Pophale) SiO2 
 PCOD9247973
Probable space group: P 21/C
;
_chemical_formula_sum "Si O2"
_cell_formula_units_Z 20
_cell_length_a 23.176813
_cell_length_b 8.959436
_cell_length_c 8.497053
_cell_angle_alpha 90.000000
_cell_angle_beta 30.694516
_cell_angle_gamma 90.000000
_cell_volume 900.668462
_symmetry_space_group_name_H-M "P 21/C"
_symmetry_group_IT_number 14
_symmetry_cell_setting 'monoclinic'
loop_
_space_group_symop_operation_xyz
x,y,z
-x,1/2+y,1/2-z
-x,-y,-z
x,1/2-y,1/2+z
loop_
_atom_site_type_symbol
_atom_site_label
_atom_site_fract_x
_atom_site_fract_y
_atom_site_fract_z
Si Si1 0.388921 0.081297 0.697607
Si Si2 0.850313 0.032548 0.237834
Si Si3 0.844158 0.996142 0.607206
Si Si4 0.611829 0.581587 0.176003
Si Si5 0.991063 0.718722 0.261668
O O1 0.387528 0.080680 0.513377
O O2 0.388826 0.250170 0.759312
O O3 0.500000 0.000000 0.500000
O O4 0.275731 0.004624 0.029313
O O5 0.840746 0.075027 0.444123
O O6 0.726024 0.995554 0.469304
O O7 0.910066 0.156974 0.989402
O O8 0.930475 0.885007 0.036717
O O9 0.884610 0.827040 0.477002
O O10 0.939595 0.083159 0.484886
O O11 0.500000 0.500000 0.500000
#
# Coordination Sequence:
#
# PCOD9247973 Si02
#       5
#     4   4   4   4   4
#     4  12  27  48  74 102 138 180 231 286 346 410
#     4  11  24  44  69 103 142 180 232 284 340 411
#     4  11  24  44  69 103 142 180 232 284 340 411
#     4  12  27  48  74 102 138 180 231 286 346 410
#     4  10  22  40  70 100 142 182 230 276 346 400
#
# _framework density 22.205729000000002
#
# number of rings (size 3 to 8) (size 9 to 14) (size 15 to 20)
#    0.000    0.800    2.000    6.000    2.800    4.800 
#    0.000   10.000    0.000    0.000    0.000    0.000 
#    0.000    0.000    0.000    0.000    0.000    0.000 
#
# Total GULP energy -111436.675300 kJ/mol
# GULP energy per Si atom -5571.833765 kJ/mol
# Density = 2.215519 g / cm^3
# Si number density = 22.205729 Si / 1000 Ang^3
#
#
#
# Elastic Constant Matrix: (Units=GPa)
#
#
# Indices 1 2 3 4 5 6 
#
# 1 108.8140 31.4305 72.5810 0.0000 1.5277 0.0000
# 2 31.4305 89.9332 58.6914 0.0000 10.8062 0.0000
# 3 72.5810 58.6914 227.3196 0.0000 -11.7619 0.0000
# 4 0.0000 0.0000 0.0000 42.2112 0.0000 -5.5795
# 5 1.5277 10.8062 -11.7619 0.0000 29.9150 0.0000
# 6 0.0000 0.0000 0.0000 -5.5795 0.0000 27.0559
#
#
#
# Elastic Compliance Matrix: (Units=1/GPa)
#
#
# Indices 1 2 3 4 5 6 
#
# 1 0.012024 -0.001796 -0.003444 0.000000 -0.001319 0.000000
# 2 -0.001796 0.014922 -0.003627 0.000000 -0.006725 0.000000
# 3 -0.003444 -0.003627 0.006647 0.000000 0.004100 0.000000
# 4 0.000000 0.000000 0.000000 0.024354 0.000000 0.005022
# 5 -0.001319 -0.006725 0.004100 0.000000 0.037536 0.000000
# 6 0.000000 0.000000 0.000000 0.005022 0.000000 0.037996
#
#
# Mechanical properties :
#
#
# Convention : Reuss Voigt Hill
#
# Bulk Modulus (GPa) = 63.05417 83.49695 73.27556
# Shear Modulus (GPa) = 31.94845 37.39402 34.67123
#
# Velocity S-wave (km/s) = 3.79720 4.10809 3.95570
# Velocity P-wave (km/s) = 6.90522 7.75790 7.34394
#
# Compressibility (1/GPa) = 0.01585938
#
# Stress axis : x y z
#
# Youngs Moduli (GPa) = 83.16397 67.01352 150.43829
#
# Poissons Ratio (x) = 0.12039 0.51807
# Poissons Ratio (y) = 0.14940 0.54566
# Poissons Ratio (z) = 0.28639 0.24307
#
# Static dielectric constant tensor:
#      x y z
#    x 1.936630 0.000000 -0.009990 
#    y 0.000000 1.835740 0.000000 
#    z -0.009990 0.000000 1.778910 
# 
# From -- ./inp_files/19347.got.cif
#   From: 2010.05.17/outbox.cif.g08.bks.cpg/sg14_10_cif.got.tgz:19347.got - 2010.06.03 17:49:19.
