data_PCOD9247002
_publ_section_title
;
Structure prediction by ZEFSAII (Michael W. Deem and Ramdas Pophale) SiO2 
 PCOD9247002
Probable space group: P 21/C
;
_chemical_formula_sum "Si O2"
_cell_formula_units_Z 32
_cell_length_a 10.427293
_cell_length_b 15.349705
_cell_length_c 13.986232
_cell_angle_alpha 90.000000
_cell_angle_beta 134.588998
_cell_angle_gamma 90.000000
_cell_volume 1594.228029
_symmetry_space_group_name_H-M "P 21/C"
_symmetry_group_IT_number 14
_symmetry_cell_setting 'monoclinic'
loop_
_space_group_symop_operation_xyz
x,y,z
-x,1/2+y,1/2-z
-x,-y,-z
x,1/2-y,1/2+z
loop_
_atom_site_type_symbol
_atom_site_label
_atom_site_fract_x
_atom_site_fract_y
_atom_site_fract_z
Si Si1 0.581045 0.365747 0.969845
Si Si2 0.757545 0.105709 0.937919
Si Si3 0.943227 0.585333 0.248410
Si Si4 0.123393 0.952891 0.641379
Si Si5 0.760423 0.742008 0.707976
Si Si6 0.418072 0.430410 0.384345
Si Si7 0.367518 0.528652 0.823503
Si Si8 0.112919 0.703589 0.002293
O O1 0.419209 0.298155 0.860745
O O2 0.530649 0.459918 0.898015
O O3 0.769135 0.331081 0.026352
O O4 0.585069 0.387784 0.085768
O O5 0.578160 0.110617 0.906935
O O6 0.715617 0.050657 0.822011
O O7 0.819627 0.200629 0.938801
O O8 0.911761 0.073330 0.090954
O O9 0.878041 0.686296 0.212130
O O10 0.776775 0.525180 0.189820
O O11 0.026209 0.558298 0.191794
O O12 0.158086 0.859460 0.613202
O O13 0.293406 0.013301 0.749638
O O14 0.000000 0.000000 0.500000
O O15 0.691850 0.650744 0.627844
O O16 0.901108 0.711386 0.864235
O O17 0.500000 0.500000 0.500000
#
# Coordination Sequence:
#
# PCOD9247002 Si02
#       8
#     4   4   4   4   4   4   4   4
#     4  10  21  43  66  93 131 171 220 276 340 389
#     4  11  23  41  67  96 137 171 225 276 344 403
#     4  10  23  44  67  98 137 173 224 280 341 405
#     4  12  24  43  69 101 133 181 235 275 342 412
#     4  10  23  43  64  93 134 174 218 279 334 395
#     4  12  24  43  66  98 138 177 221 285 340 404
#     4  10  22  40  69  97 126 175 222 275 334 412
#     4  11  23  41  68  95 134 179 218 281 336 405
#
# _framework density 20.072410999999999
#
# number of rings (size 3 to 8) (size 9 to 14) (size 15 to 20)
#    0.000    1.250    3.750    1.875    0.000    5.000 
#    0.000    3.750    0.000    0.000    0.000    0.000 
#    0.000    0.000    0.000    0.000    0.000    0.000 
#
# Total GULP energy -178583.126799 kJ/mol
# GULP energy per Si atom -5580.722712 kJ/mol
# Density = 2.002673 g / cm^3
# Si number density = 20.072411 Si / 1000 Ang^3
#
#
#
# Elastic Constant Matrix: (Units=GPa)
#
#
# Indices 1 2 3 4 5 6 
#
# 1 38.1585 9.0086 24.8713 0.0000 3.9934 0.0000
# 2 9.0086 81.7364 53.2290 0.0000 0.9326 0.0000
# 3 24.8713 53.2290 132.1923 0.0000 6.2219 0.0000
# 4 0.0000 0.0000 0.0000 37.6569 0.0000 6.4428
# 5 3.9934 0.9326 6.2219 0.0000 27.1289 0.0000
# 6 0.0000 0.0000 0.0000 6.4428 0.0000 26.2393
#
#
#
# Elastic Compliance Matrix: (Units=1/GPa)
#
#
# Indices 1 2 3 4 5 6 
#
# 1 0.030147 0.000421 -0.005693 0.000000 -0.003146 0.000000
# 2 0.000421 0.016614 -0.006813 0.000000 0.000929 0.000000
# 3 -0.005693 -0.006813 0.011452 0.000000 -0.001554 0.000000
# 4 0.000000 0.000000 0.000000 0.027720 0.000000 -0.006806
# 5 -0.003146 0.000929 -0.001554 0.000000 0.037649 0.000000
# 6 0.000000 0.000000 0.000000 -0.006806 0.000000 0.039782
#
#
# Mechanical properties :
#
#
# Convention : Reuss Voigt Hill
#
# Bulk Modulus (GPa) = 29.37454 47.36721 38.37087
# Shear Modulus (GPa) = 25.14040 29.20358 27.17199
#
# Velocity S-wave (km/s) = 3.54289 3.81847 3.68326
# Velocity P-wave (km/s) = 5.60376 6.56432 6.10297
#
# Compressibility (1/GPa) = 0.03404309
#
# Stress axis : x y z
#
# Youngs Moduli (GPa) = 33.17047 60.18957 87.31813
#
# Poissons Ratio (x) = -0.02534 0.49714
# Poissons Ratio (y) = -0.01396 0.59489
# Poissons Ratio (z) = 0.18885 0.41006
#
# Static dielectric constant tensor:
#      x y z
#    x 1.694800 0.000000 0.034990 
#    y 0.000000 1.804160 0.000000 
#    z 0.034990 0.000000 1.719820 
# 
# From -- ./inp_files/45099.got.cif
#   From: 2010.05.17/outbox.cif.g08.bks.cpg/sg14_23_cif.got.tgz:45099.got - 2010.06.03 17:49:19.
