data_PCOD9247018
_publ_section_title
;
Structure prediction by ZEFSAII (Michael W. Deem and Ramdas Pophale) SiO2 
 PCOD9247018
Probable space group: P 21/C
;
_chemical_formula_sum "Si O2"
_cell_formula_units_Z 32
_cell_length_a 12.148012
_cell_length_b 5.134959
_cell_length_c 22.751841
_cell_angle_alpha 90.000000
_cell_angle_beta 123.603508
_cell_angle_gamma 90.000000
_cell_volume 1182.074929
_symmetry_space_group_name_H-M "P 21/C"
_symmetry_group_IT_number 14
_symmetry_cell_setting 'monoclinic'
loop_
_space_group_symop_operation_xyz
x,y,z
-x,1/2+y,1/2-z
-x,-y,-z
x,1/2-y,1/2+z
loop_
_atom_site_type_symbol
_atom_site_label
_atom_site_fract_x
_atom_site_fract_y
_atom_site_fract_z
Si Si1 0.848651 0.417205 0.168970
Si Si2 0.403062 0.271327 0.573718
Si Si3 0.822481 0.280408 0.831282
Si Si4 0.449438 0.579244 0.768752
Si Si5 0.922771 0.067808 0.098760
Si Si6 0.230945 0.777373 0.548930
Si Si7 0.656496 0.719504 0.568404
Si Si8 0.222750 0.093633 0.786682
O O1 0.711363 0.488985 0.095300
O O2 0.834878 0.179153 0.208287
O O3 0.943378 0.321411 0.145540
O O4 0.134271 0.174546 0.287154
O O5 0.502876 0.164370 0.652443
O O6 0.338311 0.543223 0.575464
O O7 0.441057 0.290475 0.515647
O O8 0.290585 0.043956 0.540920
O O9 0.707849 0.078117 0.778875
O O10 0.807997 0.329507 0.895969
O O11 0.777598 0.536409 0.781858
O O12 0.962087 0.140522 0.862996
O O13 0.506232 0.307645 0.762876
O O14 0.786189 0.937796 0.082493
O O15 0.892423 0.173622 0.025264
O O16 0.643653 0.629281 0.633334
#
# Coordination Sequence:
#
# PCOD9247018 Si02
#       8
#     4   4   4   4   4   4   4   4
#     4   9  18  43  64  90 138 179 232 278 350 433
#     4  11  20  42  73  96 133 194 247 292 356 429
#     4  12  25  43  69 105 153 187 240 301 360 442
#     4  12  25  47  66 100 145 195 243 296 372 428
#     4  10  21  43  67 110 136 191 235 295 359 429
#     4  11  22  41  68 102 142 184 239 299 358 432
#     4   8  19  41  70  92 133 181 234 285 345 432
#     4   9  21  40  62  97 138 183 229 287 361 415
#
# _framework density 27.071043
#
# number of rings (size 3 to 8) (size 9 to 14) (size 15 to 20)
#    0.750    1.000    3.750    0.375    0.000    2.000 
#   11.250    2.500    0.000    0.750    0.000    0.000 
#    0.000    0.000    0.000    0.750    0.000    0.000 
#
# Total GULP energy -179076.616258 kJ/mol
# GULP energy per Si atom -5596.144258 kJ/mol
# Density = 2.700943 g / cm^3
# Si number density = 27.071043 Si / 1000 Ang^3
#
#
#
# Elastic Constant Matrix: (Units=GPa)
#
#
# Indices 1 2 3 4 5 6 
#
# 1 76.3887 50.2438 60.9096 0.0000 -17.9689 0.0000
# 2 50.2438 195.0720 45.4517 0.0000 -23.8410 0.0000
# 3 60.9096 45.4517 224.6584 0.0000 -34.2166 0.0000
# 4 0.0000 0.0000 0.0000 2.8482 0.0000 8.7863
# 5 -17.9689 -23.8410 -34.2166 0.0000 41.5981 0.0000
# 6 0.0000 0.0000 0.0000 8.7863 0.0000 15.3481
#
#
#
# Elastic Compliance Matrix: (Units=1/GPa)
#
#
# Indices 1 2 3 4 5 6 
#
# 1 0.019474 -0.003706 -0.004084 0.000000 0.002929 0.000000
# 2 -0.003706 0.006323 0.000039 0.000000 0.002055 0.000000
# 3 -0.004084 0.000039 0.006042 0.000000 0.003228 0.000000
# 4 0.000000 0.000000 0.000000 -0.458357 0.000000 0.262397
# 5 0.002929 0.002055 0.003228 0.000000 0.029137 0.000000
# 6 0.000000 0.000000 0.000000 0.262397 0.000000 -0.085060
#
#
# Mechanical properties :
#
#
# Convention : Reuss Voigt Hill
#
# Bulk Modulus (GPa) = 61.21476 89.92549 75.57013
# Shear Modulus (GPa) = -10.83442 34.59315 11.87936
#
# Velocity S-wave (km/s) = -2.00272 3.57860 2.09708
# Velocity P-wave (km/s) = 4.16099 7.09688 5.81719
#
# Compressibility (1/GPa) = 0.01633593
#
# Stress axis : x y z
#
# Youngs Moduli (GPa) = 51.35043 158.15103 165.50006
#
# Poissons Ratio (x) = 0.58617 0.67589
# Poissons Ratio (y) = 0.19032 -0.00638
# Poissons Ratio (z) = 0.20971 -0.00610
#
# Static dielectric constant tensor:
#      x y z
#    x 2.664330 0.000000 -0.276280 
#    y 0.000000 2.102180 0.000000 
#    z -0.276280 0.000000 2.380510 
# 
# From -- ./inp_files/73563.got.cif
#   From: 2010.05.17/outbox.cif.g08.bks.cpg/sg14_37_cif.got.tgz:73563.got - 2010.06.03 17:49:19.
