data_PCOD9247175
_publ_section_title
;
Structure prediction by ZEFSAII (Michael W. Deem and Ramdas Pophale) SiO2 
 PCOD9247175
Probable space group: P 21/C
;
_chemical_formula_sum "Si O2"
_cell_formula_units_Z 16
_cell_length_a 22.289364
_cell_length_b 4.945295
_cell_length_c 10.793849
_cell_angle_alpha 90.000000
_cell_angle_beta 151.485833
_cell_angle_gamma 90.000000
_cell_volume 567.971885
_symmetry_space_group_name_H-M "P 21/C"
_symmetry_group_IT_number 14
_symmetry_cell_setting 'monoclinic'
loop_
_space_group_symop_operation_xyz
x,y,z
-x,1/2+y,1/2-z
-x,-y,-z
x,1/2-y,1/2+z
loop_
_atom_site_type_symbol
_atom_site_label
_atom_site_fract_x
_atom_site_fract_y
_atom_site_fract_z
Si Si1 0.233945 0.362788 0.006874
Si Si2 0.975575 0.247149 0.626741
Si Si3 0.710931 0.979173 0.645652
Si Si4 0.573246 0.247992 0.575131
O O1 0.297735 0.294539 0.991380
O O2 0.085438 0.309734 0.728982
O O3 0.272756 0.199795 0.201049
O O4 0.283771 0.667810 0.123453
O O5 0.835683 0.344109 0.345579
O O6 0.982771 0.937394 0.681423
O O7 0.596018 0.177161 0.471903
O O8 0.500000 0.500000 0.500000
O O9 0.500000 0.000000 0.500000
#
# Coordination Sequence:
#
# PCOD9247175 Si02
#       4
#     4   4   4   4
#     4  11  25  48  77 114 151 196 250 313 379 450
#     4  10  21  44  73 110 149 192 243 310 379 448
#     4  11  25  48  77 114 151 196 250 313 379 450
#     4  12  26  50  70 104 146 202 248 300 358 440
#
# _framework density 28.170407999999998
#
# number of rings (size 3 to 8) (size 9 to 14) (size 15 to 20)
#    0.000    1.000    5.000    0.750    0.000    4.000 
#    0.000    6.250    0.000    0.000    0.000    0.000 
#    0.000    0.000    0.000    0.000    0.000    0.000 
#
# Total GULP energy -89523.104134 kJ/mol
# GULP energy per Si atom -5595.194008 kJ/mol
# Density = 2.810629 g / cm^3
# Si number density = 28.170408 Si / 1000 Ang^3
#
#
#
# Elastic Constant Matrix: (Units=GPa)
#
#
# Indices 1 2 3 4 5 6 
#
# 1 272.3390 69.3626 50.7149 0.0000 17.5713 0.0000
# 2 69.3626 140.9802 27.7007 0.0000 2.3848 0.0000
# 3 50.7149 27.7007 70.5029 0.0000 1.0543 0.0000
# 4 0.0000 0.0000 0.0000 49.5691 0.0000 7.4288
# 5 17.5713 2.3848 1.0543 0.0000 60.0447 0.0000
# 6 0.0000 0.0000 0.0000 7.4288 0.0000 54.3576
#
#
#
# Elastic Compliance Matrix: (Units=1/GPa)
#
#
# Indices 1 2 3 4 5 6 
#
# 1 0.004700 -0.001767 -0.002668 0.000000 -0.001258 0.000000
# 2 -0.001767 0.008355 -0.002015 0.000000 0.000221 0.000000
# 3 -0.002668 -0.002015 0.016886 0.000000 0.000564 0.000000
# 4 0.000000 0.000000 0.000000 0.020596 0.000000 -0.002815
# 5 -0.001258 0.000221 0.000564 0.000000 0.017004 0.000000
# 6 0.000000 0.000000 0.000000 -0.002815 0.000000 0.018781
#
#
# Mechanical properties :
#
#
# Convention : Reuss Voigt Hill
#
# Bulk Modulus (GPa) = 58.68016 86.59763 72.63889
# Shear Modulus (GPa) = 47.66401 55.19722 51.43061
#
# Velocity S-wave (km/s) = 4.11784 4.43132 4.27745
# Velocity P-wave (km/s) = 6.59428 7.54914 7.08780
#
# Compressibility (1/GPa) = 0.01704154
#
# Stress axis : x y z
#
# Youngs Moduli (GPa) = 212.77138 119.69350 59.22062
#
# Poissons Ratio (x) = 0.21149 0.15799
# Poissons Ratio (y) = 0.37594 0.11932
# Poissons Ratio (z) = 0.56762 0.24117
#
# Static dielectric constant tensor:
#      x y z
#    x 2.179960 0.000000 -0.010980 
#    y 0.000000 2.248810 0.000000 
#    z -0.010980 0.000000 2.372030 
# 
# From -- ./inp_files/27326.got.cif
#   From: 2010.05.17/outbox.cif.g08.bks.cpg/sg14_14_cif.got.tgz:27326.got - 2010.06.03 17:49:19.
