data_PCOD9247719
_publ_section_title
;
Structure prediction by ZEFSAII (Michael W. Deem and Ramdas Pophale) SiO2 
 PCOD9247719
Probable space group: P 21/C
;
_chemical_formula_sum "Si O2"
_cell_formula_units_Z 24
_cell_length_a 12.109326
_cell_length_b 10.866257
_cell_length_c 23.329207
_cell_angle_alpha 90.000000
_cell_angle_beta 21.930773
_cell_angle_gamma 90.000000
_cell_volume 1146.500683
_symmetry_space_group_name_H-M "P 21/C"
_symmetry_group_IT_number 14
_symmetry_cell_setting 'monoclinic'
loop_
_space_group_symop_operation_xyz
x,y,z
-x,1/2+y,1/2-z
-x,-y,-z
x,1/2-y,1/2+z
loop_
_atom_site_type_symbol
_atom_site_label
_atom_site_fract_x
_atom_site_fract_y
_atom_site_fract_z
Si Si1 0.084906 0.216162 0.122416
Si Si2 0.671306 0.425482 0.311837
Si Si3 0.143141 0.335325 0.723859
Si Si4 0.415300 0.671418 0.925878
Si Si5 0.644822 0.407487 0.624382
Si Si6 0.743591 0.464492 0.703000
O O1 0.983755 0.356037 0.161220
O O2 0.023585 0.180919 0.217783
O O3 0.886706 0.137176 0.174593
O O4 0.421384 0.174776 0.948407
O O5 0.679105 0.537319 0.353534
O O6 0.568713 0.491725 0.302637
O O7 0.349319 0.220352 0.640839
O O8 0.890558 0.338889 0.893513
O O9 0.406372 0.777681 0.881750
O O10 0.516685 0.547049 0.847312
O O11 0.610982 0.407789 0.708836
O O12 0.980616 0.448335 0.448261
#
# Coordination Sequence:
#
# PCOD9247719 Si02
#       6
#     4   4   4   4   4   4
#     4  11  24  41  65  92 131 170 210 264 318 371
#     4  10  24  42  62  95 127 167 213 263 319 373
#     4  11  24  41  66  92 134 165 217 258 314 385
#     4  11  22  41  66  96 123 171 211 260 322 372
#     4   9  21  44  62  93 126 163 210 263 313 375
#     4  10  22  39  67  89 127 167 207 262 317 372
#
# _framework density 20.933264000000001
#
# number of rings (size 3 to 8) (size 9 to 14) (size 15 to 20)
#    0.000    1.667    1.667    1.500    7.000    0.667 
#    0.000    3.333    0.000    0.000    0.000    0.000 
#    0.000    0.000    0.000    0.000    0.000    0.000 
#
# Total GULP energy -134152.810778 kJ/mol
# GULP energy per Si atom -5589.700449 kJ/mol
# Density = 2.088562 g / cm^3
# Si number density = 20.933264 Si / 1000 Ang^3
#
#
#
# Elastic Constant Matrix: (Units=GPa)
#
#
# Indices 1 2 3 4 5 6 
#
# 1 140.6105 29.4586 16.4407 0.0000 -3.7300 0.0000
# 2 29.4586 40.2081 20.1466 0.0000 7.8896 0.0000
# 3 16.4407 20.1466 69.2112 0.0000 1.7629 0.0000
# 4 0.0000 0.0000 0.0000 36.4203 0.0000 -9.8617
# 5 -3.7300 7.8896 1.7629 0.0000 13.0258 0.0000
# 6 0.0000 0.0000 0.0000 -9.8617 0.0000 14.3192
#
#
#
# Elastic Compliance Matrix: (Units=1/GPa)
#
#
# Indices 1 2 3 4 5 6 
#
# 1 0.008997 -0.008066 0.000021 0.000000 0.007459 0.000000
# 2 -0.008066 0.040396 -0.009192 0.000000 -0.025533 0.000000
# 3 0.000021 -0.009192 0.017036 0.000000 0.003268 0.000000
# 4 0.000000 0.000000 0.000000 0.033751 0.000000 0.023245
# 5 0.007459 -0.025533 0.003268 0.000000 0.093929 0.000000
# 6 0.000000 0.000000 0.000000 0.023245 0.000000 0.085845
#
#
# Mechanical properties :
#
#
# Convention : Reuss Voigt Hill
#
# Bulk Modulus (GPa) = 31.29477 42.45796 36.87636
# Shear Modulus (GPa) = 15.38076 25.01864 20.19970
#
# Velocity S-wave (km/s) = 2.71357 3.46086 3.10975
# Velocity P-wave (km/s) = 4.97998 6.02467 5.52706
#
# Compressibility (1/GPa) = 0.03195422
#
# Stress axis : x y z
#
# Youngs Moduli (GPa) = 111.14713 24.75500 58.69845
#
# Poissons Ratio (x) = 0.19966 -0.00121
# Poissons Ratio (y) = 0.89647 0.53958
# Poissons Ratio (z) = -0.00229 0.22756
#
# Static dielectric constant tensor:
#      x y z
#    x 1.723460 0.000000 -0.014580 
#    y 0.000000 1.733910 0.000000 
#    z -0.014580 0.000000 1.765880 
# 
# From -- ./inp_files/12387.got.cif
#   From: 2010.05.17/outbox.cif.g08.bks.cpg/sg14_7_cif.got.tgz:12387.got - 2010.06.03 17:49:19.
