data_PCOD9247327
_publ_section_title
;
Structure prediction by ZEFSAII (Michael W. Deem and Ramdas Pophale) SiO2 
 PCOD9247327
Probable space group: P 21/C
;
_chemical_formula_sum "Si O2"
_cell_formula_units_Z 28
_cell_length_a 26.049887
_cell_length_b 8.676363
_cell_length_c 11.274465
_cell_angle_alpha 90.000000
_cell_angle_beta 30.149975
_cell_angle_gamma 90.000000
_cell_volume 1279.889719
_symmetry_space_group_name_H-M "P 21/C"
_symmetry_group_IT_number 14
_symmetry_cell_setting 'monoclinic'
loop_
_space_group_symop_operation_xyz
x,y,z
-x,1/2+y,1/2-z
-x,-y,-z
x,1/2-y,1/2+z
loop_
_atom_site_type_symbol
_atom_site_label
_atom_site_fract_x
_atom_site_fract_y
_atom_site_fract_z
Si Si1 0.407689 0.372074 0.321083
Si Si2 0.818141 0.012863 0.365252
Si Si3 0.000822 0.504413 0.180140
Si Si4 0.581899 0.871107 0.475134
Si Si5 0.000421 0.737577 0.505610
Si Si6 0.220664 0.047931 0.807571
Si Si7 0.212694 0.413615 0.834490
O O1 0.420709 0.250804 0.407210
O O2 0.489035 0.509259 0.170529
O O3 0.294174 0.443691 0.569157
O O4 0.415350 0.312020 0.168424
O O5 0.751691 0.003721 0.379598
O O6 0.748449 0.970859 0.615976
O O7 0.887954 0.164682 0.234305
O O8 0.907833 0.881905 0.175901
O O9 0.020001 0.375660 0.043407
O O10 0.888796 0.470658 0.452480
O O11 0.998127 0.676917 0.135468
O O12 0.101931 0.492336 0.054917
O O13 0.686687 0.968880 0.287052
O O14 0.199537 0.230657 0.855444
#
# Coordination Sequence:
#
# PCOD9247327 Si02
#       7
#     4   4   4   4   4   4   4
#     4  10  25  49  72  98 130 172 223 276 334 395
#     4  11  22  40  55  96 127 172 220 260 320 383
#     4  11  22  37  58  96 128 175 211 262 332 378
#     4  10  25  49  72  98 130 172 223 276 334 395
#     4  10  22  36  60  84 138 173 217 263 313 394
#     4  11  24  39  66  90 132 171 214 264 325 389
#     4  11  24  39  66  90 132 171 214 264 325 389
#
# _framework density 21.876885000000001
#
# number of rings (size 3 to 8) (size 9 to 14) (size 15 to 20)
#    0.000    1.429    2.857    1.714   12.000    0.571 
#    5.143    0.000    0.000    0.000    0.000    0.000 
#    0.000    0.000    0.000    0.000    0.000    0.000 
#
# Total GULP energy -156107.758583 kJ/mol
# GULP energy per Si atom -5575.277092 kJ/mol
# Density = 2.182709 g / cm^3
# Si number density = 21.876885 Si / 1000 Ang^3
#
#
#
# Elastic Constant Matrix: (Units=GPa)
#
#
# Indices 1 2 3 4 5 6 
#
# 1 83.9302 19.1957 21.7658 0.0000 11.6401 0.0000
# 2 19.1957 33.3565 13.4451 0.0000 2.1563 0.0000
# 3 21.7658 13.4451 101.5839 0.0000 1.8776 0.0000
# 4 0.0000 0.0000 0.0000 -1.1074 0.0000 -14.3353
# 5 11.6401 2.1563 1.8776 0.0000 37.3400 0.0000
# 6 0.0000 0.0000 0.0000 -14.3353 0.0000 9.9479
#
#
#
# Elastic Compliance Matrix: (Units=1/GPa)
#
#
# Indices 1 2 3 4 5 6 
#
# 1 0.014704 -0.007352 -0.002102 0.000000 -0.004053 0.000000
# 2 -0.007352 0.035443 -0.003123 0.000000 0.000402 0.000000
# 3 -0.002102 -0.003123 0.010702 0.000000 0.000298 0.000000
# 4 0.000000 0.000000 0.000000 -0.045945 0.000000 -0.066209
# 5 -0.004053 0.000402 0.000298 0.000000 0.028006 0.000000
# 6 0.000000 0.000000 0.000000 -0.066209 0.000000 0.005115
#
#
# Mechanical properties :
#
#
# Convention : Reuss Voigt Hill
#
# Bulk Modulus (GPa) = 28.01624 36.40931 32.21278
# Shear Modulus (GPa) = 58.76983 20.20038 39.48510
#
# Velocity S-wave (km/s) = 5.18866 3.04199 4.25299
# Velocity P-wave (km/s) = 6.98072 5.38676 6.23489
#
# Compressibility (1/GPa) = 0.03569359
#
# Stress axis : x y z
#
# Youngs Moduli (GPa) = 68.01101 28.21441 93.43670
#
# Poissons Ratio (x) = 0.20743 0.19645
# Poissons Ratio (y) = 0.50001 0.29182
# Poissons Ratio (z) = 0.14299 0.08812
#
# Static dielectric constant tensor:
#      x y z
#    x 1.947810 0.000000 0.031740 
#    y 0.000000 1.808380 0.000000 
#    z 0.031740 0.000000 1.864020 
# 
# From -- ./inp_files/36149.got.cif
#   From: 2010.05.17/outbox.cif.g08.bks.cpg/sg14_19_cif.got.tgz:36149.got - 2010.06.03 17:49:19.
