data_PCOD9247960
_publ_section_title
;
Structure prediction by ZEFSAII (Michael W. Deem and Ramdas Pophale) SiO2 
 PCOD9247960
Probable space group: P 21/C
;
_chemical_formula_sum "Si O2"
_cell_formula_units_Z 30
_cell_length_a 19.603821
_cell_length_b 10.254560
_cell_length_c 16.796199
_cell_angle_alpha 90.000000
_cell_angle_beta 22.965827
_cell_angle_gamma 90.000000
_cell_volume 1317.455778
_symmetry_space_group_name_H-M "P 21/C"
_symmetry_group_IT_number 14
_symmetry_cell_setting 'monoclinic'
loop_
_space_group_symop_operation_xyz
x,y,z
-x,1/2+y,1/2-z
-x,-y,-z
x,1/2-y,1/2+z
loop_
_atom_site_type_symbol
_atom_site_label
_atom_site_fract_x
_atom_site_fract_y
_atom_site_fract_z
Si Si1 0.241315 0.259283 0.802504
Si Si2 0.392571 0.007343 0.720399
Si Si3 0.332178 0.492044 0.461358
Si Si4 0.750268 0.251113 0.204862
Si Si5 0.131815 0.257366 0.239766
Si Si6 0.139150 0.755964 0.232203
Si Si7 0.500000 0.000000 0.000000
Si Si8 0.296324 0.505386 0.999540
O O1 0.351530 0.141296 0.720999
O O2 0.183107 0.216466 0.776465
O O3 0.344637 0.393439 0.685749
O O4 0.067308 0.278286 0.042362
O O5 0.286000 0.006217 0.917998
O O6 0.588845 0.002330 0.542362
O O7 0.342899 0.878496 0.726904
O O8 0.252606 0.363295 0.584594
O O9 0.250573 0.617109 0.590291
O O10 0.545308 0.496052 0.235034
O O11 0.807532 0.225214 0.234306
O O12 0.628057 0.376715 0.336140
O O13 0.926443 0.273200 0.964045
O O14 0.176802 0.378483 0.134097
O O15 0.190305 0.638823 0.118228
#
# Coordination Sequence:
#
# PCOD9247960 Si02
#       8
#     4   4   4   4   4   4   2   4
#     4  11  24  42  69  98 127 176 212 283 310 393
#     4  10  24  42  64  99 132 171 219 254 338 365
#     4  10  24  41  65  97 134 176 210 269 320 395
#     4  11  24  42  69  98 127 176 212 283 310 393
#     4  11  22  43  68  96 132 168 230 255 328 380
#     4  11  22  43  68  96 132 168 230 255 328 380
#     4  12  24  40  64  98 132 158 212 270 346 356
#     4  10  22  40  68  94 131 178 213 268 312 398
#
# _framework density 22.771163000000001
#
# number of rings (size 3 to 8) (size 9 to 14) (size 15 to 20)
#    0.800    0.533    0.000    5.600    0.000    6.933 
#    0.000    0.000    0.000    0.000    0.000    0.000 
#    0.000    0.000    0.000    0.000    0.000    0.000 
#
# Total GULP energy -167310.406050 kJ/mol
# GULP energy per Si atom -5577.013535 kJ/mol
# Density = 2.271933 g / cm^3
# Si number density = 22.771163 Si / 1000 Ang^3
#
#
#
# Elastic Constant Matrix: (Units=GPa)
#
#
# Indices 1 2 3 4 5 6 
#
# 1 36.7539 -22.6293 -24.2767 0.0000 3.4004 0.0000
# 2 -22.6293 80.9945 21.0054 0.0000 10.0900 0.0000
# 3 -24.2767 21.0054 164.4641 0.0000 11.1267 0.0000
# 4 0.0000 0.0000 0.0000 4.4127 0.0000 -2.2887
# 5 3.4004 10.0900 11.1267 0.0000 19.5083 0.0000
# 6 0.0000 0.0000 0.0000 -2.2887 0.0000 69.8729
#
#
#
# Elastic Compliance Matrix: (Units=1/GPa)
#
#
# Indices 1 2 3 4 5 6 
#
# 1 0.039395 0.011590 0.005414 0.000000 -0.015949 0.000000
# 2 0.011590 0.016868 0.000295 0.000000 -0.010912 0.000000
# 3 0.005414 0.000295 0.007194 0.000000 -0.005199 0.000000
# 4 0.000000 0.000000 0.000000 0.230537 0.000000 0.007551
# 5 -0.015949 -0.010912 -0.005199 0.000000 0.062649 0.000000
# 6 0.000000 0.000000 0.000000 0.007551 0.000000 0.014559
#
#
# Mechanical properties :
#
#
# Convention : Reuss Voigt Hill
#
# Bulk Modulus (GPa) = 10.19858 25.60125 17.89991
# Shear Modulus (GPa) = 13.53950 39.29965 26.41957
#
# Velocity S-wave (km/s) = 2.44107 4.15884 3.40990
# Velocity P-wave (km/s) = 3.52612 5.85906 4.83539
#
# Compressibility (1/GPa) = 0.09805287
#
# Stress axis : x y z
#
# Youngs Moduli (GPa) = 25.38375 59.28541 139.01210
#
# Poissons Ratio (x) = -0.68709 -0.75261
# Poissons Ratio (y) = -0.29419 -0.04096
# Poissons Ratio (z) = -0.13743 -0.01747
#
# Static dielectric constant tensor:
#      x y z
#    x 1.891960 0.000000 0.002160 
#    y 0.000000 1.755790 0.000000 
#    z 0.002160 0.000000 1.858740 
# 
# From -- ./inp_files/70205.got.cif
#   From: 2010.05.17/outbox.cif.g08.bks.cpg/sg14_36_cif.got.tgz:70205.got - 2010.06.03 17:49:19.
