data_PCOD9247891
_publ_section_title
;
Structure prediction by ZEFSAII (Michael W. Deem and Ramdas Pophale) SiO2 
 PCOD9247891
Probable space group: P 21/C
;
_chemical_formula_sum "Si O2"
_cell_formula_units_Z 32
_cell_length_a 16.552442
_cell_length_b 12.048853
_cell_length_c 14.236025
_cell_angle_alpha 90.000000
_cell_angle_beta 149.368210
_cell_angle_gamma 90.000000
_cell_volume 1446.627880
_symmetry_space_group_name_H-M "P 21/C"
_symmetry_group_IT_number 14
_symmetry_cell_setting 'monoclinic'
loop_
_space_group_symop_operation_xyz
x,y,z
-x,1/2+y,1/2-z
-x,-y,-z
x,1/2-y,1/2+z
loop_
_atom_site_type_symbol
_atom_site_label
_atom_site_fract_x
_atom_site_fract_y
_atom_site_fract_z
Si Si1 0.602856 0.475754 0.324143
Si Si2 0.279565 0.122320 0.421093
Si Si3 0.551551 0.408587 0.660906
Si Si4 0.911037 0.664685 0.774802
Si Si5 0.286334 0.111419 0.747384
Si Si6 0.779457 0.243883 0.981881
Si Si7 0.948788 0.080274 0.764641
Si Si8 0.749825 0.853829 0.830272
O O1 0.569940 0.529166 0.392015
O O2 0.737932 0.382299 0.459087
O O3 0.641830 0.571688 0.288886
O O4 0.440799 0.416034 0.130164
O O5 0.219903 0.245184 0.387998
O O6 0.292746 0.126784 0.321022
O O7 0.148752 0.030418 0.316741
O O8 0.695173 0.495318 0.786710
O O9 0.454784 0.379035 0.470885
O O10 0.626956 0.302999 0.785211
O O11 0.851319 0.614124 0.812113
O O12 0.948380 0.579200 0.729021
O O13 0.073564 0.736275 0.942288
O O14 0.265466 0.222220 0.666108
O O15 0.831978 0.315719 0.125433
O O16 0.070269 0.108984 0.968582
#
# Coordination Sequence:
#
# PCOD9247891 Si02
#       8
#     4   4   4   4   4   4   4   4
#     4  12  24  42  73  96 134 177 220 276 336 395
#     4  11  22  42  66  99 131 168 227 275 328 391
#     4  11  24  43  68  96 139 172 229 269 328 403
#     4   9  21  41  63  93 131 170 223 267 326 397
#     4  10  24  44  65 101 128 178 219 280 331 386
#     4  10  23  41  64 101 129 177 220 270 321 404
#     4  10  22  40  65  93 133 176 218 264 337 393
#     4  11  24  41  69  97 134 173 219 279 332 391
#
# _framework density 22.120408999999999
#
# number of rings (size 3 to 8) (size 9 to 14) (size 15 to 20)
#    0.750    0.750    1.250    3.750    3.500    1.500 
#    0.000    6.250    0.000    0.000    0.000    0.000 
#    0.000    0.000    0.000    0.000    0.000    0.000 
#
# Total GULP energy -178904.508359 kJ/mol
# GULP energy per Si atom -5590.765886 kJ/mol
# Density = 2.207006 g / cm^3
# Si number density = 22.120409 Si / 1000 Ang^3
#
#
#
# Elastic Constant Matrix: (Units=GPa)
#
#
# Indices 1 2 3 4 5 6 
#
# 1 82.6994 48.9014 -10.3226 0.0000 7.6887 0.0000
# 2 48.9014 123.8708 4.7822 0.0000 11.2911 0.0000
# 3 -10.3226 4.7822 52.7586 0.0000 7.3208 0.0000
# 4 0.0000 0.0000 0.0000 38.0188 0.0000 10.9865
# 5 7.6887 11.2911 7.3208 0.0000 26.4740 0.0000
# 6 0.0000 0.0000 0.0000 10.9865 0.0000 35.5469
#
#
#
# Elastic Compliance Matrix: (Units=1/GPa)
#
#
# Indices 1 2 3 4 5 6 
#
# 1 0.016776 -0.006489 0.004329 0.000000 -0.003302 0.000000
# 2 -0.006489 0.010913 -0.001949 0.000000 -0.002231 0.000000
# 3 0.004329 -0.001949 0.020836 0.000000 -0.006188 0.000000
# 4 0.000000 0.000000 0.000000 0.028882 0.000000 -0.008927
# 5 -0.003302 -0.002231 -0.006188 0.000000 0.041394 0.000000
# 6 0.000000 0.000000 0.000000 -0.008927 0.000000 0.030891
#
#
# Mechanical properties :
#
#
# Convention : Reuss Voigt Hill
#
# Bulk Modulus (GPa) = 24.80969 38.45010 31.62990
# Shear Modulus (GPa) = 29.18029 34.40579 31.79304
#
# Velocity S-wave (km/s) = 3.63596 3.94812 3.79525
# Velocity P-wave (km/s) = 5.37281 6.18089 5.79096
#
# Compressibility (1/GPa) = 0.04030684
#
# Stress axis : x y z
#
# Youngs Moduli (GPa) = 59.60761 91.63143 47.99275
#
# Poissons Ratio (x) = 0.59461 -0.20775
# Poissons Ratio (y) = 0.38680 0.09355
# Poissons Ratio (z) = -0.25803 0.17862
#
# Static dielectric constant tensor:
#      x y z
#    x 1.813490 0.000000 0.027370 
#    y 0.000000 1.780980 0.000000 
#    z 0.027370 0.000000 1.823170 
# 
# From -- ./inp_files/49025.got.cif
#   From: 2010.05.17/outbox.cif.g08.bks.cpg/sg14_25_cif.got.tgz:49025.got - 2010.06.03 17:49:19.
