data_PCOD9247565
_publ_section_title
;
Structure prediction by ZEFSAII (Michael W. Deem and Ramdas Pophale) SiO2 
 PCOD9247565
Probable space group: P 21/C
;
_chemical_formula_sum "Si O2"
_cell_formula_units_Z 24
_cell_length_a 8.947165
_cell_length_b 15.961622
_cell_length_c 18.081879
_cell_angle_alpha 90.000000
_cell_angle_beta 31.988469
_cell_angle_gamma 90.000000
_cell_volume 1367.967654
_symmetry_space_group_name_H-M "P 21/C"
_symmetry_group_IT_number 14
_symmetry_cell_setting 'monoclinic'
loop_
_space_group_symop_operation_xyz
x,y,z
-x,1/2+y,1/2-z
-x,-y,-z
x,1/2-y,1/2+z
loop_
_atom_site_type_symbol
_atom_site_label
_atom_site_fract_x
_atom_site_fract_y
_atom_site_fract_z
Si Si1 0.929684 0.834601 0.641365
Si Si2 0.191972 0.517415 0.598410
Si Si3 0.134603 0.566918 0.386909
Si Si4 0.185092 0.492925 0.102744
Si Si5 0.288641 0.823384 0.953720
Si Si6 0.226834 0.431273 0.929554
O O1 0.627782 0.816061 0.805708
O O2 0.852443 0.853324 0.588059
O O3 0.145164 0.758210 0.548151
O O4 0.064805 0.918219 0.621496
O O5 0.500000 0.500000 0.500000
O O6 0.212012 0.598079 0.537627
O O7 0.060123 0.441836 0.604143
O O8 0.001122 0.533123 0.749760
O O9 0.170645 0.650830 0.421259
O O10 0.453200 0.543809 0.227212
O O11 0.000000 0.500000 0.500000
O O12 0.500000 0.500000 0.000000
O O13 0.192537 0.427798 0.031626
O O14 0.000000 0.500000 0.000000
#
# Coordination Sequence:
#
# PCOD9247565 Si02
#       6
#     4   4   4   4   4   4
#     4  10  22  39  57  84 118 153 198 243 292 349
#     4  11  21  39  61  86 118 155 198 241 296 353
#     4   9  19  35  57  80 108 149 192 231 279 346
#     4  11  21  37  63  88 116 155 197 246 293 353
#     4  10  22  39  58  83 117 155 196 244 294 347
#     4   9  19  35  56  82 109 145 193 233 277 345
#
# _framework density 17.544273
#
# number of rings (size 3 to 8) (size 9 to 14) (size 15 to 20)
#    0.000    2.000    3.333    0.000    4.667    1.333 
#    0.000    3.333    0.000    0.000    0.000    0.000 
#    0.000    0.000    0.000    0.000    0.000    0.000 
#
# Total GULP energy -133618.075334 kJ/mol
# GULP energy per Si atom -5567.419806 kJ/mol
# Density = 1.750434 g / cm^3
# Si number density = 17.544273 Si / 1000 Ang^3
#
#
#
# Elastic Constant Matrix: (Units=GPa)
#
#
# Indices 1 2 3 4 5 6 
#
# 1 110.8655 18.2597 53.5986 0.0000 0.0791 0.0000
# 2 18.2597 63.6059 40.1958 0.0000 -3.3144 0.0000
# 3 53.5986 40.1958 150.7558 0.0000 2.3874 0.0000
# 4 0.0000 0.0000 0.0000 27.5092 0.0000 -2.3273
# 5 0.0791 -3.3144 2.3874 0.0000 41.2926 0.0000
# 6 0.0000 0.0000 0.0000 -2.3273 0.0000 17.6996
#
#
#
# Elastic Compliance Matrix: (Units=1/GPa)
#
#
# Indices 1 2 3 4 5 6 
#
# 1 0.010928 -0.000811 -0.003671 0.000000 0.000126 0.000000
# 2 -0.000811 0.019104 -0.004834 0.000000 0.001814 0.000000
# 3 -0.003671 -0.004834 0.009242 0.000000 -0.000915 0.000000
# 4 0.000000 0.000000 0.000000 0.036760 0.000000 0.004834
# 5 0.000126 0.001814 -0.000915 0.000000 0.024416 0.000000
# 6 0.000000 0.000000 0.000000 0.004834 0.000000 0.057134
#
#
# Mechanical properties :
#
#
# Convention : Reuss Voigt Hill
#
# Bulk Modulus (GPa) = 48.44468 61.03726 54.74097
# Shear Modulus (GPa) = 27.30790 31.51181 29.40986
#
# Velocity S-wave (km/s) = 3.94955 4.24268 4.09873
# Velocity P-wave (km/s) = 6.96214 7.67244 7.32590
#
# Compressibility (1/GPa) = 0.02064210
#
# Stress axis : x y z
#
# Youngs Moduli (GPa) = 91.50622 52.34492 108.20279
#
# Poissons Ratio (x) = 0.04243 0.39723
# Poissons Ratio (y) = 0.07418 0.52307
# Poissons Ratio (z) = 0.33594 0.25305
#
# Static dielectric constant tensor:
#      x y z
#    x 1.639290 0.000000 0.008300 
#    y 0.000000 1.597940 0.000000 
#    z 0.008300 0.000000 1.577500 
# 
# From -- ./inp_files/8451.got.cif
#   From: 2010.05.17/outbox.cif.g08.bks.cpg/sg14_5_cif.got.tgz:8451.got - 2010.06.03 17:49:19.
