data_PCOD9247504
_publ_section_title
;
Structure prediction by ZEFSAII (Michael W. Deem and Ramdas Pophale) SiO2 
 PCOD9247504
Probable space group: P 21/C
;
_chemical_formula_sum "Si O2"
_cell_formula_units_Z 24
_cell_length_a 25.564552
_cell_length_b 7.405979
_cell_length_c 9.257188
_cell_angle_alpha 90.000000
_cell_angle_beta 148.849065
_cell_angle_gamma 90.000000
_cell_volume 906.645408
_symmetry_space_group_name_H-M "P 21/C"
_symmetry_group_IT_number 14
_symmetry_cell_setting 'monoclinic'
loop_
_space_group_symop_operation_xyz
x,y,z
-x,1/2+y,1/2-z
-x,-y,-z
x,1/2-y,1/2+z
loop_
_atom_site_type_symbol
_atom_site_label
_atom_site_fract_x
_atom_site_fract_y
_atom_site_fract_z
Si Si1 0.931309 0.353183 0.247739
Si Si2 0.271252 0.615701 0.062427
Si Si3 0.527710 0.216889 0.083172
Si Si4 0.102771 0.090686 0.593313
Si Si5 0.402269 0.312763 0.543749
Si Si6 0.788856 0.605450 0.347660
O O1 0.821015 0.327918 0.054650
O O2 0.918017 0.417664 0.051781
O O3 0.000000 0.500000 0.500000
O O4 0.997777 0.176130 0.395045
O O5 0.215282 0.540787 0.787768
O O6 0.359126 0.743176 0.206656
O O7 0.333582 0.461189 0.299935
O O8 0.500512 0.245182 0.184885
O O9 0.448256 0.341434 0.809667
O O10 0.500000 0.000000 0.000000
O O11 0.158414 0.225324 0.610220
O O12 0.165109 0.075238 0.886805
O O13 0.327145 0.148169 0.391542
#
# Coordination Sequence:
#
# PCOD9247504 Si02
#       6
#     4   4   4   4   4   4
#     4  12  24  46  70 100 143 177 235 291 347 413
#     4  11  23  43  68  97 137 179 224 290 342 416
#     4  10  22  38  63  95 129 168 222 282 329 404
#     4  12  24  42  71 106 130 187 230 290 346 415
#     4  11  18  38  67  92 129 175 225 267 341 404
#     4  12  19  38  71  98 126 180 236 266 351 421
#
# _framework density 26.471211
#
# number of rings (size 3 to 8) (size 9 to 14) (size 15 to 20)
#    0.000    0.667   10.000    0.000    0.000    0.667 
#    3.000    5.000    0.000    0.000    0.000    0.000 
#    0.000    0.000    0.000    0.000    0.000    0.000 
#
# Total GULP energy -134502.840292 kJ/mol
# GULP energy per Si atom -5604.285012 kJ/mol
# Density = 2.641096 g / cm^3
# Si number density = 26.471211 Si / 1000 Ang^3
#
#
#
# Elastic Constant Matrix: (Units=GPa)
#
#
# Indices 1 2 3 4 5 6 
#
# 1 155.3869 40.1793 46.2954 0.0000 27.4257 0.0000
# 2 40.1793 65.7299 44.3933 0.0000 -5.1502 0.0000
# 3 46.2954 44.3933 167.0886 0.0000 -22.3115 0.0000
# 4 0.0000 0.0000 0.0000 34.8655 0.0000 1.9233
# 5 27.4257 -5.1502 -22.3115 0.0000 72.4315 0.0000
# 6 0.0000 0.0000 0.0000 1.9233 0.0000 31.1350
#
#
#
# Elastic Compliance Matrix: (Units=1/GPa)
#
#
# Indices 1 2 3 4 5 6 
#
# 1 0.008907 -0.004543 -0.001830 0.000000 -0.004259 0.000000
# 2 -0.004543 0.020861 -0.004021 0.000000 0.001965 0.000000
# 3 -0.001830 -0.004021 0.007941 0.000000 0.002853 0.000000
# 4 0.000000 0.000000 0.000000 0.028780 0.000000 -0.001778
# 5 -0.004259 0.001965 0.002853 0.000000 0.016437 0.000000
# 6 0.000000 0.000000 0.000000 -0.001778 0.000000 0.032228
#
#
# Mechanical properties :
#
#
# Convention : Reuss Voigt Hill
#
# Bulk Modulus (GPa) = 59.09718 72.21572 65.65645
# Shear Modulus (GPa) = 35.31525 44.84222 40.07874
#
# Velocity S-wave (km/s) = 3.65650 4.12029 3.89530
# Velocity P-wave (km/s) = 6.34036 7.06935 6.71476
#
# Compressibility (1/GPa) = 0.01692128
#
# Stress axis : x y z
#
# Youngs Moduli (GPa) = 112.27059 47.93739 125.92540
#
# Poissons Ratio (x) = 0.21776 0.23041
# Poissons Ratio (y) = 0.51001 0.50640
# Poissons Ratio (z) = 0.20542 0.19278
#
# Static dielectric constant tensor:
#      x y z
#    x 2.407660 0.000000 -0.533510 
#    y 0.000000 2.189790 0.000000 
#    z -0.533510 0.000000 2.961650 
# 
# From -- ./inp_files/19816.got.cif
#   From: 2010.05.17/outbox.cif.g08.bks.cpg/sg14_10_cif.got.tgz:19816.got - 2010.06.03 17:49:19.
