data_PCOD9247575
_publ_section_title
;
Structure prediction by ZEFSAII (Michael W. Deem and Ramdas Pophale) SiO2 
 PCOD9247575
Probable space group: P 21/C
;
_chemical_formula_sum "Si O2"
_cell_formula_units_Z 24
_cell_length_a 6.319301
_cell_length_b 14.731870
_cell_length_c 12.089549
_cell_angle_alpha 90.000000
_cell_angle_beta 110.347720
_cell_angle_gamma 90.000000
_cell_volume 1055.247810
_symmetry_space_group_name_H-M "P 21/C"
_symmetry_group_IT_number 14
_symmetry_cell_setting 'monoclinic'
loop_
_space_group_symop_operation_xyz
x,y,z
-x,1/2+y,1/2-z
-x,-y,-z
x,1/2-y,1/2+z
loop_
_atom_site_type_symbol
_atom_site_label
_atom_site_fract_x
_atom_site_fract_y
_atom_site_fract_z
Si Si1 0.812515 0.110451 0.149377
Si Si2 0.708176 0.563978 0.248464
Si Si3 0.347519 0.061498 0.745939
Si Si4 0.458148 0.304904 0.440386
Si Si5 0.734218 0.312143 0.841521
Si Si6 0.207198 0.123489 0.478989
O O1 0.820626 0.198504 0.231992
O O2 0.064882 0.097857 0.149785
O O3 0.782854 0.021658 0.220848
O O4 0.582063 0.122276 0.040609
O O5 0.607452 0.472848 0.282552
O O6 0.503002 0.635814 0.217393
O O7 0.746896 0.562659 0.122197
O O8 0.310834 0.145338 0.821134
O O9 0.284453 0.083053 0.608829
O O10 0.671058 0.268537 0.409095
O O11 0.330183 0.221257 0.476547
O O12 0.938696 0.363713 0.936838
#
# Coordination Sequence:
#
# PCOD9247575 Si02
#       6
#     4   4   4   4   4   4
#     4  10  22  39  59  86 120 153 194 240 289 349
#     4   9  21  40  61  86 116 152 194 239 289 346
#     4  11  23  38  60  87 116 154 196 239 293 347
#     4  11  23  38  59  88 119 153 194 242 292 345
#     4   9  21  39  61  85 114 154 194 239 291 343
#     4  10  22  40  62  86 117 153 197 242 288 346
#
# _framework density 22.743473000000002
#
# number of rings (size 3 to 8) (size 9 to 14) (size 15 to 20)
#    0.000    2.000    0.000    2.000    0.000   17.333 
#    0.000    0.000    0.000    0.000    0.000    0.000 
#    0.000    0.000    0.000    0.000    0.000    0.000 
#
# Total GULP energy -133700.108129 kJ/mol
# GULP energy per Si atom -5570.837839 kJ/mol
# Density = 2.269171 g / cm^3
# Si number density = 22.743473 Si / 1000 Ang^3
#
#
#
# Elastic Constant Matrix: (Units=GPa)
#
#
# Indices 1 2 3 4 5 6 
#
# 1 84.6732 24.0355 -1.4261 0.0000 14.9883 0.0000
# 2 24.0355 45.1041 -11.2390 0.0000 -37.9361 0.0000
# 3 -1.4261 -11.2390 7.4429 0.0000 -38.0431 0.0000
# 4 0.0000 0.0000 0.0000 35.9861 0.0000 -8.9374
# 5 14.9883 -37.9361 -38.0431 0.0000 -18.8843 0.0000
# 6 0.0000 0.0000 0.0000 -8.9374 0.0000 40.9156
#
#
#
# Elastic Compliance Matrix: (Units=1/GPa)
#
#
# Indices 1 2 3 4 5 6 
#
# 1 0.012520 -0.003262 0.007237 0.000000 0.001910 0.000000
# 2 -0.003262 0.014978 -0.012839 0.000000 -0.006815 0.000000
# 3 0.007237 -0.012839 0.024568 0.000000 -0.017958 0.000000
# 4 0.000000 0.000000 0.000000 0.029382 0.000000 0.006418
# 5 0.001910 -0.006815 -0.017958 0.000000 -0.001572 0.000000
# 6 0.000000 0.000000 0.000000 0.006418 0.000000 0.025843
#
#
# Mechanical properties :
#
#
# Convention : Reuss Voigt Hill
#
# Bulk Modulus (GPa) = 29.12128 17.77343 23.44736
# Shear Modulus (GPa) = 37.06651 19.99346 28.52999
#
# Velocity S-wave (km/s) = 4.04141 2.96815 3.54563
# Velocity P-wave (km/s) = 5.88298 4.42474 5.20518
#
# Compressibility (1/GPa) = 0.03433915
#
# Stress axis : x y z
#
# Youngs Moduli (GPa) = 79.87363 66.76276 40.70354
#
# Poissons Ratio (x) = 0.21776 -0.29457
# Poissons Ratio (y) = 0.26053 0.52258
# Poissons Ratio (z) = -0.57804 0.85715
#
# Static dielectric constant tensor:
#      x y z
#    x 1.892440 0.000000 -0.016570 
#    y 0.000000 1.959540 0.000000 
#    z -0.016570 0.000000 1.983090 
# 
# From -- ./inp_files/21299.got.cif
#   From: 2010.05.17/outbox.cif.g08.bks.cpg/sg14_11_cif.got.tgz:21299.got - 2010.06.03 17:49:19.
