data_PCOD9247192
_publ_section_title
;
Structure prediction by ZEFSAII (Michael W. Deem and Ramdas Pophale) SiO2 
 PCOD9247192
Probable space group: P 21/C
;
_chemical_formula_sum "Si O2"
_cell_formula_units_Z 24
_cell_length_a 11.057840
_cell_length_b 7.382062
_cell_length_c 11.105719
_cell_angle_alpha 90.000000
_cell_angle_beta 79.146384
_cell_angle_gamma 90.000000
_cell_volume 890.339119
_symmetry_space_group_name_H-M "P 21/C"
_symmetry_group_IT_number 14
_symmetry_cell_setting 'monoclinic'
loop_
_space_group_symop_operation_xyz
x,y,z
-x,1/2+y,1/2-z
-x,-y,-z
x,1/2-y,1/2+z
loop_
_atom_site_type_symbol
_atom_site_label
_atom_site_fract_x
_atom_site_fract_y
_atom_site_fract_z
Si Si1 0.745247 0.498008 0.372071
Si Si2 0.094874 0.312542 0.958165
Si Si3 0.672786 0.616170 0.999319
Si Si4 0.758559 0.455763 0.634081
Si Si5 0.574340 0.183099 0.334872
Si Si6 0.004073 0.657652 0.273536
O O1 0.699801 0.706007 0.408271
O O2 0.761560 0.395743 0.496177
O O3 0.643521 0.377173 0.324544
O O4 0.884828 0.518950 0.296392
O O5 0.201421 0.456801 0.962516
O O6 0.999388 0.308466 0.868368
O O7 0.187810 0.155920 0.895415
O O8 0.036481 0.274675 0.100160
O O9 0.570340 0.682825 0.113379
O O10 0.622739 0.452752 0.929357
O O11 0.623475 0.414200 0.706199
O O12 0.858077 0.389291 0.713099
#
# Coordination Sequence:
#
# PCOD9247192 Si02
#       6
#     4   4   4   4   4   4
#     4  10  22  43  65  98 131 180 222 271 349 393
#     4  10  21  45  64  95 131 189 211 281 345 387
#     4   9  22  45  65  93 138 174 222 287 331 395
#     4  10  22  38  63  99 135 173 218 290 330 402
#     4  11  22  42  68 100 129 176 233 277 325 411
#     4  10  22  39  71  90 142 173 227 277 339 399
#
# _framework density 26.956021
#
# number of rings (size 3 to 8) (size 9 to 14) (size 15 to 20)
#    0.000    2.333    0.000    4.500    4.667    1.333 
#   24.000    1.667    0.000    0.000    0.000    0.000 
#    0.000    0.000    0.000    0.000    0.000    0.000 
#
# Total GULP energy -133830.754013 kJ/mol
# GULP energy per Si atom -5576.281417 kJ/mol
# Density = 2.689467 g / cm^3
# Si number density = 26.956021 Si / 1000 Ang^3
#
#
#
# Elastic Constant Matrix: (Units=GPa)
#
#
# Indices 1 2 3 4 5 6 
#
# 1 99.3049 33.2383 57.3320 0.0000 -10.1220 0.0000
# 2 33.2383 84.9240 7.0365 0.0000 -4.9239 0.0000
# 3 57.3320 7.0365 122.7602 0.0000 -15.2565 0.0000
# 4 0.0000 0.0000 0.0000 26.8562 0.0000 -1.7965
# 5 -10.1220 -4.9239 -15.2565 0.0000 58.0106 0.0000
# 6 0.0000 0.0000 0.0000 -1.7965 0.0000 38.9627
#
#
#
# Elastic Compliance Matrix: (Units=1/GPa)
#
#
# Indices 1 2 3 4 5 6 
#
# 1 0.016163 -0.005706 -0.007165 0.000000 0.000451 0.000000
# 2 -0.005706 0.013887 0.001956 0.000000 0.000697 0.000000
# 3 -0.007165 0.001956 0.011625 0.000000 0.001973 0.000000
# 4 0.000000 0.000000 0.000000 0.037351 0.000000 0.001722
# 5 0.000451 0.000697 0.001973 0.000000 0.017895 0.000000
# 6 0.000000 0.000000 0.000000 0.001722 0.000000 0.025745
#
#
# Mechanical properties :
#
#
# Convention : Reuss Voigt Hill
#
# Bulk Modulus (GPa) = 50.39401 55.80030 53.09716
# Shear Modulus (GPa) = 33.08824 38.72474 35.90649
#
# Velocity S-wave (km/s) = 3.50736 3.79435 3.65367
# Velocity P-wave (km/s) = 5.92769 6.31993 6.12695
#
# Compressibility (1/GPa) = 0.01984363
#
# Stress axis : x y z
#
# Youngs Moduli (GPa) = 61.87157 72.01037 86.01859
#
# Poissons Ratio (x) = 0.41089 0.61633
# Poissons Ratio (y) = 0.35304 -0.16821
# Poissons Ratio (z) = 0.44332 -0.14082
#
# Static dielectric constant tensor:
#      x y z
#    x 2.172760 0.000000 0.019030 
#    y 0.000000 2.347580 0.000000 
#    z 0.019030 0.000000 2.154820 
# 
# From -- ./inp_files/28010.got.cif
#   From: 2010.05.17/outbox.cif.g08.bks.cpg/sg14_15_cif.got.tgz:28010.got - 2010.06.03 17:49:19.
