data_PCOD9247399
_publ_section_title
;
Structure prediction by ZEFSAII (Michael W. Deem and Ramdas Pophale) SiO2 
 PCOD9247399
Probable space group: P 21/C
;
_chemical_formula_sum "Si O2"
_cell_formula_units_Z 24
_cell_length_a 9.051159
_cell_length_b 8.764435
_cell_length_c 20.755754
_cell_angle_alpha 90.000000
_cell_angle_beta 127.108361
_cell_angle_gamma 90.000000
_cell_volume 1313.091803
_symmetry_space_group_name_H-M "P 21/C"
_symmetry_group_IT_number 14
_symmetry_cell_setting 'monoclinic'
loop_
_space_group_symop_operation_xyz
x,y,z
-x,1/2+y,1/2-z
-x,-y,-z
x,1/2-y,1/2+z
loop_
_atom_site_type_symbol
_atom_site_label
_atom_site_fract_x
_atom_site_fract_y
_atom_site_fract_z
Si Si1 0.740444 0.847067 0.842231
Si Si2 0.846623 0.187469 0.069377
Si Si3 0.480967 0.456880 0.189905
Si Si4 0.129629 0.858420 0.557606
Si Si5 0.810868 0.852616 0.011033
Si Si6 0.462119 0.865854 0.439255
O O1 0.604708 0.702705 0.809821
O O2 0.789219 0.889740 0.928970
O O3 0.933886 0.798517 0.860838
O O4 0.637761 0.980302 0.777789
O O5 0.715880 0.268709 0.086293
O O6 0.810438 0.270150 0.991277
O O7 0.809971 0.007925 0.050516
O O8 0.307459 0.573358 0.139548
O O9 0.554397 0.433666 0.136670
O O10 0.999953 0.745219 0.564531
O O11 0.000000 0.000000 0.500000
O O12 0.640447 0.744835 0.984958
O O13 0.500000 0.000000 0.500000
#
# Coordination Sequence:
#
# PCOD9247399 Si02
#       6
#     4   4   4   4   4   4
#     4  10  23  38  59  88 120 153 200 252 291 360
#     4  11  21  38  62  88 123 151 204 245 296 359
#     4  11  23  38  60  89 120 154 202 246 311 342
#     4  11  17  37  62  88 111 152 202 248 281 352
#     4  10  22  37  62  93 116 155 204 246 302 342
#     4  11  21  39  61  86 119 159 198 242 302 367
#
# _framework density 18.277474999999999
#
# number of rings (size 3 to 8) (size 9 to 14) (size 15 to 20)
#    0.000    1.333    6.667    2.500    4.667    0.000 
#    0.000    5.000    0.000    0.000    0.000    0.000 
#    0.000    0.000    0.000    0.000    0.000    0.000 
#
# Total GULP energy -134072.187047 kJ/mol
# GULP energy per Si atom -5586.341127 kJ/mol
# Density = 1.823587 g / cm^3
# Si number density = 18.277475 Si / 1000 Ang^3
#
#
#
# Elastic Constant Matrix: (Units=GPa)
#
#
# Indices 1 2 3 4 5 6 
#
# 1 129.1192 42.9791 43.7170 0.0000 6.6815 0.0000
# 2 42.9791 96.2264 34.9964 0.0000 -8.6232 0.0000
# 3 43.7170 34.9964 46.0346 0.0000 2.9892 0.0000
# 4 0.0000 0.0000 0.0000 39.7700 0.0000 2.9071
# 5 6.6815 -8.6232 2.9892 0.0000 13.3608 0.0000
# 6 0.0000 0.0000 0.0000 2.9071 0.0000 31.2538
#
#
#
# Elastic Compliance Matrix: (Units=1/GPa)
#
#
# Indices 1 2 3 4 5 6 
#
# 1 0.011944 -0.002547 -0.009043 0.000000 -0.005594 0.000000
# 2 -0.002547 0.017043 -0.011502 0.000000 0.014847 0.000000
# 3 -0.009043 -0.011502 0.039821 0.000000 -0.011810 0.000000
# 4 0.000000 0.000000 0.000000 0.025317 0.000000 -0.002355
# 5 -0.005594 0.014847 -0.011810 0.000000 0.089868 0.000000
# 6 0.000000 0.000000 0.000000 -0.002355 0.000000 0.032215
#
#
# Mechanical properties :
#
#
# Convention : Reuss Voigt Hill
#
# Bulk Modulus (GPa) = 44.19966 57.19614 50.69790
# Shear Modulus (GPa) = 18.52310 26.85613 22.68961
#
# Velocity S-wave (km/s) = 3.18691 3.83738 3.52717
# Velocity P-wave (km/s) = 6.14629 7.14109 6.66228
#
# Compressibility (1/GPa) = 0.02262461
#
# Stress axis : x y z
#
# Youngs Moduli (GPa) = 83.72542 58.67367 25.11224
#
# Poissons Ratio (x) = 0.14945 0.22709
# Poissons Ratio (y) = 0.21326 0.28884
# Poissons Ratio (z) = 0.75712 0.67486
#
# Static dielectric constant tensor:
#      x y z
#    x 1.623070 0.000000 0.012600 
#    y 0.000000 1.643130 0.000000 
#    z 0.012600 0.000000 1.600990 
# 
# From -- ./inp_files/54470.got.cif
#   From: 2010.05.17/outbox.cif.g08.bks.cpg/sg14_28_cif.got.tgz:54470.got - 2010.06.03 17:49:19.
