data_PCOD9247702
_publ_section_title
;
Structure prediction by ZEFSAII (Michael W. Deem and Ramdas Pophale) SiO2 
 PCOD9247702
Probable space group: P 21/C
;
_chemical_formula_sum "Si O2"
_cell_formula_units_Z 16
_cell_length_a 7.320055
_cell_length_b 10.004517
_cell_length_c 11.243740
_cell_angle_alpha 90.000000
_cell_angle_beta 109.039106
_cell_angle_gamma 90.000000
_cell_volume 778.375490
_symmetry_space_group_name_H-M "P 21/C"
_symmetry_group_IT_number 14
_symmetry_cell_setting 'monoclinic'
loop_
_space_group_symop_operation_xyz
x,y,z
-x,1/2+y,1/2-z
-x,-y,-z
x,1/2-y,1/2+z
loop_
_atom_site_type_symbol
_atom_site_label
_atom_site_fract_x
_atom_site_fract_y
_atom_site_fract_z
Si Si1 0.525097 0.098486 0.394260
Si Si2 0.163607 0.810991 0.047181
Si Si3 0.896498 0.049383 0.358129
Si Si4 0.866914 0.930283 0.811929
O O1 0.915326 0.210789 0.368207
O O2 0.668928 0.026759 0.329620
O O3 0.500000 0.000000 0.500000
O O4 0.320652 0.128573 0.291852
O O5 0.353469 0.730806 0.044408
O O6 0.200191 0.955181 0.110708
O O7 0.002421 0.828506 0.912111
O O8 0.000000 0.000000 0.500000
O O9 0.999796 0.002952 0.261859
#
# Coordination Sequence:
#
# PCOD9247702 Si02
#       4
#     4   4   4   4
#     4  10  22  41  66  98 130 177 222 269 347 390
#     4   9  25  41  66 101 125 178 223 268 333 394
#     4  10  22  39  65  98 130 176 219 265 340 390
#     4  11  21  47  65  93 143 168 224 282 316 407
#
# _framework density 20.555630000000001
#
# number of rings (size 3 to 8) (size 9 to 14) (size 15 to 20)
#    1.500    0.500    2.500    0.000    7.000    2.000 
#    4.500    2.500    0.000    0.000    0.000    0.000 
#    0.000    0.000    0.000    0.000    0.000    0.000 
#
# Total GULP energy -89105.772140 kJ/mol
# GULP energy per Si atom -5569.110759 kJ/mol
# Density = 2.050884 g / cm^3
# Si number density = 20.555630 Si / 1000 Ang^3
#
#
#
# Elastic Constant Matrix: (Units=GPa)
#
#
# Indices 1 2 3 4 5 6 
#
# 1 153.9751 36.2992 64.5338 0.0000 16.0550 0.0000
# 2 36.2992 72.3214 28.6634 0.0000 14.5817 0.0000
# 3 64.5338 28.6634 84.5490 0.0000 17.0804 0.0000
# 4 0.0000 0.0000 0.0000 27.6434 0.0000 -1.5268
# 5 16.0550 14.5817 17.0804 0.0000 42.1515 0.0000
# 6 0.0000 0.0000 0.0000 -1.5268 0.0000 39.8076
#
#
#
# Elastic Compliance Matrix: (Units=1/GPa)
#
#
# Indices 1 2 3 4 5 6 
#
# 1 0.009865 -0.002236 -0.006719 0.000000 -0.000261 0.000000
# 2 -0.002236 0.017006 -0.003314 0.000000 -0.003689 0.000000
# 3 -0.006719 -0.003314 0.018876 0.000000 -0.003943 0.000000
# 4 0.000000 0.000000 0.000000 0.036252 0.000000 0.001390
# 5 -0.000261 -0.003689 -0.003943 0.000000 0.026697 0.000000
# 6 0.000000 0.000000 0.000000 0.001390 0.000000 0.025174
#
#
# Mechanical properties :
#
#
# Convention : Reuss Voigt Hill
#
# Bulk Modulus (GPa) = 47.14662 63.31534 55.23098
# Shear Modulus (GPa) = 30.21566 34.01044 32.11305
#
# Velocity S-wave (km/s) = 3.83815 4.07204 3.95682
# Velocity P-wave (km/s) = 6.52899 7.27856 6.91394
#
# Compressibility (1/GPa) = 0.02121043
#
# Stress axis : x y z
#
# Youngs Moduli (GPa) = 101.36996 58.80138 52.97803
#
# Poissons Ratio (x) = 0.13146 0.35595
# Poissons Ratio (y) = 0.22663 0.17556
# Poissons Ratio (z) = 0.68108 0.19485
#
# Static dielectric constant tensor:
#      x y z
#    x 1.753970 0.000000 -0.018350 
#    y 0.000000 1.766540 0.000000 
#    z -0.018350 0.000000 1.733780 
# 
# From -- ./inp_files/20441.got.cif
#   From: 2010.05.17/outbox.cif.g08.bks.cpg/sg14_11_cif.got.tgz:20441.got - 2010.06.03 17:49:19.
