data_PCOD9247133
_publ_section_title
;
Structure prediction by ZEFSAII (Michael W. Deem and Ramdas Pophale) SiO2 
 PCOD9247133
Probable space group: P 21/C
;
_chemical_formula_sum "Si O2"
_cell_formula_units_Z 20
_cell_length_a 6.840113
_cell_length_b 6.695221
_cell_length_c 20.659012
_cell_angle_alpha 90.000000
_cell_angle_beta 120.138301
_cell_angle_gamma 90.000000
_cell_volume 818.203714
_symmetry_space_group_name_H-M "P 21/C"
_symmetry_group_IT_number 14
_symmetry_cell_setting 'monoclinic'
loop_
_space_group_symop_operation_xyz
x,y,z
-x,1/2+y,1/2-z
-x,-y,-z
x,1/2-y,1/2+z
loop_
_atom_site_type_symbol
_atom_site_label
_atom_site_fract_x
_atom_site_fract_y
_atom_site_fract_z
Si Si1 0.786404 0.332551 0.069115
Si Si2 0.276403 0.146194 0.674823
Si Si3 0.679729 0.718505 0.560410
Si Si4 0.126355 0.724546 0.063653
Si Si5 0.533429 0.000827 0.157753
O O1 0.710752 0.546509 0.086057
O O2 0.022035 0.259853 0.139639
O O3 0.554141 0.212051 0.018900
O O4 0.860581 0.359271 0.006439
O O5 0.374295 0.097255 0.761218
O O6 0.460146 0.274318 0.664827
O O7 0.221830 0.940867 0.628757
O O8 0.886113 0.692798 0.545981
O O9 0.690244 0.577903 0.625034
O O10 0.298117 0.904989 0.097704
#
# Coordination Sequence:
#
# PCOD9247133 Si02
#       5
#     4   4   4   4   4
#     4   9  20  41  70  92 129 170 217 274 331 392
#     4  11  21  41  64  91 130 180 211 274 336 388
#     4   9  19  39  63  96 121 166 216 268 320 399
#     4  10  21  44  67  94 128 170 217 275 338 387
#     4  11  23  40  62  93 133 170 219 270 330 406
#
# _framework density 24.443788999999999
#
# number of rings (size 3 to 8) (size 9 to 14) (size 15 to 20)
#    0.000    2.000    2.000    2.400    0.000    3.200 
#    7.200   17.000    0.000    0.000    0.000    0.000 
#    0.000    0.000    0.000    0.000    0.000    0.000 
#
# Total GULP energy -111755.828737 kJ/mol
# GULP energy per Si atom -5587.791437 kJ/mol
# Density = 2.438815 g / cm^3
# Si number density = 24.443789 Si / 1000 Ang^3
#
#
#
# Elastic Constant Matrix: (Units=GPa)
#
#
# Indices 1 2 3 4 5 6 
#
# 1 148.6687 51.3983 49.9462 0.0000 2.7343 0.0000
# 2 51.3983 87.1068 43.4365 0.0000 -19.8064 0.0000
# 3 49.9462 43.4365 118.7341 0.0000 -12.0958 0.0000
# 4 0.0000 0.0000 0.0000 33.4576 0.0000 -1.8663
# 5 2.7343 -19.8064 -12.0958 0.0000 37.7021 0.0000
# 6 0.0000 0.0000 0.0000 -1.8663 0.0000 37.9090
#
#
#
# Elastic Compliance Matrix: (Units=1/GPa)
#
#
# Indices 1 2 3 4 5 6 
#
# 1 0.009480 -0.005335 -0.002473 0.000000 -0.004283 0.000000
# 2 -0.005335 0.018451 -0.003596 0.000000 0.008926 0.000000
# 3 -0.002473 -0.003596 0.010962 0.000000 0.001807 0.000000
# 4 0.000000 0.000000 0.000000 0.029971 0.000000 0.001476
# 5 -0.004283 0.008926 0.001807 0.000000 0.032103 0.000000
# 6 0.000000 0.000000 0.000000 0.001476 0.000000 0.026452
#
#
# Mechanical properties :
#
#
# Convention : Reuss Voigt Hill
#
# Bulk Modulus (GPa) = 62.16806 71.56352 66.86579
# Shear Modulus (GPa) = 32.13594 35.79565 33.96579
#
# Velocity S-wave (km/s) = 3.62980 3.83091 3.73171
# Velocity P-wave (km/s) = 6.56167 6.99344 6.78099
#
# Compressibility (1/GPa) = 0.01608543
#
# Stress axis : x y z
#
# Youngs Moduli (GPa) = 105.48248 54.19727 91.22363
#
# Poissons Ratio (x) = 0.28914 0.22556
# Poissons Ratio (y) = 0.56274 0.32808
# Poissons Ratio (z) = 0.26082 0.19492
#
# Static dielectric constant tensor:
#      x y z
#    x 2.006910 0.000000 0.027740 
#    y 0.000000 2.148850 0.000000 
#    z 0.027740 0.000000 1.871720 
# 
# From -- ./inp_files/60014.got.cif
#   From: 2010.05.17/outbox.cif.g08.bks.cpg/sg14_31_cif.got.tgz:60014.got - 2010.06.03 17:49:19.
