data_PCOD9247827
_publ_section_title
;
Structure prediction by ZEFSAII (Michael W. Deem and Ramdas Pophale) SiO2 
 PCOD9247827
Probable space group: P 21/C
;
_chemical_formula_sum "Si O2"
_cell_formula_units_Z 20
_cell_length_a 5.443259
_cell_length_b 5.040244
_cell_length_c 26.596480
_cell_angle_alpha 90.000000
_cell_angle_beta 105.549567
_cell_angle_gamma 90.000000
_cell_volume 702.976602
_symmetry_space_group_name_H-M "P 21/C"
_symmetry_group_IT_number 14
_symmetry_cell_setting 'monoclinic'
loop_
_space_group_symop_operation_xyz
x,y,z
-x,1/2+y,1/2-z
-x,-y,-z
x,1/2-y,1/2+z
loop_
_atom_site_type_symbol
_atom_site_label
_atom_site_fract_x
_atom_site_fract_y
_atom_site_fract_z
Si Si1 0.657155 0.432760 0.265382
Si Si2 0.286536 0.183513 0.533615
Si Si3 0.251840 0.034388 0.335120
Si Si4 0.799664 0.770312 0.864409
Si Si5 0.625728 0.823163 0.064015
O O1 0.587579 0.130298 0.250802
O O2 0.813016 0.558004 0.227335
O O3 0.755307 0.472124 0.327247
O O4 0.130163 0.282744 0.573088
O O5 0.190836 0.229813 0.471600
O O6 0.529452 0.381718 0.550220
O O7 0.391186 0.886503 0.545341
O O8 0.286515 0.284509 0.373944
O O9 0.527129 0.884641 0.349842
O O10 0.026469 0.876536 0.348933
#
# Coordination Sequence:
#
# PCOD9247827 Si02
#       5
#     4   4   4   4   4
#     4  10  22  42  64  90 124 162 208 258 312 372
#     4   9  18  36  61  90 124 162 205 253 307 367
#     4  10  22  40  63  91 124 163 207 256 311 370
#     4  10  22  40  63  91 124 163 207 256 311 370
#     4   9  18  36  61  90 124 162 205 253 307 367
#
# _framework density 28.450448999999999
#
# number of rings (size 3 to 8) (size 9 to 14) (size 15 to 20)
#    0.000    2.400    0.000    1.200    0.000    7.200 
#    0.000   24.000    0.000   21.600    0.000    0.000 
#    0.000    0.000    0.000    0.000    0.000    0.000 
#
# Total GULP energy -111951.114233 kJ/mol
# GULP energy per Si atom -5597.555712 kJ/mol
# Density = 2.838569 g / cm^3
# Si number density = 28.450449 Si / 1000 Ang^3
#
#
#
# Elastic Constant Matrix: (Units=GPa)
#
#
# Indices 1 2 3 4 5 6 
#
# 1 143.6791 37.8011 71.1065 0.0000 -7.9464 0.0000
# 2 37.8011 106.6453 23.9332 0.0000 27.0677 0.0000
# 3 71.1065 23.9332 160.7232 0.0000 -75.0251 0.0000
# 4 0.0000 0.0000 0.0000 50.3331 0.0000 8.6876
# 5 -7.9464 27.0677 -75.0251 0.0000 53.6797 0.0000
# 6 0.0000 0.0000 0.0000 8.6876 0.0000 30.5110
#
#
#
# Elastic Compliance Matrix: (Units=1/GPa)
#
#
# Indices 1 2 3 4 5 6 
#
# 1 0.018618 0.018481 -0.040429 0.000000 -0.063068 0.000000
# 2 0.018481 0.058815 -0.084876 0.000000 -0.145548 0.000000
# 3 -0.040429 -0.084876 0.155161 0.000000 0.253673 0.000000
# 4 0.000000 0.000000 0.000000 0.020895 0.000000 -0.005949
# 5 -0.063068 -0.145548 0.253673 0.000000 0.437230 0.000000
# 6 0.000000 0.000000 0.000000 -0.005949 0.000000 0.034469
#
#
# Mechanical properties :
#
#
# Convention : Reuss Voigt Hill
#
# Bulk Modulus (GPa) = 52.77803 75.19215 63.98509
# Shear Modulus (GPa) = 5.29016 45.45186 25.37101
#
# Velocity S-wave (km/s) = 1.36509 4.00131 2.98948
# Velocity P-wave (km/s) = 4.59083 6.91620 5.86982
#
# Compressibility (1/GPa) = 0.01894728
#
# Stress axis : x y z
#
# Youngs Moduli (GPa) = 53.71214 17.00236 6.44492
#
# Poissons Ratio (x) = -0.31422 0.26056
# Poissons Ratio (y) = -0.99266 0.54702
# Poissons Ratio (z) = 2.17152 1.44309
#
# Static dielectric constant tensor:
#      x y z
#    x 2.172330 0.000000 0.039390 
#    y 0.000000 2.136040 0.000000 
#    z 0.039390 0.000000 2.432600 
# 
# From -- ./inp_files/75485.got.cif
#   From: 2010.05.17/outbox.cif.g08.bks.cpg/sg14_38_cif.got.tgz:75485.got - 2010.06.03 17:49:19.
