data_PCOD9247290
_publ_section_title
;
Structure prediction by ZEFSAII (Michael W. Deem and Ramdas Pophale) SiO2 
 PCOD9247290
Probable space group: P 21/C
;
_chemical_formula_sum "Si O2"
_cell_formula_units_Z 28
_cell_length_a 10.819787
_cell_length_b 7.249444
_cell_length_c 15.744457
_cell_angle_alpha 90.000000
_cell_angle_beta 88.204906
_cell_angle_gamma 90.000000
_cell_volume 1234.348842
_symmetry_space_group_name_H-M "P 21/C"
_symmetry_group_IT_number 14
_symmetry_cell_setting 'monoclinic'
loop_
_space_group_symop_operation_xyz
x,y,z
-x,1/2+y,1/2-z
-x,-y,-z
x,1/2-y,1/2+z
loop_
_atom_site_type_symbol
_atom_site_label
_atom_site_fract_x
_atom_site_fract_y
_atom_site_fract_z
Si Si1 0.157134 0.369903 0.757477
Si Si2 0.385105 0.138491 0.980165
Si Si3 0.768375 0.260193 0.180272
Si Si4 0.918535 0.284269 0.336383
Si Si5 0.453888 0.017953 0.809526
Si Si6 0.132961 0.901329 0.988946
Si Si7 0.633061 0.719481 0.845964
O O1 0.236278 0.519313 0.809151
O O2 0.088516 0.501154 0.690791
O O3 0.232734 0.225191 0.700099
O O4 0.057739 0.281179 0.821789
O O5 0.381304 0.296740 0.052512
O O6 0.412256 0.171474 0.879533
O O7 0.500000 0.000000 0.000000
O O8 0.251522 0.038124 0.990871
O O9 0.833432 0.194645 0.265881
O O10 0.851900 0.207507 0.098652
O O11 0.641764 0.150070 0.174097
O O12 0.863249 0.265997 0.430338
O O13 0.442645 0.085925 0.714001
O O14 0.584917 0.929514 0.829210
O O15 0.000000 0.000000 0.000000
#
# Coordination Sequence:
#
# PCOD9247290 Si02
#       7
#     4   4   4   4   4   4   4
#     4  10  22  35  60  84 123 154 200 247 304 353
#     4   9  20  39  60  89 118 167 204 241 309 380
#     4   9  22  39  57  89 116 156 199 250 300 366
#     4  10  22  39  58  87 122 157 203 251 300 363
#     4  10  22  38  66  89 121 154 210 247 308 372
#     4  11  21  37  62  86 121 164 204 246 311 373
#     4  11  21  39  63  89 118 160 199 254 304 365
#
# _framework density 22.684024000000001
#
# number of rings (size 3 to 8) (size 9 to 14) (size 15 to 20)
#    0.857    1.143    1.429    1.714    6.000    0.571 
#    0.000    2.143    0.000    0.000    0.000    0.000 
#    0.000    0.000    0.000    0.000    0.000    0.000 
#
# Total GULP energy -156097.675594 kJ/mol
# GULP energy per Si atom -5574.916985 kJ/mol
# Density = 2.263239 g / cm^3
# Si number density = 22.684024 Si / 1000 Ang^3
#
#
#
# Elastic Constant Matrix: (Units=GPa)
#
#
# Indices 1 2 3 4 5 6 
#
# 1 72.0821 7.3828 24.4508 0.0000 -13.0715 0.0000
# 2 7.3828 26.2462 7.5220 0.0000 -3.0428 0.0000
# 3 24.4508 7.5220 120.6589 0.0000 -3.7090 0.0000
# 4 0.0000 0.0000 0.0000 15.8989 0.0000 -0.0309
# 5 -13.0715 -3.0428 -3.7090 0.0000 30.1221 0.0000
# 6 0.0000 0.0000 0.0000 -0.0309 0.0000 26.8913
#
#
#
# Elastic Compliance Matrix: (Units=1/GPa)
#
#
# Indices 1 2 3 4 5 6 
#
# 1 0.016339 -0.003013 -0.002926 0.000000 0.006426 0.000000
# 2 -0.003013 0.039750 -0.001791 0.000000 0.002487 0.000000
# 3 -0.002926 -0.001791 0.008982 0.000000 -0.000345 0.000000
# 4 0.000000 0.000000 0.000000 0.062897 0.000000 0.000072
# 5 0.006426 0.002487 -0.000345 0.000000 0.036196 0.000000
# 6 0.000000 0.000000 0.000000 0.000072 0.000000 0.037187
#
#
# Mechanical properties :
#
#
# Convention : Reuss Voigt Hill
#
# Bulk Modulus (GPa) = 20.15636 33.07759 26.61697
# Shear Modulus (GPa) = 21.42731 26.55792 23.99261
#
# Velocity S-wave (km/s) = 3.07677 3.42537 3.25574
# Velocity P-wave (km/s) = 4.63972 5.50071 5.08846
#
# Compressibility (1/GPa) = 0.04961214
#
# Stress axis : x y z
#
# Youngs Moduli (GPa) = 61.20196 25.15729 111.33655
#
# Poissons Ratio (x) = 0.07579 0.32574
# Poissons Ratio (y) = 0.18438 0.19941
# Poissons Ratio (z) = 0.17906 0.04506
#
# Static dielectric constant tensor:
#      x y z
#    x 1.874500 0.000000 0.043320 
#    y 0.000000 1.878270 0.000000 
#    z 0.043320 0.000000 1.904990 
# 
# From -- ./inp_files/43098.got.cif
#   From: 2010.05.17/outbox.cif.g08.bks.cpg/sg14_22_cif.got.tgz:43098.got - 2010.06.03 17:49:19.
