data_PCOD9247847
_publ_section_title
;
Structure prediction by ZEFSAII (Michael W. Deem and Ramdas Pophale) SiO2 
 PCOD9247847
Probable space group: P 21/C
;
_chemical_formula_sum "Si O2"
_cell_formula_units_Z 32
_cell_length_a 13.376534
_cell_length_b 15.845309
_cell_length_c 16.372420
_cell_angle_alpha 90.000000
_cell_angle_beta 153.653054
_cell_angle_gamma 90.000000
_cell_volume 1540.103667
_symmetry_space_group_name_H-M "P 21/C"
_symmetry_group_IT_number 14
_symmetry_cell_setting 'monoclinic'
loop_
_space_group_symop_operation_xyz
x,y,z
-x,1/2+y,1/2-z
-x,-y,-z
x,1/2-y,1/2+z
loop_
_atom_site_type_symbol
_atom_site_label
_atom_site_fract_x
_atom_site_fract_y
_atom_site_fract_z
Si Si1 0.662817 0.698991 0.082441
Si Si2 0.743258 0.483597 0.786674
Si Si3 0.996290 0.079217 0.936339
Si Si4 0.177102 0.767983 0.924871
Si Si5 0.551717 0.369338 0.508691
Si Si6 0.328018 0.599488 0.947883
Si Si7 0.463615 0.477261 0.744916
Si Si8 0.337909 0.664410 0.698707
O O1 0.928378 0.701294 0.265697
O O2 0.582401 0.790512 0.053194
O O3 0.553215 0.633978 0.067383
O O4 0.544504 0.680769 0.909660
O O5 0.702865 0.410973 0.690197
O O6 0.625271 0.564521 0.658232
O O7 0.607527 0.463567 0.769776
O O8 0.000000 0.500000 0.000000
O O9 0.832760 0.063061 0.739979
O O10 0.881677 0.154910 0.903411
O O11 0.251420 0.086374 0.093188
O O12 0.000000 0.000000 0.000000
O O13 0.290527 0.834707 0.947348
O O14 0.199582 0.678612 0.895664
O O15 0.309034 0.767276 0.107224
O O16 0.395939 0.536837 0.069427
O O17 0.373848 0.573414 0.682227
#
# Coordination Sequence:
#
# PCOD9247847 Si02
#       8
#     4   4   4   4   4   4   4   4
#     4  10  24  42  66  92 131 168 209 266 321 384
#     4  11  26  43  67  94 130 175 215 272 315 384
#     4   9  21  40  63  92 128 153 202 263 317 374
#     4  11  23  41  66  91 131 172 212 268 319 379
#     4  10  25  46  63  97 130 167 226 260 320 389
#     4  10  24  40  63  99 124 169 216 259 321 388
#     4  11  23  40  67  96 128 163 213 259 319 379
#     4  10  22  40  63  98 125 167 208 259 323 380
#
# _framework density 20.777820999999999
#
# number of rings (size 3 to 8) (size 9 to 14) (size 15 to 20)
#    0.000    1.750    1.250    0.750    7.000    7.500 
#    0.000    5.000    0.000    0.000    0.000    0.000 
#    0.000    0.000    0.000    0.000    0.000    0.000 
#
# Total GULP energy -178895.802085 kJ/mol
# GULP energy per Si atom -5590.493815 kJ/mol
# Density = 2.073053 g / cm^3
# Si number density = 20.777821 Si / 1000 Ang^3
#
#
#
# Elastic Constant Matrix: (Units=GPa)
#
#
# Indices 1 2 3 4 5 6 
#
# 1 72.3327 18.2508 44.9004 0.0000 11.2729 0.0000
# 2 18.2508 37.6021 17.2840 0.0000 -15.1477 0.0000
# 3 44.9004 17.2840 88.0934 0.0000 -1.0407 0.0000
# 4 0.0000 0.0000 0.0000 -1.8720 0.0000 2.5457
# 5 11.2729 -15.1477 -1.0407 0.0000 27.0060 0.0000
# 6 0.0000 0.0000 0.0000 2.5457 0.0000 8.5157
#
#
#
# Elastic Compliance Matrix: (Units=1/GPa)
#
#
# Indices 1 2 3 4 5 6 
#
# 1 0.029030 -0.017880 -0.011555 0.000000 -0.022592 0.000000
# 2 -0.017880 0.049565 -0.000195 0.000000 0.035257 0.000000
# 3 -0.011555 -0.000195 0.017343 0.000000 0.005382 0.000000
# 4 0.000000 0.000000 0.000000 -0.379793 0.000000 0.113538
# 5 -0.022592 0.035257 0.005382 0.000000 0.066442 0.000000
# 6 0.000000 0.000000 0.000000 0.113538 0.000000 0.083489
#
#
# Mechanical properties :
#
#
# Convention : Reuss Voigt Hill
#
# Bulk Modulus (GPa) = 27.26417 39.87761 33.57089
# Shear Modulus (GPa) = -80.08047 14.56947 -32.75550
#
# Velocity S-wave (km/s) = -6.21490 2.65090 -3.97478
# Velocity P-wave (km/s) = 6.19272 5.34825 2.20749
#
# Compressibility (1/GPa) = 0.03667818
#
# Stress axis : x y z
#
# Youngs Moduli (GPa) = 34.44690 20.17546 57.65990
#
# Poissons Ratio (x) = 0.36073 0.66628
# Poissons Ratio (y) = 0.61590 0.01125
# Poissons Ratio (z) = 0.39804 0.00394
#
# Static dielectric constant tensor:
#      x y z
#    x 1.738380 0.000000 0.008450 
#    y 0.000000 1.750270 0.000000 
#    z 0.008450 0.000000 1.726960 
# 
# From -- ./inp_files/45449.got.cif
#   From: 2010.05.17/outbox.cif.g08.bks.cpg/sg14_23_cif.got.tgz:45449.got - 2010.06.03 17:49:19.
