data_PCOD9247721
_publ_section_title
;
Structure prediction by ZEFSAII (Michael W. Deem and Ramdas Pophale) SiO2 
 PCOD9247721
Probable space group: P 21/C
;
_chemical_formula_sum "Si O2"
_cell_formula_units_Z 28
_cell_length_a 9.429802
_cell_length_b 14.596382
_cell_length_c 13.368056
_cell_angle_alpha 90.000000
_cell_angle_beta 132.876063
_cell_angle_gamma 90.000000
_cell_volume 1348.396593
_symmetry_space_group_name_H-M "P 21/C"
_symmetry_group_IT_number 14
_symmetry_cell_setting 'monoclinic'
loop_
_space_group_symop_operation_xyz
x,y,z
-x,1/2+y,1/2-z
-x,-y,-z
x,1/2-y,1/2+z
loop_
_atom_site_type_symbol
_atom_site_label
_atom_site_fract_x
_atom_site_fract_y
_atom_site_fract_z
Si Si1 0.804724 0.456631 0.094964
Si Si2 0.084528 0.219123 0.250679
Si Si3 0.347922 0.141463 0.544627
Si Si4 0.548718 0.422632 0.444737
Si Si5 0.163372 0.106281 0.656486
Si Si6 0.666536 0.234232 0.602121
Si Si7 0.989195 0.037781 0.106554
O O1 0.700527 0.358130 0.052469
O O2 0.979199 0.456552 0.096208
O O3 0.906459 0.481306 0.251753
O O4 0.653904 0.534548 0.987686
O O5 0.250249 0.191069 0.404716
O O6 0.127111 0.313474 0.218211
O O7 0.884803 0.227563 0.217371
O O8 0.069963 0.140111 0.160654
O O9 0.199636 0.148063 0.565179
O O10 0.554217 0.193880 0.645622
O O11 0.500000 0.500000 0.500000
O O12 0.377267 0.431903 0.282242
O O13 0.561734 0.319950 0.497424
O O14 0.761399 0.449568 0.512905
O O15 0.000000 0.000000 0.000000
#
# Coordination Sequence:
#
# PCOD9247721 Si02
#       7
#     4   4   4   4   4   4   4
#     4  10  22  42  62  90 131 164 206 271 318 375
#     4   9  22  42  61  93 131 163 207 272 316 370
#     4  11  22  41  65  92 125 168 215 254 321 389
#     4  11  22  42  63  91 129 164 213 266 320 379
#     4  11  22  40  64  91 129 171 207 258 327 385
#     4  10  22  41  65  90 125 166 206 266 317 375
#     4  10  22  39  67  91 123 169 215 262 318 380
#
# _framework density 20.765404
#
# number of rings (size 3 to 8) (size 9 to 14) (size 15 to 20)
#    0.000    1.714    2.857    0.857    2.000    3.429 
#    5.143    0.000    0.000    0.000    0.000    0.000 
#    0.000    0.000    0.000    0.000    0.000    0.000 
#
# Total GULP energy -155931.107262 kJ/mol
# GULP energy per Si atom -5568.968117 kJ/mol
# Density = 2.071814 g / cm^3
# Si number density = 20.765404 Si / 1000 Ang^3
#
#
#
# Elastic Constant Matrix: (Units=GPa)
#
#
# Indices 1 2 3 4 5 6 
#
# 1 82.7992 27.7102 16.0636 0.0000 -6.6548 0.0000
# 2 27.7102 85.5660 9.1121 0.0000 4.4956 0.0000
# 3 16.0636 9.1121 28.1476 0.0000 -7.6323 0.0000
# 4 0.0000 0.0000 0.0000 10.2069 0.0000 2.4741
# 5 -6.6548 4.4956 -7.6323 0.0000 26.1216 0.0000
# 6 0.0000 0.0000 0.0000 2.4741 0.0000 41.0756
#
#
#
# Elastic Compliance Matrix: (Units=1/GPa)
#
#
# Indices 1 2 3 4 5 6 
#
# 1 0.014982 -0.004308 -0.006429 0.000000 0.002680 0.000000
# 2 -0.004308 0.013646 -0.003142 0.000000 -0.004364 0.000000
# 3 -0.006429 -0.003142 0.043350 0.000000 0.011569 0.000000
# 4 0.000000 0.000000 0.000000 0.099425 0.000000 -0.005989
# 5 0.002680 -0.004364 0.011569 0.000000 0.043097 0.000000
# 6 0.000000 0.000000 0.000000 -0.005989 0.000000 0.024706
#
#
# Mechanical properties :
#
#
# Convention : Reuss Voigt Hill
#
# Bulk Modulus (GPa) = 22.61437 33.58718 28.10078
# Shear Modulus (GPa) = 17.74916 25.05593 21.40255
#
# Velocity S-wave (km/s) = 2.92678 3.47741 3.21391
# Velocity P-wave (km/s) = 4.72604 5.68620 5.22821
#
# Compressibility (1/GPa) = 0.04421967
#
# Stress axis : x y z
#
# Youngs Moduli (GPa) = 66.74795 73.28188 23.06803
#
# Poissons Ratio (x) = 0.31570 0.14830
# Poissons Ratio (y) = 0.28755 0.07249
# Poissons Ratio (z) = 0.42910 0.23028
#
# Static dielectric constant tensor:
#      x y z
#    x 1.849270 0.000000 -0.055370 
#    y 0.000000 1.854400 0.000000 
#    z -0.055370 0.000000 1.832010 
# 
# From -- ./inp_files/25101.got.cif
#   From: 2010.05.17/outbox.cif.g08.bks.cpg/sg14_13_cif.got.tgz:25101.got - 2010.06.03 17:49:19.
