data_PCOD9247323
_publ_section_title
;
Structure prediction by ZEFSAII (Michael W. Deem and Ramdas Pophale) SiO2 
 PCOD9247323
Probable space group: P 21/C
;
_chemical_formula_sum "Si O2"
_cell_formula_units_Z 24
_cell_length_a 10.811101
_cell_length_b 17.605883
_cell_length_c 11.217003
_cell_angle_alpha 90.000000
_cell_angle_beta 26.417552
_cell_angle_gamma 90.000000
_cell_volume 949.896529
_symmetry_space_group_name_H-M "P 21/C"
_symmetry_group_IT_number 14
_symmetry_cell_setting 'monoclinic'
loop_
_space_group_symop_operation_xyz
x,y,z
-x,1/2+y,1/2-z
-x,-y,-z
x,1/2-y,1/2+z
loop_
_atom_site_type_symbol
_atom_site_label
_atom_site_fract_x
_atom_site_fract_y
_atom_site_fract_z
Si Si1 0.712508 0.457660 0.727318
Si Si2 0.987104 0.378701 0.915540
Si Si3 0.431163 0.339878 0.100834
Si Si4 0.975541 0.293011 0.329241
Si Si5 0.374924 0.315731 0.764855
Si Si6 0.589611 0.563322 0.639314
O O1 0.000000 0.500000 0.500000
O O2 0.500000 0.500000 0.000000
O O3 0.683659 0.373737 0.806684
O O4 0.607698 0.481714 0.687034
O O5 0.934207 0.290405 0.923119
O O6 0.195679 0.377153 0.847503
O O7 0.692518 0.419155 0.188408
O O8 0.145927 0.419200 0.669820
O O9 0.159251 0.348147 0.253587
O O10 0.448477 0.250575 0.106773
O O11 0.415486 0.378874 0.243094
O O12 0.166404 0.284806 0.046541
O O13 0.678411 0.328562 0.556499
#
# Coordination Sequence:
#
# PCOD9247323 Si02
#       6
#     4   4   4   4   4   4
#     4  10  22  36  59  88 115 152 184 243 291 334
#     4  11  21  36  57  83 115 156 185 239 283 348
#     4  10  22  38  60  87 120 145 194 237 293 342
#     4  11  22  37  57  84 117 156 185 241 283 344
#     4  11  23  37  58  85 119 153 193 230 291 345
#     4  11  20  38  59  85 119 144 193 235 292 340
#
# _framework density 25.265910999999999
#
# number of rings (size 3 to 8) (size 9 to 14) (size 15 to 20)
#    0.000    1.333    3.333    3.000    0.000    8.000 
#    0.000    0.000    0.000    6.000    0.000    0.000 
#    0.000    0.000    0.000    0.000    0.000    0.000 
#
# Total GULP energy -134375.050467 kJ/mol
# GULP energy per Si atom -5598.960436 kJ/mol
# Density = 2.520840 g / cm^3
# Si number density = 25.265911 Si / 1000 Ang^3
#
#
#
# Elastic Constant Matrix: (Units=GPa)
#
#
# Indices 1 2 3 4 5 6 
#
# 1 64.6953 3.5509 16.9886 0.0000 -30.7690 0.0000
# 2 3.5509 64.5327 23.7125 0.0000 2.6151 0.0000
# 3 16.9886 23.7125 143.9013 0.0000 -27.4047 0.0000
# 4 0.0000 0.0000 0.0000 29.9656 0.0000 7.2444
# 5 -30.7690 2.6151 -27.4047 0.0000 42.4568 0.0000
# 6 0.0000 0.0000 0.0000 7.2444 0.0000 34.9174
#
#
#
# Elastic Compliance Matrix: (Units=1/GPa)
#
#
# Indices 1 2 3 4 5 6 
#
# 1 0.023970 -0.002437 0.001036 0.000000 0.018190 0.000000
# 2 -0.002437 0.017123 -0.003501 0.000000 -0.005081 0.000000
# 3 0.001036 -0.003501 0.008651 0.000000 0.006551 0.000000
# 4 0.000000 0.000000 0.000000 0.035134 0.000000 -0.007289
# 5 0.018190 -0.005081 0.006551 0.000000 0.041277 0.000000
# 6 0.000000 0.000000 0.000000 -0.007289 0.000000 0.030151
#
#
# Mechanical properties :
#
#
# Convention : Reuss Voigt Hill
#
# Bulk Modulus (GPa) = 25.03795 40.18146 32.60970
# Shear Modulus (GPa) = 27.86701 36.72646 32.29673
#
# Velocity S-wave (km/s) = 3.32467 3.81674 3.57917
# Velocity P-wave (km/s) = 4.96681 5.94654 5.47862
#
# Compressibility (1/GPa) = 0.03993938
#
# Stress axis : x y z
#
# Youngs Moduli (GPa) = 41.71893 58.40249 115.58840
#
# Poissons Ratio (x) = 0.14231 -0.11973
# Poissons Ratio (y) = 0.10166 0.40472
# Poissons Ratio (z) = -0.04321 0.20449
#
# Static dielectric constant tensor:
#      x y z
#    x 2.065130 0.000000 -0.068320 
#    y 0.000000 2.131370 0.000000 
#    z -0.068320 0.000000 1.971210 
# 
# From -- ./inp_files/21649.got.cif
#   From: 2010.05.17/outbox.cif.g08.bks.cpg/sg14_11_cif.got.tgz:21649.got - 2010.06.03 17:49:19.
