data_PCOD9247523
_publ_section_title
;
Structure prediction by ZEFSAII (Michael W. Deem and Ramdas Pophale) SiO2 
 PCOD9247523
Probable space group: P 21/C
;
_chemical_formula_sum "Si O2"
_cell_formula_units_Z 24
_cell_length_a 10.118822
_cell_length_b 22.658882
_cell_length_c 8.226283
_cell_angle_alpha 90.000000
_cell_angle_beta 32.059168
_cell_angle_gamma 90.000000
_cell_volume 1001.148938
_symmetry_space_group_name_H-M "P 21/C"
_symmetry_group_IT_number 14
_symmetry_cell_setting 'monoclinic'
loop_
_space_group_symop_operation_xyz
x,y,z
-x,1/2+y,1/2-z
-x,-y,-z
x,1/2-y,1/2+z
loop_
_atom_site_type_symbol
_atom_site_label
_atom_site_fract_x
_atom_site_fract_y
_atom_site_fract_z
Si Si1 0.982935 0.989293 0.712710
Si Si2 0.632543 0.779165 0.953279
Si Si3 0.693997 0.212154 0.987987
Si Si4 0.526324 0.448572 0.107153
Si Si5 0.933286 0.691205 0.430396
Si Si6 0.878305 0.111264 0.011267
O O1 0.954209 0.051245 0.842358
O O2 0.000000 0.000000 0.500000
O O3 0.237234 0.960473 0.518745
O O4 0.730638 0.953318 0.023277
O O5 0.414225 0.806288 0.072408
O O6 0.822625 0.749325 0.632016
O O7 0.781050 0.818543 0.925269
O O8 0.529535 0.722205 0.154309
O O9 0.858259 0.162356 0.898156
O O10 0.796185 0.279661 0.879956
O O11 0.500000 0.500000 0.000000
O O12 0.627555 0.397047 0.881460
O O13 0.935905 0.636480 0.546947
#
# Coordination Sequence:
#
# PCOD9247523 Si02
#       6
#     4   4   4   4   4   4
#     4  11  25  51  75 108 144 178 248 323 360 434
#     4  10  22  38  65  90 145 181 229 292 328 405
#     4  11  21  42  61  98 139 181 235 285 337 431
#     4  10  23  48  76 106 140 181 240 306 359 434
#     4  11  21  42  61  98 139 182 233 283 340 433
#     4  11  23  43  73  96 143 194 229 291 384 418
#
# _framework density 23.972456000000001
#
# number of rings (size 3 to 8) (size 9 to 14) (size 15 to 20)
#    0.000    1.333    3.333    2.500    0.000    4.000 
#    6.000    0.000    0.000    0.000    0.000    0.000 
#    0.000    0.000    0.000    0.000    0.000    0.000 
#
# Total GULP energy -133906.321481 kJ/mol
# GULP energy per Si atom -5579.430062 kJ/mol
# Density = 2.391789 g / cm^3
# Si number density = 23.972456 Si / 1000 Ang^3
#
#
#
# Elastic Constant Matrix: (Units=GPa)
#
#
# Indices 1 2 3 4 5 6 
#
# 1 221.7667 46.2423 56.1848 0.0000 11.5337 0.0000
# 2 46.2423 96.3374 29.4164 0.0000 8.5277 0.0000
# 3 56.1848 29.4164 105.8189 0.0000 6.9563 0.0000
# 4 0.0000 0.0000 0.0000 25.5554 0.0000 8.9183
# 5 11.5337 8.5277 6.9563 0.0000 39.4417 0.0000
# 6 0.0000 0.0000 0.0000 8.9183 0.0000 38.7998
#
#
#
# Elastic Compliance Matrix: (Units=1/GPa)
#
#
# Indices 1 2 3 4 5 6 
#
# 1 0.005540 -0.001865 -0.002371 0.000000 -0.000799 0.000000
# 2 -0.001865 0.012116 -0.002268 0.000000 -0.001674 0.000000
# 3 -0.002371 -0.002268 0.011394 0.000000 -0.000826 0.000000
# 4 0.000000 0.000000 0.000000 0.042543 0.000000 -0.009779
# 5 -0.000799 -0.001674 -0.000826 0.000000 0.026095 0.000000
# 6 0.000000 0.000000 0.000000 -0.009779 0.000000 0.028021
#
#
# Mechanical properties :
#
#
# Convention : Reuss Voigt Hill
#
# Bulk Modulus (GPa) = 62.33239 76.40110 69.36675
# Shear Modulus (GPa) = 34.70686 40.23134 37.46910
#
# Velocity S-wave (km/s) = 3.80910 4.10107 3.95778
# Velocity P-wave (km/s) = 6.73823 7.37323 7.06287
#
# Compressibility (1/GPa) = 0.01604302
#
# Stress axis : x y z
#
# Youngs Moduli (GPa) = 180.49757 82.53561 87.76862
#
# Poissons Ratio (x) = 0.15391 0.20807
# Poissons Ratio (y) = 0.33658 0.19905
# Poissons Ratio (z) = 0.42791 0.18719
#
# Static dielectric constant tensor:
#      x y z
#    x 1.946440 0.000000 -0.075310 
#    y 0.000000 1.960450 0.000000 
#    z -0.075310 0.000000 1.995880 
# 
# From -- ./inp_files/14508.got.cif
#   From: 2010.05.17/outbox.cif.g08.bks.cpg/sg14_8_cif.got.tgz:14508.got - 2010.06.03 17:49:19.
