data_PCOD9247710
_publ_section_title
;
Structure prediction by ZEFSAII (Michael W. Deem and Ramdas Pophale) SiO2 
 PCOD9247710
Probable space group: P 21/C
;
_chemical_formula_sum "Si O2"
_cell_formula_units_Z 20
_cell_length_a 5.272285
_cell_length_b 7.388693
_cell_length_c 19.247907
_cell_angle_alpha 90.000000
_cell_angle_beta 113.991509
_cell_angle_gamma 90.000000
_cell_volume 685.028790
_symmetry_space_group_name_H-M "P 21/C"
_symmetry_group_IT_number 14
_symmetry_cell_setting 'monoclinic'
loop_
_space_group_symop_operation_xyz
x,y,z
-x,1/2+y,1/2-z
-x,-y,-z
x,1/2-y,1/2+z
loop_
_atom_site_type_symbol
_atom_site_label
_atom_site_fract_x
_atom_site_fract_y
_atom_site_fract_z
Si Si1 0.476681 0.725517 0.243786
Si Si2 0.673692 0.724981 0.958077
Si Si3 0.912617 0.477250 0.100159
Si Si4 0.049702 0.020594 0.238051
Si Si5 0.517859 0.942960 0.127511
O O1 0.814186 0.712047 0.270274
O O2 0.454841 0.581252 0.303757
O O3 0.319241 0.890486 0.263798
O O4 0.411538 0.760610 0.153106
O O5 0.358082 0.651102 0.922319
O O6 0.656714 0.942789 0.946477
O O7 0.856747 0.631070 0.918172
O O8 0.803080 0.646871 0.042827
O O9 0.012055 0.545893 0.186593
O O10 0.848954 0.947461 0.154734
#
# Coordination Sequence:
#
# PCOD9247710 Si02
#       5
#     4   4   4   4   4
#     4  10  23  35  57  90 125 167 206 260 319 376
#     4  10  22  39  66  93 122 163 217 255 313 371
#     4  10  22  41  64  93 124 166 208 264 308 375
#     4  11  22  38  61  90 132 162 213 260 321 370
#     4  11  21  37  60  90 124 161 207 266 305 381
#
# _framework density 29.195854000000001
#
# number of rings (size 3 to 8) (size 9 to 14) (size 15 to 20)
#    0.000    1.600    2.000    2.400    8.400    0.000 
#    0.000    1.000    0.000    2.400    0.000    0.000 
#    0.000    0.000    0.000    0.000    0.000    0.000 
#
# Total GULP energy -111533.346613 kJ/mol
# GULP energy per Si atom -5576.667331 kJ/mol
# Density = 2.912940 g / cm^3
# Si number density = 29.195854 Si / 1000 Ang^3
#
#
#
# Elastic Constant Matrix: (Units=GPa)
#
#
# Indices 1 2 3 4 5 6 
#
# 1 91.6568 -1.0748 39.5357 0.0000 3.6699 0.0000
# 2 -1.0748 66.0484 8.0316 0.0000 -4.2241 0.0000
# 3 39.5357 8.0316 101.6361 0.0000 -11.6572 0.0000
# 4 0.0000 0.0000 0.0000 65.5361 0.0000 -15.8055
# 5 3.6699 -4.2241 -11.6572 0.0000 41.8678 0.0000
# 6 0.0000 0.0000 0.0000 -15.8055 0.0000 36.3135
#
#
#
# Elastic Compliance Matrix: (Units=1/GPa)
#
#
# Indices 1 2 3 4 5 6 
#
# 1 0.013436 0.000728 -0.005589 0.000000 -0.002660 0.000000
# 2 0.000728 0.015390 -0.001372 0.000000 0.001107 0.000000
# 3 -0.005589 -0.001372 0.012563 0.000000 0.003849 0.000000
# 4 0.000000 0.000000 0.000000 0.017048 0.000000 0.007420
# 5 -0.002660 0.001107 0.003849 0.000000 0.025301 0.000000
# 6 0.000000 0.000000 0.000000 0.007420 0.000000 0.030768
#
#
# Mechanical properties :
#
#
# Convention : Reuss Voigt Hill
#
# Bulk Modulus (GPa) = 34.57555 39.14736 36.86145
# Shear Modulus (GPa) = 36.59930 42.93341 39.76636
#
# Velocity S-wave (km/s) = 3.54443 3.83891 3.69461
# Velocity P-wave (km/s) = 5.34967 5.75216 5.55456
#
# Compressibility (1/GPa) = 0.02892217
#
# Stress axis : x y z
#
# Youngs Moduli (GPa) = 74.42558 64.97757 79.59767
#
# Poissons Ratio (x) = -0.04731 0.44489
# Poissons Ratio (y) = -0.05419 0.10924
# Poissons Ratio (z) = 0.41599 0.08918
#
# Static dielectric constant tensor:
#      x y z
#    x 3.679820 0.000000 0.121470 
#    y 0.000000 2.591660 0.000000 
#    z 0.121470 0.000000 2.204790 
# 
# From -- ./inp_files/62886.got.cif
#   From: 2010.05.17/outbox.cif.g08.bks.cpg/sg14_32_cif.got.tgz:62886.got - 2010.06.03 17:49:19.
