data_PCOD9247574
_publ_section_title
;
Structure prediction by ZEFSAII (Michael W. Deem and Ramdas Pophale) SiO2 
 PCOD9247574
Probable space group: P 21/C
;
_chemical_formula_sum "Si O2"
_cell_formula_units_Z 24
_cell_length_a 14.503897
_cell_length_b 7.931867
_cell_length_c 7.801834
_cell_angle_alpha 90.000000
_cell_angle_beta 95.048731
_cell_angle_gamma 90.000000
_cell_volume 894.063958
_symmetry_space_group_name_H-M "P 21/C"
_symmetry_group_IT_number 14
_symmetry_cell_setting 'monoclinic'
loop_
_space_group_symop_operation_xyz
x,y,z
-x,1/2+y,1/2-z
-x,-y,-z
x,1/2-y,1/2+z
loop_
_atom_site_type_symbol
_atom_site_label
_atom_site_fract_x
_atom_site_fract_y
_atom_site_fract_z
Si Si1 0.387305 0.493333 0.786369
Si Si2 0.224972 0.170390 0.448869
Si Si3 0.278225 0.996000 0.810560
Si Si4 0.437241 0.812124 0.637987
Si Si5 0.108793 0.662600 0.429292
Si Si6 0.940191 0.997023 0.719031
O O1 0.287023 0.439370 0.829375
O O2 0.400190 0.621828 0.633634
O O3 0.456459 0.334925 0.787134
O O4 0.425643 0.608381 0.949248
O O5 0.233275 0.086745 0.635596
O O6 0.271379 0.354221 0.448286
O O7 0.120786 0.157767 0.362204
O O8 0.372965 0.923828 0.752087
O O9 0.211756 0.849457 0.870552
O O10 0.102778 0.576301 0.613296
O O11 0.070110 0.852044 0.418211
O O12 0.040994 0.559353 0.292873
#
# Coordination Sequence:
#
# PCOD9247574 Si02
#       6
#     4   4   4   4   4   4
#     4  10  22  39  59  86 118 153 194 239 289 345
#     4  11  23  39  61  88 119 155 196 242 292 347
#     4  11  23  39  61  88 119 155 196 242 292 347
#     4  10  22  39  59  86 118 153 194 239 289 345
#     4  11  24  41  62  88 119 155 195 241 292 347
#     4  11  24  41  62  88 119 155 195 241 292 347
#
# _framework density 26.843717999999999
#
# number of rings (size 3 to 8) (size 9 to 14) (size 15 to 20)
#    0.000    1.333    0.000    5.000    0.000   11.333 
#    0.000    0.000    0.000    0.000    0.000    0.000 
#    0.000    0.000    0.000    0.000    0.000    0.000 
#
# Total GULP energy -134675.345697 kJ/mol
# GULP energy per Si atom -5611.472737 kJ/mol
# Density = 2.678262 g / cm^3
# Si number density = 26.843718 Si / 1000 Ang^3
#
#
#
# Elastic Constant Matrix: (Units=GPa)
#
#
# Indices 1 2 3 4 5 6 
#
# 1 80.1817 -6.9213 1.0193 0.0000 -8.3036 0.0000
# 2 -6.9213 97.2336 -13.7530 0.0000 -1.4781 0.0000
# 3 1.0193 -13.7530 106.4466 0.0000 -10.9313 0.0000
# 4 0.0000 0.0000 0.0000 34.6589 0.0000 -6.2485
# 5 -8.3036 -1.4781 -10.9313 0.0000 28.4055 0.0000
# 6 0.0000 0.0000 0.0000 -6.2485 0.0000 48.8786
#
#
#
# Elastic Compliance Matrix: (Units=1/GPa)
#
#
# Indices 1 2 3 4 5 6 
#
# 1 0.012972 0.001044 0.000422 0.000000 0.004009 0.000000
# 2 0.001044 0.010594 0.001506 0.000000 0.001436 0.000000
# 3 0.000422 0.001506 0.010001 0.000000 0.004050 0.000000
# 4 0.000000 0.000000 0.000000 0.029533 0.000000 0.003775
# 5 0.004009 0.001436 0.004050 0.000000 0.038010 0.000000
# 6 0.000000 0.000000 0.000000 0.003775 0.000000 0.020941
#
#
# Mechanical properties :
#
#
# Convention : Reuss Voigt Hill
#
# Bulk Modulus (GPa) = 25.30925 27.17245 26.24085
# Shear Modulus (GPa) = 38.67692 42.62306 40.64999
#
# Velocity S-wave (km/s) = 3.79993 3.98907 3.89565
# Velocity P-wave (km/s) = 5.35737 5.60012 5.48009
#
# Compressibility (1/GPa) = 0.03951125
#
# Stress axis : x y z
#
# Youngs Moduli (GPa) = 77.09169 94.39580 99.99106
#
# Poissons Ratio (x) = -0.09855 -0.04223
# Poissons Ratio (y) = -0.08048 -0.15061
# Poissons Ratio (z) = -0.03256 -0.14218
#
# Static dielectric constant tensor:
#      x y z
#    x 1.977120 0.000000 0.053060 
#    y 0.000000 2.108860 0.000000 
#    z 0.053060 0.000000 2.120210 
# 
# From -- ./inp_files/15111.got.cif
#   From: 2010.05.17/outbox.cif.g08.bks.cpg/sg14_8_cif.got.tgz:15111.got - 2010.06.03 17:49:19.
