data_PCOD9247127
_publ_section_title
;
Structure prediction by ZEFSAII (Michael W. Deem and Ramdas Pophale) SiO2 
 PCOD9247127
Probable space group: P 21/C
;
_chemical_formula_sum "Si O2"
_cell_formula_units_Z 24
_cell_length_a 9.768098
_cell_length_b 28.456891
_cell_length_c 5.403443
_cell_angle_alpha 90.000000
_cell_angle_beta 138.242715
_cell_angle_gamma 90.000000
_cell_volume 1000.292357
_symmetry_space_group_name_H-M "P 21/C"
_symmetry_group_IT_number 14
_symmetry_cell_setting 'monoclinic'
loop_
_space_group_symop_operation_xyz
x,y,z
-x,1/2+y,1/2-z
-x,-y,-z
x,1/2-y,1/2+z
loop_
_atom_site_type_symbol
_atom_site_label
_atom_site_fract_x
_atom_site_fract_y
_atom_site_fract_z
Si Si1 0.431319 0.537647 0.607141
Si Si2 0.420120 0.134497 0.829868
Si Si3 0.842857 0.628711 0.525208
Si Si4 0.473828 0.764753 0.192534
Si Si5 0.985628 0.271806 0.322775
Si Si6 0.155273 0.024344 0.021662
O O1 0.500000 0.500000 0.500000
O O2 0.684936 0.635096 0.542200
O O3 0.218395 0.516745 0.417849
O O4 0.432772 0.589512 0.496921
O O5 0.255326 0.129951 0.383470
O O6 0.531348 0.182907 0.918714
O O7 0.381216 0.036859 0.441667
O O8 0.990076 0.674102 0.723462
O O9 0.925471 0.575439 0.670068
O O10 0.568741 0.765681 0.596469
O O11 0.251376 0.743298 0.955699
O O12 0.067612 0.260961 0.709578
O O13 0.000000 0.000000 0.000000
#
# Coordination Sequence:
#
# PCOD9247127 Si02
#       6
#     4   4   4   4   4   4
#     4  10  21  44  66  96 137 172 226 282 334 405
#     4  11  23  40  68  93 128 175 217 268 342 398
#     4  11  23  41  64  95 130 169 216 272 338 395
#     4  10  22  40  60  91 124 163 217 260 320 392
#     4  10  22  40  59  86 128 162 209 268 319 384
#     4  10  23  42  67 100 134 179 225 279 342 403
#
# _framework density 23.992985000000001
#
# number of rings (size 3 to 8) (size 9 to 14) (size 15 to 20)
#    0.000    1.667    1.667    2.000    0.000    7.333 
#    6.000    0.000    0.000    0.000    0.000    0.000 
#    0.000    0.000    0.000    0.000    0.000    0.000 
#
# Total GULP energy -134054.116544 kJ/mol
# GULP energy per Si atom -5585.588189 kJ/mol
# Density = 2.393838 g / cm^3
# Si number density = 23.992985 Si / 1000 Ang^3
#
#
#
# Elastic Constant Matrix: (Units=GPa)
#
#
# Indices 1 2 3 4 5 6 
#
# 1 159.7609 82.0909 29.4835 0.0000 -33.6182 0.0000
# 2 82.0909 242.3676 11.4750 0.0000 -10.1240 0.0000
# 3 29.4835 11.4750 67.1980 0.0000 -20.5390 0.0000
# 4 0.0000 0.0000 0.0000 34.1269 0.0000 -5.3450
# 5 -33.6182 -10.1240 -20.5390 0.0000 44.8158 0.0000
# 6 0.0000 0.0000 0.0000 -5.3450 0.0000 53.0548
#
#
#
# Elastic Compliance Matrix: (Units=1/GPa)
#
#
# Indices 1 2 3 4 5 6 
#
# 1 0.009179 -0.002794 -0.001905 0.000000 0.005381 0.000000
# 2 -0.002794 0.005030 0.000086 0.000000 -0.000920 0.000000
# 3 -0.001905 0.000086 0.017760 0.000000 0.006729 0.000000
# 4 0.000000 0.000000 0.000000 0.029772 0.000000 0.002999
# 5 0.005381 -0.000920 0.006729 0.000000 0.029226 0.000000
# 6 0.000000 0.000000 0.000000 0.002999 0.000000 0.019151
#
#
# Mechanical properties :
#
#
# Convention : Reuss Voigt Hill
#
# Bulk Modulus (GPa) = 43.97399 79.49170 61.73284
# Shear Modulus (GPa) = 39.39327 49.48462 44.43895
#
# Velocity S-wave (km/s) = 4.05639 4.54636 4.30835
# Velocity P-wave (km/s) = 6.34876 7.79502 7.10876
#
# Compressibility (1/GPa) = 0.02274072
#
# Stress axis : x y z
#
# Youngs Moduli (GPa) = 108.94449 198.81530 56.30769
#
# Poissons Ratio (x) = 0.55548 0.10729
# Poissons Ratio (y) = 0.30439 -0.00482
# Poissons Ratio (z) = 0.20759 -0.01703
#
# Static dielectric constant tensor:
#      x y z
#    x 1.672140 0.000000 -0.378830 
#    y 0.000000 1.890700 0.000000 
#    z -0.378830 0.000000 1.007910 
# 
# From -- ./inp_files/1678.got.cif
#   From: 2010.05.17/outbox.cif.g08.bks.cpg/sg14_1_cif.got.tgz:1678.got - 2010.06.03 17:49:19.
