data_PCOD9247870
_publ_section_title
;
Structure prediction by ZEFSAII (Michael W. Deem and Ramdas Pophale) SiO2 
 PCOD9247870
Probable space group: P 21/C
;
_chemical_formula_sum "Si O2"
_cell_formula_units_Z 18
_cell_length_a 15.310104
_cell_length_b 4.880230
_cell_length_c 12.909461
_cell_angle_alpha 90.000000
_cell_angle_beta 43.284504
_cell_angle_gamma 90.000000
_cell_volume 661.318949
_symmetry_space_group_name_H-M "P 21/C"
_symmetry_group_IT_number 14
_symmetry_cell_setting 'monoclinic'
loop_
_space_group_symop_operation_xyz
x,y,z
-x,1/2+y,1/2-z
-x,-y,-z
x,1/2-y,1/2+z
loop_
_atom_site_type_symbol
_atom_site_label
_atom_site_fract_x
_atom_site_fract_y
_atom_site_fract_z
Si Si1 0.081050 0.102832 0.149566
Si Si2 0.591168 0.916960 0.791172
Si Si3 0.776966 0.328230 0.292357
Si Si4 0.000000 0.000000 0.000000
Si Si5 0.588046 0.919542 0.554084
O O1 0.191529 0.005884 0.132250
O O2 0.959991 0.910482 0.286949
O O3 0.101556 0.036779 0.011988
O O4 0.703469 0.000610 0.769484
O O5 0.628558 0.945316 0.639025
O O6 0.470660 0.120566 0.913623
O O7 0.535028 0.615994 0.853442
O O8 0.696959 0.061557 0.393189
O O9 0.910507 0.231798 0.130237
#
# Coordination Sequence:
#
# PCOD9247870 Si02
#       5
#     4   4   4   2   4
#     4  10  24  43  64  92 128 174 224 271 327 392
#     4  10  22  40  65  95 128 169 219 277 336 397
#     4  11  22  41  66  95 132 175 222 277 333 404
#     4  10  24  44  66  96 134 178 222 272 332 400
#     4  10  22  40  64  96 129 168 217 273 340 398
#
# _framework density 27.218336000000001
#
# number of rings (size 3 to 8) (size 9 to 14) (size 15 to 20)
#    0.000    1.778    0.000    2.667    0.000   10.667 
#    0.000   17.778    0.000    0.000    0.000    0.000 
#    0.000    0.000    0.000    0.000    0.000    0.000 
#
# Total GULP energy -100630.052747 kJ/mol
# GULP energy per Si atom -5590.558486 kJ/mol
# Density = 2.715639 g / cm^3
# Si number density = 27.218336 Si / 1000 Ang^3
#
#
#
# Elastic Constant Matrix: (Units=GPa)
#
#
# Indices 1 2 3 4 5 6 
#
# 1 262.5424 36.8417 29.6300 0.0000 1.4799 0.0000
# 2 36.8417 86.8095 26.3840 0.0000 11.6782 0.0000
# 3 29.6300 26.3840 61.0513 0.0000 0.1805 0.0000
# 4 0.0000 0.0000 0.0000 38.8843 0.0000 -1.6528
# 5 1.4799 11.6782 0.1805 0.0000 34.1079 0.0000
# 6 0.0000 0.0000 0.0000 -1.6528 0.0000 42.2125
#
#
#
# Elastic Compliance Matrix: (Units=1/GPa)
#
#
# Indices 1 2 3 4 5 6 
#
# 1 0.004161 -0.001372 -0.001427 0.000000 0.000297 0.000000
# 2 -0.001372 0.014446 -0.005563 0.000000 -0.004857 0.000000
# 3 -0.001427 -0.005563 0.019471 0.000000 0.001863 0.000000
# 4 0.000000 0.000000 0.000000 0.025760 0.000000 0.001009
# 5 0.000297 -0.004857 0.001863 0.000000 0.030959 0.000000
# 6 0.000000 0.000000 0.000000 0.001009 0.000000 0.023729
#
#
# Mechanical properties :
#
#
# Convention : Reuss Voigt Hill
#
# Bulk Modulus (GPa) = 46.83069 66.23495 56.53282
# Shear Modulus (GPa) = 35.12031 44.21077 39.66554
#
# Velocity S-wave (km/s) = 3.59600 4.03463 3.82161
# Velocity P-wave (km/s) = 5.87235 6.78910 6.34730
#
# Compressibility (1/GPa) = 0.02135352
#
# Stress axis : x y z
#
# Youngs Moduli (GPa) = 240.33563 69.22422 51.35873
#
# Poissons Ratio (x) = 0.09497 0.07331
# Poissons Ratio (y) = 0.32973 0.28569
# Poissons Ratio (z) = 0.34304 0.38507
#
# Static dielectric constant tensor:
#      x y z
#    x 2.158130 0.000000 -0.003280 
#    y 0.000000 2.062700 0.000000 
#    z -0.003280 0.000000 2.138260 
# 
# From -- ./inp_files/45770.got.cif
#   From: 2010.05.17/outbox.cif.g08.bks.cpg/sg14_23_cif.got.tgz:45770.got - 2010.06.03 17:49:19.
