data_PCOD9247750
_publ_section_title
;
Structure prediction by ZEFSAII (Michael W. Deem and Ramdas Pophale) SiO2 
 PCOD9247750
Probable space group: P 21/C
;
_chemical_formula_sum "Si O2"
_cell_formula_units_Z 32
_cell_length_a 12.117086
_cell_length_b 15.905846
_cell_length_c 7.108198
_cell_angle_alpha 90.000000
_cell_angle_beta 110.564266
_cell_angle_gamma 90.000000
_cell_volume 1282.683963
_symmetry_space_group_name_H-M "P 21/C"
_symmetry_group_IT_number 14
_symmetry_cell_setting 'monoclinic'
loop_
_space_group_symop_operation_xyz
x,y,z
-x,1/2+y,1/2-z
-x,-y,-z
x,1/2-y,1/2+z
loop_
_atom_site_type_symbol
_atom_site_label
_atom_site_fract_x
_atom_site_fract_y
_atom_site_fract_z
Si Si1 0.850710 0.864816 0.288365
Si Si2 0.446227 0.636160 0.170736
Si Si3 0.255516 0.702435 0.296510
Si Si4 0.085756 0.816295 0.386581
Si Si5 0.113856 0.313773 0.760418
Si Si6 0.370760 0.050659 0.720782
Si Si7 0.692363 0.918538 0.752973
Si Si8 0.620653 0.393471 0.304174
O O1 0.887394 0.850813 0.530938
O O2 0.809841 0.772490 0.194344
O O3 0.740949 0.926708 0.217817
O O4 0.979912 0.879367 0.274240
O O5 0.373520 0.704874 0.241282
O O6 0.402813 0.547141 0.230136
O O7 0.586741 0.638863 0.268734
O O8 0.410539 0.632977 0.929352
O O9 0.186325 0.788306 0.302910
O O10 0.291374 0.844055 0.007475
O O11 0.159424 0.654486 0.110546
O O12 0.011204 0.728280 0.371221
O O13 0.178580 0.378066 0.660689
O O14 0.333582 0.075085 0.486446
O O15 0.492483 0.099574 0.829491
O O16 0.672063 0.012207 0.813925
#
# Coordination Sequence:
#
# PCOD9247750 Si02
#       8
#     4   4   4   4   4   4   4   4
#     4   9  17  36  61  83 111 161 208 252 298 351
#     4   9  20  39  63  94 128 156 191 262 319 376
#     4  12  24  41  58  86 118 173 206 240 324 375
#     4  10  22  40  56  76 122 162 212 256 286 360
#     4   9  17  36  61  83 111 161 208 252 298 351
#     4   8  16  37  65  92 124 155 201 255 317 366
#     4   8  16  37  65  92 124 155 201 255 317 366
#     4   9  20  39  63  94 128 156 191 262 319 376
#
# _framework density 24.947690999999999
#
# number of rings (size 3 to 8) (size 9 to 14) (size 15 to 20)
#    0.750    2.000    1.250    1.500    1.750    2.000 
#    6.750    1.250    0.000    0.000    0.000    0.000 
#    0.000    0.000    0.000    0.000    0.000    0.000 
#
# Total GULP energy -178613.786944 kJ/mol
# GULP energy per Si atom -5581.680842 kJ/mol
# Density = 2.489091 g / cm^3
# Si number density = 24.947691 Si / 1000 Ang^3
#
#
#
# Elastic Constant Matrix: (Units=GPa)
#
#
# Indices 1 2 3 4 5 6 
#
# 1 133.6507 33.4813 56.2414 0.0000 -10.0755 0.0000
# 2 33.4813 28.0710 26.8249 0.0000 -0.1214 0.0000
# 3 56.2414 26.8249 133.5822 0.0000 15.3470 0.0000
# 4 0.0000 0.0000 0.0000 -357.3179 0.0000 818.1876
# 5 -10.0755 -0.1214 15.3470 0.0000 37.3888 0.0000
# 6 0.0000 0.0000 0.0000 818.1876 0.0000-1705.6413
#
#
#
# Elastic Compliance Matrix: (Units=1/GPa)
#
#
# Indices 1 2 3 4 5 6 
#
# 1 0.012025 -0.011114 -0.003357 0.000000 0.004582 0.000000
# 2 -0.011114 0.054923 -0.006324 0.000000 -0.000221 0.000000
# 3 -0.003357 -0.006324 0.010784 0.000000 -0.005352 0.000000
# 4 0.000000 0.000000 0.000000 0.028439 0.000000 0.013642
# 5 0.004582 -0.000221 -0.005352 0.000000 0.030177 0.000000
# 6 0.000000 0.000000 0.000000 0.013642 0.000000 0.005958
#
#
# Mechanical properties :
#
#
# Convention : Reuss Voigt Hill
#
# Bulk Modulus (GPa) = 27.66999 58.71099 43.19049
# Shear Modulus (GPa) = 25.51736 -393.19702 -183.83983
#
# Velocity S-wave (km/s) = 3.20165 -12.56785 -8.59361
# Velocity P-wave (km/s) = 4.97822 13.67539 9.00649
#
# Compressibility (1/GPa) = 0.03614024
#
# Stress axis : x y z
#
# Youngs Moduli (GPa) = 83.16238 18.20729 92.72620
#
# Poissons Ratio (x) = 0.20236 0.31131
# Poissons Ratio (y) = 0.92428 0.58645
# Poissons Ratio (z) = 0.27920 0.11515
#
# Static dielectric constant tensor:
#      x y z
#    x 2.018100 0.000000 -0.060180 
#    y 0.000000 2.010800 0.000000 
#    z -0.060180 0.000000 2.008360 
# 
# From -- ./inp_files/13774.got.cif
#   From: 2010.05.17/outbox.cif.g08.bks.cpg/sg14_7_cif.got.tgz:13774.got - 2010.06.03 17:49:19.
