data_PCOD9247439
_publ_section_title
;
Structure prediction by ZEFSAII (Michael W. Deem and Ramdas Pophale) SiO2 
 PCOD9247439
Probable space group: P 21/C
;
_chemical_formula_sum "Si O2"
_cell_formula_units_Z 32
_cell_length_a 5.607064
_cell_length_b 16.330528
_cell_length_c 14.748119
_cell_angle_alpha 90.000000
_cell_angle_beta 88.683077
_cell_angle_gamma 90.000000
_cell_volume 1350.074223
_symmetry_space_group_name_H-M "P 21/C"
_symmetry_group_IT_number 14
_symmetry_cell_setting 'monoclinic'
loop_
_space_group_symop_operation_xyz
x,y,z
-x,1/2+y,1/2-z
-x,-y,-z
x,1/2-y,1/2+z
loop_
_atom_site_type_symbol
_atom_site_label
_atom_site_fract_x
_atom_site_fract_y
_atom_site_fract_z
Si Si1 0.085273 0.669955 0.909686
Si Si2 0.329400 0.396869 0.585918
Si Si3 0.982022 0.191666 0.226093
Si Si4 0.700729 0.299370 0.465401
Si Si5 0.688982 0.037241 0.224650
Si Si6 0.073966 0.073220 0.911804
Si Si7 0.416096 0.391053 0.141640
Si Si8 0.361581 0.220561 0.816461
O O1 0.326658 0.615494 0.908916
O O2 0.092584 0.720896 0.814449
O O3 0.827040 0.626383 0.912865
O O4 0.119822 0.737011 0.988141
O O5 0.130628 0.348336 0.642561
O O6 0.508409 0.329334 0.541383
O O7 0.478673 0.452134 0.653492
O O8 0.203319 0.446462 0.505848
O O9 0.172787 0.207563 0.302976
O O10 0.775814 0.127586 0.250219
O O11 0.580974 0.258938 0.378981
O O12 0.826104 0.382464 0.431849
O O13 0.902802 0.994348 0.165721
O O14 0.615843 0.977002 0.305686
O O15 0.233060 0.147156 0.870494
O O16 0.418291 0.319473 0.218669
#
# Coordination Sequence:
#
# PCOD9247439 Si02
#       8
#     4   4   4   4   4   4   4   4
#     4  11  22  43  64  90 127 175 224 262 320 387
#     4  11  21  38  58  93 133 168 211 255 341 394
#     4  11  23  39  64  91 130 171 222 267 323 396
#     4  11  21  37  65  90 128 172 218 272 323 386
#     4  11  24  38  62  93 135 173 205 272 331 402
#     4  10  22  38  57  97 129 170 209 263 335 397
#     4  10  25  41  64  91 132 172 216 269 323 390
#     4   9  23  36  59  90 125 167 222 272 317 379
#
# _framework density 23.702401999999999
#
# number of rings (size 3 to 8) (size 9 to 14) (size 15 to 20)
#    0.000    1.500    2.500    1.875    8.750    4.000 
#    0.000    0.000    0.000    1.500    0.000    0.000 
#    0.000    0.000    0.000    0.000    0.000    0.000 
#
# Total GULP energy -179083.241644 kJ/mol
# GULP energy per Si atom -5596.351301 kJ/mol
# Density = 2.364845 g / cm^3
# Si number density = 23.702402 Si / 1000 Ang^3
#
#
#
# Elastic Constant Matrix: (Units=GPa)
#
#
# Indices 1 2 3 4 5 6 
#
# 1 120.4901 16.8734 20.3127 0.0000 13.5976 0.0000
# 2 16.8734 33.6528 5.4357 0.0000 4.1516 0.0000
# 3 20.3127 5.4357 32.3608 0.0000 23.2190 0.0000
# 4 0.0000 0.0000 0.0000 30.6787 0.0000 6.1753
# 5 13.5976 4.1516 23.2190 0.0000 47.7926 0.0000
# 6 0.0000 0.0000 0.0000 6.1753 0.0000 34.3963
#
#
#
# Elastic Compliance Matrix: (Units=1/GPa)
#
#
# Indices 1 2 3 4 5 6 
#
# 1 0.009788 -0.004027 -0.005711 0.000000 0.000340 0.000000
# 2 -0.004027 0.032203 -0.002604 0.000000 -0.000386 0.000000
# 3 -0.005711 -0.002604 0.051573 0.000000 -0.023205 0.000000
# 4 0.000000 0.000000 0.000000 0.033818 0.000000 -0.006071
# 5 0.000340 -0.000386 -0.023205 0.000000 0.032134 0.000000
# 6 0.000000 0.000000 0.000000 -0.006071 0.000000 0.030163
#
#
# Mechanical properties :
#
#
# Convention : Reuss Voigt Hill
#
# Bulk Modulus (GPa) = 14.51813 30.19413 22.35613
# Shear Modulus (GPa) = 21.06834 32.16566 26.61700
#
# Velocity S-wave (km/s) = 2.98463 3.68783 3.35470
# Velocity P-wave (km/s) = 4.24450 5.55877 4.94549
#
# Compressibility (1/GPa) = 0.06887940
#
# Stress axis : x y z
#
# Youngs Moduli (GPa) = 102.16762 31.05337 19.38989
#
# Poissons Ratio (x) = 0.12505 0.11074
# Poissons Ratio (y) = 0.41143 0.05049
# Poissons Ratio (z) = 0.58348 0.08087
#
# Static dielectric constant tensor:
#      x y z
#    x 1.959010 0.000000 -0.002900 
#    y 0.000000 1.890300 0.000000 
#    z -0.002900 0.000000 1.906140 
# 
# From -- ./inp_files/53481.got.cif
#   From: 2010.05.17/outbox.cif.g08.bks.cpg/sg14_27_cif.got.tgz:53481.got - 2010.06.03 17:49:19.
