data_PCOD9247239
_publ_section_title
;
Structure prediction by ZEFSAII (Michael W. Deem and Ramdas Pophale) SiO2 
 PCOD9247239
Probable space group: P 21/C
;
_chemical_formula_sum "Si O2"
_cell_formula_units_Z 20
_cell_length_a 10.042307
_cell_length_b 14.207641
_cell_length_c 11.595968
_cell_angle_alpha 90.000000
_cell_angle_beta 33.992503
_cell_angle_gamma 90.000000
_cell_volume 924.996028
_symmetry_space_group_name_H-M "P 21/C"
_symmetry_group_IT_number 14
_symmetry_cell_setting 'monoclinic'
loop_
_space_group_symop_operation_xyz
x,y,z
-x,1/2+y,1/2-z
-x,-y,-z
x,1/2-y,1/2+z
loop_
_atom_site_type_symbol
_atom_site_label
_atom_site_fract_x
_atom_site_fract_y
_atom_site_fract_z
Si Si1 0.448043 0.298610 0.810581
Si Si2 0.789863 0.352939 0.018491
Si Si3 0.465833 0.009427 0.161867
Si Si4 0.118701 0.124629 0.079234
Si Si5 0.594486 0.396510 0.921618
O O1 0.703789 0.244800 0.632876
O O2 0.437341 0.383860 0.727038
O O3 0.431025 0.343848 0.949099
O O4 0.244209 0.219973 0.947986
O O5 0.606294 0.356372 0.041518
O O6 0.036513 0.360445 0.772908
O O7 0.740122 0.439698 0.140112
O O8 0.500000 0.000000 0.000000
O O9 0.701043 0.962384 0.049922
O O10 0.874504 0.103839 0.188150
O O11 0.500000 0.500000 0.000000
#
# Coordination Sequence:
#
# PCOD9247239 Si02
#       5
#     4   4   4   4   4
#     4  11  22  41  68  95 131 174 218 285 327 389
#     4   9  23  43  60 101 128 166 236 262 330 407
#     4  11  24  41  66  97 139 173 214 274 340 408
#     4   9  24  44  64 103 124 176 227 271 343 380
#     4  10  21  46  68  91 132 171 232 276 318 400
#
# _framework density 21.621714999999998
#
# number of rings (size 3 to 8) (size 9 to 14) (size 15 to 20)
#    1.200    0.800    2.000    0.000    5.600    6.400 
#    3.600    0.000    0.000    0.000    0.000    0.000 
#    0.000    0.000    0.000    0.000    0.000    0.000 
#
# Total GULP energy -111412.184717 kJ/mol
# GULP energy per Si atom -5570.609236 kJ/mol
# Density = 2.157250 g / cm^3
# Si number density = 21.621715 Si / 1000 Ang^3
#
#
#
# Elastic Constant Matrix: (Units=GPa)
#
#
# Indices 1 2 3 4 5 6 
#
# 1 59.7146 12.1861 8.0142 0.0000 -8.8344 0.0000
# 2 12.1861 125.4879 60.7532 0.0000 -26.9171 0.0000
# 3 8.0142 60.7532 109.6601 0.0000 3.5509 0.0000
# 4 0.0000 0.0000 0.0000 37.5967 0.0000 6.8795
# 5 -8.8344 -26.9171 3.5509 0.0000 23.6106 0.0000
# 6 0.0000 0.0000 0.0000 6.8795 0.0000 27.1937
#
#
#
# Elastic Compliance Matrix: (Units=1/GPa)
#
#
# Indices 1 2 3 4 5 6 
#
# 1 0.018051 0.001100 -0.002199 0.000000 0.008339 0.000000
# 2 0.001100 0.017822 -0.010678 0.000000 0.022336 0.000000
# 3 -0.002199 -0.010678 0.015693 0.000000 -0.015356 0.000000
# 4 0.000000 0.000000 0.000000 0.027889 0.000000 -0.007055
# 5 0.008339 0.022336 -0.015356 0.000000 0.073247 0.000000
# 6 0.000000 0.000000 0.000000 -0.007055 0.000000 0.038558
#
#
# Mechanical properties :
#
#
# Convention : Reuss Voigt Hill
#
# Bulk Modulus (GPa) = 35.69695 50.75217 43.22456
# Shear Modulus (GPa) = 22.30648 31.94080 27.12364
#
# Velocity S-wave (km/s) = 3.21545 3.84768 3.54568
# Velocity P-wave (km/s) = 5.50737 6.57748 6.06607
#
# Compressibility (1/GPa) = 0.02801360
#
# Stress axis : x y z
#
# Youngs Moduli (GPa) = 55.39983 56.10888 63.72454
#
# Poissons Ratio (x) = -0.06174 0.14012
# Poissons Ratio (y) = -0.06096 0.68042
# Poissons Ratio (z) = 0.12182 0.59911
#
# Static dielectric constant tensor:
#      x y z
#    x 1.751550 0.000000 -0.018740 
#    y 0.000000 1.447310 0.000000 
#    z -0.018740 0.000000 1.834630 
# 
# From -- ./inp_files/29684.got.cif
#   From: 2010.05.17/outbox.cif.g08.bks.cpg/sg14_15_cif.got.tgz:29684.got - 2010.06.03 17:49:19.
