data_PCOD9247693
_publ_section_title
;
Structure prediction by ZEFSAII (Michael W. Deem and Ramdas Pophale) SiO2 
 PCOD9247693
Probable space group: P 21/C
;
_chemical_formula_sum "Si O2"
_cell_formula_units_Z 26
_cell_length_a 21.811271
_cell_length_b 8.272186
_cell_length_c 17.539346
_cell_angle_alpha 90.000000
_cell_angle_beta 158.101432
_cell_angle_gamma 90.000000
_cell_volume 1180.272436
_symmetry_space_group_name_H-M "P 21/C"
_symmetry_group_IT_number 14
_symmetry_cell_setting 'monoclinic'
loop_
_space_group_symop_operation_xyz
x,y,z
-x,1/2+y,1/2-z
-x,-y,-z
x,1/2-y,1/2+z
loop_
_atom_site_type_symbol
_atom_site_label
_atom_site_fract_x
_atom_site_fract_y
_atom_site_fract_z
Si Si1 0.183424 0.054392 0.736485
Si Si2 0.130147 0.408853 0.701199
Si Si3 0.761434 0.948150 0.435933
Si Si4 0.500000 0.000000 0.000000
Si Si5 0.719949 0.449720 0.486003
Si Si6 0.974079 0.275254 0.676809
Si Si7 0.609463 0.400207 0.910529
O O1 0.198046 0.247115 0.740332
O O2 0.338962 0.975080 0.873508
O O3 0.000000 0.000000 0.500000
O O4 0.199826 0.025610 0.846153
O O5 0.000000 0.500000 0.500000
O O6 0.039855 0.346768 0.673695
O O7 0.274443 0.531716 0.889696
O O8 0.885336 0.102165 0.566618
O O9 0.661530 0.997286 0.396165
O O10 0.876095 0.794747 0.589422
O O11 0.632391 0.940675 0.218826
O O12 0.838759 0.394414 0.556186
O O13 0.579073 0.565063 0.292428
O O14 0.642717 0.282815 0.427565
#
# Coordination Sequence:
#
# PCOD9247693 Si02
#       7
#     4   4   4   2   4   4   4
#     4  12  25  44  70  99 143 184 233 297 361 426
#     4  11  24  44  64  98 137 179 226 293 360 424
#     4  10  22  42  66  98 136 172 234 279 352 427
#     4  12  24  42  70 108 134 188 240 294 354 428
#     4  11  21  41  65  99 127 179 230 282 351 426
#     4  10  22  41  71  94 132 183 226 282 358 429
#     4  10  22  39  65  93 134 169 220 285 343 417
#
# _framework density 22.028814000000001
#
# number of rings (size 3 to 8) (size 9 to 14) (size 15 to 20)
#    0.000    1.231    1.538    4.615    2.154    3.692 
#    2.769    0.769    0.000    0.000    0.000    0.000 
#    0.000    0.000    0.000    0.000    0.000    0.000 
#
# Total GULP energy -144853.739943 kJ/mol
# GULP energy per Si atom -5571.297690 kJ/mol
# Density = 2.197867 g / cm^3
# Si number density = 22.028814 Si / 1000 Ang^3
#
#
#
# Elastic Constant Matrix: (Units=GPa)
#
#
# Indices 1 2 3 4 5 6 
#
# 1 74.8281 2.0424 48.5265 0.0000 20.5895 0.0000
# 2 2.0424 70.3522 32.8135 0.0000 12.7895 0.0000
# 3 48.5265 32.8135 188.5475 0.0000 0.5542 0.0000
# 4 0.0000 0.0000 0.0000 33.1312 0.0000 6.8478
# 5 20.5895 12.7895 0.5542 0.0000 46.5094 0.0000
# 6 0.0000 0.0000 0.0000 6.8478 0.0000 21.7205
#
#
#
# Elastic Compliance Matrix: (Units=1/GPa)
#
#
# Indices 1 2 3 4 5 6 
#
# 1 0.019607 0.003841 -0.005686 0.000000 -0.009668 0.000000
# 2 0.003841 0.017098 -0.003945 0.000000 -0.006355 0.000000
# 3 -0.005686 -0.003945 0.007443 0.000000 0.003514 0.000000
# 4 0.000000 0.000000 0.000000 0.032287 0.000000 -0.010179
# 5 -0.009668 -0.006355 0.003514 0.000000 0.027487 0.000000
# 6 0.000000 0.000000 0.000000 -0.010179 0.000000 0.049249
#
#
# Mechanical properties :
#
#
# Convention : Reuss Voigt Hill
#
# Bulk Modulus (GPa) = 30.70639 55.61027 43.15833
# Shear Modulus (GPa) = 28.47242 36.96192 32.71717
#
# Velocity S-wave (km/s) = 3.59905 4.10065 3.85801
# Velocity P-wave (km/s) = 5.58930 6.90794 6.28331
#
# Compressibility (1/GPa) = 0.03256651
#
# Stress axis : x y z
#
# Youngs Moduli (GPa) = 51.00220 58.48572 134.34584
#
# Poissons Ratio (x) = -0.22462 0.76392
# Poissons Ratio (y) = -0.19588 0.53005
# Poissons Ratio (z) = 0.29001 0.23075
#
# Static dielectric constant tensor:
#      x y z
#    x 1.805880 0.000000 0.024440 
#    y 0.000000 1.802280 0.000000 
#    z 0.024440 0.000000 1.814700 
# 
# From -- ./inp_files/60216.got.cif
#   From: 2010.05.17/outbox.cif.g08.bks.cpg/sg14_31_cif.got.tgz:60216.got - 2010.06.03 17:49:19.
