data_PCOD9247129
_publ_section_title
;
Structure prediction by ZEFSAII (Michael W. Deem and Ramdas Pophale) SiO2 
 PCOD9247129
Probable space group: P 21/C
;
_chemical_formula_sum "Si O2"
_cell_formula_units_Z 32
_cell_length_a 14.742630
_cell_length_b 12.049467
_cell_length_c 18.951477
_cell_angle_alpha 90.000000
_cell_angle_beta 157.344645
_cell_angle_gamma 90.000000
_cell_volume 1296.753947
_symmetry_space_group_name_H-M "P 21/C"
_symmetry_group_IT_number 14
_symmetry_cell_setting 'monoclinic'
loop_
_space_group_symop_operation_xyz
x,y,z
-x,1/2+y,1/2-z
-x,-y,-z
x,1/2-y,1/2+z
loop_
_atom_site_type_symbol
_atom_site_label
_atom_site_fract_x
_atom_site_fract_y
_atom_site_fract_z
Si Si1 0.781051 0.109977 0.321738
Si Si2 0.839732 0.752729 0.322459
Si Si3 0.629526 0.707713 0.320645
Si Si4 0.041580 0.069512 0.207512
Si Si5 0.506690 0.965385 0.224096
Si Si6 0.695688 0.622140 0.587294
Si Si7 0.930623 0.337313 0.260811
Si Si8 0.140965 0.889548 0.779419
O O1 0.913886 0.094332 0.342400
O O2 0.927208 0.190384 0.477030
O O3 0.699304 0.997589 0.302400
O O4 0.530779 0.163925 0.117787
O O5 0.690630 0.713550 0.282076
O O6 0.721971 0.838793 0.185037
O O7 0.894212 0.654023 0.306942
O O8 0.544228 0.836197 0.276790
O O9 0.492565 0.587929 0.234288
O O10 0.866963 0.692031 0.537039
O O11 0.057078 0.104102 0.301236
O O12 0.178608 0.954271 0.298450
O O13 0.764539 0.041618 0.996584
O O14 0.934545 0.650719 0.716642
O O15 0.687491 0.489921 0.582440
O O16 0.761688 0.233300 0.139759
#
# Coordination Sequence:
#
# PCOD9247129 Si02
#       8
#     4   4   4   4   4   4   4   4
#     4  12  24  42  68 105 137 185 236 289 361 422
#     4  12  26  43  74 106 141 189 241 296 360 439
#     4  11  24  45  70 104 143 186 244 293 361 433
#     4  10  23  42  67 101 141 187 236 292 370 424
#     4  11  24  45  69 106 145 189 238 301 360 425
#     4  11  24  43  67  99 141 180 236 302 342 427
#     4  10  21  44  66  97 137 192 235 290 363 430
#     4  11  21  41  67  96 136 187 231 294 353 421
#
# _framework density 24.677002000000002
#
# number of rings (size 3 to 8) (size 9 to 14) (size 15 to 20)
#    0.000    1.000    6.250    1.875    3.500    3.000 
#    2.250    0.000    0.000    1.500    0.000    0.000 
#    0.000    0.000    0.000    0.000    0.000    0.000 
#
# Total GULP energy -178507.239551 kJ/mol
# GULP energy per Si atom -5578.351236 kJ/mol
# Density = 2.462084 g / cm^3
# Si number density = 24.677002 Si / 1000 Ang^3
#
#
#
# Elastic Constant Matrix: (Units=GPa)
#
#
# Indices 1 2 3 4 5 6 
#
# 1 136.2341 89.1072 50.2050 0.0000 -31.9681 0.0000
# 2 89.1072 230.1683 41.3455 0.0000 -6.8287 0.0000
# 3 50.2050 41.3455 60.1753 0.0000 -12.4768 0.0000
# 4 0.0000 0.0000 0.0000 36.2023 0.0000 -3.6157
# 5 -31.9681 -6.8287 -12.4768 0.0000 21.3122 0.0000
# 6 0.0000 0.0000 0.0000 -3.6157 0.0000 43.9577
#
#
#
# Elastic Compliance Matrix: (Units=1/GPa)
#
#
# Indices 1 2 3 4 5 6 
#
# 1 0.018648 -0.005237 -0.007407 0.000000 0.021957 0.000000
# 2 -0.005237 0.006431 -0.001424 0.000000 -0.006629 0.000000
# 3 -0.007407 -0.001424 0.024331 0.000000 0.002677 0.000000
# 4 0.000000 0.000000 0.000000 0.027851 0.000000 0.002291
# 5 0.021957 -0.006629 0.002677 0.000000 0.079301 0.000000
# 6 0.000000 0.000000 0.000000 0.002291 0.000000 0.022938
#
#
# Mechanical properties :
#
#
# Convention : Reuss Voigt Hill
#
# Bulk Modulus (GPa) = 47.00502 87.54367 67.27435
# Shear Modulus (GPa) = 23.28524 36.68911 29.98718
#
# Velocity S-wave (km/s) = 3.07514 3.86005 3.48974
# Velocity P-wave (km/s) = 5.63011 7.44443 6.59991
#
# Compressibility (1/GPa) = 0.02127432
#
# Stress axis : x y z
#
# Youngs Moduli (GPa) = 53.62482 155.48902 41.09941
#
# Poissons Ratio (x) = 0.81436 0.30443
# Poissons Ratio (y) = 0.28086 0.05851
# Poissons Ratio (z) = 0.39720 0.22136
#
# Static dielectric constant tensor:
#      x y z
#    x 2.007140 0.000000 0.011760 
#    y 0.000000 2.057330 0.000000 
#    z 0.011760 0.000000 1.954890 
# 
# From -- ./inp_files/59507.got.cif
#   From: 2010.05.17/outbox.cif.g08.bks.cpg/sg14_30_cif.got.tgz:59507.got - 2010.06.03 17:49:19.
