data_PCOD9247627
_publ_section_title
;
Structure prediction by ZEFSAII (Michael W. Deem and Ramdas Pophale) SiO2 
 PCOD9247627
Probable space group: P 21/C
;
_chemical_formula_sum "Si O2"
_cell_formula_units_Z 32
_cell_length_a 26.161919
_cell_length_b 8.164333
_cell_length_c 16.219448
_cell_angle_alpha 90.000000
_cell_angle_beta 153.866517
_cell_angle_gamma 90.000000
_cell_volume 1525.937297
_symmetry_space_group_name_H-M "P 21/C"
_symmetry_group_IT_number 14
_symmetry_cell_setting 'monoclinic'
loop_
_space_group_symop_operation_xyz
x,y,z
-x,1/2+y,1/2-z
-x,-y,-z
x,1/2-y,1/2+z
loop_
_atom_site_type_symbol
_atom_site_label
_atom_site_fract_x
_atom_site_fract_y
_atom_site_fract_z
Si Si1 0.151236 0.056307 0.062063
Si Si2 0.801255 0.577776 0.189594
Si Si3 0.660450 0.821140 0.884702
Si Si4 0.287630 0.127309 0.700926
Si Si5 0.734064 0.347469 0.401242
Si Si6 0.495820 0.667609 0.373812
Si Si7 0.106752 0.928082 0.344952
Si Si8 0.556523 0.008192 0.367339
O O1 0.123696 0.068141 0.119354
O O2 0.221993 0.220336 0.146704
O O3 0.231833 0.912148 0.140672
O O4 0.029361 0.056816 0.837379
O O5 0.863303 0.522484 0.196262
O O6 0.736137 0.748164 0.069873
O O7 0.693293 0.462561 0.060512
O O8 0.669732 0.689643 0.826054
O O9 0.710377 0.990930 0.921233
O O10 0.527320 0.861799 0.711123
O O11 0.188403 0.995235 0.537021
O O12 0.402281 0.101829 0.920507
O O13 0.621745 0.227709 0.249255
O O14 0.846189 0.254471 0.598005
O O15 0.533731 0.836085 0.380841
O O16 0.476494 0.530376 0.276316
#
# Coordination Sequence:
#
# PCOD9247627 Si02
#       8
#     4   4   4   4   4   4   4   4
#     4  11  22  41  64  86 123 167 212 250 307 363
#     4  11  21  39  60  87 119 169 203 249 311 361
#     4   9  21  37  59  86 124 157 197 252 305 373
#     4  10  22  39  62  86 122 167 201 250 319 357
#     4  10  23  39  61  94 121 157 209 259 299 369
#     4  11  22  39  62  93 127 161 204 255 314 370
#     4  11  23  42  60  90 124 162 211 261 298 362
#     4  11  19  36  59  88 127 159 197 250 311 366
#
# _framework density 20.970718000000002
#
# number of rings (size 3 to 8) (size 9 to 14) (size 15 to 20)
#    0.000    1.500    3.750    1.125    1.750    2.000 
#    2.250    1.875    0.000    0.000    0.000    0.000 
#    0.000    0.000    0.000    0.000    0.000    0.000 
#
# Total GULP energy -178381.357725 kJ/mol
# GULP energy per Si atom -5574.417429 kJ/mol
# Density = 2.092299 g / cm^3
# Si number density = 20.970718 Si / 1000 Ang^3
#
#
#
# Elastic Constant Matrix: (Units=GPa)
#
#
# Indices 1 2 3 4 5 6 
#
# 1 58.1051 2.4854 21.2184 0.0000 -2.4184 0.0000
# 2 2.4854 18.1483 13.1795 0.0000 -3.7812 0.0000
# 3 21.2184 13.1795 123.0457 0.0000 -7.2233 0.0000
# 4 0.0000 0.0000 0.0000 19.1978 0.0000 2.3324
# 5 -2.4184 -3.7812 -7.2233 0.0000 32.4385 0.0000
# 6 0.0000 0.0000 0.0000 2.3324 0.0000 16.4513
#
#
#
# Elastic Compliance Matrix: (Units=1/GPa)
#
#
# Indices 1 2 3 4 5 6 
#
# 1 0.018382 -0.000115 -0.003119 0.000000 0.000663 0.000000
# 2 -0.000115 0.060776 -0.006155 0.000000 0.005705 0.000000
# 3 -0.003119 -0.006155 0.009391 0.000000 0.001141 0.000000
# 4 0.000000 0.000000 0.000000 0.053002 0.000000 -0.007514
# 5 0.000663 0.005705 0.001141 0.000000 0.031796 0.000000
# 6 0.000000 0.000000 0.000000 -0.007514 0.000000 0.061851
#
#
# Mechanical properties :
#
#
# Convention : Reuss Voigt Hill
#
# Bulk Modulus (GPa) = 14.33242 30.34064 22.33653
# Shear Modulus (GPa) = 18.03550 24.44524 21.24037
#
# Velocity S-wave (km/s) = 2.93581 3.41792 3.18600
# Velocity P-wave (km/s) = 4.28268 5.48413 4.92021
#
# Compressibility (1/GPa) = 0.06977190
#
# Stress axis : x y z
#
# Youngs Moduli (GPa) = 54.40250 16.45396 106.48370
#
# Poissons Ratio (x) = 0.00188 0.33208
# Poissons Ratio (y) = 0.00623 0.65541
# Poissons Ratio (z) = 0.16966 0.10127
#
# Static dielectric constant tensor:
#      x y z
#    x 1.808310 0.000000 -0.016790 
#    y 0.000000 1.785120 0.000000 
#    z -0.016790 0.000000 1.778970 
# 
# From -- ./inp_files/51403.got.cif
#   From: 2010.05.17/outbox.cif.g08.bks.cpg/sg14_26_cif.got.tgz:51403.got - 2010.06.03 17:49:19.
