data_PCOD9247225
_publ_section_title
;
Structure prediction by ZEFSAII (Michael W. Deem and Ramdas Pophale) SiO2 
 PCOD9247225
Probable space group: P 21/C
;
_chemical_formula_sum "Si O2"
_cell_formula_units_Z 24
_cell_length_a 16.025378
_cell_length_b 7.652831
_cell_length_c 14.436761
_cell_angle_alpha 90.000000
_cell_angle_beta 145.538508
_cell_angle_gamma 90.000000
_cell_volume 1001.851140
_symmetry_space_group_name_H-M "P 21/C"
_symmetry_group_IT_number 14
_symmetry_cell_setting 'monoclinic'
loop_
_space_group_symop_operation_xyz
x,y,z
-x,1/2+y,1/2-z
-x,-y,-z
x,1/2-y,1/2+z
loop_
_atom_site_type_symbol
_atom_site_label
_atom_site_fract_x
_atom_site_fract_y
_atom_site_fract_z
Si Si1 0.945945 0.453176 0.551224
Si Si2 0.970484 0.954715 0.365496
Si Si3 0.836389 0.062381 0.618342
Si Si4 0.675976 0.522570 0.668708
Si Si5 0.331996 0.736840 0.682893
Si Si6 0.392156 0.123616 0.459586
O O1 0.770088 0.430890 0.391925
O O2 0.000000 0.500000 0.500000
O O3 0.003161 0.254132 0.625796
O O4 0.015927 0.591506 0.685833
O O5 0.797981 0.011011 0.199568
O O6 0.085856 0.033826 0.398088
O O7 0.000000 0.000000 0.500000
O O8 0.722457 0.197014 0.466559
O O9 0.735713 0.969996 0.602137
O O10 0.500000 0.500000 0.500000
O O11 0.711723 0.388997 0.783663
O O12 0.679409 0.732623 0.674190
O O13 0.501695 0.703861 0.862372
O O14 0.500000 0.000000 0.500000
#
# Coordination Sequence:
#
# PCOD9247225 Si02
#       6
#     4   4   4   4   4   4
#     4  11  23  43  68  99 135 180 241 294 353 423
#     4  11  22  45  69  96 140 182 231 292 358 426
#     4  11  24  42  66 103 138 180 236 287 358 431
#     4  10  21  45  72  98 140 182 229 288 363 425
#     4  10  24  46  66 105 141 185 238 297 370 434
#     4  11  24  46  72 104 141 190 244 295 360 431
#
# _framework density 23.955653999999999
#
# number of rings (size 3 to 8) (size 9 to 14) (size 15 to 20)
#    0.000    1.333    5.000    1.000    0.000    4.000 
#   18.000    0.000    0.000    0.000    0.000    0.000 
#    0.000    0.000    0.000    0.000    0.000    0.000 
#
# Total GULP energy -133620.523530 kJ/mol
# GULP energy per Si atom -5567.521814 kJ/mol
# Density = 2.390113 g / cm^3
# Si number density = 23.955654 Si / 1000 Ang^3
#
#
#
# Elastic Constant Matrix: (Units=GPa)
#
#
# Indices 1 2 3 4 5 6 
#
# 1 113.1026 16.3554 2.1165 0.0000 16.4851 0.0000
# 2 16.3554 70.4838 5.8697 0.0000 -5.7399 0.0000
# 3 2.1165 5.8697 100.7877 0.0000 -0.9877 0.0000
# 4 0.0000 0.0000 0.0000 40.5175 0.0000 -5.3748
# 5 16.4851 -5.7399 -0.9877 0.0000 48.0458 0.0000
# 6 0.0000 0.0000 0.0000 -5.3748 0.0000 31.2719
#
#
#
# Elastic Compliance Matrix: (Units=1/GPa)
#
#
# Indices 1 2 3 4 5 6 
#
# 1 0.009744 -0.002551 -0.000092 0.000000 -0.003650 0.000000
# 2 -0.002551 0.015062 -0.000798 0.000000 0.002658 0.000000
# 3 -0.000092 -0.000798 0.009972 0.000000 0.000141 0.000000
# 4 0.000000 0.000000 0.000000 0.025257 0.000000 0.004341
# 5 -0.003650 0.002658 0.000141 0.000000 0.022386 0.000000
# 6 0.000000 0.000000 0.000000 0.004341 0.000000 0.032724
#
#
# Mechanical properties :
#
#
# Convention : Reuss Voigt Hill
#
# Bulk Modulus (GPa) = 35.84494 37.00635 36.42564
# Shear Modulus (GPa) = 38.07376 41.30255 39.68816
#
# Velocity S-wave (km/s) = 3.99098 4.15676 4.07472
# Velocity P-wave (km/s) = 6.01937 6.20642 6.11361
#
# Compressibility (1/GPa) = 0.02789794
#
# Stress axis : x y z
#
# Youngs Moduli (GPa) = 102.62645 66.39045 100.28468
#
# Poissons Ratio (x) = 0.16934 0.00921
# Poissons Ratio (y) = 0.26176 0.07999
# Poissons Ratio (z) = 0.00943 0.05295
#
# Static dielectric constant tensor:
#      x y z
#    x 1.936940 0.000000 -0.041380 
#    y 0.000000 2.083150 0.000000 
#    z -0.041380 0.000000 2.076580 
# 
# From -- ./inp_files/46606.got.cif
#   From: 2010.05.17/outbox.cif.g08.bks.cpg/sg14_24_cif.got.tgz:46606.got - 2010.06.03 17:49:19.
