data_PCOD9247674
_publ_section_title
;
Structure prediction by ZEFSAII (Michael W. Deem and Ramdas Pophale) SiO2 
 PCOD9247674
Probable space group: P 21/C
;
_chemical_formula_sum "Si O2"
_cell_formula_units_Z 20
_cell_length_a 8.734762
_cell_length_b 17.834034
_cell_length_c 5.673686
_cell_angle_alpha 90.000000
_cell_angle_beta 87.155255
_cell_angle_gamma 90.000000
_cell_volume 882.735200
_symmetry_space_group_name_H-M "P 21/C"
_symmetry_group_IT_number 14
_symmetry_cell_setting 'monoclinic'
loop_
_space_group_symop_operation_xyz
x,y,z
-x,1/2+y,1/2-z
-x,-y,-z
x,1/2-y,1/2+z
loop_
_atom_site_type_symbol
_atom_site_label
_atom_site_fract_x
_atom_site_fract_y
_atom_site_fract_z
Si Si1 0.683172 0.766147 0.783047
Si Si2 0.379066 0.527956 0.199743
Si Si3 0.674267 0.930703 0.910695
Si Si4 0.132532 0.552625 0.887766
Si Si5 0.025643 0.788134 0.239042
O O1 0.602140 0.754852 0.536613
O O2 0.731645 0.852590 0.808712
O O3 0.840109 0.718957 0.757855
O O4 0.309901 0.452361 0.318566
O O5 0.490583 0.569258 0.374820
O O6 0.500000 0.500000 0.000000
O O7 0.244886 0.575107 0.094525
O O8 0.763908 0.998420 0.780736
O O9 0.074374 0.625554 0.758524
O O10 0.000000 0.500000 0.000000
O O11 0.074872 0.746982 0.481909
#
# Coordination Sequence:
#
# PCOD9247674 Si02
#       5
#     4   4   4   4   4
#     4  10  22  39  64  95 132 174 222 272 332 400
#     4   9  22  41  66  92 128 165 231 276 330 390
#     4  10  22  42  69  93 130 179 228 277 327 402
#     4  11  23  38  68 100 130 174 222 277 337 400
#     4  10  23  40  58  93 140 172 209 273 337 402
#
# _framework density 22.656851
#
# number of rings (size 3 to 8) (size 9 to 14) (size 15 to 20)
#    0.000    2.000    0.000    2.400   14.000    0.800 
#    0.000    2.000    0.000    0.000    0.000    0.000 
#    0.000    0.000    0.000    0.000    0.000    0.000 
#
# Total GULP energy -111551.206429 kJ/mol
# GULP energy per Si atom -5577.560321 kJ/mol
# Density = 2.260528 g / cm^3
# Si number density = 22.656851 Si / 1000 Ang^3
#
#
#
# Elastic Constant Matrix: (Units=GPa)
#
#
# Indices 1 2 3 4 5 6 
#
# 1 70.5705 19.0700 5.0742 0.0000 -0.5302 0.0000
# 2 19.0700 111.6972 28.6469 0.0000 -3.5916 0.0000
# 3 5.0742 28.6469 141.7511 0.0000 -0.3710 0.0000
# 4 0.0000 0.0000 0.0000 32.9756 0.0000 8.3057
# 5 -0.5302 -3.5916 -0.3710 0.0000 20.3344 0.0000
# 6 0.0000 0.0000 0.0000 8.3057 0.0000 9.2227
#
#
#
# Elastic Compliance Matrix: (Units=1/GPa)
#
#
# Indices 1 2 3 4 5 6 
#
# 1 0.014856 -0.002533 -0.000020 0.000000 -0.000060 0.000000
# 2 -0.002533 0.009929 -0.001912 0.000000 0.001653 0.000000
# 3 -0.000020 -0.001912 0.007441 0.000000 -0.000202 0.000000
# 4 0.000000 0.000000 0.000000 0.039222 0.000000 -0.035322
# 5 -0.000060 0.001653 -0.000202 0.000000 0.049464 0.000000
# 6 0.000000 0.000000 0.000000 -0.035322 0.000000 0.140238
#
#
# Mechanical properties :
#
#
# Convention : Reuss Voigt Hill
#
# Bulk Modulus (GPa) = 42.92547 47.73344 45.32945
# Shear Modulus (GPa) = 17.99569 30.58840 24.29205
#
# Velocity S-wave (km/s) = 2.82134 3.67832 3.27796
# Velocity P-wave (km/s) = 5.44062 6.25730 5.86319
#
# Compressibility (1/GPa) = 0.02329619
#
# Stress axis : x y z
#
# Youngs Moduli (GPa) = 67.31414 100.71872 134.38857
#
# Poissons Ratio (x) = 0.25513 0.00269
# Poissons Ratio (y) = 0.17051 0.25688
# Poissons Ratio (z) = 0.00135 0.19252
#
# Static dielectric constant tensor:
#      x y z
#    x 1.850270 0.000000 0.090570 
#    y 0.000000 1.860790 0.000000 
#    z 0.090570 0.000000 2.208850 
# 
# From -- ./inp_files/1127.got.cif
#   From: 2010.05.17/outbox.cif.g08.bks.cpg/sg14_1_cif.got.tgz:1127.got - 2010.06.03 17:49:19.
