data_PCOD9247476
_publ_section_title
;
Structure prediction by ZEFSAII (Michael W. Deem and Ramdas Pophale) SiO2 
 PCOD9247476
Probable space group: P 21/C
;
_chemical_formula_sum "Si O2"
_cell_formula_units_Z 24
_cell_length_a 11.602297
_cell_length_b 12.029749
_cell_length_c 12.234596
_cell_angle_alpha 90.000000
_cell_angle_beta 146.428619
_cell_angle_gamma 90.000000
_cell_volume 944.269626
_symmetry_space_group_name_H-M "P 21/C"
_symmetry_group_IT_number 14
_symmetry_cell_setting 'monoclinic'
loop_
_space_group_symop_operation_xyz
x,y,z
-x,1/2+y,1/2-z
-x,-y,-z
x,1/2-y,1/2+z
loop_
_atom_site_type_symbol
_atom_site_label
_atom_site_fract_x
_atom_site_fract_y
_atom_site_fract_z
Si Si1 0.806025 0.518028 0.669930
Si Si2 0.622986 0.448344 0.997060
Si Si3 0.112494 0.156529 0.369321
Si Si4 0.962425 0.282309 0.037263
Si Si5 0.013906 0.402911 0.420087
Si Si6 0.481186 0.159040 0.169293
O O1 0.571839 0.565458 0.464930
O O2 0.910509 0.397754 0.774045
O O3 0.919312 0.603392 0.841722
O O4 0.871126 0.546973 0.594179
O O5 0.751582 0.545377 0.040143
O O6 0.792408 0.372343 0.189901
O O7 0.500000 0.500000 0.000000
O O8 0.491819 0.389773 0.800731
O O9 0.304369 0.245659 0.530698
O O10 0.002359 0.205236 0.174635
O O11 0.066984 0.211537 0.022845
O O12 0.714730 0.297436 0.832388
O O13 0.000000 0.500000 0.500000
#
# Coordination Sequence:
#
# PCOD9247476 Si02
#       6
#     4   4   4   4   4   4
#     4  10  22  40  58  96 132 172 219 266 330 386
#     4  11  21  37  64 103 128 165 222 277 326 387
#     4  10  22  38  61  92 133 173 205 276 329 386
#     4  11  21  38  62  97 132 172 216 268 335 390
#     4  11  19  37  65  95 129 164 213 277 326 385
#     4  11  23  37  62  99 136 170 217 271 333 397
#
# _framework density 25.416467000000001
#
# number of rings (size 3 to 8) (size 9 to 14) (size 15 to 20)
#    0.000    1.333    6.667    2.000    2.333    0.000 
#    0.000    0.000    0.000    5.000    0.000    0.000 
#    0.000    0.000    0.000    0.000    0.000    0.000 
#
# Total GULP energy -133812.563202 kJ/mol
# GULP energy per Si atom -5575.523467 kJ/mol
# Density = 2.535862 g / cm^3
# Si number density = 25.416467 Si / 1000 Ang^3
#
#
#
# Elastic Constant Matrix: (Units=GPa)
#
#
# Indices 1 2 3 4 5 6 
#
# 1 61.8568 2.0831 33.3451 0.0000 -8.4515 0.0000
# 2 2.0831 112.4216 55.5311 0.0000 -19.0973 0.0000
# 3 33.3451 55.5311 180.0584 0.0000 3.7741 0.0000
# 4 0.0000 0.0000 0.0000 51.5277 0.0000 -2.1457
# 5 -8.4515 -19.0973 3.7741 0.0000 27.2537 0.0000
# 6 0.0000 0.0000 0.0000 -2.1457 0.0000 36.4569
#
#
#
# Elastic Compliance Matrix: (Units=1/GPa)
#
#
# Indices 1 2 3 4 5 6 
#
# 1 0.020086 0.003763 -0.005081 0.000000 0.009569 0.000000
# 2 0.003763 0.013176 -0.004993 0.000000 0.011091 0.000000
# 3 -0.005081 -0.004993 0.008165 0.000000 -0.006205 0.000000
# 4 0.000000 0.000000 0.000000 0.019455 0.000000 0.001145
# 5 0.009569 0.011091 -0.006205 0.000000 0.048290 0.000000
# 6 0.000000 0.000000 0.000000 0.001145 0.000000 0.027497
#
#
# Mechanical properties :
#
#
# Convention : Reuss Voigt Hill
#
# Bulk Modulus (GPa) = 34.71613 59.58393 47.15003
# Shear Modulus (GPa) = 31.46806 40.60616 36.03711
#
# Velocity S-wave (km/s) = 3.52248 4.00138 3.76954
# Velocity P-wave (km/s) = 5.49840 6.69641 6.12676
#
# Compressibility (1/GPa) = 0.02880505
#
# Stress axis : x y z
#
# Youngs Moduli (GPa) = 49.78576 75.89797 122.48078
#
# Poissons Ratio (x) = -0.28561 0.62231
# Poissons Ratio (y) = -0.18735 0.61152
# Poissons Ratio (z) = 0.25296 0.37894
#
# Static dielectric constant tensor:
#      x y z
#    x 2.116150 0.000000 0.058390 
#    y 0.000000 2.062610 0.000000 
#    z 0.058390 0.000000 2.088360 
# 
# From -- ./inp_files/47020.got.cif
#   From: 2010.05.17/outbox.cif.g08.bks.cpg/sg14_24_cif.got.tgz:47020.got - 2010.06.03 17:49:19.
