data_PCOD9247849
_publ_section_title
;
Structure prediction by ZEFSAII (Michael W. Deem and Ramdas Pophale) SiO2 
 PCOD9247849
Probable space group: P 21/C
;
_chemical_formula_sum "Si O2"
_cell_formula_units_Z 30
_cell_length_a 13.812976
_cell_length_b 5.088334
_cell_length_c 17.657185
_cell_angle_alpha 90.000000
_cell_angle_beta 116.235702
_cell_angle_gamma 90.000000
_cell_volume 1113.188187
_symmetry_space_group_name_H-M "P 21/C"
_symmetry_group_IT_number 14
_symmetry_cell_setting 'monoclinic'
loop_
_space_group_symop_operation_xyz
x,y,z
-x,1/2+y,1/2-z
-x,-y,-z
x,1/2-y,1/2+z
loop_
_atom_site_type_symbol
_atom_site_label
_atom_site_fract_x
_atom_site_fract_y
_atom_site_fract_z
Si Si1 0.834853 0.618288 0.489909
Si Si2 0.711313 0.656737 0.121652
Si Si3 0.059191 0.801155 0.100004
Si Si4 0.500000 0.000000 0.000000
Si Si5 0.056477 0.190816 0.237030
Si Si6 0.727827 0.007970 0.340681
Si Si7 0.317852 0.712022 0.016345
Si Si8 0.394895 0.644996 0.347078
O O1 0.900894 0.389964 0.468471
O O2 0.763367 0.750221 0.399093
O O3 0.765789 0.451695 0.525498
O O4 0.935923 0.796238 0.551724
O O5 0.822101 0.750460 0.195948
O O6 0.627086 0.901527 0.098086
O O7 0.670991 0.409065 0.159049
O O8 0.729249 0.537410 0.044950
O O9 0.055402 0.047595 0.155864
O O10 0.159657 0.614687 0.156534
O O11 0.570485 0.241731 0.986042
O O12 0.514616 0.824031 0.918406
O O13 0.010535 0.956421 0.274902
O O14 0.640328 0.017749 0.243482
O O15 0.679550 0.178651 0.392973
#
# Coordination Sequence:
#
# PCOD9247849 Si02
#       8
#     4   4   4   2   4   4   4   4
#     4  10  22  41  67 100 146 191 242 295 362 443
#     4  11  24  46  70 101 146 195 236 311 367 439
#     4  10  22  40  63  99 145 195 239 292 357 442
#     4  10  26  54  74 108 142 196 240 324 380 442
#     4  12  25  37  64 100 141 190 250 291 356 435
#     4  11  23  42  71 107 142 198 239 310 364 448
#     4  10  25  44  72 106 142 192 250 307 377 448
#     4  11  25  47  77  99 145 190 253 306 382 439
#
# _framework density 26.949622999999999
#
# number of rings (size 3 to 8) (size 9 to 14) (size 15 to 20)
#    0.000    1.333    1.333    2.800    9.333    2.133 
#    2.400    0.000    0.000    0.000    0.000    0.000 
#    0.000    0.000    0.000    0.000    0.000    0.000 
#
# Total GULP energy -167547.599733 kJ/mol
# GULP energy per Si atom -5584.919991 kJ/mol
# Density = 2.688828 g / cm^3
# Si number density = 26.949623 Si / 1000 Ang^3
#
#
#
# Elastic Constant Matrix: (Units=GPa)
#
#
# Indices 1 2 3 4 5 6 
#
# 1 103.8901 25.3999 25.5446 0.0000 0.4900 0.0000
# 2 25.3999 131.4013 31.5453 0.0000 8.7943 0.0000
# 3 25.5446 31.5453 186.4690 0.0000 5.0261 0.0000
# 4 0.0000 0.0000 0.0000 50.8423 0.0000 -4.3372
# 5 0.4900 8.7943 5.0261 0.0000 38.5358 0.0000
# 6 0.0000 0.0000 0.0000 -4.3372 0.0000 45.2855
#
#
#
# Elastic Compliance Matrix: (Units=1/GPa)
#
#
# Indices 1 2 3 4 5 6 
#
# 1 0.010330 -0.001753 -0.001130 0.000000 0.000416 0.000000
# 2 -0.001753 0.008335 -0.001123 0.000000 -0.001733 0.000000
# 3 -0.001130 -0.001123 0.005720 0.000000 -0.000475 0.000000
# 4 0.000000 0.000000 0.000000 0.019831 0.000000 0.001899
# 5 0.000416 -0.001733 -0.000475 0.000000 0.026402 0.000000
# 6 0.000000 0.000000 0.000000 0.001899 0.000000 0.022264
#
#
# Mechanical properties :
#
#
# Convention : Reuss Voigt Hill
#
# Bulk Modulus (GPa) = 61.07691 65.19333 63.13512
# Shear Modulus (GPa) = 47.01359 49.55078 48.28218
#
# Velocity S-wave (km/s) = 4.18125 4.29259 4.23729
# Velocity P-wave (km/s) = 6.78403 6.98655 6.88603
#
# Compressibility (1/GPa) = 0.01637280
#
# Stress axis : x y z
#
# Youngs Moduli (GPa) = 96.80482 119.97835 174.81322
#
# Poissons Ratio (x) = 0.21038 0.19749
# Poissons Ratio (y) = 0.16974 0.19633
# Poissons Ratio (z) = 0.10936 0.13475
#
# Static dielectric constant tensor:
#      x y z
#    x 2.240290 0.000000 0.033350 
#    y 0.000000 2.219830 0.000000 
#    z 0.033350 0.000000 2.213280 
# 
# From -- ./inp_files/58623.got.cif
#   From: 2010.05.17/outbox.cif.g08.bks.cpg/sg14_30_cif.got.tgz:58623.got - 2010.06.03 17:49:19.
