data_PCOD9247237
_publ_section_title
;
Structure prediction by ZEFSAII (Michael W. Deem and Ramdas Pophale) SiO2 
 PCOD9247237
Probable space group: P 21/C
;
_chemical_formula_sum "Si O2"
_cell_formula_units_Z 20
_cell_length_a 5.230703
_cell_length_b 26.580444
_cell_length_c 5.291288
_cell_angle_alpha 90.000000
_cell_angle_beta 88.815489
_cell_angle_gamma 90.000000
_cell_volume 735.513889
_symmetry_space_group_name_H-M "P 21/C"
_symmetry_group_IT_number 14
_symmetry_cell_setting 'monoclinic'
loop_
_space_group_symop_operation_xyz
x,y,z
-x,1/2+y,1/2-z
-x,-y,-z
x,1/2-y,1/2+z
loop_
_atom_site_type_symbol
_atom_site_label
_atom_site_fract_x
_atom_site_fract_y
_atom_site_fract_z
Si Si1 0.943952 0.324586 0.084294
Si Si2 0.730785 0.736351 0.232859
Si Si3 0.546588 0.115345 0.315123
Si Si4 0.236876 0.093827 0.832390
Si Si5 0.243322 0.510004 0.167499
O O1 0.164176 0.316145 0.866560
O O2 0.698461 0.336565 0.922139
O O3 0.019462 0.273482 0.232106
O O4 0.992032 0.371292 0.272119
O O5 0.590709 0.737765 0.500552
O O6 0.381447 0.098343 0.560925
O O7 0.745965 0.068708 0.263074
O O8 0.399567 0.117045 0.054119
O O9 0.221655 0.033817 0.879485
O O10 0.500000 0.500000 0.000000
O O11 0.000000 0.500000 0.000000
#
# Coordination Sequence:
#
# PCOD9247237 Si02
#       5
#     4   4   4   4   4
#     4  10  22  43  64  88 134 167 218 274 346 386
#     4   8  20  36  64  86 122 168 212 274 336 386
#     4  11  25  40  66  97 129 172 224 269 339 407
#     4  11  25  40  66  97 129 172 224 269 339 407
#     4  10  21  46  66 105 139 183 224 288 340 411
#
# _framework density 27.191876000000001
#
# number of rings (size 3 to 8) (size 9 to 14) (size 15 to 20)
#    1.200    0.800    2.000    0.600    5.600    0.000 
#    0.000   10.000    0.000    0.000    0.000    0.000 
#    0.000    0.000    0.000    0.000    0.000    0.000 
#
# Total GULP energy -111629.745745 kJ/mol
# GULP energy per Si atom -5581.487287 kJ/mol
# Density = 2.712999 g / cm^3
# Si number density = 27.191876 Si / 1000 Ang^3
#
#
#
# Elastic Constant Matrix: (Units=GPa)
#
#
# Indices 1 2 3 4 5 6 
#
# 1 89.4683 6.3262 35.0150 0.0000 22.8208 0.0000
# 2 6.3262 135.4550 36.9727 0.0000 0.5297 0.0000
# 3 35.0150 36.9727 171.5990 0.0000 27.1066 0.0000
# 4 0.0000 0.0000 0.0000 38.5067 0.0000 6.0894
# 5 22.8208 0.5297 27.1066 0.0000 32.8938 0.0000
# 6 0.0000 0.0000 0.0000 6.0894 0.0000 38.6257
#
#
#
# Elastic Compliance Matrix: (Units=1/GPa)
#
#
# Indices 1 2 3 4 5 6 
#
# 1 0.013919 -0.000219 -0.001458 0.000000 -0.008452 0.000000
# 2 -0.000219 0.007908 -0.001912 0.000000 0.001600 0.000000
# 3 -0.001458 -0.001912 0.007326 0.000000 -0.004995 0.000000
# 4 0.000000 0.000000 0.000000 0.026633 0.000000 -0.004199
# 5 -0.008452 0.001600 -0.004995 0.000000 0.040355 0.000000
# 6 0.000000 0.000000 0.000000 -0.004199 0.000000 0.026551
#
#
# Mechanical properties :
#
#
# Convention : Reuss Voigt Hill
#
# Bulk Modulus (GPa) = 45.50553 61.46113 53.48333
# Shear Modulus (GPa) = 36.44418 43.21914 39.83166
#
# Velocity S-wave (km/s) = 3.66493 3.99107 3.83147
# Velocity P-wave (km/s) = 5.88899 6.62495 6.26778
#
# Compressibility (1/GPa) = 0.02197535
#
# Stress axis : x y z
#
# Youngs Moduli (GPa) = 71.84428 126.44793 136.50013
#
# Poissons Ratio (x) = 0.02770 0.19901
# Poissons Ratio (y) = 0.01574 0.26099
# Poissons Ratio (z) = 0.10474 0.24177
#
# Static dielectric constant tensor:
#      x y z
#    x 2.126520 0.000000 -0.023640 
#    y 0.000000 2.295510 0.000000 
#    z -0.023640 0.000000 2.106220 
# 
# From -- ./inp_files/574.got.cif
#   From: 2010.05.17/outbox.cif.g08.bks.cpg/sg14_1_cif.got.tgz:574.got - 2010.06.03 17:49:19.
