data_PCOD9247642
_publ_section_title
;
Structure prediction by ZEFSAII (Michael W. Deem and Ramdas Pophale) SiO2 
 PCOD9247642
Probable space group: P 21/C
;
_chemical_formula_sum "Si O2"
_cell_formula_units_Z 28
_cell_length_a 5.519299
_cell_length_b 9.028536
_cell_length_c 31.863995
_cell_angle_alpha 90.000000
_cell_angle_beta 43.409207
_cell_angle_gamma 90.000000
_cell_volume 1091.157199
_symmetry_space_group_name_H-M "P 21/C"
_symmetry_group_IT_number 14
_symmetry_cell_setting 'monoclinic'
loop_
_space_group_symop_operation_xyz
x,y,z
-x,1/2+y,1/2-z
-x,-y,-z
x,1/2-y,1/2+z
loop_
_atom_site_type_symbol
_atom_site_label
_atom_site_fract_x
_atom_site_fract_y
_atom_site_fract_z
Si Si1 0.751951 0.082114 0.612813
Si Si2 0.177252 0.803728 0.561411
Si Si3 0.502051 0.382264 0.328220
Si Si4 0.348718 0.577148 0.477389
Si Si5 0.633738 0.834224 0.862045
Si Si6 0.799772 0.161483 0.348456
Si Si7 0.721778 0.391364 0.211051
O O1 0.719056 0.231780 0.590971
O O2 0.628371 0.132461 0.674589
O O3 0.475877 0.963859 0.630495
O O4 0.096290 0.979943 0.570192
O O5 0.325428 0.744654 0.499036
O O6 0.328960 0.783391 0.589490
O O7 0.836025 0.694652 0.608463
O O8 0.584221 0.547833 0.331861
O O9 0.807388 0.282697 0.311060
O O10 0.469717 0.374879 0.282380
O O11 0.500000 0.500000 0.500000
O O12 0.641416 0.576962 0.404391
O O13 0.000000 0.500000 0.500000
O O14 0.962353 0.724115 0.818554
O O15 0.153269 0.063704 0.306423
#
# Coordination Sequence:
#
# PCOD9247642 Si02
#       7
#     4   4   4   4   4   4   4
#     4   9  22  41  62  93 133 174 228 278 346 414
#     4  10  22  42  67  93 135 180 231 289 351 422
#     4  11  21  37  65  96 133 178 225 289 351 421
#     4  12  27  47  73 109 143 185 238 299 359 423
#     4  11  24  41  67 101 140 179 232 291 349 426
#     4   9  20  40  59  88 127 173 223 276 347 413
#     4  10  22  39  62  96 133 180 225 287 349 427
#
# _framework density 25.660831999999999
#
# number of rings (size 3 to 8) (size 9 to 14) (size 15 to 20)
#    0.000    1.714    1.429    1.714    4.000    7.429 
#    0.000    6.429    0.000    0.000    0.000    0.000 
#    0.000    0.000    0.000    0.000    0.000    0.000 
#
# Total GULP energy -156370.188908 kJ/mol
# GULP energy per Si atom -5584.649604 kJ/mol
# Density = 2.560243 g / cm^3
# Si number density = 25.660832 Si / 1000 Ang^3
#
#
#
# Elastic Constant Matrix: (Units=GPa)
#
#
# Indices 1 2 3 4 5 6 
#
# 1 84.8638 32.1715 13.7623 0.0000 34.7149 0.0000
# 2 32.1715 139.7328 3.4770 0.0000 11.0559 0.0000
# 3 13.7623 3.4770 61.1142 0.0000 22.0503 0.0000
# 4 0.0000 0.0000 0.0000 21.5627 0.0000 14.9325
# 5 34.7149 11.0559 22.0503 0.0000 39.1654 0.0000
# 6 0.0000 0.0000 0.0000 14.9325 0.0000 49.0498
#
#
#
# Elastic Compliance Matrix: (Units=1/GPa)
#
#
# Indices 1 2 3 4 5 6 
#
# 1 0.020062 -0.003241 0.002199 0.000000 -0.018106 0.000000
# 2 -0.003241 0.007852 0.000058 0.000000 0.000624 0.000000
# 3 0.002199 0.000058 0.020798 0.000000 -0.013675 0.000000
# 4 0.000000 0.000000 0.000000 0.058766 0.000000 -0.017890
# 5 -0.018106 0.000624 -0.013675 0.000000 0.049104 0.000000
# 6 0.000000 0.000000 0.000000 -0.017890 0.000000 0.025834
#
#
# Mechanical properties :
#
#
# Convention : Reuss Voigt Hill
#
# Bulk Modulus (GPa) = 21.39281 42.72581 32.05931
# Shear Modulus (GPa) = 25.00434 37.70892 31.35663
#
# Velocity S-wave (km/s) = 3.12495 3.83758 3.49945
# Velocity P-wave (km/s) = 4.62334 6.02681 5.37111
#
# Compressibility (1/GPa) = 0.04674467
#
# Stress axis : x y z
#
# Youngs Moduli (GPa) = 49.84541 127.35667 48.08067
#
# Poissons Ratio (x) = 0.41279 -0.10574
# Poissons Ratio (y) = 0.16156 -0.00280
# Poissons Ratio (z) = -0.10962 -0.00741
#
# Static dielectric constant tensor:
#      x y z
#    x 2.133900 0.000000 -0.073050 
#    y 0.000000 2.053100 0.000000 
#    z -0.073050 0.000000 2.015360 
# 
# From -- ./inp_files/78647.got.cif
#   From: 2010.05.17/outbox.cif.g08.bks.cpg/sg14_40_cif.got.tgz:78647.got - 2010.06.03 17:49:19.
