data_PCOD9247921
_publ_section_title
;
Structure prediction by ZEFSAII (Michael W. Deem and Ramdas Pophale) SiO2 
 PCOD9247921
Probable space group: P 21/C
;
_chemical_formula_sum "Si O2"
_cell_formula_units_Z 20
_cell_length_a 11.375442
_cell_length_b 5.184746
_cell_length_c 13.608403
_cell_angle_alpha 90.000000
_cell_angle_beta 91.776075
_cell_angle_gamma 90.000000
_cell_volume 802.221391
_symmetry_space_group_name_H-M "P 21/C"
_symmetry_group_IT_number 14
_symmetry_cell_setting 'monoclinic'
loop_
_space_group_symop_operation_xyz
x,y,z
-x,1/2+y,1/2-z
-x,-y,-z
x,1/2-y,1/2+z
loop_
_atom_site_type_symbol
_atom_site_label
_atom_site_fract_x
_atom_site_fract_y
_atom_site_fract_z
Si Si1 0.631987 0.125293 0.626629
Si Si2 0.038877 0.766879 0.629876
Si Si3 0.103036 0.765553 0.900187
Si Si4 0.616707 0.725066 0.953615
Si Si5 0.698644 0.294030 0.342518
O O1 0.758040 0.246449 0.607567
O O2 0.520013 0.266086 0.576166
O O3 0.632364 0.852324 0.568003
O O4 0.624347 0.128463 0.744047
O O5 0.074981 0.759193 0.515483
O O6 0.165532 0.745699 0.683846
O O7 0.952433 0.527708 0.640127
O O8 0.967578 0.026059 0.647447
O O9 0.689630 0.964703 0.916025
O O10 0.654391 0.467928 0.893049
#
# Coordination Sequence:
#
# PCOD9247921 Si02
#       5
#     4   4   4   4   4
#     4  11  26  45  73 100 137 185 231 279 348 413
#     4  10  22  40  66  96 135 172 220 280 335 396
#     4  10  22  40  66  97 131 178 218 275 340 399
#     4  11  27  46  68 103 140 178 230 289 340 406
#     4  12  25  46  71 101 139 180 228 288 342 408
#
# _framework density 24.930771
#
# number of rings (size 3 to 8) (size 9 to 14) (size 15 to 20)
#    0.000    1.200    2.000    2.400    5.600    9.600 
#    0.000    0.000    0.000    0.000    0.000    0.000 
#    0.000    0.000    0.000    0.000    0.000    0.000 
#
# Total GULP energy -112153.338063 kJ/mol
# GULP energy per Si atom -5607.666903 kJ/mol
# Density = 2.487403 g / cm^3
# Si number density = 24.930771 Si / 1000 Ang^3
#
#
#
# Elastic Constant Matrix: (Units=GPa)
#
#
# Indices 1 2 3 4 5 6 
#
# 1 165.2823 48.7469 6.4209 0.0000 5.5929 0.0000
# 2 48.7469 151.1446 28.9822 0.0000 -5.0804 0.0000
# 3 6.4209 28.9822 115.1605 0.0000 20.9669 0.0000
# 4 0.0000 0.0000 0.0000 -8.6022 0.0000 -3.9738
# 5 5.5929 -5.0804 20.9669 0.0000 48.1942 0.0000
# 6 0.0000 0.0000 0.0000 -3.9738 0.0000 38.1848
#
#
#
# Elastic Compliance Matrix: (Units=1/GPa)
#
#
# Indices 1 2 3 4 5 6 
#
# 1 0.006753 -0.002300 0.000423 0.000000 -0.001210 0.000000
# 2 -0.002300 0.007854 -0.002224 0.000000 0.002062 0.000000
# 3 0.000423 -0.002224 0.010069 0.000000 -0.004664 0.000000
# 4 0.000000 0.000000 0.000000 -0.110917 0.000000 -0.011543
# 5 -0.001210 0.002062 -0.004664 0.000000 0.023136 0.000000
# 6 0.000000 0.000000 0.000000 -0.011543 0.000000 0.024987
#
#
# Mechanical properties :
#
#
# Convention : Reuss Voigt Hill
#
# Bulk Modulus (GPa) = 60.70317 66.65415 63.67866
# Shear Modulus (GPa) = -204.70459 38.71785 -82.99337
#
# Velocity S-wave (km/s) = -9.07124 3.94511 -5.77597
# Velocity P-wave (km/s) = 9.23662 6.89533 4.34566
#
# Compressibility (1/GPa) = 0.01647360
#
# Stress axis : x y z
#
# Youngs Moduli (GPa) = 148.08176 127.33046 99.31722
#
# Poissons Ratio (x) = 0.29282 -0.04196
# Poissons Ratio (y) = 0.34054 0.22085
# Poissons Ratio (z) = -0.06257 0.28315
#
# Static dielectric constant tensor:
#      x y z
#    x 1.917150 0.000000 0.002280 
#    y 0.000000 1.903160 0.000000 
#    z 0.002280 0.000000 2.047460 
# 
# From -- ./inp_files/42482.got.cif
#   From: 2010.05.17/outbox.cif.g08.bks.cpg/sg14_22_cif.got.tgz:42482.got - 2010.06.03 17:49:19.
