data_PCOD9247257
_publ_section_title
;
Structure prediction by ZEFSAII (Michael W. Deem and Ramdas Pophale) SiO2 
 PCOD9247257
Probable space group: P 21/C
;
_chemical_formula_sum "Si O2"
_cell_formula_units_Z 20
_cell_length_a 8.758538
_cell_length_b 4.845865
_cell_length_c 22.861000
_cell_angle_alpha 90.000000
_cell_angle_beta 136.336874
_cell_angle_gamma 90.000000
_cell_volume 669.899449
_symmetry_space_group_name_H-M "P 21/C"
_symmetry_group_IT_number 14
_symmetry_cell_setting 'monoclinic'
loop_
_space_group_symop_operation_xyz
x,y,z
-x,1/2+y,1/2-z
-x,-y,-z
x,1/2-y,1/2+z
loop_
_atom_site_type_symbol
_atom_site_label
_atom_site_fract_x
_atom_site_fract_y
_atom_site_fract_z
Si Si1 0.559971 0.986423 0.697122
Si Si2 0.717731 0.319669 0.048339
Si Si3 0.901205 0.377428 0.910328
Si Si4 0.369361 0.493747 0.593312
Si Si5 0.979890 0.935154 0.204237
O O1 0.341312 0.995816 0.676998
O O2 0.460128 0.188118 0.619726
O O3 0.565375 0.681361 0.673034
O O4 0.805801 0.071604 0.779200
O O5 0.913181 0.532495 0.083763
O O6 0.790976 0.106805 0.119353
O O7 0.500000 0.500000 0.000000
O O8 0.688758 0.116063 0.984934
O O9 0.822028 0.075436 0.912345
O O10 0.000000 0.500000 0.000000
O O11 0.947214 0.867151 0.721323
#
# Coordination Sequence:
#
# PCOD9247257 Si02
#       5
#     4   4   4   4   4
#     4  10  21  46  77 104 154 203 251 316 404 459
#     4  11  24  48  82 124 154 208 271 328 395 485
#     4   8  20  43  79 115 145 194 255 323 387 458
#     4   9  21  44  81 110 145 194 257 322 385 462
#     4  12  28  50  72 111 168 215 257 332 407 473
#
# _framework density 29.855225999999998
#
# number of rings (size 3 to 8) (size 9 to 14) (size 15 to 20)
#    1.200    0.800    0.000    2.400    0.000    4.800 
#    3.600   11.000    0.000    0.000    0.000    0.000 
#    0.000    0.000    0.000    0.000    0.000    0.000 
#
# Total GULP energy -111975.787523 kJ/mol
# GULP energy per Si atom -5598.789376 kJ/mol
# Density = 2.978727 g / cm^3
# Si number density = 29.855226 Si / 1000 Ang^3
#
#
#
# Elastic Constant Matrix: (Units=GPa)
#
#
# Indices 1 2 3 4 5 6 
#
# 1 168.6613 24.3978 55.9944 0.0000 9.1968 0.0000
# 2 24.3978 129.2630 34.4052 0.0000 -6.3886 0.0000
# 3 55.9944 34.4052 117.9345 0.0000 15.7093 0.0000
# 4 0.0000 0.0000 0.0000 52.4928 0.0000 5.1428
# 5 9.1968 -6.3886 15.7093 0.0000 83.5362 0.0000
# 6 0.0000 0.0000 0.0000 5.1428 0.0000 42.5062
#
#
#
# Elastic Compliance Matrix: (Units=1/GPa)
#
#
# Indices 1 2 3 4 5 6 
#
# 1 0.007069 -0.000498 -0.003182 0.000000 -0.000218 0.000000
# 2 -0.000498 0.008528 -0.002406 0.000000 0.001159 0.000000
# 3 -0.003182 -0.002406 0.010944 0.000000 -0.001892 0.000000
# 4 0.000000 0.000000 0.000000 0.019279 0.000000 -0.002333
# 5 -0.000218 0.001159 -0.001892 0.000000 0.012439 0.000000
# 6 0.000000 0.000000 0.000000 -0.002333 0.000000 0.023808
#
#
# Mechanical properties :
#
#
# Convention : Reuss Voigt Hill
#
# Bulk Modulus (GPa) = 69.59368 71.71707 70.65538
# Shear Modulus (GPa) = 50.49013 55.77780 53.13397
#
# Velocity S-wave (km/s) = 4.11684 4.32705 4.22325
# Velocity P-wave (km/s) = 6.77929 7.00273 6.89192
#
# Compressibility (1/GPa) = 0.01436912
#
# Stress axis : x y z
#
# Youngs Moduli (GPa) = 141.45390 117.26330 91.37450
#
# Poissons Ratio (x) = 0.05841 0.29077
# Poissons Ratio (y) = 0.07046 0.21983
# Poissons Ratio (z) = 0.45013 0.28211
#
# Static dielectric constant tensor:
#      x y z
#    x 2.458910 0.000000 -0.010030 
#    y 0.000000 2.280680 0.000000 
#    z -0.010030 0.000000 2.319740 
# 
# From -- ./inp_files/39166.got.cif
#   From: 2010.05.17/outbox.cif.g08.bks.cpg/sg14_20_cif.got.tgz:39166.got - 2010.06.03 17:49:19.
