data_PCOD9247871
_publ_section_title
;
Structure prediction by ZEFSAII (Michael W. Deem and Ramdas Pophale) SiO2 
 PCOD9247871
Probable space group: P 21/C
;
_chemical_formula_sum "Si O2"
_cell_formula_units_Z 18
_cell_length_a 6.974965
_cell_length_b 17.417304
_cell_length_c 9.641777
_cell_angle_alpha 90.000000
_cell_angle_beta 133.723595
_cell_angle_gamma 90.000000
_cell_volume 846.501299
_symmetry_space_group_name_H-M "P 21/C"
_symmetry_group_IT_number 14
_symmetry_cell_setting 'monoclinic'
loop_
_space_group_symop_operation_xyz
x,y,z
-x,1/2+y,1/2-z
-x,-y,-z
x,1/2-y,1/2+z
loop_
_atom_site_type_symbol
_atom_site_label
_atom_site_fract_x
_atom_site_fract_y
_atom_site_fract_z
Si Si1 0.647007 0.580147 0.543765
Si Si2 0.230601 0.330049 0.115299
Si Si3 0.353003 0.080149 0.396761
Si Si4 0.376238 0.812677 0.688118
Si Si5 0.000000 0.500000 0.500000
O O1 0.500000 0.500000 0.500000
O O2 0.730198 0.618310 0.728971
O O3 0.455990 0.636667 0.361854
O O4 0.890686 0.559129 0.566160
O O5 0.448046 0.263412 0.224024
O O6 0.269807 0.381689 0.998773
O O7 0.935150 0.296176 0.967571
O O8 0.544027 0.136668 0.405877
O O9 0.500000 0.000000 0.500000
O O10 0.109327 0.059134 0.175471
#
# Coordination Sequence:
#
# PCOD9247871 Si02
#       5
#     4   4   4   4   2
#     4  11  24  43  70 100 136 179 232 290 351 417
#     4  12  26  45  70 102 143 189 236 290 358 428
#     4  11  24  43  70 100 136 179 232 290 351 417
#     4  11  27  45  66 101 142 184 231 290 354 426
#     4  10  22  40  64  96 130 166 218 282 340 402
#
# _framework density 21.263994
#
# number of rings (size 3 to 8) (size 9 to 14) (size 15 to 20)
#    0.000    0.889    0.000    6.667    0.000   16.889 
#    0.000    0.000    0.000    0.000    0.000    0.000 
#    0.000    0.000    0.000    0.000    0.000    0.000 
#
# Total GULP energy -100250.446648 kJ/mol
# GULP energy per Si atom -5569.469258 kJ/mol
# Density = 2.121560 g / cm^3
# Si number density = 21.263994 Si / 1000 Ang^3
#
#
#
# Elastic Constant Matrix: (Units=GPa)
#
#
# Indices 1 2 3 4 5 6 
#
# 1 128.1026 83.5369 111.0686 0.0000 -10.9646 0.0000
# 2 83.5369 149.5491 85.2264 0.0000 -3.7588 0.0000
# 3 111.0686 85.2264 146.2879 0.0000 -29.2185 0.0000
# 4 0.0000 0.0000 0.0000 8.3607 0.0000 33.2319
# 5 -10.9646 -3.7588 -29.2185 0.0000 51.2736 0.0000
# 6 0.0000 0.0000 0.0000 33.2319 0.0000 23.4281
#
#
#
# Elastic Compliance Matrix: (Units=1/GPa)
#
#
# Indices 1 2 3 4 5 6 
#
# 1 0.025985 -0.004209 -0.018313 0.000000 -0.005187 0.000000
# 2 -0.004209 0.011096 -0.003708 0.000000 -0.002200 0.000000
# 3 -0.018313 -0.003708 0.024897 0.000000 0.010000 0.000000
# 4 0.000000 0.000000 0.000000 -0.025788 0.000000 0.036579
# 5 -0.005187 -0.002200 0.010000 0.000000 0.023931 0.000000
# 6 0.000000 0.000000 0.000000 0.036579 0.000000 -0.009203
#
#
# Mechanical properties :
#
#
# Convention : Reuss Voigt Hill
#
# Bulk Modulus (GPa) = 105.06144 109.28927 107.17535
# Shear Modulus (GPa) = 46.92644 26.21964 36.57304
#
# Velocity S-wave (km/s) = 4.70281 3.51530 4.15173
# Velocity P-wave (km/s) = 8.88842 8.24526 8.57287
#
# Compressibility (1/GPa) = 0.00951824
#
# Stress axis : x y z
#
# Youngs Moduli (GPa) = 38.48440 90.12480 40.16509
#
# Poissons Ratio (x) = 0.37933 0.73553
# Poissons Ratio (y) = 0.16198 0.14893
# Poissons Ratio (z) = 0.70475 0.33418
#
# Static dielectric constant tensor:
#      x y z
#    x 1.772040 0.000000 0.031480 
#    y 0.000000 1.715650 0.000000 
#    z 0.031480 0.000000 1.757780 
# 
# From -- ./inp_files/5583.got.cif
#   From: 2010.05.17/outbox.cif.g08.bks.cpg/sg14_3_cif.got.tgz:5583.got - 2010.06.03 17:49:19.
