data_PCOD9247969
_publ_section_title
;
Structure prediction by ZEFSAII (Michael W. Deem and Ramdas Pophale) SiO2 
 PCOD9247969
Probable space group: P 21/C
;
_chemical_formula_sum "Si O2"
_cell_formula_units_Z 28
_cell_length_a 19.856988
_cell_length_b 11.830436
_cell_length_c 9.317877
_cell_angle_alpha 90.000000
_cell_angle_beta 148.009256
_cell_angle_gamma 90.000000
_cell_volume 1159.654203
_symmetry_space_group_name_H-M "P 21/C"
_symmetry_group_IT_number 14
_symmetry_cell_setting 'monoclinic'
loop_
_space_group_symop_operation_xyz
x,y,z
-x,1/2+y,1/2-z
-x,-y,-z
x,1/2-y,1/2+z
loop_
_atom_site_type_symbol
_atom_site_label
_atom_site_fract_x
_atom_site_fract_y
_atom_site_fract_z
Si Si1 0.839261 0.217823 0.504122
Si Si2 0.842384 0.885023 0.143591
Si Si3 0.602090 0.159482 0.232492
Si Si4 0.644501 0.767466 0.624938
Si Si5 0.072765 0.009221 0.421402
Si Si6 0.356286 0.407961 0.151219
Si Si7 0.992098 0.168485 0.059111
O O1 0.711394 0.233463 0.359933
O O2 0.875159 0.313038 0.456971
O O3 0.839328 0.101007 0.416906
O O4 0.947421 0.193012 0.818601
O O5 0.865909 0.906487 0.353270
O O6 0.913708 0.769887 0.231573
O O7 0.698153 0.862789 0.833232
O O8 0.931240 0.977362 0.224490
O O9 0.661568 0.041952 0.402088
O O10 0.506676 0.237950 0.152570
O O11 0.508411 0.111121 0.939248
O O12 0.689396 0.823466 0.556962
O O13 0.686254 0.647481 0.773535
O O14 0.057457 0.055140 0.232467
#
# Coordination Sequence:
#
# PCOD9247969 Si02
#       7
#     4   4   4   4   4   4   4
#     4  11  24  39  69  91 131 176 209 275 327 393
#     4  10  23  41  65 100 134 168 218 276 320 394
#     4   9  23  43  64  93 133 167 222 272 330 386
#     4  10  22  40  69  93 126 174 217 270 326 392
#     4  10  23  42  62 100 137 165 222 269 331 383
#     4   9  22  41  63  95 127 170 221 273 323 385
#     4  11  23  40  64  97 129 178 213 265 334 392
#
# _framework density 24.145130000000002
#
# number of rings (size 3 to 8) (size 9 to 14) (size 15 to 20)
#    0.857    1.143    1.429    0.429    8.000    0.000 
#    0.000    0.714    0.000    0.000    0.000    0.000 
#    0.000    0.000    0.000    0.000    0.000    0.000 
#
# Total GULP energy -155950.576973 kJ/mol
# GULP energy per Si atom -5569.663463 kJ/mol
# Density = 2.409017 g / cm^3
# Si number density = 24.145130 Si / 1000 Ang^3
#
#
#
# Elastic Constant Matrix: (Units=GPa)
#
#
# Indices 1 2 3 4 5 6 
#
# 1 82.0612 18.0467 21.8697 0.0000 -1.5833 0.0000
# 2 18.0467 66.4629 29.8104 0.0000 -4.5531 0.0000
# 3 21.8697 29.8104 57.0766 0.0000 -11.3808 0.0000
# 4 0.0000 0.0000 0.0000 34.7067 0.0000 -1.8487
# 5 -1.5833 -4.5531 -11.3808 0.0000 32.7505 0.0000
# 6 0.0000 0.0000 0.0000 -1.8487 0.0000 32.6309
#
#
#
# Elastic Compliance Matrix: (Units=1/GPa)
#
#
# Indices 1 2 3 4 5 6 
#
# 1 0.013775 -0.001761 -0.004592 0.000000 -0.001175 0.000000
# 2 -0.001761 0.019899 -0.009867 0.000000 -0.000748 0.000000
# 3 -0.004592 -0.009867 0.025911 0.000000 0.007410 0.000000
# 4 0.000000 0.000000 0.000000 0.028900 0.000000 0.001637
# 5 -0.001175 -0.000748 0.007410 0.000000 0.032948 0.000000
# 6 0.000000 0.000000 0.000000 0.001637 0.000000 0.030739
#
#
# Mechanical properties :
#
#
# Convention : Reuss Voigt Hill
#
# Bulk Modulus (GPa) = 36.84161 38.33936 37.59049
# Shear Modulus (GPa) = 25.81850 29.07589 27.44720
#
# Velocity S-wave (km/s) = 3.27357 3.47394 3.37524
# Velocity P-wave (km/s) = 5.43874 5.65723 5.54906
#
# Compressibility (1/GPa) = 0.02714322
#
# Stress axis : x y z
#
# Youngs Moduli (GPa) = 72.59786 50.25492 38.59362
#
# Poissons Ratio (x) = 0.08849 0.17724
# Poissons Ratio (y) = 0.12783 0.38081
# Poissons Ratio (z) = 0.33340 0.49587
#
# Static dielectric constant tensor:
#      x y z
#    x 1.960670 0.000000 0.052380 
#    y 0.000000 1.947630 0.000000 
#    z 0.052380 0.000000 1.995440 
# 
# From -- ./inp_files/18012.got.cif
#   From: 2010.05.17/outbox.cif.g08.bks.cpg/sg14_10_cif.got.tgz:18012.got - 2010.06.03 17:49:19.
