data_PCOD9247451
_publ_section_title
;
Structure prediction by ZEFSAII (Michael W. Deem and Ramdas Pophale) SiO2 
 PCOD9247451
Probable space group: P 21/C
;
_chemical_formula_sum "Si O2"
_cell_formula_units_Z 32
_cell_length_a 12.159374
_cell_length_b 6.182850
_cell_length_c 24.985915
_cell_angle_alpha 90.000000
_cell_angle_beta 64.449582
_cell_angle_gamma 90.000000
_cell_volume 1694.731671
_symmetry_space_group_name_H-M "P 21/C"
_symmetry_group_IT_number 14
_symmetry_cell_setting 'monoclinic'
loop_
_space_group_symop_operation_xyz
x,y,z
-x,1/2+y,1/2-z
-x,-y,-z
x,1/2-y,1/2+z
loop_
_atom_site_type_symbol
_atom_site_label
_atom_site_fract_x
_atom_site_fract_y
_atom_site_fract_z
Si Si1 0.916953 0.314306 0.633776
Si Si2 0.592408 0.812686 0.462871
Si Si3 0.941735 0.149985 0.253708
Si Si4 0.865228 0.423802 0.447318
Si Si5 0.728267 0.179040 0.384392
Si Si6 0.516427 0.930135 0.080190
Si Si7 0.928950 0.591711 0.066000
Si Si8 0.246496 0.051985 0.917242
O O1 0.909330 0.353227 0.697929
O O2 0.817999 0.449009 0.620646
O O3 0.056021 0.366428 0.585237
O O4 0.893923 0.073405 0.619216
O O5 0.534134 0.658278 0.430400
O O6 0.600663 0.668431 0.514463
O O7 0.500000 0.000000 0.500000
O O8 0.705870 0.945211 0.416349
O O9 0.828234 0.161379 0.317769
O O10 0.001848 0.399878 0.248535
O O11 0.773399 0.344284 0.421018
O O12 0.806949 0.436661 0.518300
O O13 0.974462 0.252641 0.427965
O O14 0.599877 0.273594 0.389490
O O15 0.608312 0.953740 0.109949
O O16 0.808319 0.708087 0.069881
O O17 0.000000 0.500000 0.000000
#
# Coordination Sequence:
#
# PCOD9247451 Si02
#       8
#     4   4   4   4   4   4   4   4
#     4  11  23  41  61  94 131 171 220 281 341 405
#     4   9  19  36  59  92 130 171 219 268 334 396
#     4  12  28  48  74 101 134 179 234 293 343 403
#     4  11  20  36  58  97 129 165 217 276 343 405
#     4  11  24  40  67  94 132 179 228 284 337 413
#     4  10  22  38  59  95 135 175 217 275 338 413
#     4  11  20  34  59  90 126 168 210 268 345 406
#     4  11  22  35  61  94 133 168 214 271 343 416
#
# _framework density 18.882045000000002
#
# number of rings (size 3 to 8) (size 9 to 14) (size 15 to 20)
#    0.000    1.250    3.750    3.750    5.250    4.000 
#    0.000    0.000    5.500    0.000    0.000    0.000 
#    0.000    0.000    0.000    0.000    0.000    0.000 
#
# Total GULP energy -178303.800207 kJ/mol
# GULP energy per Si atom -5571.993756 kJ/mol
# Density = 1.883907 g / cm^3
# Si number density = 18.882045 Si / 1000 Ang^3
#
#
#
# Elastic Constant Matrix: (Units=GPa)
#
#
# Indices 1 2 3 4 5 6 
#
# 1 119.1474 42.6177 43.8064 0.0000 11.9264 0.0000
# 2 42.6177 83.8021 24.6101 0.0000 -5.7314 0.0000
# 3 43.8064 24.6101 118.1445 0.0000 3.6960 0.0000
# 4 0.0000 0.0000 0.0000 21.7156 0.0000 1.3096
# 5 11.9264 -5.7314 3.6960 0.0000 29.7994 0.0000
# 6 0.0000 0.0000 0.0000 1.3096 0.0000 24.3600
#
#
#
# Elastic Compliance Matrix: (Units=1/GPa)
#
#
# Indices 1 2 3 4 5 6 
#
# 1 0.012113 -0.005614 -0.003149 0.000000 -0.005537 0.000000
# 2 -0.005614 0.015547 -0.001326 0.000000 0.005402 0.000000
# 3 -0.003149 -0.001326 0.009915 0.000000 -0.000225 0.000000
# 4 0.000000 0.000000 0.000000 0.046200 0.000000 -0.002484
# 5 -0.005537 0.005402 -0.000225 0.000000 0.036841 0.000000
# 6 0.000000 0.000000 0.000000 -0.002484 0.000000 0.041184
#
#
# Mechanical properties :
#
#
# Convention : Reuss Voigt Hill
#
# Bulk Modulus (GPa) = 57.47972 60.35137 58.91555
# Shear Modulus (GPa) = 26.62754 29.17898 27.90326
#
# Velocity S-wave (km/s) = 3.75934 3.93533 3.84834
# Velocity P-wave (km/s) = 7.02503 7.25816 7.14255
#
# Compressibility (1/GPa) = 0.01739744
#
# Stress axis : x y z
#
# Youngs Moduli (GPa) = 82.55603 64.32227 100.85844
#
# Poissons Ratio (x) = 0.36111 0.31757
# Poissons Ratio (y) = 0.46348 0.13372
# Poissons Ratio (z) = 0.25994 0.08528
#
# Static dielectric constant tensor:
#      x y z
#    x 1.680560 0.000000 -0.015240 
#    y 0.000000 1.767610 0.000000 
#    z -0.015240 0.000000 1.635490 
# 
# From -- ./inp_files/72830.got.cif
#   From: 2010.05.17/outbox.cif.g08.bks.cpg/sg14_37_cif.got.tgz:72830.got - 2010.06.03 17:49:19.
