data_PCOD9247400
_publ_section_title
;
Structure prediction by ZEFSAII (Michael W. Deem and Ramdas Pophale) SiO2 
 PCOD9247400
Probable space group: P 21/C
;
_chemical_formula_sum "Si O2"
_cell_formula_units_Z 28
_cell_length_a 13.962171
_cell_length_b 7.403033
_cell_length_c 11.331693
_cell_angle_alpha 90.000000
_cell_angle_beta 121.703523
_cell_angle_gamma 90.000000
_cell_volume 996.492642
_symmetry_space_group_name_H-M "P 21/C"
_symmetry_group_IT_number 14
_symmetry_cell_setting 'monoclinic'
loop_
_space_group_symop_operation_xyz
x,y,z
-x,1/2+y,1/2-z
-x,-y,-z
x,1/2-y,1/2+z
loop_
_atom_site_type_symbol
_atom_site_label
_atom_site_fract_x
_atom_site_fract_y
_atom_site_fract_z
Si Si1 0.666254 0.922020 0.132457
Si Si2 0.020960 0.155942 0.346617
Si Si3 0.910088 0.701472 0.854947
Si Si4 0.211824 0.771524 0.923795
Si Si5 0.656283 0.973581 0.534386
Si Si6 0.681555 0.440339 0.313782
Si Si7 0.513767 0.765432 0.694856
O O1 0.785442 0.883306 0.272520
O O2 0.646782 0.738274 0.044116
O O3 0.562471 0.908214 0.156001
O O4 0.688678 0.104615 0.074206
O O5 0.895632 0.216579 0.227014
O O6 0.064632 0.258230 0.493103
O O7 0.085446 0.176033 0.262225
O O8 0.000989 0.951677 0.377835
O O9 0.250693 0.571013 0.985690
O O10 0.207982 0.882943 0.043685
O O11 0.699380 0.047353 0.687794
O O12 0.544206 0.079658 0.423001
O O13 0.582405 0.298370 0.279510
O O14 0.625865 0.632393 0.309506
#
# Coordination Sequence:
#
# PCOD9247400 Si02
#       7
#     4   4   4   4   4   4   4
#     4  10  22  42  64  93 130 174 216 274 334 401
#     4  10  24  46  67 101 139 172 233 291 344 411
#     4  10  24  45  69 102 133 179 229 285 353 409
#     4  10  24  40  65  94 126 172 219 273 333 404
#     4  10  23  42  60  96 131 167 217 270 330 398
#     4  10  22  37  62  94 118 174 216 260 332 398
#     4  10  23  39  62  94 133 168 214 280 320 403
#
# _framework density 28.098551
#
# number of rings (size 3 to 8) (size 9 to 14) (size 15 to 20)
#    0.000    2.000    0.000    1.714   10.000    6.286 
#    0.000    0.000    0.000    0.000    0.000    0.000 
#    0.000    0.000    0.000    0.000    0.000    0.000 
#
# Total GULP energy -156497.642804 kJ/mol
# GULP energy per Si atom -5589.201529 kJ/mol
# Density = 2.803460 g / cm^3
# Si number density = 28.098551 Si / 1000 Ang^3
#
#
#
# Elastic Constant Matrix: (Units=GPa)
#
#
# Indices 1 2 3 4 5 6 
#
# 1 95.6388 16.4109 33.2859 0.0000 5.8118 0.0000
# 2 16.4109 114.4849 18.8692 0.0000 -23.2044 0.0000
# 3 33.2859 18.8692 184.2618 0.0000 -22.7292 0.0000
# 4 0.0000 0.0000 0.0000 43.6125 0.0000 -6.4913
# 5 5.8118 -23.2044 -22.7292 0.0000 30.1062 0.0000
# 6 0.0000 0.0000 0.0000 -6.4913 0.0000 48.5204
#
#
#
# Elastic Compliance Matrix: (Units=1/GPa)
#
#
# Indices 1 2 3 4 5 6 
#
# 1 0.012250 -0.002611 -0.002741 0.000000 -0.006446 0.000000
# 2 -0.002611 0.010910 0.000500 0.000000 0.009290 0.000000
# 3 -0.002741 0.000500 0.006598 0.000000 0.005896 0.000000
# 4 0.000000 0.000000 0.000000 0.023395 0.000000 0.003130
# 5 -0.006446 0.009290 0.005896 0.000000 0.046072 0.000000
# 6 0.000000 0.000000 0.000000 0.003130 0.000000 0.021029
#
#
# Mechanical properties :
#
#
# Convention : Reuss Voigt Hill
#
# Bulk Modulus (GPa) = 49.86165 59.05748 54.45957
# Shear Modulus (GPa) = 36.59251 46.16912 41.38081
#
# Velocity S-wave (km/s) = 3.61264 4.05793 3.84174
# Velocity P-wave (km/s) = 5.93173 6.55891 6.25319
#
# Compressibility (1/GPa) = 0.02005549
#
# Stress axis : x y z
#
# Youngs Moduli (GPa) = 81.63578 91.66278 151.55657
#
# Poissons Ratio (x) = 0.23931 0.41535
# Poissons Ratio (y) = 0.21313 -0.07584
# Poissons Ratio (z) = 0.22373 -0.04587
#
# Static dielectric constant tensor:
#      x y z
#    x 2.256610 0.000000 -0.078580 
#    y 0.000000 2.263720 0.000000 
#    z -0.078580 0.000000 2.258350 
# 
# From -- ./inp_files/31900.got.cif
#   From: 2010.05.17/outbox.cif.g08.bks.cpg/sg14_16_cif.got.tgz:31900.got - 2010.06.03 17:49:19.
