data_PCOD9247560
_publ_section_title
;
Structure prediction by ZEFSAII (Michael W. Deem and Ramdas Pophale) SiO2 
 PCOD9247560
Probable space group: P 21/C
;
_chemical_formula_sum "Si O2"
_cell_formula_units_Z 30
_cell_length_a 9.510058
_cell_length_b 14.637315
_cell_length_c 8.759848
_cell_angle_alpha 90.000000
_cell_angle_beta 106.418653
_cell_angle_gamma 90.000000
_cell_volume 1169.661752
_symmetry_space_group_name_H-M "P 21/C"
_symmetry_group_IT_number 14
_symmetry_cell_setting 'monoclinic'
loop_
_space_group_symop_operation_xyz
x,y,z
-x,1/2+y,1/2-z
-x,-y,-z
x,1/2-y,1/2+z
loop_
_atom_site_type_symbol
_atom_site_label
_atom_site_fract_x
_atom_site_fract_y
_atom_site_fract_z
Si Si1 0.685650 0.128304 0.217214
Si Si2 0.970314 0.104417 0.453187
Si Si3 0.272090 0.121155 0.152444
Si Si4 0.630743 0.310292 0.353333
Si Si5 0.075599 0.646416 0.743108
Si Si6 0.796362 0.766879 0.586284
Si Si7 0.506219 0.980036 0.319701
Si Si8 0.000000 0.000000 0.000000
O O1 0.862543 0.124383 0.279065
O O2 0.613228 0.203935 0.306900
O O3 0.637601 0.030249 0.270705
O O4 0.640557 0.156269 0.031639
O O5 0.877700 0.143869 0.567601
O O6 0.124697 0.156856 0.493368
O O7 0.000000 0.000000 0.500000
O O8 0.285336 0.178990 0.308960
O O9 0.368601 0.031303 0.196962
O O10 0.301820 0.191334 0.025388
O O11 0.106729 0.086960 0.077325
O O12 0.790377 0.329895 0.326091
O O13 0.514497 0.374192 0.228238
O O14 0.027931 0.546283 0.675574
O O15 0.938199 0.713340 0.692504
O O16 0.500000 0.000000 0.500000
#
# Coordination Sequence:
#
# PCOD9247560 Si02
#       8
#     4   4   4   4   4   4   4   2
#     4  12  29  48  76 112 146 205 254 316 377 461
#     4  12  26  41  70 108 150 187 249 304 382 447
#     4  11  25  46  70 106 147 192 245 308 382 446
#     4  12  26  50  76 104 151 196 260 308 378 456
#     4  11  22  42  68 106 143 192 236 305 376 444
#     4  11  24  41  69 105 144 187 240 306 373 443
#     4  12  28  52  78 109 150 203 257 313 385 466
#     4  10  22  38  74 100 140 180 236 302 376 434
#
# _framework density 25.648440999999998
#
# number of rings (size 3 to 8) (size 9 to 14) (size 15 to 20)
#    0.000    0.533    4.000    3.600    7.467    2.133 
#    0.000    0.000    0.000    0.000    0.000    0.000 
#    0.000    0.000    0.000    0.000    0.000    0.000 
#
# Total GULP energy -167511.356638 kJ/mol
# GULP energy per Si atom -5583.711888 kJ/mol
# Density = 2.559006 g / cm^3
# Si number density = 25.648441 Si / 1000 Ang^3
#
#
#
# Elastic Constant Matrix: (Units=GPa)
#
#
# Indices 1 2 3 4 5 6 
#
# 1 79.3674 5.9951 16.9908 0.0000 -5.1851 0.0000
# 2 5.9951 102.2506 -0.6450 0.0000 18.9695 0.0000
# 3 16.9908 -0.6450 91.3882 0.0000 5.2142 0.0000
# 4 0.0000 0.0000 0.0000 36.6501 0.0000 0.5820
# 5 -5.1851 18.9695 5.2142 0.0000 20.2948 0.0000
# 6 0.0000 0.0000 0.0000 0.5820 0.0000 38.6599
#
#
#
# Elastic Compliance Matrix: (Units=1/GPa)
#
#
# Indices 1 2 3 4 5 6 
#
# 1 0.013771 -0.001957 -0.002922 0.000000 0.006099 0.000000
# 2 -0.001957 0.012157 0.001143 0.000000 -0.012157 0.000000
# 3 -0.002922 0.001143 0.011770 0.000000 -0.004839 0.000000
# 4 0.000000 0.000000 0.000000 0.027292 0.000000 -0.000411
# 5 0.006099 -0.012157 -0.004839 0.000000 0.063438 0.000000
# 6 0.000000 0.000000 0.000000 -0.000411 0.000000 0.025873
#
#
# Mechanical properties :
#
#
# Convention : Reuss Voigt Hill
#
# Bulk Modulus (GPa) = 33.08381 35.29868 34.19124
# Shear Modulus (GPa) = 29.09532 35.83197 32.46364
#
# Velocity S-wave (km/s) = 3.37172 3.74176 3.56155
# Velocity P-wave (km/s) = 5.29953 5.69737 5.50205
#
# Compressibility (1/GPa) = 0.03022626
#
# Stress axis : x y z
#
# Youngs Moduli (GPa) = 72.61384 82.25542 84.96334
#
# Poissons Ratio (x) = 0.16100 0.24828
# Poissons Ratio (y) = 0.14213 -0.09714
# Poissons Ratio (z) = 0.21219 -0.09405
#
# Static dielectric constant tensor:
#      x y z
#    x 2.049130 0.000000 0.018840 
#    y 0.000000 2.130170 0.000000 
#    z 0.018840 0.000000 2.034880 
# 
# From -- ./inp_files/13163.got.cif
#   From: 2010.05.17/outbox.cif.g08.bks.cpg/sg14_7_cif.got.tgz:13163.got - 2010.06.03 17:49:19.
