data_PCOD9247906
_publ_section_title
;
Structure prediction by ZEFSAII (Michael W. Deem and Ramdas Pophale) SiO2 
 PCOD9247906
Probable space group: P 21/C
;
_chemical_formula_sum "Si O2"
_cell_formula_units_Z 28
_cell_length_a 14.635533
_cell_length_b 10.779118
_cell_length_c 8.512556
_cell_angle_alpha 90.000000
_cell_angle_beta 113.589708
_cell_angle_gamma 90.000000
_cell_volume 1230.702954
_symmetry_space_group_name_H-M "P 21/C"
_symmetry_group_IT_number 14
_symmetry_cell_setting 'monoclinic'
loop_
_space_group_symop_operation_xyz
x,y,z
-x,1/2+y,1/2-z
-x,-y,-z
x,1/2-y,1/2+z
loop_
_atom_site_type_symbol
_atom_site_label
_atom_site_fract_x
_atom_site_fract_y
_atom_site_fract_z
Si Si1 0.004178 0.801322 0.370525
Si Si2 0.590875 0.924217 0.484488
Si Si3 0.351984 0.574641 0.486730
Si Si4 0.917015 0.907180 0.010386
Si Si5 0.147075 0.823571 0.727634
Si Si6 0.561020 0.835280 0.104931
Si Si7 0.256840 0.933746 0.237751
O O1 0.085686 0.869224 0.534896
O O2 0.068656 0.701424 0.313312
O O3 0.942274 0.885700 0.209651
O O4 0.933407 0.723951 0.436167
O O5 0.575446 0.883053 0.293586
O O6 0.602280 0.799846 0.596134
O O7 0.500000 0.000000 0.500000
O O8 0.687898 0.010585 0.573903
O O9 0.244929 0.600291 0.336758
O O10 0.388381 0.436540 0.473371
O O11 0.441979 0.661561 0.489165
O O12 0.337525 0.599575 0.660894
O O13 0.811810 0.963196 0.891980
O O14 0.000000 0.000000 0.000000
O O15 0.189273 0.684973 0.724306
#
# Coordination Sequence:
#
# PCOD9247906 Si02
#       7
#     4   4   4   4   4   4   4
#     4  10  22  40  66 101 128 180 220 291 350 410
#     4  12  26  46  71 103 143 188 229 288 354 410
#     4  11  24  43  69 102 133 182 238 290 341 419
#     4  11  22  43  66  93 141 173 224 290 347 411
#     4  11  21  41  71 101 131 177 246 281 347 420
#     4  11  27  44  67 101 147 178 232 291 352 411
#     4  12  24  43  71  98 139 187 231 290 346 421
#
# _framework density 22.751227
#
# number of rings (size 3 to 8) (size 9 to 14) (size 15 to 20)
#    0.000    0.857    5.714    1.714    4.000    2.286 
#    0.000    7.857    0.000    0.000    0.000    0.000 
#    0.000    0.000    0.000    0.000    0.000    0.000 
#
# Total GULP energy -156695.116497 kJ/mol
# GULP energy per Si atom -5596.254161 kJ/mol
# Density = 2.269944 g / cm^3
# Si number density = 22.751227 Si / 1000 Ang^3
#
#
#
# Elastic Constant Matrix: (Units=GPa)
#
#
# Indices 1 2 3 4 5 6 
#
# 1 51.0597 3.1925 5.2481 0.0000 5.6504 0.0000
# 2 3.1925 57.8665 8.4465 0.0000 -2.9923 0.0000
# 3 5.2481 8.4465 94.8531 0.0000 3.1295 0.0000
# 4 0.0000 0.0000 0.0000 37.4120 0.0000 1.1278
# 5 5.6504 -2.9923 3.1295 0.0000 39.6864 0.0000
# 6 0.0000 0.0000 0.0000 1.1278 0.0000 24.6887
#
#
#
# Elastic Compliance Matrix: (Units=1/GPa)
#
#
# Indices 1 2 3 4 5 6 
#
# 1 0.020067 -0.001122 -0.000916 0.000000 -0.002869 0.000000
# 2 -0.001122 0.017655 -0.001563 0.000000 0.001614 0.000000
# 3 -0.000916 -0.001563 0.010760 0.000000 -0.000836 0.000000
# 4 0.000000 0.000000 0.000000 0.026766 0.000000 -0.001223
# 5 -0.002869 0.001614 -0.000836 0.000000 0.025794 0.000000
# 6 0.000000 0.000000 0.000000 -0.001223 0.000000 0.040560
#
#
# Mechanical properties :
#
#
# Convention : Reuss Voigt Hill
#
# Bulk Modulus (GPa) = 24.22491 26.39486 25.30988
# Shear Modulus (GPa) = 30.75726 32.81690 31.78708
#
# Velocity S-wave (km/s) = 3.68080 3.80205 3.74191
# Velocity P-wave (km/s) = 5.36053 5.55885 5.46059
#
# Compressibility (1/GPa) = 0.04127983
#
# Stress axis : x y z
#
# Youngs Moduli (GPa) = 49.83380 56.64216 92.93617
#
# Poissons Ratio (x) = 0.06354 0.08510
# Poissons Ratio (y) = 0.05590 0.14529
# Poissons Ratio (z) = 0.04563 0.08855
#
# Static dielectric constant tensor:
#      x y z
#    x 1.826980 0.000000 0.001740 
#    y 0.000000 1.835230 0.000000 
#    z 0.001740 0.000000 1.865800 
# 
# From -- ./inp_files/15452.got.cif
#   From: 2010.05.17/outbox.cif.g08.bks.cpg/sg14_8_cif.got.tgz:15452.got - 2010.06.03 17:49:19.
