data_PCOD9247416
_publ_section_title
;
Structure prediction by ZEFSAII (Michael W. Deem and Ramdas Pophale) SiO2 
 PCOD9247416
Probable space group: P 21/C
;
_chemical_formula_sum "Si O2"
_cell_formula_units_Z 24
_cell_length_a 18.083753
_cell_length_b 11.249650
_cell_length_c 13.676946
_cell_angle_alpha 90.000000
_cell_angle_beta 18.889861
_cell_angle_gamma 90.000000
_cell_volume 900.796064
_symmetry_space_group_name_H-M "P 21/C"
_symmetry_group_IT_number 14
_symmetry_cell_setting 'monoclinic'
loop_
_space_group_symop_operation_xyz
x,y,z
-x,1/2+y,1/2-z
-x,-y,-z
x,1/2-y,1/2+z
loop_
_atom_site_type_symbol
_atom_site_label
_atom_site_fract_x
_atom_site_fract_y
_atom_site_fract_z
Si Si1 0.521587 0.035758 0.359300
Si Si2 0.197443 0.276023 0.153016
Si Si3 0.864647 0.378505 0.699414
Si Si4 0.645535 0.896466 0.900741
Si Si5 0.476459 0.148445 0.137477
Si Si6 0.888151 0.157774 0.777491
O O1 0.397592 0.919071 0.467324
O O2 0.500000 0.000000 0.500000
O O3 0.359036 0.139950 0.518908
O O4 0.768377 0.084440 0.014996
O O5 0.276029 0.149509 0.092880
O O6 0.944215 0.300342 0.506523
O O7 0.254337 0.304752 0.971345
O O8 0.939711 0.301966 0.701752
O O9 0.000000 0.500000 0.500000
O O10 0.519675 0.810746 0.979472
O O11 0.890214 0.911096 0.539786
O O12 0.479233 0.006027 0.124171
O O13 0.687590 0.162972 0.945882
#
# Coordination Sequence:
#
# PCOD9247416 Si02
#       6
#     4   4   4   4   4   4
#     4  10  22  37  65 100 131 174 232 286 342 416
#     4   9  21  40  64  94 133 179 226 285 345 414
#     4   9  20  41  66  92 135 177 223 282 347 408
#     4  10  22  43  66  99 137 182 233 277 358 418
#     4  10  22  40  69  98 135 184 225 292 342 417
#     4  10  22  41  69  96 137 182 229 288 348 415
#
# _framework density 26.643098999999999
#
# number of rings (size 3 to 8) (size 9 to 14) (size 15 to 20)
#    0.000    2.333    0.000    0.500    4.667    8.000 
#    0.000    1.667    0.000    0.000    0.000    0.000 
#    0.000    0.000    0.000    0.000    0.000    0.000 
#
# Total GULP energy -133619.094659 kJ/mol
# GULP energy per Si atom -5567.462277 kJ/mol
# Density = 2.658246 g / cm^3
# Si number density = 26.643099 Si / 1000 Ang^3
#
#
#
# Elastic Constant Matrix: (Units=GPa)
#
#
# Indices 1 2 3 4 5 6 
#
# 1 73.4853 44.7438 32.7269 0.0000 26.9149 0.0000
# 2 44.7438 81.3369 61.2390 0.0000 20.8219 0.0000
# 3 32.7269 61.2390 181.3272 0.0000 22.1829 0.0000
# 4 0.0000 0.0000 0.0000 51.3337 0.0000 -1.5770
# 5 26.9149 20.8219 22.1829 0.0000 44.5781 0.0000
# 6 0.0000 0.0000 0.0000 -1.5770 0.0000 43.1288
#
#
#
# Elastic Compliance Matrix: (Units=1/GPa)
#
#
# Indices 1 2 3 4 5 6 
#
# 1 0.023425 -0.010961 0.000615 0.000000 -0.009330 0.000000
# 2 -0.010961 0.022856 -0.005584 0.000000 -0.001279 0.000000
# 3 0.000615 -0.005584 0.007471 0.000000 -0.001481 0.000000
# 4 0.000000 0.000000 0.000000 0.019502 0.000000 0.000713
# 5 -0.009330 -0.001279 -0.001481 0.000000 0.029400 0.000000
# 6 0.000000 0.000000 0.000000 0.000713 0.000000 0.023212
#
#
# Mechanical properties :
#
#
# Convention : Reuss Voigt Hill
#
# Bulk Modulus (GPa) = 45.67869 68.17431 56.92650
# Shear Modulus (GPa) = 30.29838 40.97077 35.63458
#
# Velocity S-wave (km/s) = 3.37589 3.92569 3.66112
# Velocity P-wave (km/s) = 5.69011 6.79644 6.26773
#
# Compressibility (1/GPa) = 0.02189205
#
# Stress axis : x y z
#
# Youngs Moduli (GPa) = 42.68868 43.75159 133.85129
#
# Poissons Ratio (x) = 0.47958 -0.08237
# Poissons Ratio (y) = 0.46792 0.74747
# Poissons Ratio (z) = -0.02627 0.24432
#
# Static dielectric constant tensor:
#      x y z
#    x 2.195690 0.000000 -0.048070 
#    y 0.000000 2.346760 0.000000 
#    z -0.048070 0.000000 2.171960 
# 
# From -- ./inp_files/50421.got.cif
#   From: 2010.05.17/outbox.cif.g08.bks.cpg/sg14_26_cif.got.tgz:50421.got - 2010.06.03 17:49:19.
