data_PCOD9247067
_publ_section_title
;
Structure prediction by ZEFSAII (Michael W. Deem and Ramdas Pophale) SiO2 
 PCOD9247067
Probable space group: P 21/C
;
_chemical_formula_sum "Si O2"
_cell_formula_units_Z 28
_cell_length_a 10.941431
_cell_length_b 5.402215
_cell_length_c 20.324479
_cell_angle_alpha 90.000000
_cell_angle_beta 67.497248
_cell_angle_gamma 90.000000
_cell_volume 1109.870011
_symmetry_space_group_name_H-M "P 21/C"
_symmetry_group_IT_number 14
_symmetry_cell_setting 'monoclinic'
loop_
_space_group_symop_operation_xyz
x,y,z
-x,1/2+y,1/2-z
-x,-y,-z
x,1/2-y,1/2+z
loop_
_atom_site_type_symbol
_atom_site_label
_atom_site_fract_x
_atom_site_fract_y
_atom_site_fract_z
Si Si1 0.307162 0.966553 0.094773
Si Si2 0.836232 0.530678 0.146415
Si Si3 0.053743 0.234355 0.136286
Si Si4 0.366624 0.217556 0.890791
Si Si5 0.436384 0.779322 0.453595
Si Si6 0.363185 0.738306 0.726606
Si Si7 0.158564 0.409651 0.244704
O O1 0.164655 0.036772 0.094858
O O2 0.411336 0.193762 0.069493
O O3 0.305776 0.892708 0.171846
O O4 0.369034 0.748466 0.038608
O O5 0.777859 0.727238 0.107941
O O6 0.709063 0.365745 0.193953
O O7 0.873901 0.668781 0.206306
O O8 0.967696 0.380436 0.100635
O O9 0.134330 0.395340 0.172694
O O10 0.938840 0.111115 0.204069
O O11 0.406404 0.458669 0.926261
O O12 0.480965 0.208201 0.811260
O O13 0.376540 0.955820 0.925480
O O14 0.308826 0.015309 0.729115
#
# Coordination Sequence:
#
# PCOD9247067 Si02
#       7
#     4   4   4   4   4   4   4
#     4  10  21  43  70  95 123 167 226 279 324 369
#     4  11  25  38  61  96 134 172 208 265 341 408
#     4  11  20  37  60  95 127 167 210 274 327 396
#     4  11  26  44  64  94 138 174 212 264 329 398
#     4  10  25  46  68  96 126 173 227 275 315 382
#     4  10  23  36  67  96 125 166 214 273 333 394
#     4  11  20  36  58  95 130 157 211 260 336 388
#
# _framework density 25.228176999999999
#
# number of rings (size 3 to 8) (size 9 to 14) (size 15 to 20)
#    0.000    1.429    2.857    1.714    8.000    6.286 
#    0.000    1.429    0.000    0.000    0.000    0.000 
#    0.000    0.000    0.000    0.000    0.000    0.000 
#
# Total GULP energy -156598.340391 kJ/mol
# GULP energy per Si atom -5592.797871 kJ/mol
# Density = 2.517076 g / cm^3
# Si number density = 25.228177 Si / 1000 Ang^3
#
#
#
# Elastic Constant Matrix: (Units=GPa)
#
#
# Indices 1 2 3 4 5 6 
#
# 1 128.9894 22.7014 25.2218 0.0000 5.6583 0.0000
# 2 22.7014 91.4745 19.8826 0.0000 10.7332 0.0000
# 3 25.2218 19.8826 48.6731 0.0000 -2.6702 0.0000
# 4 0.0000 0.0000 0.0000 28.7358 0.0000 15.0429
# 5 5.6583 10.7332 -2.6702 0.0000 19.3481 0.0000
# 6 0.0000 0.0000 0.0000 15.0429 0.0000 46.8770
#
#
#
# Elastic Compliance Matrix: (Units=1/GPa)
#
#
# Indices 1 2 3 4 5 6 
#
# 1 0.008890 -0.000942 -0.004369 0.000000 -0.002680 0.000000
# 2 -0.000942 0.013245 -0.005351 0.000000 -0.007811 0.000000
# 3 -0.004369 -0.005351 0.025420 0.000000 0.007754 0.000000
# 4 0.000000 0.000000 0.000000 0.041826 0.000000 -0.013422
# 5 -0.002680 -0.007811 0.007754 0.000000 0.057872 0.000000
# 6 0.000000 0.000000 0.000000 -0.013422 0.000000 0.025640
#
#
# Mechanical properties :
#
#
# Convention : Reuss Voigt Hill
#
# Bulk Modulus (GPa) = 38.12157 44.97204 41.54681
# Shear Modulus (GPa) = 24.63523 32.41426 28.52474
#
# Velocity S-wave (km/s) = 3.12828 3.58836 3.36619
# Velocity P-wave (km/s) = 5.30959 5.91889 5.62250
#
# Compressibility (1/GPa) = 0.02623187
#
# Stress axis : x y z
#
# Youngs Moduli (GPa) = 112.48281 75.49817 39.33855
#
# Poissons Ratio (x) = 0.07113 0.17187
# Poissons Ratio (y) = 0.10598 0.21050
# Poissons Ratio (z) = 0.49143 0.40398
#
# Static dielectric constant tensor:
#      x y z
#    x 2.026670 0.000000 0.020990 
#    y 0.000000 2.079430 0.000000 
#    z 0.020990 0.000000 1.979490 
# 
# From -- ./inp_files/66270.got.cif
#   From: 2010.05.17/outbox.cif.g08.bks.cpg/sg14_34_cif.got.tgz:66270.got - 2010.06.03 17:49:19.
