data_PCOD9247665
_publ_section_title
;
Structure prediction by ZEFSAII (Michael W. Deem and Ramdas Pophale) SiO2 
 PCOD9247665
Probable space group: P 21/C
;
_chemical_formula_sum "Si O2"
_cell_formula_units_Z 28
_cell_length_a 18.772184
_cell_length_b 6.576987
_cell_length_c 25.426757
_cell_angle_alpha 90.000000
_cell_angle_beta 20.225674
_cell_angle_gamma 90.000000
_cell_volume 1085.314558
_symmetry_space_group_name_H-M "P 21/C"
_symmetry_group_IT_number 14
_symmetry_cell_setting 'monoclinic'
loop_
_space_group_symop_operation_xyz
x,y,z
-x,1/2+y,1/2-z
-x,-y,-z
x,1/2-y,1/2+z
loop_
_atom_site_type_symbol
_atom_site_label
_atom_site_fract_x
_atom_site_fract_y
_atom_site_fract_z
Si Si1 0.694378 0.155651 0.165218
Si Si2 0.187260 0.762189 0.632413
Si Si3 0.663348 0.185279 0.793477
Si Si4 0.915724 0.545729 0.658127
Si Si5 0.003692 0.879435 0.361716
Si Si6 0.617992 0.177381 0.606550
Si Si7 0.761712 0.719921 0.870303
O O1 0.646838 0.322634 0.242374
O O2 0.605399 0.200550 0.169174
O O3 0.589291 0.948148 0.256650
O O4 0.937253 0.138875 0.987270
O O5 0.160330 0.630715 0.703690
O O6 0.316543 0.702415 0.491255
O O7 0.952188 0.785146 0.774966
O O8 0.271516 0.982360 0.590653
O O9 0.733005 0.416481 0.759879
O O10 0.856557 0.066016 0.684442
O O11 0.447466 0.162884 0.972161
O O12 0.048572 0.360741 0.593365
O O13 0.838020 0.695577 0.757411
O O14 0.804628 0.012965 0.487315
#
# Coordination Sequence:
#
# PCOD9247665 Si02
#       7
#     4   4   4   4   4   4   4
#     4  12  23  40  65  92 129 170 213 258 319 377
#     4  11  20  38  66  93 124 159 217 264 309 368
#     4  10  22  39  64  89 131 167 207 262 318 382
#     4   9  21  37  63  92 121 167 213 256 310 379
#     4   9  22  39  63  91 127 162 212 263 312 374
#     4  12  24  41  64  96 129 171 214 264 316 380
#     4  11  20  39  67  92 123 169 210 269 312 371
#
# _framework density 25.798973
#
# number of rings (size 3 to 8) (size 9 to 14) (size 15 to 20)
#    0.857    0.571    4.286    1.714    0.000    1.714 
#    0.000    0.714    3.143    0.000    0.000    0.000 
#    0.000    0.000    0.000    0.000    0.000    0.000 
#
# Total GULP energy -156594.000137 kJ/mol
# GULP energy per Si atom -5592.642862 kJ/mol
# Density = 2.574025 g / cm^3
# Si number density = 25.798973 Si / 1000 Ang^3
#
#
#
# Elastic Constant Matrix: (Units=GPa)
#
#
# Indices 1 2 3 4 5 6 
#
# 1 80.4377 3.1568 23.4666 0.0000 20.6260 0.0000
# 2 3.1568 40.7759 23.9941 0.0000 0.4163 0.0000
# 3 23.4666 23.9941 150.3959 0.0000 13.6700 0.0000
# 4 0.0000 0.0000 0.0000 27.4856 0.0000 3.2760
# 5 20.6260 0.4163 13.6700 0.0000 29.7148 0.0000
# 6 0.0000 0.0000 0.0000 3.2760 0.0000 36.8481
#
#
#
# Elastic Compliance Matrix: (Units=1/GPa)
#
#
# Indices 1 2 3 4 5 6 
#
# 1 0.015443 -0.000234 -0.001459 0.000000 -0.010045 0.000000
# 2 -0.000234 0.027149 -0.004462 0.000000 0.001835 0.000000
# 3 -0.001459 -0.004462 0.007818 0.000000 -0.002521 0.000000
# 4 0.000000 0.000000 0.000000 0.036772 0.000000 -0.003269
# 5 -0.010045 0.001835 -0.002521 0.000000 0.041760 0.000000
# 6 0.000000 0.000000 0.000000 -0.003269 0.000000 0.027429
#
#
# Mechanical properties :
#
#
# Convention : Reuss Voigt Hill
#
# Bulk Modulus (GPa) = 26.24724 41.42715 33.83720
# Shear Modulus (GPa) = 27.56640 33.54252 30.55446
#
# Velocity S-wave (km/s) = 3.27235 3.60967 3.44514
# Velocity P-wave (km/s) = 4.94707 5.78494 5.38233
#
# Compressibility (1/GPa) = 0.03809924
#
# Stress axis : x y z
#
# Youngs Moduli (GPa) = 64.75625 36.83368 127.91425
#
# Poissons Ratio (x) = 0.00863 0.18665
# Poissons Ratio (y) = 0.01517 0.57070
# Poissons Ratio (z) = 0.09449 0.16434
#
# Static dielectric constant tensor:
#      x y z
#    x 2.016480 0.000000 0.029530 
#    y 0.000000 2.162680 0.000000 
#    z 0.029530 0.000000 1.954610 
# 
# From -- ./inp_files/77910.got.cif
#   From: 2010.05.17/outbox.cif.g08.bks.cpg/sg14_39_cif.got.tgz:77910.got - 2010.06.03 17:49:19.
