data_PCOD9247687
_publ_section_title
;
Structure prediction by ZEFSAII (Michael W. Deem and Ramdas Pophale) SiO2 
 PCOD9247687
Probable space group: P 21/C
;
_chemical_formula_sum "Si O2"
_cell_formula_units_Z 32
_cell_length_a 12.576522
_cell_length_b 11.004788
_cell_length_c 13.764502
_cell_angle_alpha 90.000000
_cell_angle_beta 39.312429
_cell_angle_gamma 90.000000
_cell_volume 1206.931882
_symmetry_space_group_name_H-M "P 21/C"
_symmetry_group_IT_number 14
_symmetry_cell_setting 'monoclinic'
loop_
_space_group_symop_operation_xyz
x,y,z
-x,1/2+y,1/2-z
-x,-y,-z
x,1/2-y,1/2+z
loop_
_atom_site_type_symbol
_atom_site_label
_atom_site_fract_x
_atom_site_fract_y
_atom_site_fract_z
Si Si1 0.867846 0.923068 0.821369
Si Si2 0.323142 0.462486 0.840917
Si Si3 0.194877 0.834976 0.023616
Si Si4 0.398910 0.721950 0.718285
Si Si5 0.761668 0.424644 0.922031
Si Si6 0.127540 0.430329 0.337575
Si Si7 0.241142 0.280368 0.428417
Si Si8 0.447683 0.133774 0.070401
O O1 0.745768 0.864361 0.829166
O O2 0.055633 0.950732 0.657287
O O3 0.786071 0.044206 0.925641
O O4 0.884486 0.837664 0.904466
O O5 0.303982 0.591995 0.802125
O O6 0.185698 0.357293 0.948319
O O7 0.448555 0.381182 0.685602
O O8 0.368437 0.500971 0.918669
O O9 0.249641 0.717792 0.046826
O O10 0.996994 0.843197 0.136196
O O11 0.289915 0.820861 0.852627
O O12 0.579765 0.710675 0.643455
O O13 0.450094 0.727818 0.568894
O O14 0.777073 0.481437 0.804720
O O15 0.244880 0.354843 0.326388
O O16 0.000000 0.500000 0.500000
O O17 0.500000 0.000000 0.000000
#
# Coordination Sequence:
#
# PCOD9247687 Si02
#       8
#     4   4   4   4   4   4   4   4
#     4  10  22  39  65  88 130 176 208 276 340 388
#     4  10  23  41  63  98 130 168 229 277 323 407
#     4  10  22  43  65  91 137 170 219 269 338 391
#     4   9  22  43  66  94 132 179 218 276 331 400
#     4  10  23  42  62  96 132 170 220 274 336 395
#     4  11  23  42  64 100 135 176 223 270 337 403
#     4  11  23  39  70  93 134 177 217 272 341 392
#     4   9  20  40  59  90 123 160 222 263 326 382
#
# _framework density 26.513511000000001
#
# number of rings (size 3 to 8) (size 9 to 14) (size 15 to 20)
#    0.000    2.000    2.500    0.000   10.500    1.500 
#   11.250    2.500    0.000    0.000    0.000    0.000 
#    0.000    0.000    0.000    0.000    0.000    0.000 
#
# Total GULP energy -178697.982163 kJ/mol
# GULP energy per Si atom -5584.311943 kJ/mol
# Density = 2.645316 g / cm^3
# Si number density = 26.513511 Si / 1000 Ang^3
#
#
#
# Elastic Constant Matrix: (Units=GPa)
#
#
# Indices 1 2 3 4 5 6 
#
# 1 107.2358 21.6018 33.4186 0.0000 18.8124 0.0000
# 2 21.6018 105.0222 53.2385 0.0000 16.3475 0.0000
# 3 33.4186 53.2385 120.9433 0.0000 34.2572 0.0000
# 4 0.0000 0.0000 0.0000 52.5553 0.0000 6.4762
# 5 18.8124 16.3475 34.2572 0.0000 46.7071 0.0000
# 6 0.0000 0.0000 0.0000 6.4762 0.0000 28.6400
#
#
#
# Elastic Compliance Matrix: (Units=1/GPa)
#
#
# Indices 1 2 3 4 5 6 
#
# 1 0.010514 -0.000847 -0.001788 0.000000 -0.002627 0.000000
# 2 -0.000847 0.012332 -0.005135 0.000000 -0.000208 0.000000
# 3 -0.001788 -0.005135 0.013013 0.000000 -0.007027 0.000000
# 4 0.000000 0.000000 0.000000 0.019573 0.000000 -0.004426
# 5 -0.002627 -0.000208 -0.007027 0.000000 0.027695 0.000000
# 6 0.000000 0.000000 0.000000 -0.004426 0.000000 0.035917
#
#
# Mechanical properties :
#
#
# Convention : Reuss Voigt Hill
#
# Bulk Modulus (GPa) = 49.21821 61.07989 55.14905
# Shear Modulus (GPa) = 35.37126 40.57664 37.97395
#
# Velocity S-wave (km/s) = 3.65647 3.91629 3.78861
# Velocity P-wave (km/s) = 6.03574 6.59826 6.32326
#
# Compressibility (1/GPa) = 0.02031768
#
# Stress axis : x y z
#
# Youngs Moduli (GPa) = 95.11142 81.09209 76.84433
#
# Poissons Ratio (x) = 0.06870 0.13742
# Poissons Ratio (y) = 0.08058 0.39461
# Poissons Ratio (z) = 0.17008 0.41642
#
# Static dielectric constant tensor:
#      x y z
#    x 2.096020 0.000000 -0.021720 
#    y 0.000000 2.083370 0.000000 
#    z -0.021720 0.000000 2.160680 
# 
# From -- ./inp_files/47121.got.cif
#   From: 2010.05.17/outbox.cif.g08.bks.cpg/sg14_24_cif.got.tgz:47121.got - 2010.06.03 17:49:19.
