data_PCOD9247242
_publ_section_title
;
Structure prediction by ZEFSAII (Michael W. Deem and Ramdas Pophale) SiO2 
 PCOD9247242
Probable space group: P 21/C
;
_chemical_formula_sum "Si O2"
_cell_formula_units_Z 30
_cell_length_a 13.385885
_cell_length_b 5.038370
_cell_length_c 24.375439
_cell_angle_alpha 90.000000
_cell_angle_beta 137.034759
_cell_angle_gamma 90.000000
_cell_volume 1120.444156
_symmetry_space_group_name_H-M "P 21/C"
_symmetry_group_IT_number 14
_symmetry_cell_setting 'monoclinic'
loop_
_space_group_symop_operation_xyz
x,y,z
-x,1/2+y,1/2-z
-x,-y,-z
x,1/2-y,1/2+z
loop_
_atom_site_type_symbol
_atom_site_label
_atom_site_fract_x
_atom_site_fract_y
_atom_site_fract_z
Si Si1 0.370007 0.328464 0.534508
Si Si2 0.342861 0.316251 0.177742
Si Si3 0.000000 0.500000 0.500000
Si Si4 0.830428 0.907387 0.140604
Si Si5 0.238873 0.668175 0.045613
Si Si6 0.611652 0.362846 0.710002
Si Si7 0.985733 0.900828 0.312822
Si Si8 0.126692 0.994406 0.145108
O O1 0.320685 0.354662 0.451670
O O2 0.312706 0.581833 0.545362
O O3 0.540297 0.324473 0.621847
O O4 0.287588 0.073818 0.526367
O O5 0.303793 0.583138 0.130778
O O6 0.362687 0.350319 0.251144
O O7 0.484841 0.226317 0.202174
O O8 0.203075 0.117064 0.118611
O O9 0.078520 0.744171 0.497215
O O10 0.006222 0.666569 0.563412
O O11 0.856524 0.872086 0.215636
O O12 0.950486 0.699547 0.162499
O O13 0.879366 0.210301 0.150467
O O14 0.758035 0.193132 0.777687
O O15 0.926774 0.737924 0.340340
#
# Coordination Sequence:
#
# PCOD9247242 Si02
#       8
#     4   4   2   4   4   4   4   4
#     4  11  23  39  66  88 120 163 221 254 311 377
#     4  11  22  40  59  83 129 172 215 243 311 368
#     4  12  22  38  52  86 128 156 200 256 310 368
#     4  10  21  46  68  95 120 163 206 272 323 374
#     4  11  24  38  60  90 124 169 205 259 308 378
#     4  11  22  38  58  86 124 173 208 254 301 374
#     4  10  24  42  70  93 127 159 212 262 326 375
#     4  12  25  38  60  92 127 171 212 260 311 378
#
# _framework density 26.775095
#
# number of rings (size 3 to 8) (size 9 to 14) (size 15 to 20)
#    0.000    1.067    2.667    4.800    3.733    3.200 
#    0.000    0.667    0.000    0.800    0.000    0.000 
#    0.000    0.000    0.000    0.000    0.000    0.000 
#
# Total GULP energy -167307.909722 kJ/mol
# GULP energy per Si atom -5576.930324 kJ/mol
# Density = 2.671415 g / cm^3
# Si number density = 26.775095 Si / 1000 Ang^3
#
#
#
# Elastic Constant Matrix: (Units=GPa)
#
#
# Indices 1 2 3 4 5 6 
#
# 1 23.3709 -8.8657 5.5701 0.0000 -5.1026 0.0000
# 2 -8.8657 127.6623 -13.1562 0.0000 4.1739 0.0000
# 3 5.5701 -13.1562 198.4788 0.0000 -36.7903 0.0000
# 4 0.0000 0.0000 0.0000 33.9611 0.0000 4.5841
# 5 -5.1026 4.1739 -36.7903 0.0000 34.5207 0.0000
# 6 0.0000 0.0000 0.0000 4.5841 0.0000 31.8703
#
#
#
# Elastic Compliance Matrix: (Units=1/GPa)
#
#
# Indices 1 2 3 4 5 6 
#
# 1 0.045289 0.002946 0.000124 0.000000 0.006470 0.000000
# 2 0.002946 0.008085 0.000440 0.000000 -0.000074 0.000000
# 3 0.000124 0.000440 0.006303 0.000000 0.006682 0.000000
# 4 0.000000 0.000000 0.000000 0.030028 0.000000 -0.004319
# 5 0.006470 -0.000074 0.006682 0.000000 0.037055 0.000000
# 6 0.000000 0.000000 0.000000 -0.004319 0.000000 0.031998
#
#
# Mechanical properties :
#
#
# Convention : Reuss Voigt Hill
#
# Bulk Modulus (GPa) = 14.99334 35.17872 25.08603
# Shear Modulus (GPa) = 28.74028 44.46800 36.60414
#
# Velocity S-wave (km/s) = 3.27983 4.07971 3.70144
# Velocity P-wave (km/s) = 4.46709 5.94636 5.25900
#
# Compressibility (1/GPa) = 0.06669627
#
# Stress axis : x y z
#
# Youngs Moduli (GPa) = 22.08035 123.67832 158.66483
#
# Poissons Ratio (x) = -0.36440 -0.01960
# Poissons Ratio (y) = -0.06506 -0.06975
# Poissons Ratio (z) = -0.00273 -0.05437
#
# Static dielectric constant tensor:
#      x y z
#    x 2.053230 0.000000 -0.169380 
#    y 0.000000 2.095050 0.000000 
#    z -0.169380 0.000000 1.433700 
# 
# From -- ./inp_files/77435.got.cif
#   From: 2010.05.17/outbox.cif.g08.bks.cpg/sg14_39_cif.got.tgz:77435.got - 2010.06.03 17:49:19.
