data_PCOD9247316
_publ_section_title
;
Structure prediction by ZEFSAII (Michael W. Deem and Ramdas Pophale) SiO2 
 PCOD9247316
Probable space group: P 21/C
;
_chemical_formula_sum "Si O2"
_cell_formula_units_Z 16
_cell_length_a 5.310954
_cell_length_b 8.359138
_cell_length_c 14.453367
_cell_angle_alpha 90.000000
_cell_angle_beta 63.971368
_cell_angle_gamma 90.000000
_cell_volume 576.577026
_symmetry_space_group_name_H-M "P 21/C"
_symmetry_group_IT_number 14
_symmetry_cell_setting 'monoclinic'
loop_
_space_group_symop_operation_xyz
x,y,z
-x,1/2+y,1/2-z
-x,-y,-z
x,1/2-y,1/2+z
loop_
_atom_site_type_symbol
_atom_site_label
_atom_site_fract_x
_atom_site_fract_y
_atom_site_fract_z
Si Si1 0.975992 0.831550 0.269275
Si Si2 0.028816 0.588541 0.114033
Si Si3 0.277788 0.894329 0.975556
Si Si4 0.505308 0.491784 0.739366
O O1 0.769854 0.908769 0.228151
O O2 0.869017 0.905436 0.385050
O O3 0.296439 0.888051 0.219843
O O4 0.005734 0.654739 0.224239
O O5 0.696898 0.570001 0.145131
O O6 0.190990 0.723673 0.033203
O O7 0.404393 0.865051 0.852886
O O8 0.500000 0.000000 0.000000
O O9 0.000000 0.000000 0.000000
#
# Coordination Sequence:
#
# PCOD9247316 Si02
#       4
#     4   4   4   4
#     4  10  22  37  61  85 125 156 196 250 302 354
#     4  10  23  38  64  87 125 155 204 247 305 352
#     4  12  21  37  63  91 116 160 212 246 286 363
#     4  10  22  36  57  91 119 151 203 248 300 343
#
# _framework density 27.749979
#
# number of rings (size 3 to 8) (size 9 to 14) (size 15 to 20)
#    1.500    0.000    5.000    0.000    7.000    0.000 
#    0.000    1.250    0.000    3.000    0.000    0.000 
#    0.000    0.000    0.000    0.000    0.000    0.000 
#
# Total GULP energy -89171.313152 kJ/mol
# GULP energy per Si atom -5573.207072 kJ/mol
# Density = 2.768682 g / cm^3
# Si number density = 27.749979 Si / 1000 Ang^3
#
#
#
# Elastic Constant Matrix: (Units=GPa)
#
#
# Indices 1 2 3 4 5 6 
#
# 1 170.0383 50.3966 25.0361 0.0000 -10.3564 0.0000
# 2 50.3966 75.1044 13.9466 0.0000 13.0131 0.0000
# 3 25.0361 13.9466 81.7734 0.0000 3.7567 0.0000
# 4 0.0000 0.0000 0.0000 60.1417 0.0000 3.2222
# 5 -10.3564 13.0131 3.7567 0.0000 20.5847 0.0000
# 6 0.0000 0.0000 0.0000 3.2222 0.0000 45.6255
#
#
#
# Elastic Compliance Matrix: (Units=1/GPa)
#
#
# Indices 1 2 3 4 5 6 
#
# 1 0.008876 -0.007226 -0.001916 0.000000 0.009384 0.000000
# 2 -0.007226 0.021214 -0.000628 0.000000 -0.016932 0.000000
# 3 -0.001916 -0.000628 0.013058 0.000000 -0.002950 0.000000
# 4 0.000000 0.000000 0.000000 0.016691 0.000000 -0.001179
# 5 0.009384 -0.016932 -0.002950 0.000000 0.064543 0.000000
# 6 0.000000 0.000000 0.000000 -0.001179 0.000000 0.022001
#
#
# Mechanical properties :
#
#
# Convention : Reuss Voigt Hill
#
# Bulk Modulus (GPa) = 42.35855 56.18609 49.27232
# Shear Modulus (GPa) = 28.76968 41.10615 34.93792
#
# Velocity S-wave (km/s) = 3.22335 3.85295 3.55212
# Velocity P-wave (km/s) = 5.39915 6.33126 5.88369
#
# Compressibility (1/GPa) = 0.02360798
#
# Stress axis : x y z
#
# Youngs Moduli (GPa) = 112.65702 47.13817 76.58009
#
# Poissons Ratio (x) = 0.34064 0.14675
# Poissons Ratio (y) = 0.81410 0.04808
# Poissons Ratio (z) = 0.21588 0.02959
#
# Static dielectric constant tensor:
#      x y z
#    x 2.155530 0.000000 0.021540 
#    y 0.000000 2.173870 0.000000 
#    z 0.021540 0.000000 2.266410 
# 
# From -- ./inp_files/20310.got.cif
#   From: 2010.05.17/outbox.cif.g08.bks.cpg/sg14_11_cif.got.tgz:20310.got - 2010.06.03 17:49:19.
