data_PCOD9247283
_publ_section_title
;
Structure prediction by ZEFSAII (Michael W. Deem and Ramdas Pophale) SiO2 
 PCOD9247283
Probable space group: P 21/C
;
_chemical_formula_sum "Si O2"
_cell_formula_units_Z 28
_cell_length_a 5.077716
_cell_length_b 13.507113
_cell_length_c 15.432888
_cell_angle_alpha 90.000000
_cell_angle_beta 93.100890
_cell_angle_gamma 90.000000
_cell_volume 1056.919225
_symmetry_space_group_name_H-M "P 21/C"
_symmetry_group_IT_number 14
_symmetry_cell_setting 'monoclinic'
loop_
_space_group_symop_operation_xyz
x,y,z
-x,1/2+y,1/2-z
-x,-y,-z
x,1/2-y,1/2+z
loop_
_atom_site_type_symbol
_atom_site_label
_atom_site_fract_x
_atom_site_fract_y
_atom_site_fract_z
Si Si1 0.213601 0.167108 0.446668
Si Si2 0.022282 0.904909 0.170287
Si Si3 0.470315 0.676103 0.364850
Si Si4 0.059066 0.513481 0.168721
Si Si5 0.472743 0.229540 0.806748
Si Si6 0.020729 0.360954 0.527672
Si Si7 0.459333 0.911920 0.403610
O O1 0.442027 0.226672 0.401668
O O2 0.373080 0.087285 0.504355
O O3 0.049942 0.245381 0.499035
O O4 0.021736 0.117939 0.373077
O O5 0.996922 0.999592 0.231075
O O6 0.299207 0.851276 0.190494
O O7 0.984968 0.915553 0.065982
O O8 0.804445 0.828853 0.206044
O O9 0.478884 0.682404 0.260921
O O10 0.226963 0.633560 0.413955
O O11 0.480084 0.795040 0.381815
O O12 0.719010 0.621920 0.411379
O O13 0.844331 0.441707 0.116085
O O14 0.354069 0.478857 0.153722
#
# Coordination Sequence:
#
# PCOD9247283 Si02
#       7
#     4   4   4   4   4   4   4
#     4  10  24  37  56  86 116 150 182 232 276 339
#     4  11  20  38  56  82 110 150 187 232 269 339
#     4  11  19  37  58  81 108 149 186 233 271 325
#     4  12  22  36  57  82 119 149 181 223 284 335
#     4  11  22  38  57  80 113 146 194 228 276 325
#     4  10  22  35  57  81 112 142 192 228 279 322
#     4  11  21  35  55  82 118 148 181 218 281 345
#
# _framework density 26.492087999999999
#
# number of rings (size 3 to 8) (size 9 to 14) (size 15 to 20)
#    0.000    1.143    2.857    6.000    0.000    5.714 
#    0.000    0.000    0.000    1.714    0.000    0.000 
#    0.000    0.000    0.000    0.000    0.000    0.000 
#
# Total GULP energy -156917.098938 kJ/mol
# GULP energy per Si atom -5604.182105 kJ/mol
# Density = 2.643179 g / cm^3
# Si number density = 26.492088 Si / 1000 Ang^3
#
#
#
# Elastic Constant Matrix: (Units=GPa)
#
#
# Indices 1 2 3 4 5 6 
#
# 1 168.2995 15.4144 34.8286 0.0000 -21.3698 0.0000
# 2 15.4144 58.7113 13.5479 0.0000 -2.8053 0.0000
# 3 34.8286 13.5479 135.3330 0.0000 -3.4807 0.0000
# 4 0.0000 0.0000 0.0000 50.4870 0.0000 5.6217
# 5 -21.3698 -2.8053 -3.4807 0.0000 40.5482 0.0000
# 6 0.0000 0.0000 0.0000 5.6217 0.0000 25.9758
#
#
#
# Elastic Compliance Matrix: (Units=1/GPa)
#
#
# Indices 1 2 3 4 5 6 
#
# 1 0.006804 -0.001271 -0.001537 0.000000 0.003366 0.000000
# 2 -0.001271 0.017718 -0.001436 0.000000 0.000433 0.000000
# 3 -0.001537 -0.001436 0.007923 0.000000 -0.000229 0.000000
# 4 0.000000 0.000000 0.000000 0.020296 0.000000 -0.004393
# 5 0.003366 0.000433 -0.000229 0.000000 0.026446 0.000000
# 6 0.000000 0.000000 0.000000 -0.004393 0.000000 0.039448
#
#
# Mechanical properties :
#
#
# Convention : Reuss Voigt Hill
#
# Bulk Modulus (GPa) = 41.74078 54.43617 48.08848
# Shear Modulus (GPa) = 37.00763 43.30574 40.15669
#
# Velocity S-wave (km/s) = 3.74161 4.04749 3.89755
# Velocity P-wave (km/s) = 5.86995 6.51426 6.20048
#
# Compressibility (1/GPa) = 0.02395739
#
# Stress axis : x y z
#
# Youngs Moduli (GPa) = 146.97979 56.43960 126.22129
#
# Poissons Ratio (x) = 0.07172 0.19402
# Poissons Ratio (y) = 0.18677 0.18120
# Poissons Ratio (z) = 0.22593 0.08102
#
# Static dielectric constant tensor:
#      x y z
#    x 1.977460 0.000000 0.020500 
#    y 0.000000 2.104740 0.000000 
#    z 0.020500 0.000000 2.165180 
# 
# From -- ./inp_files/37555.got.cif
#   From: 2010.05.17/outbox.cif.g08.bks.cpg/sg14_19_cif.got.tgz:37555.got - 2010.06.03 17:49:19.
