data_PCOD9247330
_publ_section_title
;
Structure prediction by ZEFSAII (Michael W. Deem and Ramdas Pophale) SiO2 
 PCOD9247330
Probable space group: P 21/C
;
_chemical_formula_sum "Si O2"
_cell_formula_units_Z 32
_cell_length_a 9.250711
_cell_length_b 11.941199
_cell_length_c 10.511146
_cell_angle_alpha 90.000000
_cell_angle_beta 103.817669
_cell_angle_gamma 90.000000
_cell_volume 1127.507617
_symmetry_space_group_name_H-M "P 21/C"
_symmetry_group_IT_number 14
_symmetry_cell_setting 'monoclinic'
loop_
_space_group_symop_operation_xyz
x,y,z
-x,1/2+y,1/2-z
-x,-y,-z
x,1/2-y,1/2+z
loop_
_atom_site_type_symbol
_atom_site_label
_atom_site_fract_x
_atom_site_fract_y
_atom_site_fract_z
Si Si1 0.195683 0.081386 0.948282
Si Si2 0.037099 0.344254 0.764181
Si Si3 0.843085 0.050323 0.429171
Si Si4 0.874195 0.424324 0.344810
Si Si5 0.370936 0.267621 0.909314
Si Si6 0.420490 0.110919 0.668079
Si Si7 0.411274 0.551945 0.364402
Si Si8 0.765812 0.275304 0.119728
O O1 0.188059 0.979366 0.043050
O O2 0.317293 0.174135 0.003170
O O3 0.258131 0.022023 0.836702
O O4 0.032875 0.133892 0.903443
O O5 0.904988 0.363298 0.837055
O O6 0.939381 0.268555 0.646780
O O7 0.070826 0.468683 0.721584
O O8 0.205737 0.306044 0.828718
O O9 0.757710 0.135883 0.504472
O O10 0.743422 0.938434 0.398706
O O11 0.000000 0.000000 0.500000
O O12 0.759623 0.350590 0.245367
O O13 0.432282 0.204254 0.790330
O O14 0.457031 0.349075 0.028699
O O15 0.484150 0.993736 0.748346
O O16 0.500000 0.500000 0.500000
O O17 0.350671 0.674275 0.386413
#
# Coordination Sequence:
#
# PCOD9247330 Si02
#       8
#     4   4   4   4   4   4   4   4
#     4  10  22  36  60  95 136 185 237 300 380 452
#     4  12  21  33  57 100 148 184 229 303 386 474
#     4  12  22  36  60 105 152 187 244 306 387 484
#     4  11  21  36  58 101 143 176 234 310 381 470
#     4  11  21  35  64  92 143 189 235 306 399 452
#     4  11  23  43  63  99 135 191 256 314 375 458
#     4  11  26  48  67  94 142 199 263 316 364 459
#     4  12  24  37  66 101 146 202 241 305 398 455
#
# _framework density 28.381184000000001
#
# number of rings (size 3 to 8) (size 9 to 14) (size 15 to 20)
#    0.000    0.750    6.250    2.250    3.500    0.000 
#    0.000    5.000    0.000    0.000    0.000   13.125 
#    0.000    0.000    0.000    0.000    0.000    0.000 
#
# Total GULP energy -178240.911630 kJ/mol
# GULP energy per Si atom -5570.028488 kJ/mol
# Density = 2.831659 g / cm^3
# Si number density = 28.381184 Si / 1000 Ang^3
#
#
#
# Elastic Constant Matrix: (Units=GPa)
#
#
# Indices 1 2 3 4 5 6 
#
# 1 115.9579 42.9587 48.5266 0.0000 -10.2731 0.0000
# 2 42.9587 96.5867 45.9233 0.0000 -11.6880 0.0000
# 3 48.5266 45.9233 107.2167 0.0000 -12.4212 0.0000
# 4 0.0000 0.0000 0.0000 56.9417 0.0000 10.6026
# 5 -10.2731 -11.6880 -12.4212 0.0000 39.3280 0.0000
# 6 0.0000 0.0000 0.0000 10.6026 0.0000 57.1577
#
#
#
# Elastic Compliance Matrix: (Units=1/GPa)
#
#
# Indices 1 2 3 4 5 6 
#
# 1 0.011443 -0.003227 -0.003697 0.000000 0.000862 0.000000
# 2 -0.003227 0.014095 -0.004348 0.000000 0.001973 0.000000
# 3 -0.003697 -0.004348 0.013079 0.000000 0.001873 0.000000
# 4 0.000000 0.000000 0.000000 0.018190 0.000000 -0.003374
# 5 0.000862 0.001973 0.001873 0.000000 0.026830 0.000000
# 6 0.000000 0.000000 0.000000 -0.003374 0.000000 0.018121
#
#
# Mechanical properties :
#
#
# Convention : Reuss Voigt Hill
#
# Bulk Modulus (GPa) = 62.21639 66.06426 64.14033
# Shear Modulus (GPa) = 38.56221 42.84233 40.70227
#
# Velocity S-wave (km/s) = 3.69009 3.88949 3.79110
# Velocity P-wave (km/s) = 6.33443 6.59536 6.46621
#
# Compressibility (1/GPa) = 0.01607293
#
# Stress axis : x y z
#
# Youngs Moduli (GPa) = 87.39023 70.94832 76.45620
#
# Poissons Ratio (x) = 0.22898 0.28265
# Poissons Ratio (y) = 0.28204 0.33242
# Poissons Ratio (z) = 0.32307 0.30847
#
# Static dielectric constant tensor:
#      x y z
#    x 3.188660 0.000000 0.108670 
#    y 0.000000 2.511230 0.000000 
#    z 0.108670 0.000000 2.532830 
# 
# From -- ./inp_files/29143.got.cif
#   From: 2010.05.17/outbox.cif.g08.bks.cpg/sg14_15_cif.got.tgz:29143.got - 2010.06.03 17:49:19.
