data_PCOD9247064
_publ_section_title
;
Structure prediction by ZEFSAII (Michael W. Deem and Ramdas Pophale) SiO2 
 PCOD9247064
Probable space group: P 21/C
;
_chemical_formula_sum "Si O2"
_cell_formula_units_Z 32
_cell_length_a 21.323860
_cell_length_b 5.101948
_cell_length_c 17.970105
_cell_angle_alpha 90.000000
_cell_angle_beta 42.370442
_cell_angle_gamma 90.000000
_cell_volume 1317.533523
_symmetry_space_group_name_H-M "P 21/C"
_symmetry_group_IT_number 14
_symmetry_cell_setting 'monoclinic'
loop_
_space_group_symop_operation_xyz
x,y,z
-x,1/2+y,1/2-z
-x,-y,-z
x,1/2-y,1/2+z
loop_
_atom_site_type_symbol
_atom_site_label
_atom_site_fract_x
_atom_site_fract_y
_atom_site_fract_z
Si Si1 0.758398 0.450476 0.270708
Si Si2 0.064552 0.083129 0.106972
Si Si3 0.197256 0.487913 0.355860
Si Si4 0.718434 0.713239 0.456686
Si Si5 0.348366 0.883874 0.846657
Si Si6 0.444022 0.756030 0.021693
Si Si7 0.441577 0.537631 0.873468
Si Si8 0.880129 0.418793 0.846776
O O1 0.769659 0.714803 0.211216
O O2 0.764608 0.548990 0.350101
O O3 0.658915 0.300927 0.356811
O O4 0.824485 0.220554 0.183118
O O5 0.107318 0.859509 0.124183
O O6 0.954027 0.057057 0.215078
O O7 0.090438 0.365486 0.117491
O O8 0.109681 0.057094 0.986833
O O9 0.279873 0.600674 0.337091
O O10 0.704199 0.550313 0.544194
O O11 0.780040 0.976100 0.410414
O O12 0.613879 0.813874 0.533518
O O13 0.379208 0.606967 0.856118
O O14 0.451580 0.994049 0.739765
O O15 0.500000 0.500000 0.000000
O O16 0.440092 0.762869 0.935835
O O17 0.500000 0.000000 0.000000
#
# Coordination Sequence:
#
# PCOD9247064 Si02
#       8
#     4   4   4   4   4   4   4   4
#     4  12  27  44  65 100 139 186 226 284 349 423
#     4  10  21  43  70 108 138 173 233 297 343 429
#     4  12  26  45  69 100 139 181 231 285 351 409
#     4  12  25  45  67  99 139 185 230 291 353 418
#     4  12  25  41  69  95 134 178 233 289 345 397
#     4  12  25  45  66  91 135 186 232 280 344 412
#     4  12  25  42  65 101 133 177 237 293 335 412
#     4  10  22  41  74 105 136 179 231 289 363 410
#
# _framework density 24.287806
#
# number of rings (size 3 to 8) (size 9 to 14) (size 15 to 20)
#    0.000    0.500    3.750    5.250    1.750    1.000 
#    0.000    1.250    0.000    0.000    0.000    0.000 
#    0.000    0.000    0.000    0.000    0.000    0.000 
#
# Total GULP energy -179047.826233 kJ/mol
# GULP energy per Si atom -5595.244570 kJ/mol
# Density = 2.423253 g / cm^3
# Si number density = 24.287806 Si / 1000 Ang^3
#
#
#
# Elastic Constant Matrix: (Units=GPa)
#
#
# Indices 1 2 3 4 5 6 
#
# 1 53.8987 25.2033 36.8872 0.0000 8.9807 0.0000
# 2 25.2033 88.3081 27.1349 0.0000 -1.0778 0.0000
# 3 36.8872 27.1349 199.3324 0.0000 0.0268 0.0000
# 4 0.0000 0.0000 0.0000 31.7559 0.0000 5.6811
# 5 8.9807 -1.0778 0.0268 0.0000 34.7398 0.0000
# 6 0.0000 0.0000 0.0000 5.6811 0.0000 33.5585
#
#
#
# Elastic Compliance Matrix: (Units=1/GPa)
#
#
# Indices 1 2 3 4 5 6 
#
# 1 0.025123 -0.006078 -0.003821 0.000000 -0.006680 0.000000
# 2 -0.006078 0.013293 -0.000685 0.000000 0.001984 0.000000
# 3 -0.003821 -0.000685 0.005817 0.000000 0.000962 0.000000
# 4 0.000000 0.000000 0.000000 0.032474 0.000000 -0.005497
# 5 -0.006680 0.001984 0.000962 0.000000 0.030573 0.000000
# 6 0.000000 0.000000 0.000000 -0.005497 0.000000 0.030729
#
#
# Mechanical properties :
#
#
# Convention : Reuss Voigt Hill
#
# Bulk Modulus (GPa) = 43.35378 57.77665 50.56521
# Shear Modulus (GPa) = 29.96414 36.83176 33.39795
#
# Velocity S-wave (km/s) = 3.51623 3.89841 3.71225
# Velocity P-wave (km/s) = 5.86293 6.64105 6.26408
#
# Compressibility (1/GPa) = 0.02306604
#
# Stress axis : x y z
#
# Youngs Moduli (GPa) = 39.80364 75.22568 171.91101
#
# Poissons Ratio (x) = 0.45720 0.65686
# Poissons Ratio (y) = 0.24191 0.11779
# Poissons Ratio (z) = 0.15209 0.05154
#
# Static dielectric constant tensor:
#      x y z
#    x 2.008920 0.000000 -0.012200 
#    y 0.000000 1.979740 0.000000 
#    z -0.012200 0.000000 1.921430 
# 
# From -- ./inp_files/61591.got.cif
#   From: 2010.05.17/outbox.cif.g08.bks.cpg/sg14_31_cif.got.tgz:61591.got - 2010.06.03 17:49:19.
