data_PCOD9247043
_publ_section_title
;
Structure prediction by ZEFSAII (Michael W. Deem and Ramdas Pophale) SiO2 
 PCOD9247043
Probable space group: P 21/C
;
_chemical_formula_sum "Si O2"
_cell_formula_units_Z 28
_cell_length_a 8.237417
_cell_length_b 14.803875
_cell_length_c 13.319663
_cell_angle_alpha 90.000000
_cell_angle_beta 43.139019
_cell_angle_gamma 90.000000
_cell_volume 1110.632272
_symmetry_space_group_name_H-M "P 21/C"
_symmetry_group_IT_number 14
_symmetry_cell_setting 'monoclinic'
loop_
_space_group_symop_operation_xyz
x,y,z
-x,1/2+y,1/2-z
-x,-y,-z
x,1/2-y,1/2+z
loop_
_atom_site_type_symbol
_atom_site_label
_atom_site_fract_x
_atom_site_fract_y
_atom_site_fract_z
Si Si1 0.016237 0.702079 0.948528
Si Si2 0.580311 0.981057 0.321811
Si Si3 0.680895 0.128608 0.405409
Si Si4 0.535878 0.323101 0.516765
Si Si5 0.013702 0.594344 0.754457
Si Si6 0.568912 0.833952 0.163941
Si Si7 0.876375 0.593111 0.199144
O O1 0.817708 0.778454 0.067263
O O2 0.972632 0.621536 0.047668
O O3 0.948325 0.666538 0.868817
O O4 0.309182 0.713562 0.810163
O O5 0.363858 0.947051 0.488608
O O6 0.571413 0.929093 0.222101
O O7 0.805632 0.941781 0.279538
O O8 0.602161 0.087813 0.334307
O O9 0.545868 0.215684 0.504433
O O10 0.959756 0.143512 0.290726
O O11 0.799578 0.360260 0.403651
O O12 0.446833 0.353113 0.447181
O O13 0.379890 0.363733 0.673620
O O14 0.124479 0.510349 0.766388
#
# Coordination Sequence:
#
# PCOD9247043 Si02
#       7
#     4   4   4   4   4   4   4
#     4  11  24  43  69 105 136 180 237 285 345 416
#     4  10  21  43  68  95 132 178 229 275 340 412
#     4  10  22  39  67  96 130 181 222 277 345 407
#     4  11  25  42  69 100 141 176 230 287 351 408
#     4  10  24  44  69  96 137 179 229 286 349 412
#     4  11  25  43  67 105 138 181 235 286 347 417
#     4  11  23  42  70 100 134 182 228 287 347 413
#
# _framework density 25.210864999999998
#
# number of rings (size 3 to 8) (size 9 to 14) (size 15 to 20)
#    0.000    1.429    1.429    2.571    8.000    0.000 
#    5.143    2.857    0.000    0.000    0.000    0.000 
#    0.000    0.000    0.000    0.000    0.000    0.000 
#
# Total GULP energy -156498.918086 kJ/mol
# GULP energy per Si atom -5589.247074 kJ/mol
# Density = 2.515348 g / cm^3
# Si number density = 25.210865 Si / 1000 Ang^3
#
#
#
# Elastic Constant Matrix: (Units=GPa)
#
#
# Indices 1 2 3 4 5 6 
#
# 1 54.1037 -4.0658 8.6560 0.0000 -15.4349 0.0000
# 2 -4.0658 64.7994 18.0795 0.0000 -9.7277 0.0000
# 3 8.6560 18.0795 127.7526 0.0000 -19.2068 0.0000
# 4 0.0000 0.0000 0.0000 22.0723 0.0000 -10.6722
# 5 -15.4349 -9.7277 -19.2068 0.0000 35.1957 0.0000
# 6 0.0000 0.0000 0.0000 -10.6722 0.0000 13.9341
#
#
#
# Elastic Compliance Matrix: (Units=1/GPa)
#
#
# Indices 1 2 3 4 5 6 
#
# 1 0.021652 0.002980 -0.000368 0.000000 0.010119 0.000000
# 2 0.002980 0.016879 -0.001844 0.000000 0.004966 0.000000
# 3 -0.000368 -0.001844 0.008729 0.000000 0.004093 0.000000
# 4 0.000000 0.000000 0.000000 0.071951 0.000000 0.055108
# 5 0.010119 0.004966 0.004093 0.000000 0.036456 0.000000
# 6 0.000000 0.000000 0.000000 0.055108 0.000000 0.113974
#
#
# Mechanical properties :
#
#
# Convention : Reuss Voigt Hill
#
# Bulk Modulus (GPa) = 20.49287 32.44391 26.46839
# Shear Modulus (GPa) = 17.58268 29.17282 23.37775
#
# Velocity S-wave (km/s) = 2.64374 3.40538 3.04844
# Velocity P-wave (km/s) = 4.17916 5.32533 4.78668
#
# Compressibility (1/GPa) = 0.04879746
#
# Stress axis : x y z
#
# Youngs Moduli (GPa) = 46.18412 59.24455 114.56336
#
# Poissons Ratio (x) = -0.17656 0.04211
# Poissons Ratio (y) = -0.13763 0.21126
# Poissons Ratio (z) = 0.01697 0.10925
#
# Static dielectric constant tensor:
#      x y z
#    x 2.061320 0.000000 -0.080910 
#    y 0.000000 2.023010 0.000000 
#    z -0.080910 0.000000 1.995270 
# 
# From -- ./inp_files/41395.got.cif
#   From: 2010.05.17/outbox.cif.g08.bks.cpg/sg14_21_cif.got.tgz:41395.got - 2010.06.03 17:49:19.
