data_PCOD9247894
_publ_section_title
;
Structure prediction by ZEFSAII (Michael W. Deem and Ramdas Pophale) SiO2 
 PCOD9247894
Probable space group: P 21/C
;
_chemical_formula_sum "Si O2"
_cell_formula_units_Z 28
_cell_length_a 16.000468
_cell_length_b 7.240056
_cell_length_c 18.822010
_cell_angle_alpha 90.000000
_cell_angle_beta 150.149555
_cell_angle_gamma 90.000000
_cell_volume 1085.278536
_symmetry_space_group_name_H-M "P 21/C"
_symmetry_group_IT_number 14
_symmetry_cell_setting 'monoclinic'
loop_
_space_group_symop_operation_xyz
x,y,z
-x,1/2+y,1/2-z
-x,-y,-z
x,1/2-y,1/2+z
loop_
_atom_site_type_symbol
_atom_site_label
_atom_site_fract_x
_atom_site_fract_y
_atom_site_fract_z
Si Si1 0.751588 0.104203 0.675413
Si Si2 0.866746 0.801942 0.299073
Si Si3 0.817497 0.187989 0.885854
Si Si4 0.496356 0.711074 0.747564
Si Si5 0.833857 0.442090 0.654085
Si Si6 0.489484 0.180867 0.906608
Si Si7 0.237124 0.412138 0.545702
O O1 0.784861 0.181290 0.778945
O O2 0.855559 0.232224 0.696169
O O3 0.564419 0.157789 0.511882
O O4 0.808286 0.894093 0.722672
O O5 0.698639 0.872517 0.214331
O O6 0.017938 0.789191 0.465739
O O7 0.923479 0.928105 0.275637
O O8 0.653453 0.257805 0.807314
O O9 0.839048 0.979479 0.936603
O O10 0.492117 0.752244 0.659821
O O11 0.431182 0.489944 0.691479
O O12 0.695071 0.707915 0.916883
O O13 0.631974 0.476146 0.519310
O O14 0.850953 0.487037 0.584215
#
# Coordination Sequence:
#
# PCOD9247894 Si02
#       7
#     4   4   4   4   4   4   4
#     4  10  22  40  65  95 132 167 219 262 317 396
#     4  12  22  39  69  95 131 167 212 280 329 361
#     4  10  23  40  64  99 131 164 219 270 327 380
#     4   9  20  39  64  84 129 168 206 255 317 385
#     4   9  23  41  62  96 127 172 220 256 317 401
#     4   9  21  41  62  93 125 168 222 253 311 396
#     4   9  20  42  61  89 131 165 216 261 310 396
#
# _framework density 25.799825999999999
#
# number of rings (size 3 to 8) (size 9 to 14) (size 15 to 20)
#    1.714    0.571    0.000    2.143    2.000    2.857 
#    5.143    1.429    0.000    0.000    0.000    0.000 
#    0.000    0.000    0.000    0.000    0.000    0.000 
#
# Total GULP energy -156049.974487 kJ/mol
# GULP energy per Si atom -5573.213375 kJ/mol
# Density = 2.574110 g / cm^3
# Si number density = 25.799826 Si / 1000 Ang^3
#
#
#
# Elastic Constant Matrix: (Units=GPa)
#
#
# Indices 1 2 3 4 5 6 
#
# 1 73.1376 5.9608 65.2402 0.0000 -4.4994 0.0000
# 2 5.9608 25.9157 9.6594 0.0000 -5.6532 0.0000
# 3 65.2402 9.6594 42.5177 0.0000 -18.6333 0.0000
# 4 0.0000 0.0000 0.0000 44.5547 0.0000 -0.9403
# 5 -4.4994 -5.6532 -18.6333 0.0000 52.4873 0.0000
# 6 0.0000 0.0000 0.0000 -0.9403 0.0000 21.7602
#
#
#
# Elastic Compliance Matrix: (Units=1/GPa)
#
#
# Indices 1 2 3 4 5 6 
#
# 1 -0.023349 -0.007977 0.043090 0.000000 0.012437 0.000000
# 2 -0.007977 0.039512 0.005719 0.000000 0.005602 0.000000
# 3 0.043090 0.005719 -0.049750 0.000000 -0.013352 0.000000
# 4 0.000000 0.000000 0.000000 0.022465 0.000000 0.000971
# 5 0.012437 0.005602 -0.013352 0.000000 0.015982 0.000000
# 6 0.000000 0.000000 0.000000 0.000971 0.000000 0.045997
#
#
# Mechanical properties :
#
#
# Convention : Reuss Voigt Hill
#
# Bulk Modulus (GPa) = 20.79987 33.69909 27.24948
# Shear Modulus (GPa) = -338.24640 27.80782 -155.21929
#
# Velocity S-wave (km/s) = -11.46249 3.28659 -7.76489
# Velocity P-wave (km/s) = 12.92693 5.24332 8.35503
#
# Compressibility (1/GPa) = 0.04807723
#
# Stress axis : x y z
#
# Youngs Moduli (GPa) = -42.82781 25.30886 -20.10056
#
# Poissons Ratio (x) = 0.20190 0.86614
# Poissons Ratio (y) = -0.34165 0.11496
# Poissons Ratio (z) = 1.84546 -0.14475
#
# Static dielectric constant tensor:
#      x y z
#    x 1.753200 0.000000 -0.349420 
#    y 0.000000 2.409390 0.000000 
#    z -0.349420 0.000000 1.382440 
# 
# From -- ./inp_files/69695.got.cif
#   From: 2010.05.17/outbox.cif.g08.bks.cpg/sg14_35_cif.got.tgz:69695.got - 2010.06.03 17:49:19.
