data_PCOD9247368
_publ_section_title
;
Structure prediction by ZEFSAII (Michael W. Deem and Ramdas Pophale) SiO2 
 PCOD9247368
Probable space group: P 21/C
;
_chemical_formula_sum "Si O2"
_cell_formula_units_Z 24
_cell_length_a 14.763101
_cell_length_b 5.219488
_cell_length_c 13.576813
_cell_angle_alpha 90.000000
_cell_angle_beta 78.865868
_cell_angle_gamma 90.000000
_cell_volume 1026.481306
_symmetry_space_group_name_H-M "P 21/C"
_symmetry_group_IT_number 14
_symmetry_cell_setting 'monoclinic'
loop_
_space_group_symop_operation_xyz
x,y,z
-x,1/2+y,1/2-z
-x,-y,-z
x,1/2-y,1/2+z
loop_
_atom_site_type_symbol
_atom_site_label
_atom_site_fract_x
_atom_site_fract_y
_atom_site_fract_z
Si Si1 0.345242 0.625742 0.508939
Si Si2 0.555587 0.021052 0.211934
Si Si3 0.861321 0.372121 0.466566
Si Si4 0.683943 0.635439 0.859088
Si Si5 0.886626 0.476346 0.789896
Si Si6 0.019829 0.742467 0.902187
O O1 0.416469 0.587328 0.405562
O O2 0.243376 0.590415 0.482186
O O3 0.352450 0.401419 0.588548
O O4 0.344105 0.905010 0.560078
O O5 0.487872 0.777402 0.232188
O O6 0.640929 0.934619 0.262901
O O7 0.914885 0.159442 0.521740
O O8 0.929472 0.610073 0.458725
O O9 0.859667 0.280738 0.354065
O O10 0.795310 0.645072 0.825573
O O11 0.912608 0.433834 0.672273
O O12 0.979793 0.563210 0.825613
#
# Coordination Sequence:
#
# PCOD9247368 Si02
#       6
#     4   4   4   4   4   4
#     4  11  24  46  68 101 135 176 218 276 336 398
#     4  12  27  47  72 104 130 169 223 277 346 413
#     4  10  22  37  58  87 127 167 217 256 313 372
#     4  11  25  44  71  98 138 176 219 276 336 398
#     4  11  21  38  59  92 128 171 220 261 318 374
#     4  11  20  36  58  88 124 172 215 261 304 368
#
# _framework density 23.380844
#
# number of rings (size 3 to 8) (size 9 to 14) (size 15 to 20)
#    0.000    1.000    3.333    3.500    0.000    4.000 
#    0.000    1.667    0.000    0.000    0.000    0.000 
#    0.000    0.000    0.000    0.000    0.000    0.000 
#
# Total GULP energy -134147.608555 kJ/mol
# GULP energy per Si atom -5589.483690 kJ/mol
# Density = 2.332763 g / cm^3
# Si number density = 23.380844 Si / 1000 Ang^3
#
#
#
# Elastic Constant Matrix: (Units=GPa)
#
#
# Indices 1 2 3 4 5 6 
#
# 1 70.5654 14.3617 22.0362 0.0000 -4.4849 0.0000
# 2 14.3617 88.6736 -2.2589 0.0000 -7.5351 0.0000
# 3 22.0362 -2.2589 73.8018 0.0000 -3.6100 0.0000
# 4 0.0000 0.0000 0.0000 29.3976 0.0000 5.5372
# 5 -4.4849 -7.5351 -3.6100 0.0000 38.3951 0.0000
# 6 0.0000 0.0000 0.0000 5.5372 0.0000 32.3723
#
#
#
# Elastic Compliance Matrix: (Units=1/GPa)
#
#
# Indices 1 2 3 4 5 6 
#
# 1 0.016309 -0.002689 -0.004907 0.000000 0.000916 0.000000
# 2 -0.002689 0.011928 0.001273 0.000000 0.002146 0.000000
# 3 -0.004907 0.001273 0.015108 0.000000 0.001097 0.000000
# 4 0.000000 0.000000 0.000000 0.035149 0.000000 -0.006012
# 5 0.000916 0.002146 0.001097 0.000000 0.026676 0.000000
# 6 0.000000 0.000000 0.000000 -0.006012 0.000000 0.031919
#
#
# Mechanical properties :
#
#
# Convention : Reuss Voigt Hill
#
# Bulk Modulus (GPa) = 32.57491 33.47987 33.02739
# Shear Modulus (GPa) = 31.25645 33.29313 32.27479
#
# Velocity S-wave (km/s) = 3.66025 3.77762 3.71940
# Velocity P-wave (km/s) = 5.64143 5.77734 5.70979
#
# Compressibility (1/GPa) = 0.03069847
#
# Stress axis : x y z
#
# Youngs Moduli (GPa) = 61.31559 83.83928 66.19175
#
# Poissons Ratio (x) = 0.22541 0.32481
# Poissons Ratio (y) = 0.16485 -0.08425
# Poissons Ratio (z) = 0.30088 -0.10672
#
# Static dielectric constant tensor:
#      x y z
#    x 1.916070 0.000000 0.010210 
#    y 0.000000 1.961180 0.000000 
#    z 0.010210 0.000000 1.901880 
# 
# From -- ./inp_files/45833.got.cif
#   From: 2010.05.17/outbox.cif.g08.bks.cpg/sg14_23_cif.got.tgz:45833.got - 2010.06.03 17:49:19.
