data_PCOD9247171
_publ_section_title
;
Structure prediction by ZEFSAII (Michael W. Deem and Ramdas Pophale) SiO2 
 PCOD9247171
Probable space group: P 21/C
;
_chemical_formula_sum "Si O2"
_cell_formula_units_Z 20
_cell_length_a 25.886768
_cell_length_b 5.693211
_cell_length_c 10.076501
_cell_angle_alpha 90.000000
_cell_angle_beta 147.819179
_cell_angle_gamma 90.000000
_cell_volume 790.934124
_symmetry_space_group_name_H-M "P 21/C"
_symmetry_group_IT_number 14
_symmetry_cell_setting 'monoclinic'
loop_
_space_group_symop_operation_xyz
x,y,z
-x,1/2+y,1/2-z
-x,-y,-z
x,1/2-y,1/2+z
loop_
_atom_site_type_symbol
_atom_site_label
_atom_site_fract_x
_atom_site_fract_y
_atom_site_fract_z
Si Si1 0.707288 0.011292 0.489228
Si Si2 0.891463 0.103095 0.770411
Si Si3 0.561044 0.847934 0.735454
Si Si4 0.057168 0.591719 0.892763
Si Si5 0.638687 0.285483 0.583476
O O1 0.817597 0.948084 0.697046
O O2 0.685080 0.091998 0.589209
O O3 0.687586 0.206447 0.333217
O O4 0.622710 0.827694 0.279930
O O5 0.864898 0.101449 0.557452
O O6 0.900355 0.347519 0.870017
O O7 0.000000 0.000000 0.000000
O O8 0.476918 0.742691 0.644869
O O9 0.500000 0.000000 0.500000
O O10 0.639164 0.979398 0.996528
O O11 0.005177 0.335568 0.774039
#
# Coordination Sequence:
#
# PCOD9247171 Si02
#       5
#     4   4   4   4   4
#     4  12  26  44  72 106 141 191 241 294 375 437
#     4  10  23  47  67 104 143 191 245 300 361 438
#     4  12  24  45  70 104 141 185 234 303 369 439
#     4  10  21  44  73 100 141 195 247 308 368 426
#     4  12  24  44  70 100 142 177 237 297 362 443
#
# _framework density 25.286556000000001
#
# number of rings (size 3 to 8) (size 9 to 14) (size 15 to 20)
#    0.000    0.800    4.000    3.600    0.000    0.000 
#   28.800    0.000    0.000    0.000    0.000    0.000 
#    0.000    0.000    0.000    0.000    0.000    0.000 
#
# Total GULP energy -111681.711973 kJ/mol
# GULP energy per Si atom -5584.085599 kJ/mol
# Density = 2.522900 g / cm^3
# Si number density = 25.286556 Si / 1000 Ang^3
#
#
#
# Elastic Constant Matrix: (Units=GPa)
#
#
# Indices 1 2 3 4 5 6 
#
# 1 146.1402 37.5463 36.8705 0.0000 34.5388 0.0000
# 2 37.5463 80.6971 25.4057 0.0000 10.5262 0.0000
# 3 36.8705 25.4057 99.8965 0.0000 19.9403 0.0000
# 4 0.0000 0.0000 0.0000 37.1147 0.0000 -9.4888
# 5 34.5388 10.5262 19.9403 0.0000 56.4197 0.0000
# 6 0.0000 0.0000 0.0000 -9.4888 0.0000 21.0893
#
#
#
# Elastic Compliance Matrix: (Units=1/GPa)
#
#
# Indices 1 2 3 4 5 6 
#
# 1 0.009113 -0.003135 -0.001689 0.000000 -0.004397 0.000000
# 2 -0.003135 0.014653 -0.002589 0.000000 0.000101 0.000000
# 3 -0.001689 -0.002589 0.011824 0.000000 -0.002662 0.000000
# 4 0.000000 0.000000 0.000000 0.030446 0.000000 0.013699
# 5 -0.004397 0.000101 -0.002662 0.000000 0.021338 0.000000
# 6 0.000000 0.000000 0.000000 0.013699 0.000000 0.053581
#
#
# Mechanical properties :
#
#
# Convention : Reuss Voigt Hill
#
# Bulk Modulus (GPa) = 48.16143 58.48652 53.32398
# Shear Modulus (GPa) = 30.73099 38.05217 34.39158
#
# Velocity S-wave (km/s) = 3.48991 3.88343 3.69192
# Velocity P-wave (km/s) = 5.94364 6.57934 6.26956
#
# Compressibility (1/GPa) = 0.02076350
#
# Stress axis : x y z
#
# Youngs Moduli (GPa) = 109.72734 68.24633 84.57730
#
# Poissons Ratio (x) = 0.21396 0.14282
# Poissons Ratio (y) = 0.34400 0.21901
# Poissons Ratio (z) = 0.18529 0.17672
#
# Static dielectric constant tensor:
#      x y z
#    x 2.042120 0.000000 -0.001190 
#    y 0.000000 2.082600 0.000000 
#    z -0.001190 0.000000 2.136520 
# 
# From -- ./inp_files/30961.got.cif
#   From: 2010.05.17/outbox.cif.g08.bks.cpg/sg14_16_cif.got.tgz:30961.got - 2010.06.03 17:49:19.
