data_PCOD9247782
_publ_section_title
;
Structure prediction by ZEFSAII (Michael W. Deem and Ramdas Pophale) SiO2 
 PCOD9247782
Probable space group: P 21/C
;
_chemical_formula_sum "Si O2"
_cell_formula_units_Z 24
_cell_length_a 10.962444
_cell_length_b 17.924148
_cell_length_c 9.747899
_cell_angle_alpha 90.000000
_cell_angle_beta 146.775105
_cell_angle_gamma 90.000000
_cell_volume 1049.492718
_symmetry_space_group_name_H-M "P 21/C"
_symmetry_group_IT_number 14
_symmetry_cell_setting 'monoclinic'
loop_
_space_group_symop_operation_xyz
x,y,z
-x,1/2+y,1/2-z
-x,-y,-z
x,1/2-y,1/2+z
loop_
_atom_site_type_symbol
_atom_site_label
_atom_site_fract_x
_atom_site_fract_y
_atom_site_fract_z
Si Si1 0.678997 0.053352 0.491466
Si Si2 0.694952 0.838152 0.346709
Si Si3 0.092746 0.087252 0.195283
Si Si4 0.907256 0.912748 0.304719
Si Si5 0.321001 0.553352 0.508533
Si Si6 0.305046 0.161848 0.153290
O O1 0.534272 0.121167 0.413168
O O2 0.855218 0.081340 0.545000
O O3 0.805419 0.996545 0.712228
O O4 0.499998 1.000000 0.249999
O O5 0.756062 0.863962 0.557660
O O6 0.886162 0.872504 0.429471
O O7 0.465728 0.878834 0.086831
O O8 0.681935 0.750000 0.323579
O O9 0.113838 0.127496 0.070530
O O10 0.855221 0.081341 0.045003
O O11 0.756065 0.863961 0.057663
O O12 0.805420 0.996545 0.212229
#
# Coordination Sequence:
#
# PCOD9247782 Si02
#       6
#     4   4   4   4   4   4
#     4   9  21  40  64  87 114 154 200 242 286 343
#     4  11  23  38  58  88 122 155 192 238 295 349
#     4  10  22  40  61  86 117 154 198 243 287 341
#     4  10  22  40  61  86 117 154 198 243 287 341
#     4   9  21  40  64  87 114 154 200 242 286 343
#     4  11  23  38  58  88 122 155 192 238 295 349
#
# _framework density 22.868189000000001
#
# number of rings (size 3 to 8) (size 9 to 14) (size 15 to 20)
#    0.000    2.000    0.000    2.000    0.000   20.000 
#    0.000    0.000    0.000    0.000    0.000    0.000 
#    0.000    0.000    0.000    0.000    0.000    0.000 
#
# Total GULP energy -134346.309061 kJ/mol
# GULP energy per Si atom -5597.762878 kJ/mol
# Density = 2.281614 g / cm^3
# Si number density = 22.868189 Si / 1000 Ang^3
#
#
#
# Elastic Constant Matrix: (Units=GPa)
#
#
# Indices 1 2 3 4 5 6 
#
# 1 84.2084 53.8548 14.0967 0.0000 0.0014 0.0000
# 2 53.8548 204.7133 34.9648 0.0000 23.5588 0.0000
# 3 14.0967 34.9648 64.4090 0.0000 20.0738 0.0000
# 4 0.0000 0.0000 0.0000 15.3119 0.0000 -0.3217
# 5 0.0014 23.5588 20.0738 0.0000 43.0519 0.0000
# 6 0.0000 0.0000 0.0000 -0.3217 0.0000 32.6061
#
#
#
# Elastic Compliance Matrix: (Units=1/GPa)
#
#
# Indices 1 2 3 4 5 6 
#
# 1 0.014696 -0.003866 -0.002079 0.000000 0.003084 0.000000
# 2 -0.003866 0.006530 -0.001855 0.000000 -0.002709 0.000000
# 3 -0.002079 -0.001855 0.019506 0.000000 -0.008080 0.000000
# 4 0.000000 0.000000 0.000000 0.065322 0.000000 0.000645
# 5 0.003084 -0.002709 -0.008080 0.000000 0.028477 0.000000
# 6 0.000000 0.000000 0.000000 0.000645 0.000000 0.030675
#
#
# Mechanical properties :
#
#
# Convention : Reuss Voigt Hill
#
# Bulk Modulus (GPa) = 39.78897 62.12925 50.95911
# Shear Modulus (GPa) = 26.42930 34.88827 30.65878
#
# Velocity S-wave (km/s) = 3.40328 3.91016 3.66549
# Velocity P-wave (km/s) = 5.73412 6.90023 6.34403
#
# Compressibility (1/GPa) = 0.02513259
#
# Stress axis : x y z
#
# Youngs Moduli (GPa) = 68.04712 153.12955 51.26660
#
# Poissons Ratio (x) = 0.59199 0.10658
# Poissons Ratio (y) = 0.26307 0.09509
# Poissons Ratio (z) = 0.14147 0.28402
#
# Static dielectric constant tensor:
#      x y z
#    x 1.824820 0.000000 -0.027740 
#    y 0.000000 1.805600 0.000000 
#    z -0.027740 0.000000 1.937590 
# 
# From -- ./inp_files/30488.got.cif
#   From: 2010.05.17/outbox.cif.g08.bks.cpg/sg14_16_cif.got.tgz:30488.got - 2010.06.03 17:49:19.
