data_PCOD9247417
_publ_section_title
;
Structure prediction by ZEFSAII (Michael W. Deem and Ramdas Pophale) SiO2 
 PCOD9247417
Probable space group: P 21/C
;
_chemical_formula_sum "Si O2"
_cell_formula_units_Z 28
_cell_length_a 14.372118
_cell_length_b 8.002549
_cell_length_c 14.712062
_cell_angle_alpha 90.000000
_cell_angle_beta 42.431285
_cell_angle_gamma 90.000000
_cell_volume 1141.660342
_symmetry_space_group_name_H-M "P 21/C"
_symmetry_group_IT_number 14
_symmetry_cell_setting 'monoclinic'
loop_
_space_group_symop_operation_xyz
x,y,z
-x,1/2+y,1/2-z
-x,-y,-z
x,1/2-y,1/2+z
loop_
_atom_site_type_symbol
_atom_site_label
_atom_site_fract_x
_atom_site_fract_y
_atom_site_fract_z
Si Si1 0.800582 0.639282 0.141928
Si Si2 0.044505 0.222612 0.120884
Si Si3 0.325412 0.066578 0.957194
Si Si4 0.887292 0.882641 0.243388
Si Si5 0.499588 0.244876 0.221555
Si Si6 0.656795 0.075077 0.875406
Si Si7 0.380928 0.940982 0.519969
O O1 0.861128 0.765457 0.175100
O O2 0.644562 0.700437 0.224968
O O3 0.750106 0.463584 0.221507
O O4 0.918736 0.632828 0.979003
O O5 0.026921 0.298734 0.235087
O O6 0.942612 0.067880 0.177190
O O7 0.190823 0.127899 0.005308
O O8 0.389835 0.900073 0.867887
O O9 0.451662 0.196694 0.855204
O O10 0.274269 0.031812 0.094272
O O11 0.739900 0.925890 0.394200
O O12 0.565077 0.399033 0.119211
O O13 0.660897 0.263737 0.905407
O O14 0.500000 0.000000 0.000000
O O15 0.500000 0.000000 0.500000
#
# Coordination Sequence:
#
# PCOD9247417 Si02
#       7
#     4   4   4   4   4   4   4
#     4  11  22  47  67 101 137 178 228 294 340 418
#     4  11  28  45  71  99 137 193 230 286 350 416
#     4  10  22  39  62  99 138 168 221 278 340 410
#     4  12  26  48  70  93 143 178 240 287 346 426
#     4  10  22  37  65 100 134 171 222 280 349 396
#     4  11  20  39  67  99 143 177 220 287 353 409
#     4  11  23  39  68 104 133 184 228 288 353 407
#
# _framework density 24.525684999999999
#
# number of rings (size 3 to 8) (size 9 to 14) (size 15 to 20)
#    0.000    1.143    5.714    0.429    8.000    0.000 
#    0.000    4.286    0.000    0.000    0.000    0.000 
#    0.000    0.000    0.000    0.000    0.000    0.000 
#
# Total GULP energy -156295.855347 kJ/mol
# GULP energy per Si atom -5581.994834 kJ/mol
# Density = 2.446986 g / cm^3
# Si number density = 24.525685 Si / 1000 Ang^3
#
#
#
# Elastic Constant Matrix: (Units=GPa)
#
#
# Indices 1 2 3 4 5 6 
#
# 1 27.8461 2.5951 4.0128 0.0000 -2.5408 0.0000
# 2 2.5951 65.9484 5.8943 0.0000 1.7983 0.0000
# 3 4.0128 5.8943 70.1031 0.0000 2.6115 0.0000
# 4 0.0000 0.0000 0.0000 47.0257 0.0000 -6.9836
# 5 -2.5408 1.7983 2.6115 0.0000 32.2868 0.0000
# 6 0.0000 0.0000 0.0000 -6.9836 0.0000 37.1605
#
#
#
# Elastic Compliance Matrix: (Units=1/GPa)
#
#
# Indices 1 2 3 4 5 6 
#
# 1 0.036624 -0.001339 -0.002100 0.000000 0.003127 0.000000
# 2 -0.001339 0.015345 -0.001181 0.000000 -0.000864 0.000000
# 3 -0.002100 -0.001181 0.014532 0.000000 -0.001275 0.000000
# 4 0.000000 0.000000 0.000000 0.021875 0.000000 0.004111
# 5 0.003127 -0.000864 -0.001275 0.000000 0.031370 0.000000
# 6 0.000000 0.000000 0.000000 0.004111 0.000000 0.027683
#
#
# Mechanical properties :
#
#
# Convention : Reuss Voigt Hill
#
# Bulk Modulus (GPa) = 17.46405 20.98909 19.22657
# Shear Modulus (GPa) = 28.44832 33.38762 30.91797
#
# Velocity S-wave (km/s) = 3.40948 3.69363 3.55440
# Velocity P-wave (km/s) = 4.75769 5.17369 4.97005
#
# Compressibility (1/GPa) = 0.05726050
#
# Stress axis : x y z
#
# Youngs Moduli (GPa) = 27.30417 65.16688 68.81481
#
# Poissons Ratio (x) = 0.08724 0.14453
# Poissons Ratio (y) = 0.03655 0.08130
# Poissons Ratio (z) = 0.05735 0.07699
#
# Static dielectric constant tensor:
#      x y z
#    x 2.153880 0.000000 0.121170 
#    y 0.000000 2.009380 0.000000 
#    z 0.121170 0.000000 2.033360 
# 
# From -- ./inp_files/46684.got.cif
#   From: 2010.05.17/outbox.cif.g08.bks.cpg/sg14_24_cif.got.tgz:46684.got - 2010.06.03 17:49:19.
