data_PCOD9247146
_publ_section_title
;
Structure prediction by ZEFSAII (Michael W. Deem and Ramdas Pophale) SiO2 
 PCOD9247146
Probable space group: P 21/C
;
_chemical_formula_sum "Si O2"
_cell_formula_units_Z 24
_cell_length_a 9.122333
_cell_length_b 10.895355
_cell_length_c 9.227377
_cell_angle_alpha 90.000000
_cell_angle_beta 107.991479
_cell_angle_gamma 90.000000
_cell_volume 872.273900
_symmetry_space_group_name_H-M "P 21/C"
_symmetry_group_IT_number 14
_symmetry_cell_setting 'monoclinic'
loop_
_space_group_symop_operation_xyz
x,y,z
-x,1/2+y,1/2-z
-x,-y,-z
x,1/2-y,1/2+z
loop_
_atom_site_type_symbol
_atom_site_label
_atom_site_fract_x
_atom_site_fract_y
_atom_site_fract_z
Si Si1 0.953764 0.292764 0.999045
Si Si2 0.638853 0.275551 0.551204
Si Si3 0.950010 0.490963 0.753477
Si Si4 0.554708 0.087709 0.310154
Si Si5 0.663902 0.881037 0.172264
Si Si6 0.788049 0.868995 0.832275
O O1 0.003277 0.396979 0.128715
O O2 0.098609 0.203108 0.023582
O O3 0.807799 0.223346 0.027056
O O4 0.928842 0.369701 0.845564
O O5 0.581945 0.140647 0.478617
O O6 0.620400 0.308622 0.715627
O O7 0.503878 0.361475 0.444645
O O8 0.095449 0.465837 0.699131
O O9 0.787743 0.530308 0.632444
O O10 0.379413 0.072542 0.204856
O O11 0.641367 0.959420 0.312722
O O12 0.734972 0.747558 0.216443
#
# Coordination Sequence:
#
# PCOD9247146 Si02
#       6
#     4   4   4   4   4   4
#     4  10  22  41  71  97 135 183 233 283 342 415
#     4  11  24  44  71  97 139 185 229 286 347 408
#     4  10  21  44  68  98 140 181 226 287 349 403
#     4  11  24  44  67 101 141 184 230 288 346 412
#     4  10  22  45  66  98 141 178 228 290 343 409
#     4  10  24  40  69 102 136 179 231 286 345 415
#
# _framework density 27.514292000000001
#
# number of rings (size 3 to 8) (size 9 to 14) (size 15 to 20)
#    0.000    1.667    1.667    1.500    4.667    2.667 
#    3.000    8.333    0.000    0.000    0.000    0.000 
#    0.000    0.000    0.000    0.000    0.000    0.000 
#
# Total GULP energy -134179.906940 kJ/mol
# GULP energy per Si atom -5590.829456 kJ/mol
# Density = 2.745167 g / cm^3
# Si number density = 27.514292 Si / 1000 Ang^3
#
#
#
# Elastic Constant Matrix: (Units=GPa)
#
#
# Indices 1 2 3 4 5 6 
#
# 1 184.7576 30.9996 22.5064 0.0000 31.3545 0.0000
# 2 30.9996 68.9006 6.0196 0.0000 -7.6177 0.0000
# 3 22.5064 6.0196 55.8484 0.0000 12.4289 0.0000
# 4 0.0000 0.0000 0.0000 43.1297 0.0000 -3.7805
# 5 31.3545 -7.6177 12.4289 0.0000 47.6386 0.0000
# 6 0.0000 0.0000 0.0000 -3.7805 0.0000 70.5568
#
#
#
# Elastic Compliance Matrix: (Units=1/GPa)
#
#
# Indices 1 2 3 4 5 6 
#
# 1 0.006993 -0.003560 -0.001363 0.000000 -0.004816 0.000000
# 2 -0.003560 0.016858 -0.001596 0.000000 0.005455 0.000000
# 3 -0.001363 -0.001596 0.019623 0.000000 -0.004478 0.000000
# 4 0.000000 0.000000 0.000000 0.023295 0.000000 0.001248
# 5 -0.004816 0.005455 -0.004478 0.000000 0.026202 0.000000
# 6 0.000000 0.000000 0.000000 0.001248 0.000000 0.014240
#
#
# Mechanical properties :
#
#
# Convention : Reuss Voigt Hill
#
# Bulk Modulus (GPa) = 32.85509 47.61753 40.23631
# Shear Modulus (GPa) = 38.34501 48.93042 43.63771
#
# Velocity S-wave (km/s) = 3.73720 4.22164 3.98678
# Velocity P-wave (km/s) = 5.53075 6.41148 5.98733
#
# Compressibility (1/GPa) = 0.03043668
#
# Stress axis : x y z
#
# Youngs Moduli (GPa) = 142.99724 59.31948 50.95949
#
# Poissons Ratio (x) = 0.21117 0.06944
# Poissons Ratio (y) = 0.50904 0.08136
# Poissons Ratio (z) = 0.19485 0.09470
#
# Static dielectric constant tensor:
#      x y z
#    x 2.164200 0.000000 -0.015190 
#    y 0.000000 2.122350 0.000000 
#    z -0.015190 0.000000 2.171070 
# 
# From -- ./inp_files/24263.got.cif
#   From: 2010.05.17/outbox.cif.g08.bks.cpg/sg14_13_cif.got.tgz:24263.got - 2010.06.03 17:49:19.
