data_PCOD9247181
_publ_section_title
;
Structure prediction by ZEFSAII (Michael W. Deem and Ramdas Pophale) SiO2 
 PCOD9247181
Probable space group: P 21/C
;
_chemical_formula_sum "Si O2"
_cell_formula_units_Z 22
_cell_length_a 15.592618
_cell_length_b 8.619589
_cell_length_c 12.811960
_cell_angle_alpha 90.000000
_cell_angle_beta 28.757471
_cell_angle_gamma 90.000000
_cell_volume 828.436667
_symmetry_space_group_name_H-M "P 21/C"
_symmetry_group_IT_number 14
_symmetry_cell_setting 'monoclinic'
loop_
_space_group_symop_operation_xyz
x,y,z
-x,1/2+y,1/2-z
-x,-y,-z
x,1/2-y,1/2+z
loop_
_atom_site_type_symbol
_atom_site_label
_atom_site_fract_x
_atom_site_fract_y
_atom_site_fract_z
Si Si1 0.191168 0.000091 0.427836
Si Si2 0.956478 0.516457 0.689490
Si Si3 0.500000 0.000000 0.000000
Si Si4 0.142234 0.799737 0.282947
Si Si5 0.346405 0.247330 0.007092
Si Si6 0.669909 0.457551 0.613745
O O1 0.110044 0.954345 0.624876
O O2 0.613453 0.861993 0.938171
O O3 0.394600 0.047152 0.223869
O O4 0.046416 0.115967 0.535393
O O5 0.895462 0.381358 0.677388
O O6 0.165355 0.540538 0.481231
O O7 0.847586 0.673246 0.785365
O O8 0.770665 0.128982 0.704713
O O9 0.258707 0.855423 0.060591
O O10 0.494815 0.380058 0.846412
O O11 0.353665 0.132943 0.900390
#
# Coordination Sequence:
#
# PCOD9247181 Si02
#       6
#     4   4   2   4   4   4
#     4  10  22  43  76 105 149 202 247 324 393 446
#     4  11  25  47  78 111 151 205 265 324 388 466
#     4  12  24  46  72 106 154 194 252 318 390 466
#     4  10  21  44  75 106 145 200 262 312 386 462
#     4  12  26  45  78 112 152 206 255 321 398 469
#     4  11  22  44  74 110 151 200 259 314 391 466
#
# _framework density 26.556042000000001
#
# number of rings (size 3 to 8) (size 9 to 14) (size 15 to 20)
#    0.000    1.091    1.818    5.455    0.000    1.455 
#    3.273    1.818    8.000    0.000    0.000    0.000 
#    0.000    0.000    0.000    0.000    0.000    0.000 
#
# Total GULP energy -122992.216591 kJ/mol
# GULP energy per Si atom -5590.555300 kJ/mol
# Density = 2.649560 g / cm^3
# Si number density = 26.556042 Si / 1000 Ang^3
#
#
#
# Elastic Constant Matrix: (Units=GPa)
#
#
# Indices 1 2 3 4 5 6 
#
# 1 123.3934 47.9206 4.2991 0.0000 -19.3295 0.0000
# 2 47.9206 152.5614 1.2741 0.0000 -31.9289 0.0000
# 3 4.2991 1.2741 81.2788 0.0000 -17.3959 0.0000
# 4 0.0000 0.0000 0.0000 49.3937 0.0000 -3.7284
# 5 -19.3295 -31.9289 -17.3959 0.0000 38.1682 0.0000
# 6 0.0000 0.0000 0.0000 -3.7284 0.0000 41.4071
#
#
#
# Elastic Compliance Matrix: (Units=1/GPa)
#
#
# Indices 1 2 3 4 5 6 
#
# 1 0.009472 -0.002374 0.000153 0.000000 0.002881 0.000000
# 2 -0.002374 0.008695 0.001428 0.000000 0.006723 0.000000
# 3 0.000153 0.001428 0.013901 0.000000 0.007608 0.000000
# 4 0.000000 0.000000 0.000000 0.020384 0.000000 0.001835
# 5 0.002881 0.006723 0.007608 0.000000 0.036750 0.000000
# 6 0.000000 0.000000 0.000000 0.001835 0.000000 0.024316
#
#
# Mechanical properties :
#
#
# Convention : Reuss Voigt Hill
#
# Bulk Modulus (GPa) = 32.80497 51.58013 42.19255
# Shear Modulus (GPa) = 39.91553 46.04311 42.97932
#
# Velocity S-wave (km/s) = 3.88115 4.16842 4.02735
# Velocity P-wave (km/s) = 5.69775 6.52939 6.12769
#
# Compressibility (1/GPa) = 0.03048319
#
# Stress axis : x y z
#
# Youngs Moduli (GPa) = 105.57530 115.00417 71.93651
#
# Poissons Ratio (x) = 0.27297 -0.01099
# Poissons Ratio (y) = 0.25059 -0.10273
# Poissons Ratio (z) = -0.01613 -0.16424
#
# Static dielectric constant tensor:
#      x y z
#    x 2.046780 0.000000 0.237860 
#    y 0.000000 1.835510 0.000000 
#    z 0.237860 0.000000 1.301350 
# 
# From -- ./inp_files/69665.got.cif
#   From: 2010.05.17/outbox.cif.g08.bks.cpg/sg14_35_cif.got.tgz:69665.got - 2010.06.03 17:49:19.
