data_PCOD9247519
_publ_section_title
;
Structure prediction by ZEFSAII (Michael W. Deem and Ramdas Pophale) SiO2 
 PCOD9247519
Probable space group: P 21/C
;
_chemical_formula_sum "Si O2"
_cell_formula_units_Z 26
_cell_length_a 16.201186
_cell_length_b 6.321192
_cell_length_c 20.418879
_cell_angle_alpha 90.000000
_cell_angle_beta 29.482108
_cell_angle_gamma 90.000000
_cell_volume 1029.145350
_symmetry_space_group_name_H-M "P 21/C"
_symmetry_group_IT_number 14
_symmetry_cell_setting 'monoclinic'
loop_
_space_group_symop_operation_xyz
x,y,z
-x,1/2+y,1/2-z
-x,-y,-z
x,1/2-y,1/2+z
loop_
_atom_site_type_symbol
_atom_site_label
_atom_site_fract_x
_atom_site_fract_y
_atom_site_fract_z
Si Si1 0.776880 0.781837 0.737837
Si Si2 0.485812 0.023046 0.173608
Si Si3 0.311970 0.175519 0.417450
Si Si4 0.500000 0.500000 0.000000
Si Si5 0.795136 0.187106 0.796628
Si Si6 0.041959 0.480062 0.561239
Si Si7 0.178688 0.718860 0.076227
O O1 0.675369 0.930420 0.758289
O O2 0.938800 0.663133 0.593296
O O3 0.811364 0.937852 0.774944
O O4 0.652015 0.605452 0.851874
O O5 0.425964 0.042589 0.289713
O O6 0.575199 0.795822 0.106685
O O7 0.629201 0.194456 0.060350
O O8 0.217741 0.353649 0.438279
O O9 0.188228 0.014992 0.539399
O O10 0.394718 0.728006 0.073156
O O11 0.866327 0.265998 0.817167
O O12 0.908855 0.295233 0.663110
O O13 0.073988 0.619583 0.604825
#
# Coordination Sequence:
#
# PCOD9247519 Si02
#       7
#     4   4   4   2   4   4   4
#     4  11  24  44  66 107 141 180 223 287 345 412
#     4  11  24  43  74  98 132 180 232 286 336 406
#     4  11  24  46  68 101 133 183 239 280 340 413
#     4  10  22  38  64  96 138 168 218 270 340 406
#     4  11  24  41  67 100 139 175 223 279 348 410
#     4  10  26  41  67  99 139 180 223 280 346 412
#     4  11  24  43  69  97 136 180 228 289 335 409
#
# _framework density 25.263680999999998
#
# number of rings (size 3 to 8) (size 9 to 14) (size 15 to 20)
#    0.000    1.231    3.077    1.385    6.462    3.077 
#    0.000    3.077    0.000    0.000    0.000    0.000 
#    0.000    0.000    0.000    0.000    0.000    0.000 
#
# Total GULP energy -144756.668568 kJ/mol
# GULP energy per Si atom -5567.564176 kJ/mol
# Density = 2.520618 g / cm^3
# Si number density = 25.263681 Si / 1000 Ang^3
#
#
#
# Elastic Constant Matrix: (Units=GPa)
#
#
# Indices 1 2 3 4 5 6 
#
# 1 43.8308 11.3977 -11.9400 0.0000 -6.7155 0.0000
# 2 11.3977 92.6430 11.3425 0.0000 4.0373 0.0000
# 3 -11.9400 11.3425 72.8102 0.0000 -7.0337 0.0000
# 4 0.0000 0.0000 0.0000 47.0284 0.0000 -8.9796
# 5 -6.7155 4.0373 -7.0337 0.0000 29.3491 0.0000
# 6 0.0000 0.0000 0.0000 -8.9796 0.0000 18.9743
#
#
#
# Elastic Compliance Matrix: (Units=1/GPa)
#
#
# Indices 1 2 3 4 5 6 
#
# 1 0.026794 -0.004368 0.005860 0.000000 0.008136 0.000000
# 2 -0.004368 0.011829 -0.002879 0.000000 -0.003317 0.000000
# 3 0.005860 -0.002879 0.015675 0.000000 0.005494 0.000000
# 4 0.000000 0.000000 0.000000 0.023376 0.000000 0.011063
# 5 0.008136 -0.003317 0.005494 0.000000 0.037707 0.000000
# 6 0.000000 0.000000 0.000000 0.011063 0.000000 0.057938
#
#
# Mechanical properties :
#
#
# Convention : Reuss Voigt Hill
#
# Bulk Modulus (GPa) = 19.40911 25.65382 22.53146
# Shear Modulus (GPa) = 25.87082 32.30260 29.08671
#
# Velocity S-wave (km/s) = 3.20352 3.57966 3.39680
# Velocity P-wave (km/s) = 4.62414 5.22128 4.93176
#
# Compressibility (1/GPa) = 0.05152221
#
# Stress axis : x y z
#
# Youngs Moduli (GPa) = 37.32179 84.54049 63.79728
#
# Poissons Ratio (x) = 0.36931 -0.37388
# Poissons Ratio (y) = 0.16304 0.18370
# Poissons Ratio (z) = -0.21872 0.24343
#
# Static dielectric constant tensor:
#      x y z
#    x 2.126000 0.000000 -0.028640 
#    y 0.000000 1.946700 0.000000 
#    z -0.028640 0.000000 1.946040 
# 
# From -- ./inp_files/72791.got.cif
#   From: 2010.05.17/outbox.cif.g08.bks.cpg/sg14_37_cif.got.tgz:72791.got - 2010.06.03 17:49:19.
