data_PCOD9247033
_publ_section_title
;
Structure prediction by ZEFSAII (Michael W. Deem and Ramdas Pophale) SiO2 
 PCOD9247033
Probable space group: P 21/C
;
_chemical_formula_sum "Si O2"
_cell_formula_units_Z 32
_cell_length_a 8.769644
_cell_length_b 11.696970
_cell_length_c 18.902145
_cell_angle_alpha 90.000000
_cell_angle_beta 136.386077
_cell_angle_gamma 90.000000
_cell_volume 1337.478428
_symmetry_space_group_name_H-M "P 21/C"
_symmetry_group_IT_number 14
_symmetry_cell_setting 'monoclinic'
loop_
_space_group_symop_operation_xyz
x,y,z
-x,1/2+y,1/2-z
-x,-y,-z
x,1/2-y,1/2+z
loop_
_atom_site_type_symbol
_atom_site_label
_atom_site_fract_x
_atom_site_fract_y
_atom_site_fract_z
Si Si1 0.446101 0.091481 0.921991
Si Si2 0.157752 0.376489 0.699155
Si Si3 0.073063 0.581708 0.775859
Si Si4 0.773134 0.273577 0.776669
Si Si5 0.371676 0.328555 0.208821
Si Si6 0.446360 0.031444 0.170451
Si Si7 0.743688 0.217622 0.536072
Si Si8 0.980538 0.134104 0.481572
O O1 0.192499 0.073301 0.813038
O O2 0.604473 0.053996 0.909957
O O3 0.509122 0.220027 0.966159
O O4 0.500000 0.000000 0.000000
O O5 0.305890 0.260306 0.748130
O O6 0.252443 0.434880 0.658928
O O7 0.163185 0.469415 0.764083
O O8 0.916569 0.320444 0.612020
O O9 0.120249 0.696338 0.746586
O O10 0.189014 0.612611 0.889458
O O11 0.623263 0.190658 0.773661
O O12 0.584791 0.361485 0.687185
O O13 0.940225 0.331625 0.887340
O O14 0.367020 0.461645 0.223954
O O15 0.202816 0.309485 0.088052
O O16 0.790626 0.177332 0.471847
O O17 0.000000 0.000000 0.500000
#
# Coordination Sequence:
#
# PCOD9247033 Si02
#       8
#     4   4   4   4   4   4   4   4
#     4  12  25  44  71 105 146 191 240 294 371 437
#     4  10  23  43  72 103 136 192 247 285 364 429
#     4  12  26  46  70 105 151 190 239 303 372 429
#     4  11  24  41  71 105 142 189 242 295 360 433
#     4  10  21  43  68 106 138 184 238 301 352 420
#     4  11  22  44  74  99 147 189 243 301 356 440
#     4  11  26  45  71 107 153 186 237 310 366 430
#     4  11  23  42  71 105 139 184 246 294 361 431
#
# _framework density 23.925618
#
# number of rings (size 3 to 8) (size 9 to 14) (size 15 to 20)
#    0.000    1.000    3.750    3.000    0.000    5.500 
#    0.000    0.000    0.000   10.500    0.000    0.000 
#    0.000    0.000    0.000    0.000    0.000    0.000 
#
# Total GULP energy -178681.963643 kJ/mol
# GULP energy per Si atom -5583.811364 kJ/mol
# Density = 2.387116 g / cm^3
# Si number density = 23.925618 Si / 1000 Ang^3
#
#
#
# Elastic Constant Matrix: (Units=GPa)
#
#
# Indices 1 2 3 4 5 6 
#
# 1 75.9529 15.6922 3.1863 0.0000 -2.3806 0.0000
# 2 15.6922 99.1923 -4.1783 0.0000 4.6188 0.0000
# 3 3.1863 -4.1783 54.7816 0.0000 -3.1145 0.0000
# 4 0.0000 0.0000 0.0000 37.4855 0.0000 -5.9829
# 5 -2.3806 4.6188 -3.1145 0.0000 24.2700 0.0000
# 6 0.0000 0.0000 0.0000 -5.9829 0.0000 52.9669
#
#
#
# Elastic Compliance Matrix: (Units=1/GPa)
#
#
# Indices 1 2 3 4 5 6 
#
# 1 0.013728 -0.002286 -0.000878 0.000000 0.001669 0.000000
# 2 -0.002286 0.010577 0.000819 0.000000 -0.002132 0.000000
# 3 -0.000878 0.000819 0.018489 0.000000 0.002131 0.000000
# 4 0.000000 0.000000 0.000000 0.027167 0.000000 0.003069
# 5 0.001669 -0.002132 0.002131 0.000000 0.042046 0.000000
# 6 0.000000 0.000000 0.000000 0.003069 0.000000 0.019226
#
#
# Mechanical properties :
#
#
# Convention : Reuss Voigt Hill
#
# Bulk Modulus (GPa) = 26.24555 28.81412 27.52984
# Shear Modulus (GPa) = 33.64178 37.29293 35.46735
#
# Velocity S-wave (km/s) = 3.75387 3.95232 3.85437
# Velocity P-wave (km/s) = 5.45730 5.73561 5.59818
#
# Compressibility (1/GPa) = 0.03810170
#
# Stress axis : x y z
#
# Youngs Moduli (GPa) = 72.84607 94.54570 54.08640
#
# Poissons Ratio (x) = 0.21617 0.04749
# Poissons Ratio (y) = 0.16655 -0.04427
# Poissons Ratio (z) = 0.06396 -0.07739
#
# Static dielectric constant tensor:
#      x y z
#    x 1.926020 0.000000 -0.028570 
#    y 0.000000 1.983840 0.000000 
#    z -0.028570 0.000000 1.997370 
# 
# From -- ./inp_files/65611.got.cif
#   From: 2010.05.17/outbox.cif.g08.bks.cpg/sg14_33_cif.got.tgz:65611.got - 2010.06.03 17:49:19.
