data_PCOD9247889
_publ_section_title
;
Structure prediction by ZEFSAII (Michael W. Deem and Ramdas Pophale) SiO2 
 PCOD9247889
Probable space group: P 21/C
;
_chemical_formula_sum "Si O2"
_cell_formula_units_Z 16
_cell_length_a 7.354230
_cell_length_b 12.149739
_cell_length_c 9.743852
_cell_angle_alpha 90.000000
_cell_angle_beta 44.472712
_cell_angle_gamma 90.000000
_cell_volume 609.938509
_symmetry_space_group_name_H-M "P 21/C"
_symmetry_group_IT_number 14
_symmetry_cell_setting 'monoclinic'
loop_
_space_group_symop_operation_xyz
x,y,z
-x,1/2+y,1/2-z
-x,-y,-z
x,1/2-y,1/2+z
loop_
_atom_site_type_symbol
_atom_site_label
_atom_site_fract_x
_atom_site_fract_y
_atom_site_fract_z
Si Si1 0.319698 0.754206 0.595496
Si Si2 0.838923 0.714368 0.641551
Si Si3 0.036339 0.591054 0.868547
Si Si4 0.235066 0.986626 0.732158
O O1 0.583912 0.763482 0.370956
O O2 0.087537 0.740858 0.607329
O O3 0.312089 0.647280 0.695971
O O4 0.245144 0.855433 0.737308
O O5 0.855581 0.805208 0.511762
O O6 0.800449 0.582029 0.634239
O O7 0.974081 0.527109 0.764084
O O8 0.000000 0.500000 0.000000
O O9 0.500000 0.000000 0.500000
#
# Coordination Sequence:
#
# PCOD9247889 Si02
#       4
#     4   4   4   4
#     4  10  22  41  63  93 129 161 211 266 308 368
#     4  10  22  40  65  93 126 167 207 260 316 369
#     4  11  22  40  65  91 124 169 210 251 315 378
#     4   9  20  42  60  90 132 155 205 270 301 368
#
# _framework density 26.232154000000001
#
# number of rings (size 3 to 8) (size 9 to 14) (size 15 to 20)
#    0.000    2.000    2.500    0.000    0.000    8.000 
#    0.000    0.000    0.000    0.000    0.000    0.000 
#    0.000    0.000    0.000    0.000    0.000    0.000 
#
# Total GULP energy -89293.484272 kJ/mol
# GULP energy per Si atom -5580.842767 kJ/mol
# Density = 2.617245 g / cm^3
# Si number density = 26.232154 Si / 1000 Ang^3
#
#
#
# Elastic Constant Matrix: (Units=GPa)
#
#
# Indices 1 2 3 4 5 6 
#
# 1 80.1043 17.8899 22.7749 0.0000 -1.5715 0.0000
# 2 17.8899 158.2128 28.6694 0.0000 4.9176 0.0000
# 3 22.7749 28.6694 91.2518 0.0000 -3.6017 0.0000
# 4 0.0000 0.0000 0.0000 75.6334 0.0000 16.5405
# 5 -1.5715 4.9176 -3.6017 0.0000 42.9506 0.0000
# 6 0.0000 0.0000 0.0000 16.5405 0.0000 25.1031
#
#
#
# Elastic Compliance Matrix: (Units=1/GPa)
#
#
# Indices 1 2 3 4 5 6 
#
# 1 0.013583 -0.000992 -0.003065 0.000000 0.000354 0.000000
# 2 -0.000992 0.006813 -0.001932 0.000000 -0.000978 0.000000
# 3 -0.003065 -0.001932 0.012376 0.000000 0.001147 0.000000
# 4 0.000000 0.000000 0.000000 0.015448 0.000000 -0.010179
# 5 0.000354 -0.000978 0.001147 0.000000 0.023504 0.000000
# 6 0.000000 0.000000 0.000000 -0.010179 0.000000 0.046542
#
#
# Mechanical properties :
#
#
# Convention : Reuss Voigt Hill
#
# Bulk Modulus (GPa) = 48.08522 52.02636 50.05579
# Shear Modulus (GPa) = 36.44998 46.08640 41.26819
#
# Velocity S-wave (km/s) = 3.73166 4.19605 3.97065
# Velocity P-wave (km/s) = 6.07763 6.58421 6.33598
#
# Compressibility (1/GPa) = 0.02079641
#
# Stress axis : x y z
#
# Youngs Moduli (GPa) = 73.61898 146.77454 80.80321
#
# Poissons Ratio (x) = 0.14554 0.24764
# Poissons Ratio (y) = 0.07300 0.15609
# Poissons Ratio (z) = 0.22562 0.28352
#
# Static dielectric constant tensor:
#      x y z
#    x 1.379780 0.000000 -0.104710 
#    y 0.000000 2.260470 0.000000 
#    z -0.104710 0.000000 2.110580 
# 
# From -- ./inp_files/7779.got.cif
#   From: 2010.05.17/outbox.cif.g08.bks.cpg/sg14_4_cif.got.tgz:7779.got - 2010.06.03 17:49:19.
