data_PCOD9247471
_publ_section_title
;
Structure prediction by ZEFSAII (Michael W. Deem and Ramdas Pophale) SiO2 
 PCOD9247471
Probable space group: P 21/C
;
_chemical_formula_sum "Si O2"
_cell_formula_units_Z 24
_cell_length_a 6.631181
_cell_length_b 12.490276
_cell_length_c 16.252774
_cell_angle_alpha 90.000000
_cell_angle_beta 52.992079
_cell_angle_gamma 90.000000
_cell_volume 1074.963654
_symmetry_space_group_name_H-M "P 21/C"
_symmetry_group_IT_number 14
_symmetry_cell_setting 'monoclinic'
loop_
_space_group_symop_operation_xyz
x,y,z
-x,1/2+y,1/2-z
-x,-y,-z
x,1/2-y,1/2+z
loop_
_atom_site_type_symbol
_atom_site_label
_atom_site_fract_x
_atom_site_fract_y
_atom_site_fract_z
Si Si1 0.554106 0.238170 0.792885
Si Si2 0.075643 0.172321 0.119481
Si Si3 0.084218 0.974042 0.569967
Si Si4 0.482593 0.156712 0.480582
Si Si5 0.687588 0.620414 0.273780
Si Si6 0.372493 0.032994 0.943064
O O1 0.526524 0.327996 0.872084
O O2 0.363107 0.272731 0.766802
O O3 0.495564 0.128581 0.856338
O O4 0.829583 0.253220 0.684074
O O5 0.111949 0.128302 0.201917
O O6 0.333800 0.239173 0.045346
O O7 0.107513 0.082020 0.041052
O O8 0.252628 0.866811 0.540264
O O9 0.825035 0.963629 0.681503
O O10 0.280629 0.064146 0.550070
O O11 0.000000 0.000000 0.500000
O O12 0.431409 0.571077 0.373472
O O13 0.500000 0.000000 0.000000
#
# Coordination Sequence:
#
# PCOD9247471 Si02
#       6
#     4   4   4   4   4   4
#     4  11  21  41  65  92 127 171 218 263 327 392
#     4  10  22  41  61  89 128 169 214 261 319 387
#     4  11  21  38  64  92 126 161 212 271 320 388
#     4  10  22  38  61  89 121 167 212 263 322 376
#     4  11  22  40  63  95 127 166 218 267 326 390
#     4   9  22  43  64  93 134 172 214 274 326 387
#
# _framework density 22.326333999999999
#
# number of rings (size 3 to 8) (size 9 to 14) (size 15 to 20)
#    0.000    1.667    3.333    1.000    0.000    3.333 
#    0.000    0.000    0.000    0.000    0.000    0.000 
#    0.000    0.000    0.000    0.000    0.000    0.000 
#
# Total GULP energy -133616.710454 kJ/mol
# GULP energy per Si atom -5567.362936 kJ/mol
# Density = 2.227552 g / cm^3
# Si number density = 22.326334 Si / 1000 Ang^3
#
#
#
# Elastic Constant Matrix: (Units=GPa)
#
#
# Indices 1 2 3 4 5 6 
#
# 1 55.8158 3.5926 23.6207 0.0000 -5.2000 0.0000
# 2 3.5926 49.3909 9.7113 0.0000 8.4188 0.0000
# 3 23.6207 9.7113 108.8298 0.0000 7.0140 0.0000
# 4 0.0000 0.0000 0.0000 43.7134 0.0000 9.1556
# 5 -5.2000 8.4188 7.0140 0.0000 25.2305 0.0000
# 6 0.0000 0.0000 0.0000 9.1556 0.0000 23.7323
#
#
#
# Elastic Compliance Matrix: (Units=1/GPa)
#
#
# Indices 1 2 3 4 5 6 
#
# 1 0.020583 -0.001608 -0.004716 0.000000 0.006090 0.000000
# 2 -0.001608 0.021830 -0.001128 0.000000 -0.007302 0.000000
# 3 -0.004716 -0.001128 0.010540 0.000000 -0.003526 0.000000
# 4 0.000000 0.000000 0.000000 0.024887 0.000000 -0.009601
# 5 0.006090 -0.007302 -0.003526 0.000000 0.044306 0.000000
# 6 0.000000 0.000000 0.000000 -0.009601 0.000000 0.045841
#
#
# Mechanical properties :
#
#
# Convention : Reuss Voigt Hill
#
# Bulk Modulus (GPa) = 26.28264 31.98730 29.13497
# Shear Modulus (GPa) = 25.56563 30.34270 27.95417
#
# Velocity S-wave (km/s) = 3.38759 3.69053 3.54230
# Velocity P-wave (km/s) = 5.20563 5.70248 5.45971
#
# Compressibility (1/GPa) = 0.03804793
#
# Stress axis : x y z
#
# Youngs Moduli (GPa) = 48.58414 45.80837 94.87459
#
# Poissons Ratio (x) = 0.07365 0.44746
# Poissons Ratio (y) = 0.07812 0.10706
# Poissons Ratio (z) = 0.22914 0.05169
#
# Static dielectric constant tensor:
#      x y z
#    x 1.966350 0.000000 0.024660 
#    y 0.000000 1.974470 0.000000 
#    z 0.024660 0.000000 1.876730 
# 
# From -- ./inp_files/37264.got.cif
#   From: 2010.05.17/outbox.cif.g08.bks.cpg/sg14_19_cif.got.tgz:37264.got - 2010.06.03 17:49:19.
