data_PCOD9247737
_publ_section_title
;
Structure prediction by ZEFSAII (Michael W. Deem and Ramdas Pophale) SiO2 
 PCOD9247737
Probable space group: P 21/C
;
_chemical_formula_sum "Si O2"
_cell_formula_units_Z 32
_cell_length_a 10.265528
_cell_length_b 8.943477
_cell_length_c 26.084749
_cell_angle_alpha 90.000000
_cell_angle_beta 146.410316
_cell_angle_gamma 90.000000
_cell_volume 1324.918478
_symmetry_space_group_name_H-M "P 21/C"
_symmetry_group_IT_number 14
_symmetry_cell_setting 'monoclinic'
loop_
_space_group_symop_operation_xyz
x,y,z
-x,1/2+y,1/2-z
-x,-y,-z
x,1/2-y,1/2+z
loop_
_atom_site_type_symbol
_atom_site_label
_atom_site_fract_x
_atom_site_fract_y
_atom_site_fract_z
Si Si1 0.024415 0.299804 0.826778
Si Si2 0.632518 0.061341 0.404613
Si Si3 0.609975 0.479979 0.718376
Si Si4 0.870647 0.583509 0.891077
Si Si5 0.479913 0.180188 0.003836
Si Si6 0.785955 0.092797 0.670817
Si Si7 0.618107 0.134043 0.943596
Si Si8 0.108165 0.080799 0.084205
O O1 0.216990 0.235277 0.929039
O O2 0.110429 0.457822 0.830016
O O3 0.772734 0.332821 0.770548
O O4 0.983434 0.175565 0.769455
O O5 0.618592 0.240486 0.399950
O O6 0.862504 0.027085 0.515397
O O7 0.702514 0.016227 0.370520
O O8 0.406689 0.980590 0.354111
O O9 0.781714 0.595044 0.803872
O O10 0.532787 0.506958 0.633852
O O11 0.372159 0.477260 0.673937
O O12 0.859151 0.743988 0.913566
O O13 0.518416 0.228424 0.957702
O O14 0.660786 0.273657 0.097379
O O15 0.500000 0.000000 0.000000
O O16 0.878869 0.079101 0.045790
O O17 0.000000 0.000000 0.000000
#
# Coordination Sequence:
#
# PCOD9247737 Si02
#       8
#     4   4   4   4   4   4   4   4
#     4  12  26  44  71 108 138 185 231 296 346 419
#     4  10  22  43  66  95 138 177 229 278 345 417
#     4  11  23  41  66 101 143 171 235 287 341 415
#     4  10  22  39  68  99 130 181 226 282 348 401
#     4  12  26  48  71 104 137 188 235 285 359 416
#     4  12  25  45  73  98 146 181 233 288 350 421
#     4  10  22  44  68  96 139 181 230 282 340 415
#     4   9  21  42  63  90 131 179 220 277 341 398
#
# _framework density 24.152429000000001
#
# number of rings (size 3 to 8) (size 9 to 14) (size 15 to 20)
#    0.000    1.250    1.250    4.125    5.250    1.000 
#    6.750    1.250    0.000    0.000    0.000    0.000 
#    0.000    0.000    0.000    0.000    0.000    0.000 
#
# Total GULP energy -178481.466530 kJ/mol
# GULP energy per Si atom -5577.545829 kJ/mol
# Density = 2.409746 g / cm^3
# Si number density = 24.152429 Si / 1000 Ang^3
#
#
#
# Elastic Constant Matrix: (Units=GPa)
#
#
# Indices 1 2 3 4 5 6 
#
# 1 48.3902 9.3926 12.2427 0.0000 25.8988 0.0000
# 2 9.3926 100.4065 5.1172 0.0000 4.3698 0.0000
# 3 12.2427 5.1172 103.4070 0.0000 20.1109 0.0000
# 4 0.0000 0.0000 0.0000 27.9143 0.0000 5.2263
# 5 25.8988 4.3698 20.1109 0.0000 26.2871 0.0000
# 6 0.0000 0.0000 0.0000 5.2263 0.0000 36.4199
#
#
#
# Elastic Compliance Matrix: (Units=1/GPa)
#
#
# Indices 1 2 3 4 5 6 
#
# 1 0.045564 -0.002396 0.003967 0.000000 -0.047528 0.000000
# 2 -0.002396 0.010162 -0.000411 0.000000 0.000986 0.000000
# 3 0.003967 -0.000411 0.011710 0.000000 -0.012800 0.000000
# 4 0.000000 0.000000 0.000000 0.036813 0.000000 -0.005283
# 5 -0.047528 0.000986 -0.012800 0.000000 0.094496 0.000000
# 6 0.000000 0.000000 0.000000 -0.005283 0.000000 0.028216
#
#
# Mechanical properties :
#
#
# Convention : Reuss Voigt Hill
#
# Bulk Modulus (GPa) = 14.33539 33.96764 24.15151
# Shear Modulus (GPa) = 20.16999 33.15432 26.66216
#
# Velocity S-wave (km/s) = 2.89297 3.70903 3.32612
# Velocity P-wave (km/s) = 4.13609 5.69534 4.97716
#
# Compressibility (1/GPa) = 0.06975744
#
# Stress axis : x y z
#
# Youngs Moduli (GPa) = 21.94701 98.40879 85.39384
#
# Poissons Ratio (x) = 0.23580 -0.33880
# Poissons Ratio (y) = 0.05259 0.03509
# Poissons Ratio (z) = -0.08707 0.04044
#
# Static dielectric constant tensor:
#      x y z
#    x 2.191780 0.000000 0.024350 
#    y 0.000000 1.962590 0.000000 
#    z 0.024350 0.000000 1.990320 
# 
# From -- ./inp_files/79974.got.cif
#   From: 2010.05.17/outbox.cif.g08.bks.cpg/sg14_40_cif.got.tgz:79974.got - 2010.06.03 17:49:19.
