data_PCOD9247349
_publ_section_title
;
Structure prediction by ZEFSAII (Michael W. Deem and Ramdas Pophale) SiO2 
 PCOD9247349
Probable space group: P 21/C
;
_chemical_formula_sum "Si O2"
_cell_formula_units_Z 28
_cell_length_a 12.409425
_cell_length_b 8.463262
_cell_length_c 13.932702
_cell_angle_alpha 90.000000
_cell_angle_beta 137.647066
_cell_angle_gamma 90.000000
_cell_volume 985.799224
_symmetry_space_group_name_H-M "P 21/C"
_symmetry_group_IT_number 14
_symmetry_cell_setting 'monoclinic'
loop_
_space_group_symop_operation_xyz
x,y,z
-x,1/2+y,1/2-z
-x,-y,-z
x,1/2-y,1/2+z
loop_
_atom_site_type_symbol
_atom_site_label
_atom_site_fract_x
_atom_site_fract_y
_atom_site_fract_z
Si Si1 0.891491 0.055717 0.017676
Si Si2 0.827077 0.750163 0.237262
Si Si3 0.500000 0.500000 0.500000
Si Si4 0.470681 0.247661 0.329660
Si Si5 0.003564 0.056393 0.391834
Si Si6 0.500000 0.500000 0.000000
Si Si7 0.728252 0.241660 0.752564
Si Si8 0.700947 0.750903 0.461020
O O1 0.029116 0.128387 0.176169
O O2 0.788460 0.913244 0.992244
O O3 0.782277 0.192998 0.897042
O O4 0.000000 0.000000 0.000000
O O5 0.720588 0.748955 0.263042
O O6 0.681365 0.739290 0.063921
O O7 0.914007 0.915599 0.279680
O O8 0.548152 0.388154 0.440683
O O9 0.620069 0.393898 0.653303
O O10 0.537195 0.090392 0.420495
O O11 0.454725 0.261411 0.206019
O O12 0.896869 0.212371 0.314794
O O13 0.179862 0.105488 0.480379
O O14 0.000000 0.000000 0.500000
O O15 0.650149 0.408390 0.150649
#
# Coordination Sequence:
#
# PCOD9247349 Si02
#       8
#     4   4   2   4   4   2   4   4
#     4  12  20  39  65  93 129 161 202 260 329 382
#     4  12  24  39  64  96 127 161 204 265 330 384
#     4  10  22  36  66  88 114 172 214 248 308 358
#     4  11  21  42  64  88 125 163 210 258 304 383
#     4  12  20  39  65  93 129 161 202 260 329 382
#     4  10  22  36  66  88 114 172 214 248 308 358
#     4  11  19  36  64  90 117 167 206 254 306 377
#     4  12  24  39  64  96 127 161 204 265 330 384
#
# _framework density 28.403348999999999
#
# number of rings (size 3 to 8) (size 9 to 14) (size 15 to 20)
#    0.000    0.571    8.571    0.857    0.000    0.000 
#    0.000    1.429    0.000    0.000    0.000    0.000 
#    0.000    0.000    0.000    0.000    0.000    0.000 
#
# Total GULP energy -156026.669127 kJ/mol
# GULP energy per Si atom -5572.381040 kJ/mol
# Density = 2.833870 g / cm^3
# Si number density = 28.403349 Si / 1000 Ang^3
#
#
#
# Elastic Constant Matrix: (Units=GPa)
#
#
# Indices 1 2 3 4 5 6 
#
# 1 81.9678 20.1188 22.6876 0.0000 13.9165 0.0000
# 2 20.1188 87.0945 30.6099 0.0000 12.2349 0.0000
# 3 22.6876 30.6099 195.6969 0.0000 -21.8269 0.0000
# 4 0.0000 0.0000 0.0000 81.8797 0.0000 1.9824
# 5 13.9165 12.2349 -21.8269 0.0000 57.4292 0.0000
# 6 0.0000 0.0000 0.0000 1.9824 0.0000 6.9200
#
#
#
# Elastic Compliance Matrix: (Units=1/GPa)
#
#
# Indices 1 2 3 4 5 6 
#
# 1 0.013774 -0.002104 -0.001660 0.000000 -0.003521 0.000000
# 2 -0.002104 0.013166 -0.002163 0.000000 -0.003117 0.000000
# 3 -0.001660 -0.002163 0.005991 0.000000 0.003140 0.000000
# 4 0.000000 0.000000 0.000000 0.012298 0.000000 -0.003523
# 5 -0.003521 -0.003117 0.003140 0.000000 0.020123 0.000000
# 6 0.000000 0.000000 0.000000 -0.003523 0.000000 0.145517
#
#
# Mechanical properties :
#
#
# Convention : Reuss Voigt Hill
#
# Bulk Modulus (GPa) = 47.44695 56.84353 52.14524
# Shear Modulus (GPa) = 21.76287 48.66864 35.21576
#
# Velocity S-wave (km/s) = 2.77105 4.14391 3.52496
# Velocity P-wave (km/s) = 5.19416 6.55381 5.91319
#
# Compressibility (1/GPa) = 0.02107617
#
# Stress axis : x y z
#
# Youngs Moduli (GPa) = 72.60295 75.95400 166.91609
#
# Poissons Ratio (x) = 0.15977 0.27715
# Poissons Ratio (y) = 0.15272 0.36107
# Poissons Ratio (z) = 0.12055 0.16430
#
# Static dielectric constant tensor:
#      x y z
#    x 2.190320 0.000000 0.009500 
#    y 0.000000 1.959780 0.000000 
#    z 0.009500 0.000000 2.230780 
# 
# From -- ./inp_files/43193.got.cif
#   From: 2010.05.17/outbox.cif.g08.bks.cpg/sg14_22_cif.got.tgz:43193.got - 2010.06.03 17:49:19.
