data_PCOD9247017
_publ_section_title
;
Structure prediction by ZEFSAII (Michael W. Deem and Ramdas Pophale) SiO2 
 PCOD9247017
Probable space group: P 21/C
;
_chemical_formula_sum "Si O2"
_cell_formula_units_Z 26
_cell_length_a 24.967911
_cell_length_b 7.779509
_cell_length_c 11.254945
_cell_angle_alpha 90.000000
_cell_angle_beta 29.537988
_cell_angle_gamma 90.000000
_cell_volume 1077.767645
_symmetry_space_group_name_H-M "P 21/C"
_symmetry_group_IT_number 14
_symmetry_cell_setting 'monoclinic'
loop_
_space_group_symop_operation_xyz
x,y,z
-x,1/2+y,1/2-z
-x,-y,-z
x,1/2-y,1/2+z
loop_
_atom_site_type_symbol
_atom_site_label
_atom_site_fract_x
_atom_site_fract_y
_atom_site_fract_z
Si Si1 0.297875 0.854067 0.536568
Si Si2 0.828925 0.996246 0.015128
Si Si3 0.033453 0.153324 0.688165
Si Si4 0.848081 0.490145 0.851936
Si Si5 0.500000 0.000000 0.000000
Si Si6 0.340179 0.505610 0.589058
Si Si7 0.793840 0.851314 0.835655
O O1 0.340228 0.679267 0.512463
O O2 0.186515 0.841205 0.672309
O O3 0.267021 0.975299 0.706983
O O4 0.386195 0.928692 0.276347
O O5 0.910824 0.155506 0.878000
O O6 0.905476 0.829875 0.893876
O O7 0.782555 0.966196 0.974452
O O8 0.041101 0.032849 0.791584
O O9 0.103782 0.087823 0.440219
O O10 0.819922 0.661548 0.831164
O O11 0.763969 0.487521 0.123708
O O12 0.558544 0.980714 0.020841
O O13 0.311475 0.361835 0.545445
#
# Coordination Sequence:
#
# PCOD9247017 Si02
#       7
#     4   4   4   4   2   4   4
#     4  11  24  46  71 100 135 183 232 297 346 414
#     4  11  24  39  67 102 146 188 237 277 345 410
#     4  10  22  40  61 105 143 196 228 282 334 408
#     4   9  21  43  66  98 144 179 231 278 342 404
#     4  10  26  50  66 102 132 166 236 294 352 416
#     4  10  24  43  74  99 132 179 229 295 352 416
#     4  10  21  43  66  99 142 188 224 285 349 409
#
# _framework density 24.123937999999999
#
# number of rings (size 3 to 8) (size 9 to 14) (size 15 to 20)
#    0.000    1.846    1.538    0.462    8.615    3.077 
#    5.538    0.769    0.000    0.000    0.000    0.000 
#    0.000    0.000    0.000    0.000    0.000    0.000 
#
# Total GULP energy -144739.102085 kJ/mol
# GULP energy per Si atom -5566.888542 kJ/mol
# Density = 2.406903 g / cm^3
# Si number density = 24.123938 Si / 1000 Ang^3
#
#
#
# Elastic Constant Matrix: (Units=GPa)
#
#
# Indices 1 2 3 4 5 6 
#
# 1 181.2656 26.2286 19.7697 0.0000 -1.0465 0.0000
# 2 26.2286 72.4712 10.8700 0.0000 3.2431 0.0000
# 3 19.7697 10.8700 68.4129 0.0000 11.7420 0.0000
# 4 0.0000 0.0000 0.0000 12.3836 0.0000 8.3646
# 5 -1.0465 3.2431 11.7420 0.0000 47.3185 0.0000
# 6 0.0000 0.0000 0.0000 8.3646 0.0000 18.7617
#
#
#
# Elastic Compliance Matrix: (Units=1/GPa)
#
#
# Indices 1 2 3 4 5 6 
#
# 1 0.005971 -0.001961 -0.001524 0.000000 0.000645 0.000000
# 2 -0.001961 0.014788 -0.001673 0.000000 -0.000642 0.000000
# 3 -0.001524 -0.001673 0.015991 0.000000 -0.003887 0.000000
# 4 0.000000 0.000000 0.000000 0.115549 0.000000 -0.051516
# 5 0.000645 -0.000642 -0.003887 0.000000 0.022156 0.000000
# 6 0.000000 0.000000 0.000000 -0.051516 0.000000 0.076268
#
#
# Mechanical properties :
#
#
# Convention : Reuss Voigt Hill
#
# Bulk Modulus (GPa) = 37.83207 48.43181 43.13194
# Shear Modulus (GPa) = 18.52887 33.37820 25.95354
#
# Velocity S-wave (km/s) = 2.77441 3.72373 3.28356
# Velocity P-wave (km/s) = 5.09702 6.21354 5.68277
#
# Compressibility (1/GPa) = 0.02643260
#
# Stress axis : x y z
#
# Youngs Moduli (GPa) = 167.49007 67.62262 62.53677
#
# Poissons Ratio (x) = 0.13261 0.09533
# Poissons Ratio (y) = 0.32845 0.10461
# Poissons Ratio (z) = 0.25532 0.11312
#
# Static dielectric constant tensor:
#      x y z
#    x 1.938400 0.000000 0.004300 
#    y 0.000000 2.077540 0.000000 
#    z 0.004300 0.000000 1.867670 
# 
# From -- ./inp_files/36098.got.cif
#   From: 2010.05.17/outbox.cif.g08.bks.cpg/sg14_19_cif.got.tgz:36098.got - 2010.06.03 17:49:19.
