data_PCOD9247922
_publ_section_title
;
Structure prediction by ZEFSAII (Michael W. Deem and Ramdas Pophale) SiO2 
 PCOD9247922
Probable space group: P 21/C
;
_chemical_formula_sum "Si O2"
_cell_formula_units_Z 24
_cell_length_a 18.673719
_cell_length_b 6.721992
_cell_length_c 15.748853
_cell_angle_alpha 90.000000
_cell_angle_beta 152.048741
_cell_angle_gamma 90.000000
_cell_volume 926.598264
_symmetry_space_group_name_H-M "P 21/C"
_symmetry_group_IT_number 14
_symmetry_cell_setting 'monoclinic'
loop_
_space_group_symop_operation_xyz
x,y,z
-x,1/2+y,1/2-z
-x,-y,-z
x,1/2-y,1/2+z
loop_
_atom_site_type_symbol
_atom_site_label
_atom_site_fract_x
_atom_site_fract_y
_atom_site_fract_z
Si Si1 0.468889 0.763838 0.452813
Si Si2 0.884772 0.305783 0.890904
Si Si3 0.041434 0.564835 0.869388
Si Si4 0.337993 0.212954 0.680684
Si Si5 0.152473 0.726673 0.821166
Si Si6 0.430462 0.653108 0.722075
O O1 0.300047 0.686047 0.300807
O O2 0.579227 0.679386 0.641710
O O3 0.482944 0.741510 0.365169
O O4 0.500000 0.000000 0.500000
O O5 0.895431 0.156577 0.822616
O O6 0.924477 0.258189 0.029789
O O7 0.000000 0.500000 0.000000
O O8 0.043829 0.632585 0.776479
O O9 0.883214 0.460961 0.723954
O O10 0.177416 0.402127 0.021464
O O11 0.349224 0.449669 0.670454
O O12 0.428174 0.127373 0.693553
O O13 0.313608 0.732363 0.036803
#
# Coordination Sequence:
#
# PCOD9247922 Si02
#       6
#     4   4   4   4   4   4
#     4  10  22  40  66  97 140 174 227 291 353 421
#     4  10  22  41  67  96 136 183 226 284 349 430
#     4  11  24  42  68  94 136 177 230 288 352 422
#     4  11  24  40  64 101 131 177 224 290 353 416
#     4  11  22  43  66  94 133 177 229 277 347 425
#     4  11  22  40  67  95 136 174 227 280 351 415
#
# _framework density 25.901192000000002
#
# number of rings (size 3 to 8) (size 9 to 14) (size 15 to 20)
#    0.000    1.333    3.333    2.000    2.333    2.000 
#    0.000    2.500    0.000    0.000    0.000    0.000 
#    0.000    0.000    0.000    0.000    0.000    0.000 
#
# Total GULP energy -133663.009285 kJ/mol
# GULP energy per Si atom -5569.292054 kJ/mol
# Density = 2.584224 g / cm^3
# Si number density = 25.901192 Si / 1000 Ang^3
#
#
#
# Elastic Constant Matrix: (Units=GPa)
#
#
# Indices 1 2 3 4 5 6 
#
# 1 150.3881 33.9912 72.4709 0.0000 -42.9566 0.0000
# 2 33.9912 91.7171 52.5842 0.0000 -11.2033 0.0000
# 3 72.4709 52.5842 159.9532 0.0000 -33.0004 0.0000
# 4 0.0000 0.0000 0.0000 27.3135 0.0000 0.5431
# 5 -42.9566 -11.2033 -33.0004 0.0000 49.1837 0.0000
# 6 0.0000 0.0000 0.0000 0.5431 0.0000 27.5332
#
#
#
# Elastic Compliance Matrix: (Units=1/GPa)
#
#
# Indices 1 2 3 4 5 6 
#
# 1 0.010233 -0.001366 -0.002795 0.000000 0.006752 0.000000
# 2 -0.001366 0.013618 -0.004021 0.000000 -0.000789 0.000000
# 3 -0.002795 -0.004021 0.009456 0.000000 0.002988 0.000000
# 4 0.000000 0.000000 0.000000 0.036626 0.000000 -0.000722
# 5 0.006752 -0.000789 0.002988 0.000000 0.028054 0.000000
# 6 0.000000 0.000000 0.000000 -0.000722 0.000000 0.036334
#
#
# Mechanical properties :
#
#
# Convention : Reuss Voigt Hill
#
# Bulk Modulus (GPa) = 59.01231 80.01677 69.51454
# Shear Modulus (GPa) = 31.98303 37.00690 34.49496
#
# Velocity S-wave (km/s) = 3.51780 3.78401 3.65333
# Velocity P-wave (km/s) = 6.27160 7.07473 6.68524
#
# Compressibility (1/GPa) = 0.01694562
#
# Stress axis : x y z
#
# Youngs Moduli (GPa) = 97.71999 73.43122 105.74915
#
# Poissons Ratio (x) = 0.10028 0.29552
# Poissons Ratio (y) = 0.13345 0.42521
# Poissons Ratio (z) = 0.27309 0.29526
#
# Static dielectric constant tensor:
#      x y z
#    x 2.167990 0.000000 -0.036630 
#    y 0.000000 2.193270 0.000000 
#    z -0.036630 0.000000 2.051150 
# 
# From -- ./inp_files/48659.got.cif
#   From: 2010.05.17/outbox.cif.g08.bks.cpg/sg14_25_cif.got.tgz:48659.got - 2010.06.03 17:49:19.
