data_PCOD9247740
_publ_section_title
;
Structure prediction by ZEFSAII (Michael W. Deem and Ramdas Pophale) SiO2 
 PCOD9247740
Probable space group: P 21/C
;
_chemical_formula_sum "Si O2"
_cell_formula_units_Z 24
_cell_length_a 19.387322
_cell_length_b 7.534291
_cell_length_c 14.124421
_cell_angle_alpha 90.000000
_cell_angle_beta 150.527971
_cell_angle_gamma 90.000000
_cell_volume 1015.067072
_symmetry_space_group_name_H-M "P 21/C"
_symmetry_group_IT_number 14
_symmetry_cell_setting 'monoclinic'
loop_
_space_group_symop_operation_xyz
x,y,z
-x,1/2+y,1/2-z
-x,-y,-z
x,1/2-y,1/2+z
loop_
_atom_site_type_symbol
_atom_site_label
_atom_site_fract_x
_atom_site_fract_y
_atom_site_fract_z
Si Si1 0.408437 0.675769 0.401252
Si Si2 0.901902 0.357336 0.935068
Si Si3 0.121158 0.412248 0.918869
Si Si4 0.401273 0.280857 0.714433
Si Si5 0.071056 0.641014 0.703138
Si Si6 0.348308 0.674904 0.622039
O O1 0.500000 0.500000 0.500000
O O2 0.264516 0.617599 0.279448
O O3 0.498412 0.805971 0.574937
O O4 0.369310 0.762725 0.254926
O O5 0.930385 0.176211 0.910812
O O6 0.912811 0.412983 0.058273
O O7 0.000000 0.500000 0.000000
O O8 0.065053 0.450400 0.746543
O O9 0.051920 0.255228 0.895693
O O10 0.283551 0.363015 0.099615
O O11 0.327271 0.463269 0.596892
O O12 0.506876 0.215053 0.759626
O O13 0.218032 0.724767 0.917929
#
# Coordination Sequence:
#
# PCOD9247740 Si02
#       6
#     4   4   4   4   4   4
#     4  12  22  43  66  93 134 172 216 275 330 392
#     4  10  22  39  69  93 129 174 215 264 336 394
#     4  11  23  44  67  94 133 173 220 279 333 395
#     4  12  25  42  64  98 129 172 222 274 334 396
#     4  11  22  42  66  95 127 174 220 268 332 401
#     4  12  25  41  67  97 131 175 222 272 332 394
#
# _framework density 23.643757999999998
#
# number of rings (size 3 to 8) (size 9 to 14) (size 15 to 20)
#    0.000    0.667    5.000    3.500    0.000    0.000 
#    0.000    0.833    0.000    0.000    0.000    0.000 
#    0.000    0.000    0.000    0.000    0.000    0.000 
#
# Total GULP energy -134111.513731 kJ/mol
# GULP energy per Si atom -5587.979739 kJ/mol
# Density = 2.358994 g / cm^3
# Si number density = 23.643758 Si / 1000 Ang^3
#
#
#
# Elastic Constant Matrix: (Units=GPa)
#
#
# Indices 1 2 3 4 5 6 
#
# 1 149.9077 14.0892 52.8526 0.0000 10.2402 0.0000
# 2 14.0892 59.2708 1.7369 0.0000 9.3164 0.0000
# 3 52.8526 1.7369 70.5709 0.0000 5.8899 0.0000
# 4 0.0000 0.0000 0.0000 24.1825 0.0000 -7.5403
# 5 10.2402 9.3164 5.8899 0.0000 58.8849 0.0000
# 6 0.0000 0.0000 0.0000 -7.5403 0.0000 28.0502
#
#
#
# Elastic Compliance Matrix: (Units=1/GPa)
#
#
# Indices 1 2 3 4 5 6 
#
# 1 0.009319 -0.001915 -0.006880 0.000000 -0.000630 0.000000
# 2 -0.001915 0.017698 0.001214 0.000000 -0.002589 0.000000
# 3 -0.006880 0.001214 0.019371 0.000000 -0.000933 0.000000
# 4 0.000000 0.000000 0.000000 0.045135 0.000000 0.012133
# 5 -0.000630 -0.002589 -0.000933 0.000000 0.017595 0.000000
# 6 0.000000 0.000000 0.000000 0.012133 0.000000 0.038912
#
#
# Mechanical properties :
#
#
# Convention : Reuss Voigt Hill
#
# Bulk Modulus (GPa) = 32.02261 46.34519 39.18390
# Shear Modulus (GPa) = 28.80187 36.29489 32.54838
#
# Velocity S-wave (km/s) = 3.49400 3.92225 3.71430
# Velocity P-wave (km/s) = 5.46357 6.33688 5.91636
#
# Compressibility (1/GPa) = 0.03122794
#
# Stress axis : x y z
#
# Youngs Moduli (GPa) = 107.30366 56.50303 51.62441
#
# Poissons Ratio (x) = 0.10819 0.35517
# Poissons Ratio (y) = 0.20546 -0.06270
# Poissons Ratio (z) = 0.73823 -0.06862
#
# Static dielectric constant tensor:
#      x y z
#    x 1.889660 0.000000 -0.043910 
#    y 0.000000 1.944340 0.000000 
#    z -0.043910 0.000000 1.873860 
# 
# From -- ./inp_files/48660.got.cif
#   From: 2010.05.17/outbox.cif.g08.bks.cpg/sg14_25_cif.got.tgz:48660.got - 2010.06.03 17:49:19.
