data_PCOD9247798
_publ_section_title
;
Structure prediction by ZEFSAII (Michael W. Deem and Ramdas Pophale) SiO2 
 PCOD9247798
Probable space group: P 21/C
;
_chemical_formula_sum "Si O2"
_cell_formula_units_Z 22
_cell_length_a 4.860424
_cell_length_b 7.820452
_cell_length_c 23.575137
_cell_angle_alpha 90.000000
_cell_angle_beta 96.021934
_cell_angle_gamma 90.000000
_cell_volume 891.162861
_symmetry_space_group_name_H-M "P 21/C"
_symmetry_group_IT_number 14
_symmetry_cell_setting 'monoclinic'
loop_
_space_group_symop_operation_xyz
x,y,z
-x,1/2+y,1/2-z
-x,-y,-z
x,1/2-y,1/2+z
loop_
_atom_site_type_symbol
_atom_site_label
_atom_site_fract_x
_atom_site_fract_y
_atom_site_fract_z
Si Si1 0.205261 0.565148 0.802763
Si Si2 0.258524 0.524623 0.591546
Si Si3 0.300761 0.199075 0.204550
Si Si4 0.000000 0.500000 0.000000
Si Si5 0.829732 0.806228 0.008007
Si Si6 0.503638 0.896352 0.584579
O O1 0.390596 0.726790 0.787576
O O2 0.230796 0.415733 0.757246
O O3 0.333119 0.492894 0.863390
O O4 0.897800 0.636429 0.802415
O O5 0.257948 0.419706 0.648719
O O6 0.350132 0.403852 0.541198
O O7 0.424689 0.701702 0.600146
O O8 0.957255 0.579240 0.560259
O O9 0.228219 0.510104 0.059877
O O10 0.082836 0.705448 0.984716
O O11 0.713172 0.630806 0.035031
#
# Coordination Sequence:
#
# PCOD9247798 Si02
#       6
#     4   4   4   2   4   4
#     4  12  29  48  81 108 150 196 256 315 379 448
#     4  10  24  42  69 104 148 190 250 299 377 440
#     4  12  28  51  77 112 147 198 254 316 379 448
#     4  10  22  40  62 104 140 194 240 302 352 452
#     4  10  22  40  68 102 149 194 245 301 371 445
#     4  11  24  42  73 103 152 199 249 307 375 451
#
# _framework density 24.686847
#
# number of rings (size 3 to 8) (size 9 to 14) (size 15 to 20)
#    0.000    1.091    0.000    4.364   12.727    0.000 
#    3.273    0.000    0.000    0.000    0.000    0.000 
#    0.000    0.000    0.000    0.000    0.000    0.000 
#
# Total GULP energy -122839.902316 kJ/mol
# GULP energy per Si atom -5583.631923 kJ/mol
# Density = 2.463066 g / cm^3
# Si number density = 24.686847 Si / 1000 Ang^3
#
#
#
# Elastic Constant Matrix: (Units=GPa)
#
#
# Indices 1 2 3 4 5 6 
#
# 1 68.7850 -10.3284 18.8039 0.0000 0.6163 0.0000
# 2 -10.3284 80.5729 31.3612 0.0000 -5.4726 0.0000
# 3 18.8039 31.3612 126.3439 0.0000 1.9189 0.0000
# 4 0.0000 0.0000 0.0000 66.9407 0.0000 -3.4458
# 5 0.6163 -5.4726 1.9189 0.0000 27.2013 0.0000
# 6 0.0000 0.0000 0.0000 -3.4458 0.0000 54.9882
#
#
#
# Elastic Compliance Matrix: (Units=1/GPa)
#
#
# Indices 1 2 3 4 5 6 
#
# 1 0.015907 0.003321 -0.003200 0.000000 0.000533 0.000000
# 2 0.003321 0.014682 -0.004187 0.000000 0.003174 0.000000
# 3 -0.003200 -0.004187 0.009452 0.000000 -0.001437 0.000000
# 4 0.000000 0.000000 0.000000 0.014987 0.000000 0.000939
# 5 0.000533 0.003174 -0.001437 0.000000 0.037491 0.000000
# 6 0.000000 0.000000 0.000000 0.000939 0.000000 0.018245
#
#
# Mechanical properties :
#
#
# Convention : Reuss Voigt Hill
#
# Bulk Modulus (GPa) = 31.33905 39.48612 35.41259
# Shear Modulus (GPa) = 38.60071 45.55036 42.07553
#
# Velocity S-wave (km/s) = 3.95855 4.30015 4.13288
# Velocity P-wave (km/s) = 5.79790 6.37845 6.09509
#
# Compressibility (1/GPa) = 0.03190907
#
# Stress axis : x y z
#
# Youngs Moduli (GPa) = 62.86690 68.11061 105.79548
#
# Poissons Ratio (x) = -0.22617 0.33852
# Poissons Ratio (y) = -0.20876 0.44295
# Poissons Ratio (z) = 0.20116 0.28517
#
# Static dielectric constant tensor:
#      x y z
#    x 2.456600 0.000000 -0.200150 
#    y 0.000000 2.198900 0.000000 
#    z -0.200150 0.000000 1.959570 
# 
# From -- ./inp_files/63153.got.cif
#   From: 2010.05.17/outbox.cif.g08.bks.cpg/sg14_32_cif.got.tgz:63153.got - 2010.06.03 17:49:19.
