data_PCOD9247926
_publ_section_title
;
Structure prediction by ZEFSAII (Michael W. Deem and Ramdas Pophale) SiO2 
 PCOD9247926
Probable space group: P 21/C
;
_chemical_formula_sum "Si O2"
_cell_formula_units_Z 26
_cell_length_a 9.920570
_cell_length_b 11.790716
_cell_length_c 9.758462
_cell_angle_alpha 90.000000
_cell_angle_beta 62.248705
_cell_angle_gamma 90.000000
_cell_volume 1010.160121
_symmetry_space_group_name_H-M "P 21/C"
_symmetry_group_IT_number 14
_symmetry_cell_setting 'monoclinic'
loop_
_space_group_symop_operation_xyz
x,y,z
-x,1/2+y,1/2-z
-x,-y,-z
x,1/2-y,1/2+z
loop_
_atom_site_type_symbol
_atom_site_label
_atom_site_fract_x
_atom_site_fract_y
_atom_site_fract_z
Si Si1 0.095986 0.090617 0.129332
Si Si2 0.252121 0.190968 0.478442
Si Si3 0.483496 0.724697 0.356565
Si Si4 0.949421 0.360042 0.962230
Si Si5 0.824622 0.368048 0.541344
Si Si6 0.365469 0.960978 0.369648
Si Si7 0.500000 0.500000 0.500000
O O1 0.015366 0.066794 0.308813
O O2 0.954805 0.107860 0.091967
O O3 0.205658 0.199717 0.089880
O O4 0.195982 0.983724 0.034049
O O5 0.361944 0.230078 0.303299
O O6 0.086464 0.159902 0.498969
O O7 0.330010 0.071375 0.480072
O O8 0.339643 0.676472 0.334878
O O9 0.442223 0.854898 0.408095
O O10 0.484396 0.640406 0.485589
O O11 0.897237 0.237727 0.924945
O O12 0.800519 0.414434 0.094519
O O13 0.448694 0.992103 0.188621
#
# Coordination Sequence:
#
# PCOD9247926 Si02
#       7
#     4   4   4   4   4   4   2
#     4  10  22  40  67  91 143 181 231 300 355 425
#     4  10  23  38  63 101 132 177 237 292 354 436
#     4  10  23  40  67 100 135 183 243 287 363 436
#     4  10  22  40  66  98 135 180 238 285 355 442
#     4   9  22  41  62  98 130 183 233 289 358 427
#     4  10  23  42  66 105 136 182 243 288 358 440
#     4  10  24  44  74 100 142 190 228 306 360 416
#
# _framework density 25.738492999999998
#
# number of rings (size 3 to 8) (size 9 to 14) (size 15 to 20)
#    0.000    2.154    0.000    0.462   10.769    7.385 
#    0.000    0.000    0.000    8.308    0.000    0.000 
#    0.000    0.000    0.000    0.000    0.000    0.000 
#
# Total GULP energy -144860.026595 kJ/mol
# GULP energy per Si atom -5571.539484 kJ/mol
# Density = 2.567991 g / cm^3
# Si number density = 25.738493 Si / 1000 Ang^3
#
#
#
# Elastic Constant Matrix: (Units=GPa)
#
#
# Indices 1 2 3 4 5 6 
#
# 1 83.7060 38.0247 41.6130 0.0000 -29.3790 0.0000
# 2 38.0247 186.3361 36.8439 0.0000 -10.8445 0.0000
# 3 41.6130 36.8439 82.0791 0.0000 -22.6710 0.0000
# 4 0.0000 0.0000 0.0000 35.8739 0.0000 -9.6513
# 5 -29.3790 -10.8445 -22.6710 0.0000 27.9349 0.0000
# 6 0.0000 0.0000 0.0000 -9.6513 0.0000 47.4261
#
#
#
# Elastic Compliance Matrix: (Units=1/GPa)
#
#
# Indices 1 2 3 4 5 6 
#
# 1 0.021849 -0.002419 -0.005032 0.000000 0.017956 0.000000
# 2 -0.002419 0.006158 -0.002037 0.000000 -0.001806 0.000000
# 3 -0.005032 -0.002037 0.018005 0.000000 0.008529 0.000000
# 4 0.000000 0.000000 0.000000 0.029490 0.000000 0.006001
# 5 0.017956 -0.001806 0.008529 0.000000 0.060902 0.000000
# 6 0.000000 0.000000 0.000000 0.006001 0.000000 0.022307
#
#
# Mechanical properties :
#
#
# Convention : Reuss Voigt Hill
#
# Bulk Modulus (GPa) = 36.98680 65.00938 50.99809
# Shear Modulus (GPa) = 26.78133 37.95627 32.36880
#
# Velocity S-wave (km/s) = 3.22920 3.84433 3.55012
# Velocity P-wave (km/s) = 5.32025 6.70952 6.05486
#
# Compressibility (1/GPa) = 0.02703667
#
# Stress axis : x y z
#
# Youngs Moduli (GPa) = 45.76898 162.39494 55.54135
#
# Poissons Ratio (x) = 0.39278 0.27948
# Poissons Ratio (y) = 0.11070 0.11313
# Poissons Ratio (z) = 0.23030 0.33077
#
# Static dielectric constant tensor:
#      x y z
#    x 2.301830 0.000000 -0.127240 
#    y 0.000000 2.090720 0.000000 
#    z -0.127240 0.000000 1.929040 
# 
# From -- ./inp_files/29000.got.cif
#   From: 2010.05.17/outbox.cif.g08.bks.cpg/sg14_15_cif.got.tgz:29000.got - 2010.06.03 17:49:19.
