data_PCOD9247790
_publ_section_title
;
Structure prediction by ZEFSAII (Michael W. Deem and Ramdas Pophale) SiO2 
 PCOD9247790
Probable space group: P 21/C
;
_chemical_formula_sum "Si O2"
_cell_formula_units_Z 32
_cell_length_a 9.357487
_cell_length_b 18.915868
_cell_length_c 14.381531
_cell_angle_alpha 90.000000
_cell_angle_beta 138.379177
_cell_angle_gamma 90.000000
_cell_volume 1690.784095
_symmetry_space_group_name_H-M "P 21/C"
_symmetry_group_IT_number 14
_symmetry_cell_setting 'monoclinic'
loop_
_space_group_symop_operation_xyz
x,y,z
-x,1/2+y,1/2-z
-x,-y,-z
x,1/2-y,1/2+z
loop_
_atom_site_type_symbol
_atom_site_label
_atom_site_fract_x
_atom_site_fract_y
_atom_site_fract_z
Si Si1 0.574042 0.680915 0.919322
Si Si2 0.417733 0.487512 0.062196
Si Si3 0.540098 0.937911 0.094122
Si Si4 0.885393 0.788773 0.412590
Si Si5 0.232890 0.963823 0.120342
Si Si6 0.999100 0.558524 0.921022
Si Si7 0.101475 0.679365 0.657698
Si Si8 0.249901 0.298109 0.362519
O O1 0.621756 0.597194 0.949481
O O2 0.662772 0.701367 0.860621
O O3 0.327172 0.703765 0.809481
O O4 0.690143 0.727178 0.053645
O O5 0.593897 0.503299 0.228500
O O6 0.500000 0.500000 0.000000
O O7 0.210574 0.537555 0.968225
O O8 0.357515 0.946683 0.084755
O O9 0.566577 0.858546 0.063919
O O10 0.775767 0.946795 0.256195
O O11 0.500000 0.000000 0.000000
O O12 0.838459 0.775885 0.281555
O O13 0.006627 0.863986 0.469537
O O14 0.011402 0.731425 0.534601
O O15 0.173358 0.891905 0.143088
O O16 0.000000 0.000000 0.000000
O O17 0.000000 0.500000 0.000000
O O18 0.930892 0.668177 0.657396
#
# Coordination Sequence:
#
# PCOD9247790 Si02
#       8
#     4   4   4   4   4   4   4   4
#     4  10  22  42  59  88 128 158 203 258 307 362
#     4  11  24  40  63  93 123 164 205 261 312 366
#     4  11  24  41  65  92 123 166 206 253 309 376
#     4  10  22  40  62  88 121 162 205 254 305 369
#     4  11  24  43  62  91 132 160 200 262 313 364
#     4  11  20  42  65  88 122 162 212 255 307 368
#     4  10  22  40  61  89 124 159 201 258 310 360
#     4  10  22  40  63  90 119 163 210 248 306 372
#
# _framework density 18.926130000000001
#
# number of rings (size 3 to 8) (size 9 to 14) (size 15 to 20)
#    0.000    1.500    2.500    3.000    8.750    4.000 
#    4.500    0.000    0.000    0.000    0.000    0.000 
#    0.000    0.000    0.000    0.000    0.000    0.000 
#
# Total GULP energy -178373.139124 kJ/mol
# GULP energy per Si atom -5574.160598 kJ/mol
# Density = 1.888305 g / cm^3
# Si number density = 18.926130 Si / 1000 Ang^3
#
#
#
# Elastic Constant Matrix: (Units=GPa)
#
#
# Indices 1 2 3 4 5 6 
#
# 1 158.5315 16.4875 37.7500 0.0000 1.0016 0.0000
# 2 16.4875 33.2934 28.8681 0.0000 -0.7953 0.0000
# 3 37.7500 28.8681 52.2743 0.0000 2.2961 0.0000
# 4 0.0000 0.0000 0.0000 23.2208 0.0000 -3.0508
# 5 1.0016 -0.7953 2.2961 0.0000 38.8235 0.0000
# 6 0.0000 0.0000 0.0000 -3.0508 0.0000 32.1511
#
#
#
# Elastic Compliance Matrix: (Units=1/GPa)
#
#
# Indices 1 2 3 4 5 6 
#
# 1 0.007684 0.001959 -0.006641 0.000000 0.000235 0.000000
# 2 0.001959 0.058500 -0.033859 0.000000 0.003150 0.000000
# 3 -0.006641 -0.033859 0.042758 0.000000 -0.003051 0.000000
# 4 0.000000 0.000000 0.000000 0.043609 0.000000 0.004138
# 5 0.000235 0.003150 -0.003051 0.000000 0.025997 0.000000
# 6 0.000000 0.000000 0.000000 0.004138 0.000000 0.031496
#
#
# Mechanical properties :
#
#
# Convention : Reuss Voigt Hill
#
# Bulk Modulus (GPa) = 31.38798 45.59003 38.48901
# Shear Modulus (GPa) = 16.79292 29.57198 23.18245
#
# Velocity S-wave (km/s) = 2.98197 3.95713 3.50364
# Velocity P-wave (km/s) = 5.33635 6.70963 6.06201
#
# Compressibility (1/GPa) = 0.03185933
#
# Stress axis : x y z
#
# Youngs Moduli (GPa) = 130.13901 17.09413 23.38750
#
# Poissons Ratio (x) = -0.03348 0.15532
# Poissons Ratio (y) = -0.25489 0.79187
# Poissons Ratio (z) = 0.86425 0.57879
#
# Static dielectric constant tensor:
#      x y z
#    x 1.586320 0.000000 0.025040 
#    y 0.000000 1.674630 0.000000 
#    z 0.025040 0.000000 1.731530 
# 
# From -- ./inp_files/42006.got.cif
#   From: 2010.05.17/outbox.cif.g08.bks.cpg/sg14_22_cif.got.tgz:42006.got - 2010.06.03 17:49:19.
