data_PCOD9247962
_publ_section_title
;
Structure prediction by ZEFSAII (Michael W. Deem and Ramdas Pophale) SiO2 
 PCOD9247962
Probable space group: P 21/C
;
_chemical_formula_sum "Si O2"
_cell_formula_units_Z 24
_cell_length_a 5.569422
_cell_length_b 12.997891
_cell_length_c 10.377272
_cell_angle_alpha 90.000000
_cell_angle_beta 70.711974
_cell_angle_gamma 90.000000
_cell_volume 709.052514
_symmetry_space_group_name_H-M "P 21/C"
_symmetry_group_IT_number 14
_symmetry_cell_setting 'monoclinic'
loop_
_space_group_symop_operation_xyz
x,y,z
-x,1/2+y,1/2-z
-x,-y,-z
x,1/2-y,1/2+z
loop_
_atom_site_type_symbol
_atom_site_label
_atom_site_fract_x
_atom_site_fract_y
_atom_site_fract_z
Si Si1 0.000000 0.500000 0.500000
Si Si2 0.958077 0.733782 0.606551
Si Si3 0.541921 0.766218 0.393450
Si Si4 0.376389 0.580780 0.581988
Si Si5 0.750000 0.122379 0.250000
Si Si6 0.876390 0.080780 0.581987
Si Si7 0.500000 0.000000 0.500000
O O1 0.352103 0.493162 0.453423
O O2 0.026196 0.557063 0.351811
O O3 0.076771 0.620000 0.564475
O O4 0.135492 0.803107 0.664870
O O5 0.960835 0.811892 0.483493
O O6 0.750000 0.713542 0.750001
O O7 0.539164 0.688108 0.516507
O O8 0.364507 0.696893 0.335130
O O9 0.423227 0.880000 0.435526
O O10 0.250000 0.581761 0.750000
O O11 0.526197 0.057063 0.351811
O O12 0.852103 0.993161 0.453423
#
# Coordination Sequence:
#
# PCOD9247962 Si02
#       7
#     2   4   4   4   4   4   2
#     4  10  22  40  68  98 136 176 236 284 344 420
#     4  10  22  41  64  96 139 177 229 290 349 419
#     4  10  22  41  64  96 139 177 229 290 349 419
#     4  10  22  41  65  97 133 180 232 285 348 421
#     4  10  22  42  66 102 136 186 230 292 352 414
#     4  10  22  41  65  97 133 180 232 285 348 421
#     4  10  22  40  68  98 136 176 236 284 344 420
#
# _framework density 33.847988000000001
#
# number of rings (size 3 to 8) (size 9 to 14) (size 15 to 20)
#    0.000    2.000    0.000    2.000    2.333    2.667 
#    9.000   10.000    0.000    0.000    0.000    0.000 
#    0.000    0.000    0.000    0.000    0.000    0.000 
#
# Total GULP energy -133988.928689 kJ/mol
# GULP energy per Si atom -5582.872029 kJ/mol
# Density = 3.377095 g / cm^3
# Si number density = 33.847988 Si / 1000 Ang^3
#
#
#
# Elastic Constant Matrix: (Units=GPa)
#
#
# Indices 1 2 3 4 5 6 
#
# 1 107.2236 70.2344 85.9257 0.0000 -31.8948 0.0000
# 2 70.2344 404.7254 173.6097 0.0000 -50.1252 0.0000
# 3 85.9257 173.6097 336.1682 0.0000 -56.2543 0.0000
# 4 0.0000 0.0000 0.0000 101.7939 0.0000 -18.4894
# 5 -31.8948 -50.1252 -56.2543 0.0000 113.3247 0.0000
# 6 0.0000 0.0000 0.0000 -18.4894 0.0000 91.2194
#
#
#
# Elastic Compliance Matrix: (Units=1/GPa)
#
#
# Indices 1 2 3 4 5 6 
#
# 1 0.012391 -0.000889 -0.002388 0.000000 0.001908 0.000000
# 2 -0.000889 0.003281 -0.001381 0.000000 0.000516 0.000000
# 3 -0.002388 -0.001381 0.004454 0.000000 0.000928 0.000000
# 4 0.000000 0.000000 0.000000 0.010199 0.000000 0.002067
# 5 0.001908 0.000516 0.000928 0.000000 0.010050 0.000000
# 6 0.000000 0.000000 0.000000 0.002067 0.000000 0.011382
#
#
# Mechanical properties :
#
#
# Convention : Reuss Voigt Hill
#
# Bulk Modulus (GPa) = 92.52456 167.51742 130.02099
# Shear Modulus (GPa) = 77.30774 95.82408 86.56591
#
# Velocity S-wave (km/s) = 4.78427 5.32650 5.06265
# Velocity P-wave (km/s) = 7.61010 9.35026 8.52470
#
# Compressibility (1/GPa) = 0.01080794
#
# Stress axis : x y z
#
# Youngs Moduli (GPa) = 80.70698 304.74761 224.53406
#
# Poissons Ratio (x) = 0.27102 0.53629
# Poissons Ratio (y) = 0.07177 0.31009
# Poissons Ratio (z) = 0.19276 0.42087
#
# Static dielectric constant tensor:
#      x y z
#    x 3.593980 0.000000 -0.047480 
#    y 0.000000 2.582470 0.000000 
#    z -0.047480 0.000000 2.495380 
# 
# From -- ./inp_files/21197.got.cif
#   From: 2010.05.17/outbox.cif.g08.bks.cpg/sg14_11_cif.got.tgz:21197.got - 2010.06.03 17:49:19.
