data_PCOD9247328
_publ_section_title
;
Structure prediction by ZEFSAII (Michael W. Deem and Ramdas Pophale) SiO2 
 PCOD9247328
Probable space group: P 21/C
;
_chemical_formula_sum "Si O2"
_cell_formula_units_Z 28
_cell_length_a 9.907589
_cell_length_b 14.986293
_cell_length_c 8.690427
_cell_angle_alpha 90.000000
_cell_angle_beta 66.825836
_cell_angle_gamma 90.000000
_cell_volume 1186.223883
_symmetry_space_group_name_H-M "P 21/C"
_symmetry_group_IT_number 14
_symmetry_cell_setting 'monoclinic'
loop_
_space_group_symop_operation_xyz
x,y,z
-x,1/2+y,1/2-z
-x,-y,-z
x,1/2-y,1/2+z
loop_
_atom_site_type_symbol
_atom_site_label
_atom_site_fract_x
_atom_site_fract_y
_atom_site_fract_z
Si Si1 0.008156 0.481000 0.678387
Si Si2 0.814568 0.171167 0.159755
Si Si3 0.306587 0.280579 0.188624
Si Si4 0.856723 0.360985 0.273684
Si Si5 0.530035 0.862521 0.659602
Si Si6 0.749413 0.862893 0.014190
Si Si7 0.446854 0.953098 0.180115
O O1 0.013993 0.564563 0.789374
O O2 0.173105 0.441410 0.609658
O O3 0.000000 0.500000 0.500000
O O4 0.890386 0.402104 0.738774
O O5 0.875113 0.267531 0.180426
O O6 0.640792 0.161871 0.261248
O O7 0.835890 0.154716 0.967167
O O8 0.389689 0.204633 0.254463
O O9 0.195338 0.337736 0.341661
O O10 0.410399 0.341508 0.036922
O O11 0.223836 0.221937 0.101138
O O12 0.706255 0.402855 0.271814
O O13 0.553440 0.965677 0.697973
O O14 0.580202 0.882018 0.134016
O O15 0.500000 0.000000 0.000000
#
# Coordination Sequence:
#
# PCOD9247328 Si02
#       7
#     4   4   4   4   4   4   4
#     4  10  22  40  61  86 121 167 206 250 306 375
#     4  11  22  38  65  91 122 166 215 248 309 387
#     4  10  22  36  60  89 117 150 200 258 306 366
#     4  11  22  41  65  91 123 168 211 262 316 373
#     4  11  20  37  60  92 122 157 202 255 315 374
#     4  11  21  38  60  85 118 155 199 249 312 366
#     4  12  19  35  62  89 123 160 197 255 326 376
#
# _framework density 23.604310999999999
#
# number of rings (size 3 to 8) (size 9 to 14) (size 15 to 20)
#    0.000    1.143    4.286    3.429    0.000    2.857 
#    0.000    3.571    0.000    0.000    0.000    0.000 
#    0.000    0.000    0.000    0.000    0.000    0.000 
#
# Total GULP energy -156299.056306 kJ/mol
# GULP energy per Si atom -5582.109154 kJ/mol
# Density = 2.355059 g / cm^3
# Si number density = 23.604311 Si / 1000 Ang^3
#
#
#
# Elastic Constant Matrix: (Units=GPa)
#
#
# Indices 1 2 3 4 5 6 
#
# 1 92.2615 28.8306 -3.1678 0.0000 2.5098 0.0000
# 2 28.8306 115.2066 5.6444 0.0000 11.2988 0.0000
# 3 -3.1678 5.6444 62.1864 0.0000 13.8447 0.0000
# 4 0.0000 0.0000 0.0000 44.1420 0.0000 7.4959
# 5 2.5098 11.2988 13.8447 0.0000 11.0475 0.0000
# 6 0.0000 0.0000 0.0000 7.4959 0.0000 39.6722
#
#
#
# Elastic Compliance Matrix: (Units=1/GPa)
#
#
# Indices 1 2 3 4 5 6 
#
# 1 0.011814 -0.002902 0.001112 0.000000 -0.001110 0.000000
# 2 -0.002902 0.010514 0.001588 0.000000 -0.012084 0.000000
# 3 0.001112 0.001588 0.022762 0.000000 -0.030402 0.000000
# 4 0.000000 0.000000 0.000000 0.023405 0.000000 -0.004422
# 5 -0.001110 -0.012084 -0.030402 0.000000 0.141229 0.000000
# 6 0.000000 0.000000 0.000000 -0.004422 0.000000 0.026042
#
#
# Mechanical properties :
#
#
# Convention : Reuss Voigt Hill
#
# Bulk Modulus (GPa) = 22.37849 36.91878 29.64863
# Shear Modulus (GPa) = 19.91521 34.86214 27.38867
#
# Velocity S-wave (km/s) = 2.90782 3.84727 3.41005
# Velocity P-wave (km/s) = 4.55798 5.95062 5.30024
#
# Compressibility (1/GPa) = 0.04468577
#
# Stress axis : x y z
#
# Youngs Moduli (GPa) = 84.64518 95.11476 43.93353
#
# Poissons Ratio (x) = 0.27604 -0.04887
# Poissons Ratio (y) = 0.24565 -0.06977
# Poissons Ratio (z) = -0.09415 -0.15105
#
# Static dielectric constant tensor:
#      x y z
#    x 2.199720 0.000000 -0.103990 
#    y 0.000000 1.440580 0.000000 
#    z -0.103990 0.000000 1.964330 
# 
# From -- ./inp_files/12988.got.cif
#   From: 2010.05.17/outbox.cif.g08.bks.cpg/sg14_7_cif.got.tgz:12988.got - 2010.06.03 17:49:19.
