data_PCOD9247160
_publ_section_title
;
Structure prediction by ZEFSAII (Michael W. Deem and Ramdas Pophale) SiO2 
 PCOD9247160
Probable space group: P 21/C
;
_chemical_formula_sum "Si O2"
_cell_formula_units_Z 26
_cell_length_a 21.808751
_cell_length_b 8.917676
_cell_length_c 12.770997
_cell_angle_alpha 90.000000
_cell_angle_beta 151.452809
_cell_angle_gamma 90.000000
_cell_volume 1186.938852
_symmetry_space_group_name_H-M "P 21/C"
_symmetry_group_IT_number 14
_symmetry_cell_setting 'monoclinic'
loop_
_space_group_symop_operation_xyz
x,y,z
-x,1/2+y,1/2-z
-x,-y,-z
x,1/2-y,1/2+z
loop_
_atom_site_type_symbol
_atom_site_label
_atom_site_fract_x
_atom_site_fract_y
_atom_site_fract_z
Si Si1 0.077345 0.355128 0.650577
Si Si2 0.261400 0.151248 0.795304
Si Si3 0.312425 0.726625 0.597066
Si Si4 0.506197 0.726483 0.201681
Si Si5 0.318853 0.065527 0.657179
Si Si6 0.110550 0.618187 0.143225
Si Si7 0.500000 0.500000 0.000000
O O1 0.149547 0.267263 0.663234
O O2 0.000000 0.500000 0.500000
O O3 0.965627 0.249096 0.529208
O O4 0.190593 0.393771 0.900239
O O5 0.312284 0.162394 0.753782
O O6 0.211974 0.981525 0.733214
O O7 0.375630 0.179376 0.046889
O O8 0.388517 0.751106 0.602183
O O9 0.173047 0.679011 0.344554
O O10 0.318974 0.886102 0.665983
O O11 0.383763 0.598659 0.768549
O O12 0.556860 0.876218 0.219365
O O13 0.482175 0.599487 0.080530
O O14 0.000000 0.500000 0.000000
#
# Coordination Sequence:
#
# PCOD9247160 Si02
#       7
#     4   4   4   4   4   4   2
#     4  10  21  44  71 102 139 182 238 292 352 429
#     4  10  23  44  68 100 146 183 230 299 353 426
#     4  12  25  44  71 104 143 187 239 297 366 436
#     4  11  25  46  67 103 144 181 234 301 358 438
#     4  11  25  43  71 103 140 186 235 295 369 429
#     4  10  22  45  69  95 145 185 228 299 354 425
#     4  12  26  42  70 102 138 190 240 286 374 440
#
# _framework density 21.905089
#
# number of rings (size 3 to 8) (size 9 to 14) (size 15 to 20)
#    0.000    1.231    3.077    1.846    2.154    3.692 
#    0.000    0.000    0.000    0.000    0.000    0.000 
#    0.000    0.000    0.000    0.000    0.000    0.000 
#
# Total GULP energy -144783.977634 kJ/mol
# GULP energy per Si atom -5568.614524 kJ/mol
# Density = 2.185523 g / cm^3
# Si number density = 21.905089 Si / 1000 Ang^3
#
#
#
# Elastic Constant Matrix: (Units=GPa)
#
#
# Indices 1 2 3 4 5 6 
#
# 1 60.9651 19.9282 36.4032 0.0000 -11.1836 0.0000
# 2 19.9282 59.3952 23.1241 0.0000 10.9840 0.0000
# 3 36.4032 23.1241 109.7023 0.0000 -4.2289 0.0000
# 4 0.0000 0.0000 0.0000 25.3255 0.0000 -2.3171
# 5 -11.1836 10.9840 -4.2289 0.0000 22.9693 0.0000
# 6 0.0000 0.0000 0.0000 -2.3171 0.0000 25.7068
#
#
#
# Elastic Compliance Matrix: (Units=1/GPa)
#
#
# Indices 1 2 3 4 5 6 
#
# 1 0.025997 -0.009330 -0.006043 0.000000 0.016007 0.000000
# 2 -0.009330 0.024036 -0.002607 0.000000 -0.016517 0.000000
# 3 -0.006043 -0.002607 0.011688 0.000000 0.000456 0.000000
# 4 0.000000 0.000000 0.000000 0.039814 0.000000 0.003589
# 5 0.016007 -0.016517 0.000456 0.000000 0.059313 0.000000
# 6 0.000000 0.000000 0.000000 0.003589 0.000000 0.039224
#
#
# Mechanical properties :
#
#
# Convention : Reuss Voigt Hill
#
# Bulk Modulus (GPa) = 38.81846 43.21926 41.01886
# Shear Modulus (GPa) = 20.43984 24.84081 22.64032
#
# Velocity S-wave (km/s) = 3.05800 3.37117 3.21840
# Velocity P-wave (km/s) = 5.49801 5.90984 5.70764
#
# Compressibility (1/GPa) = 0.02576094
#
# Stress axis : x y z
#
# Youngs Moduli (GPa) = 38.46536 41.60358 85.55711
#
# Poissons Ratio (x) = 0.38816 0.51704
# Poissons Ratio (y) = 0.35888 0.22307
# Poissons Ratio (z) = 0.23245 0.10847
#
# Static dielectric constant tensor:
#      x y z
#    x 1.788800 0.000000 0.024200 
#    y 0.000000 1.899740 0.000000 
#    z 0.024200 0.000000 1.777150 
# 
# From -- ./inp_files/35812.got.cif
#   From: 2010.05.17/outbox.cif.g08.bks.cpg/sg14_18_cif.got.tgz:35812.got - 2010.06.03 17:49:19.
