data_PCOD9247120
_publ_section_title
;
Structure prediction by ZEFSAII (Michael W. Deem and Ramdas Pophale) SiO2 
 PCOD9247120
Probable space group: P 21/C
;
_chemical_formula_sum "Si O2"
_cell_formula_units_Z 20
_cell_length_a 16.206915
_cell_length_b 9.845024
_cell_length_c 13.801307
_cell_angle_alpha 90.000000
_cell_angle_beta 26.580035
_cell_angle_gamma 90.000000
_cell_volume 985.324824
_symmetry_space_group_name_H-M "P 21/C"
_symmetry_group_IT_number 14
_symmetry_cell_setting 'monoclinic'
loop_
_space_group_symop_operation_xyz
x,y,z
-x,1/2+y,1/2-z
-x,-y,-z
x,1/2-y,1/2+z
loop_
_atom_site_type_symbol
_atom_site_label
_atom_site_fract_x
_atom_site_fract_y
_atom_site_fract_z
Si Si1 0.036043 0.941607 0.329382
Si Si2 0.580714 0.866043 0.361116
Si Si3 0.086816 0.966016 0.052095
Si Si4 0.817007 0.332347 0.740337
Si Si5 0.306994 0.422564 0.687117
O O1 0.049416 0.926916 0.200759
O O2 0.075754 0.797201 0.336325
O O3 0.831653 0.974429 0.582401
O O4 0.192389 0.040170 0.210466
O O5 0.394640 0.814076 0.506382
O O6 0.653624 0.738757 0.346656
O O7 0.500000 0.000000 0.500000
O O8 0.750166 0.921618 0.121155
O O9 0.154706 0.851509 0.904979
O O10 0.905894 0.034410 0.195166
O O11 0.500000 0.500000 0.500000
#
# Coordination Sequence:
#
# PCOD9247120 Si02
#       5
#     4   4   4   4   4
#     4  11  24  41  70 104 131 183 227 280 340 403
#     4  10  21  44  66  92 132 182 215 273 347 398
#     4  10  23  43  66  96 138 182 222 275 341 415
#     4  10  21  44  68  94 136 178 222 280 339 398
#     4  11  23  43  66  98 139 167 223 290 333 394
#
# _framework density 20.297875000000001
#
# number of rings (size 3 to 8) (size 9 to 14) (size 15 to 20)
#    0.000    1.600    4.000    0.000    0.000    4.800 
#    7.200    0.000    0.000    0.000    0.000    0.000 
#    0.000    0.000    0.000    0.000    0.000    0.000 
#
# Total GULP energy -111544.927490 kJ/mol
# GULP energy per Si atom -5577.246375 kJ/mol
# Density = 2.025168 g / cm^3
# Si number density = 20.297875 Si / 1000 Ang^3
#
#
#
# Elastic Constant Matrix: (Units=GPa)
#
#
# Indices 1 2 3 4 5 6 
#
# 1 106.1414 30.1067 78.4207 0.0000 15.9684 0.0000
# 2 30.1067 91.6618 22.3690 0.0000 5.9196 0.0000
# 3 78.4207 22.3690 97.3010 0.0000 -6.4835 0.0000
# 4 0.0000 0.0000 0.0000 20.6059 0.0000 -9.3670
# 5 15.9684 5.9196 -6.4835 0.0000 46.1453 0.0000
# 6 0.0000 0.0000 0.0000 -9.3670 0.0000 32.8255
#
#
#
# Elastic Compliance Matrix: (Units=1/GPa)
#
#
# Indices 1 2 3 4 5 6 
#
# 1 0.031021 -0.003142 -0.025204 0.000000 -0.013873 0.000000
# 2 -0.003142 0.012039 -0.000268 0.000000 -0.000495 0.000000
# 3 -0.025204 -0.000268 0.031531 0.000000 0.013186 0.000000
# 4 0.000000 0.000000 0.000000 0.055763 0.000000 0.015913
# 5 -0.013873 -0.000495 0.013186 0.000000 0.028387 0.000000
# 6 0.000000 0.000000 0.000000 0.015913 0.000000 0.035005
#
#
# Mechanical properties :
#
#
# Convention : Reuss Voigt Hill
#
# Bulk Modulus (GPa) = 57.59460 61.87746 59.73603
# Shear Modulus (GPa) = 19.47316 30.86252 25.16784
#
# Velocity S-wave (km/s) = 3.10073 3.90356 3.52508
# Velocity P-wave (km/s) = 6.42306 7.13218 6.78688
#
# Compressibility (1/GPa) = 0.01736274
#
# Stress axis : x y z
#
# Youngs Moduli (GPa) = 32.23588 83.06219 31.71479
#
# Poissons Ratio (x) = 0.26102 0.79934
# Poissons Ratio (y) = 0.10130 0.00850
# Poissons Ratio (z) = 0.81247 0.02226
#
# Static dielectric constant tensor:
#      x y z
#    x 1.732640 0.000000 -0.055950 
#    y 0.000000 1.766250 0.000000 
#    z -0.055950 0.000000 1.797260 
# 
# From -- ./inp_files/32293.got.cif
#   From: 2010.05.17/outbox.cif.g08.bks.cpg/sg14_17_cif.got.tgz:32293.got - 2010.06.03 17:49:19.
