data_PCOD9247360
_publ_section_title
;
Structure prediction by ZEFSAII (Michael W. Deem and Ramdas Pophale) SiO2 
 PCOD9247360
Probable space group: P 21/C
;
_chemical_formula_sum "Si O2"
_cell_formula_units_Z 32
_cell_length_a 23.746644
_cell_length_b 10.390810
_cell_length_c 4.913339
_cell_angle_alpha 90.000000
_cell_angle_beta 104.077577
_cell_angle_gamma 90.000000
_cell_volume 1175.940803
_symmetry_space_group_name_H-M "P 21/C"
_symmetry_group_IT_number 14
_symmetry_cell_setting 'monoclinic'
loop_
_space_group_symop_operation_xyz
x,y,z
-x,1/2+y,1/2-z
-x,-y,-z
x,1/2-y,1/2+z
loop_
_atom_site_type_symbol
_atom_site_label
_atom_site_fract_x
_atom_site_fract_y
_atom_site_fract_z
Si Si1 0.440398 0.667385 0.745705
Si Si2 0.015488 0.344214 0.322871
Si Si3 0.342039 0.504263 0.346582
Si Si4 0.890428 0.343635 0.188872
Si Si5 0.742245 0.663462 0.404902
Si Si6 0.569690 0.836879 0.378287
Si Si7 0.231503 0.841108 0.594356
Si Si8 0.134552 0.341937 0.316792
O O1 0.437799 0.797067 0.559154
O O2 0.386775 0.588689 0.572546
O O3 0.504322 0.610423 0.763377
O O4 0.016465 0.276587 0.615977
O O5 0.075673 0.084451 0.826345
O O6 0.952919 0.410953 0.218657
O O7 0.308744 0.417943 0.528524
O O8 0.380668 0.427171 0.176228
O O9 0.290743 0.581008 0.134057
O O10 0.889685 0.279529 0.483970
O O11 0.829624 0.411564 0.047280
O O12 0.740783 0.707449 0.092244
O O13 0.803781 0.596475 0.542530
O O14 0.574147 0.790201 0.692792
O O15 0.231946 0.718311 0.395105
O O16 0.133703 0.216018 0.514931
#
# Coordination Sequence:
#
# PCOD9247360 Si02
#       8
#     4   4   4   4   4   4   4   4
#     4  10  23  42  62  87 116 144 181 227 270 318
#     4   8  12  20  40  65  88 125 172 212 260 315
#     4  12  23  38  62  85 112 150 186 218 272 327
#     4   8  14  26  43  66  97 131 171 218 264 312
#     4  10  22  37  53  79 113 145 182 227 271 322
#     4  10  23  42  62  87 116 144 181 227 270 318
#     4  10  22  37  53  79 113 145 182 227 271 322
#     4   8  14  26  43  66  97 131 171 218 264 312
#
# _framework density 27.212254999999999
#
# number of rings (size 3 to 8) (size 9 to 14) (size 15 to 20)
#    0.000    2.500    0.000    1.875    0.000    4.000 
#    0.000    3.750    0.000    0.750    0.000    0.000 
#    0.000   30.000    0.000    0.000    0.000    4.000 
#
# Total GULP energy -179362.608354 kJ/mol
# GULP energy per Si atom -5605.081511 kJ/mol
# Density = 2.715032 g / cm^3
# Si number density = 27.212255 Si / 1000 Ang^3
#
#
#
# Elastic Constant Matrix: (Units=GPa)
#
#
# Indices 1 2 3 4 5 6 
#
# 1 242.5040 56.6834 32.3386 0.0000 56.5259 0.0000
# 2 56.6834 52.6445 19.1224 0.0000 4.6357 0.0000
# 3 32.3386 19.1224 98.0789 0.0000 -3.8708 0.0000
# 4 0.0000 0.0000 0.0000 30.6666 0.0000 -19.7600
# 5 56.5259 4.6357 -3.8708 0.0000 52.7923 0.0000
# 6 0.0000 0.0000 0.0000 -19.7600 0.0000 -35.3162
#
#
#
# Elastic Compliance Matrix: (Units=1/GPa)
#
#
# Indices 1 2 3 4 5 6 
#
# 1 0.007843 -0.007210 -0.001491 0.000000 -0.007874 0.000000
# 2 -0.007210 0.027304 -0.002744 0.000000 0.005121 0.000000
# 3 -0.001491 -0.002744 0.011328 0.000000 0.002668 0.000000
# 4 0.000000 0.000000 0.000000 0.023968 0.000000 -0.013410
# 5 -0.007874 0.005121 0.002668 0.000000 0.027119 0.000000
# 6 0.000000 0.000000 0.000000 -0.013410 0.000000 -0.020812
#
#
# Mechanical properties :
#
#
# Convention : Reuss Voigt Hill
#
# Bulk Modulus (GPa) = 42.39994 67.72401 55.06198
# Shear Modulus (GPa) = 46.51103 28.63408 37.57255
#
# Velocity S-wave (km/s) = 4.13873 3.24736 3.71984
# Velocity P-wave (km/s) = 6.20111 6.24514 6.22316
#
# Compressibility (1/GPa) = 0.02358494
#
# Stress axis : x y z
#
# Youngs Moduli (GPa) = 127.50056 36.62450 88.27813
#
# Poissons Ratio (x) = 0.26406 0.13163
# Poissons Ratio (y) = 0.91926 0.24225
# Poissons Ratio (z) = 0.19011 0.10050
#
# Static dielectric constant tensor:
#      x y z
#    x 2.151510 0.000000 0.068030 
#    y 0.000000 2.121960 0.000000 
#    z 0.068030 0.000000 2.046060 
# 
# From -- ./inp_files/4482.got.cif
#   From: 2010.05.17/outbox.cif.g08.bks.cpg/sg14_3_cif.got.tgz:4482.got - 2010.06.03 17:49:19.
