data_PCOD9247732
_publ_section_title
;
Structure prediction by ZEFSAII (Michael W. Deem and Ramdas Pophale) SiO2 
 PCOD9247732
Probable space group: P 21/C
;
_chemical_formula_sum "Si O2"
_cell_formula_units_Z 28
_cell_length_a 11.947722
_cell_length_b 14.986169
_cell_length_c 8.736245
_cell_angle_alpha 90.000000
_cell_angle_beta 124.072618
_cell_angle_gamma 90.000000
_cell_volume 1295.695565
_symmetry_space_group_name_H-M "P 21/C"
_symmetry_group_IT_number 14
_symmetry_cell_setting 'monoclinic'
loop_
_space_group_symop_operation_xyz
x,y,z
-x,1/2+y,1/2-z
-x,-y,-z
x,1/2-y,1/2+z
loop_
_atom_site_type_symbol
_atom_site_label
_atom_site_fract_x
_atom_site_fract_y
_atom_site_fract_z
Si Si1 0.009807 0.791431 0.861343
Si Si2 0.142671 0.450393 0.626699
Si Si3 0.381983 0.011725 0.530790
Si Si4 0.638307 0.693766 0.794596
Si Si5 0.386780 0.825843 0.663117
Si Si6 0.203489 0.758011 0.774554
Si Si7 0.205065 0.165043 0.896479
O O1 0.892359 0.858178 0.814757
O O2 0.942151 0.694683 0.779683
O O3 0.097082 0.820311 0.781532
O O4 0.113945 0.791628 0.080930
O O5 0.199240 0.421346 0.502418
O O6 0.000000 0.500000 0.500000
O O7 0.248054 0.496202 0.822233
O O8 0.386215 0.105807 0.622352
O O9 0.500000 0.000000 0.500000
O O10 0.407378 0.930691 0.666273
O O11 0.510978 0.761986 0.709599
O O12 0.688916 0.665949 0.663440
O O13 0.754898 0.752867 0.962214
O O14 0.328057 0.802368 0.783304
O O15 0.267183 0.803905 0.452261
#
# Coordination Sequence:
#
# PCOD9247732 Si02
#       7
#     4   4   4   4   4   4   4
#     4  11  20  40  66  96 132 181 226 274 347 422
#     4  12  26  43  69 108 144 183 237 299 360 428
#     4  12  26  46  69 103 146 187 239 301 360 424
#     4  12  24  45  76 102 139 195 243 293 357 435
#     4  11  24  44  67 102 139 181 236 295 357 422
#     4  10  22  39  68  95 138 181 224 286 358 417
#     4  12  22  43  70 102 135 186 240 283 350 425
#
# _framework density 21.610014
#
# number of rings (size 3 to 8) (size 9 to 14) (size 15 to 20)
#    0.000    0.571    4.286    4.286    2.000    2.286 
#    0.000    6.429    0.000    0.000    0.000    0.000 
#    0.000    0.000    0.000    0.000    0.000    0.000 
#
# Total GULP energy -156349.463484 kJ/mol
# GULP energy per Si atom -5583.909410 kJ/mol
# Density = 2.156083 g / cm^3
# Si number density = 21.610014 Si / 1000 Ang^3
#
#
#
# Elastic Constant Matrix: (Units=GPa)
#
#
# Indices 1 2 3 4 5 6 
#
# 1 120.6558 35.0690 27.4379 0.0000 -19.4391 0.0000
# 2 35.0690 92.2088 27.9757 0.0000 -4.5361 0.0000
# 3 27.4379 27.9757 78.1745 0.0000 0.6012 0.0000
# 4 0.0000 0.0000 0.0000 28.8944 0.0000 3.6572
# 5 -19.4391 -4.5361 0.6012 0.0000 46.7413 0.0000
# 6 0.0000 0.0000 0.0000 3.6572 0.0000 29.3090
#
#
#
# Elastic Compliance Matrix: (Units=1/GPa)
#
#
# Indices 1 2 3 4 5 6 
#
# 1 0.010401 -0.002960 -0.002623 0.000000 0.004072 0.000000
# 2 -0.002960 0.013080 -0.003643 0.000000 0.000085 0.000000
# 3 -0.002623 -0.003643 0.015029 0.000000 -0.001638 0.000000
# 4 0.000000 0.000000 0.000000 0.035164 0.000000 -0.004388
# 5 0.004072 0.000085 -0.001638 0.000000 0.023117 0.000000
# 6 0.000000 0.000000 0.000000 -0.004388 0.000000 0.034667
#
#
# Mechanical properties :
#
#
# Convention : Reuss Voigt Hill
#
# Bulk Modulus (GPa) = 49.85217 52.44492 51.14855
# Shear Modulus (GPa) = 31.92979 34.35939 33.14459
#
# Velocity S-wave (km/s) = 3.84806 3.99178 3.92057
# Velocity P-wave (km/s) = 6.54694 6.75035 6.64942
#
# Compressibility (1/GPa) = 0.02005931
#
# Stress axis : x y z
#
# Youngs Moduli (GPa) = 96.14723 76.45304 66.53986
#
# Poissons Ratio (x) = 0.22627 0.17451
# Poissons Ratio (y) = 0.28456 0.24239
# Poissons Ratio (z) = 0.25216 0.27850
#
# Static dielectric constant tensor:
#      x y z
#    x 2.359700 0.000000 -0.299770 
#    y 0.000000 2.127540 0.000000 
#    z -0.299770 0.000000 1.990370 
# 
# From -- ./inp_files/13427.got.cif
#   From: 2010.05.17/outbox.cif.g08.bks.cpg/sg14_7_cif.got.tgz:13427.got - 2010.06.03 17:49:19.
