data_PCOD9247377
_publ_section_title
;
Structure prediction by ZEFSAII (Michael W. Deem and Ramdas Pophale) SiO2 
 PCOD9247377
Probable space group: P 21/C
;
_chemical_formula_sum "Si O2"
_cell_formula_units_Z 28
_cell_length_a 7.830381
_cell_length_b 11.843004
_cell_length_c 15.799163
_cell_angle_alpha 90.000000
_cell_angle_beta 62.441476
_cell_angle_gamma 90.000000
_cell_volume 1298.902521
_symmetry_space_group_name_H-M "P 21/C"
_symmetry_group_IT_number 14
_symmetry_cell_setting 'monoclinic'
loop_
_space_group_symop_operation_xyz
x,y,z
-x,1/2+y,1/2-z
-x,-y,-z
x,1/2-y,1/2+z
loop_
_atom_site_type_symbol
_atom_site_label
_atom_site_fract_x
_atom_site_fract_y
_atom_site_fract_z
Si Si1 0.467261 0.404579 0.826800
Si Si2 0.092898 0.278040 0.962966
Si Si3 0.126438 0.922895 0.077066
Si Si4 0.533852 0.382600 0.617966
Si Si5 0.698449 0.362078 0.112655
Si Si6 0.872379 0.842994 0.871404
Si Si7 0.776402 0.279535 0.284394
O O1 0.264417 0.338683 0.875491
O O2 0.529145 0.421803 0.715596
O O3 0.423656 0.526249 0.876703
O O4 0.624045 0.321720 0.832391
O O5 0.014719 0.168353 0.932060
O O6 0.161983 0.234897 0.039064
O O7 0.909586 0.359230 0.021825
O O8 0.213974 0.864561 0.140358
O O9 0.026636 0.041241 0.120997
O O10 0.303925 0.945990 0.972909
O O11 0.596812 0.251285 0.604014
O O12 0.323775 0.383332 0.625908
O O13 0.725427 0.342284 0.207708
O O14 0.014568 0.776622 0.777125
#
# Coordination Sequence:
#
# PCOD9247377 Si02
#       7
#     4   4   4   4   4   4   4
#     4  11  21  39  61  84 117 156 189 238 288 335
#     4  10  22  38  60  87 115 151 197 234 283 348
#     4  11  22  40  60  86 119 150 188 242 288 336
#     4  10  22  37  59  88 115 150 197 233 283 349
#     4   9  21  40  58  84 118 149 190 242 287 335
#     4  11  22  39  60  86 117 153 190 238 287 336
#     4  10  23  37  57  89 115 147 198 233 281 353
#
# _framework density 21.556659
#
# number of rings (size 3 to 8) (size 9 to 14) (size 15 to 20)
#    0.000    1.714    0.000    4.714    0.000    5.714 
#    0.000    9.286    0.000    0.000    0.000    0.000 
#    0.000    0.000    0.000    0.000    0.000    0.000 
#
# Total GULP energy -156631.232658 kJ/mol
# GULP energy per Si atom -5593.972595 kJ/mol
# Density = 2.150759 g / cm^3
# Si number density = 21.556659 Si / 1000 Ang^3
#
#
#
# Elastic Constant Matrix: (Units=GPa)
#
#
# Indices 1 2 3 4 5 6 
#
# 1 40.0756 -5.8700 4.3803 0.0000 0.4892 0.0000
# 2 -5.8700 48.3013 17.1202 0.0000 -6.0520 0.0000
# 3 4.3803 17.1202 80.2206 0.0000 -5.1494 0.0000
# 4 0.0000 0.0000 0.0000 14.9667 0.0000 -0.9918
# 5 0.4892 -6.0520 -5.1494 0.0000 18.4085 0.0000
# 6 0.0000 0.0000 0.0000 -0.9918 0.0000 20.8053
#
#
#
# Elastic Compliance Matrix: (Units=1/GPa)
#
#
# Indices 1 2 3 4 5 6 
#
# 1 0.025774 0.003926 -0.002247 0.000000 -0.000023 0.000000
# 2 0.003926 0.023698 -0.004866 0.000000 0.006326 0.000000
# 3 -0.002247 -0.004866 0.013775 0.000000 0.002313 0.000000
# 4 0.000000 0.000000 0.000000 0.067027 0.000000 0.003195
# 5 -0.000023 0.006326 0.002313 0.000000 0.057050 0.000000
# 6 0.000000 0.000000 0.000000 0.003195 0.000000 0.048217
#
#
# Mechanical properties :
#
#
# Convention : Reuss Voigt Hill
#
# Bulk Modulus (GPa) = 17.58291 22.20649 19.89470
# Shear Modulus (GPa) = 19.16653 21.03390 20.10022
#
# Velocity S-wave (km/s) = 2.98505 3.12709 3.05690
# Velocity P-wave (km/s) = 4.47828 4.83343 4.65924
#
# Compressibility (1/GPa) = 0.05687340
#
# Stress axis : x y z
#
# Youngs Moduli (GPa) = 38.79925 42.19818 72.59417
#
# Poissons Ratio (x) = -0.16566 0.16309
# Poissons Ratio (y) = -0.15232 0.35322
# Poissons Ratio (z) = 0.08717 0.20533
#
# Static dielectric constant tensor:
#      x y z
#    x 1.783260 0.000000 0.004220 
#    y 0.000000 1.755570 0.000000 
#    z 0.004220 0.000000 1.762700 
# 
# From -- ./inp_files/40242.got.cif
#   From: 2010.05.17/outbox.cif.g08.bks.cpg/sg14_21_cif.got.tgz:40242.got - 2010.06.03 17:49:19.
