data_PCOD9247176
_publ_section_title
;
Structure prediction by ZEFSAII (Michael W. Deem and Ramdas Pophale) SiO2 
 PCOD9247176
Probable space group: P 21/C
;
_chemical_formula_sum "Si O2"
_cell_formula_units_Z 28
_cell_length_a 18.028553
_cell_length_b 8.973427
_cell_length_c 13.534318
_cell_angle_alpha 90.000000
_cell_angle_beta 144.889368
_cell_angle_gamma 90.000000
_cell_volume 1259.337214
_symmetry_space_group_name_H-M "P 21/C"
_symmetry_group_IT_number 14
_symmetry_cell_setting 'monoclinic'
loop_
_space_group_symop_operation_xyz
x,y,z
-x,1/2+y,1/2-z
-x,-y,-z
x,1/2-y,1/2+z
loop_
_atom_site_type_symbol
_atom_site_label
_atom_site_fract_x
_atom_site_fract_y
_atom_site_fract_z
Si Si1 0.182799 0.986923 0.282640
Si Si2 0.592945 0.124798 0.925692
Si Si3 0.160255 0.007375 0.881858
Si Si4 0.022518 0.251075 0.352985
Si Si5 0.935122 0.691498 0.894607
Si Si6 0.761085 0.262727 0.794373
Si Si7 0.625091 0.400493 0.836972
O O1 0.235853 0.911620 0.238711
O O2 0.283141 0.982476 0.482746
O O3 0.073978 0.870690 0.201778
O O4 0.125091 0.148629 0.200084
O O5 0.554472 0.275019 0.826419
O O6 0.474543 0.017415 0.816324
O O7 0.675322 0.166402 0.112583
O O8 0.693979 0.044601 0.961715
O O9 0.122949 0.151122 0.903385
O O10 0.128010 0.062004 0.736673
O O11 0.064603 0.868582 0.800037
O O12 0.089388 0.168714 0.516460
O O13 0.088122 0.693650 0.041010
O O14 0.701607 0.316735 0.832809
#
# Coordination Sequence:
#
# PCOD9247176 Si02
#       7
#     4   4   4   4   4   4   4
#     4  10  22  40  68 103 135 176 226 275 345 414
#     4  11  26  45  66 100 133 183 239 279 332 412
#     4  12  24  42  64 103 134 179 219 286 346 410
#     4  11  22  40  66  96 138 173 217 278 358 406
#     4  11  23  39  67 104 140 167 223 281 344 424
#     4  10  21  44  73  95 136 183 223 284 347 397
#     4  11  24  46  69  94 141 185 231 287 330 399
#
# _framework density 22.233917999999999
#
# number of rings (size 3 to 8) (size 9 to 14) (size 15 to 20)
#    0.000    1.143    4.286    4.286    6.000    0.000 
#    0.000    5.714    0.000    0.000    0.000    0.000 
#    0.000    0.000    0.000    0.000    0.000    0.000 
#
# Total GULP energy -156537.448873 kJ/mol
# GULP energy per Si atom -5590.623174 kJ/mol
# Density = 2.218331 g / cm^3
# Si number density = 22.233918 Si / 1000 Ang^3
#
#
#
# Elastic Constant Matrix: (Units=GPa)
#
#
# Indices 1 2 3 4 5 6 
#
# 1 68.0279 26.3691 14.6162 0.0000 -9.2767 0.0000
# 2 26.3691 114.2741 46.0692 0.0000 2.0055 0.0000
# 3 14.6162 46.0692 68.8045 0.0000 1.8404 0.0000
# 4 0.0000 0.0000 0.0000 45.8813 0.0000 6.4479
# 5 -9.2767 2.0055 1.8404 0.0000 15.1726 0.0000
# 6 0.0000 0.0000 0.0000 6.4479 0.0000 28.1028
#
#
#
# Elastic Compliance Matrix: (Units=1/GPa)
#
#
# Indices 1 2 3 4 5 6 
#
# 1 0.018101 -0.003707 -0.001678 0.000000 0.011761 0.000000
# 2 -0.003707 0.012751 -0.007670 0.000000 -0.003021 0.000000
# 3 -0.001678 -0.007670 0.020091 0.000000 -0.002449 0.000000
# 4 0.000000 0.000000 0.000000 0.022522 0.000000 -0.005167
# 5 0.011761 -0.003021 -0.002449 0.000000 0.073795 0.000000
# 6 0.000000 0.000000 0.000000 -0.005167 0.000000 0.036769
#
#
# Mechanical properties :
#
#
# Convention : Reuss Voigt Hill
#
# Bulk Modulus (GPa) = 40.26582 47.24615 43.75598
# Shear Modulus (GPa) = 22.89212 28.76814 25.83013
#
# Velocity S-wave (km/s) = 3.21222 3.60096 3.41213
# Velocity P-wave (km/s) = 5.64865 6.21168 5.93684
#
# Compressibility (1/GPa) = 0.02483496
#
# Stress axis : x y z
#
# Youngs Moduli (GPa) = 55.24580 78.42392 49.77326
#
# Poissons Ratio (x) = 0.29070 0.08351
# Poissons Ratio (y) = 0.20479 0.38174
# Poissons Ratio (z) = 0.09269 0.60147
#
# Static dielectric constant tensor:
#      x y z
#    x 1.862400 0.000000 -0.057870 
#    y 0.000000 1.816800 0.000000 
#    z -0.057870 0.000000 1.829490 
# 
# From -- ./inp_files/50266.got.cif
#   From: 2010.05.17/outbox.cif.g08.bks.cpg/sg14_26_cif.got.tgz:50266.got - 2010.06.03 17:49:19.
