data_PCOD9247025
_publ_section_title
;
Structure prediction by ZEFSAII (Michael W. Deem and Ramdas Pophale) SiO2 
 PCOD9247025
Probable space group: P 21/C
;
_chemical_formula_sum "Si O2"
_cell_formula_units_Z 16
_cell_length_a 9.569972
_cell_length_b 10.566454
_cell_length_c 8.048668
_cell_angle_alpha 90.000000
_cell_angle_beta 130.456494
_cell_angle_gamma 90.000000
_cell_volume 619.285478
_symmetry_space_group_name_H-M "P 21/C"
_symmetry_group_IT_number 14
_symmetry_cell_setting 'monoclinic'
loop_
_space_group_symop_operation_xyz
x,y,z
-x,1/2+y,1/2-z
-x,-y,-z
x,1/2-y,1/2+z
loop_
_atom_site_type_symbol
_atom_site_label
_atom_site_fract_x
_atom_site_fract_y
_atom_site_fract_z
Si Si1 0.295003 0.225386 0.215158
Si Si2 0.286618 0.518852 0.937267
Si Si3 0.390294 0.604663 0.665000
Si Si4 0.120713 0.434192 0.287831
O O1 0.293463 0.123860 0.364397
O O2 0.494248 0.276169 0.309635
O O3 0.179409 0.153144 0.988251
O O4 0.693628 0.106617 0.713004
O O5 0.095453 0.547692 0.874603
O O6 0.460043 0.509647 0.194913
O O7 0.234975 0.561595 0.415524
O O8 0.808769 0.647823 0.810004
#
# Coordination Sequence:
#
# PCOD9247025 Si02
#       4
#     4   4   4   4
#     4  11  21  44  67  95 130 171 213 268 320 383
#     4  10  23  46  63  98 135 165 216 275 313 386
#     4  10  21  43  67  94 131 166 217 269 319 383
#     4  11  24  45  66  96 134 169 216 270 318 385
#
# _framework density 25.836224999999999
#
# number of rings (size 3 to 8) (size 9 to 14) (size 15 to 20)
#    0.000    1.500    2.500    3.750    0.000    1.000 
#   27.000    0.000    0.000    0.000    0.000    0.000 
#    0.000    0.000    0.000    0.000    0.000    0.000 
#
# Total GULP energy -89533.049673 kJ/mol
# GULP energy per Si atom -5595.815605 kJ/mol
# Density = 2.577742 g / cm^3
# Si number density = 25.836225 Si / 1000 Ang^3
#
#
#
# Elastic Constant Matrix: (Units=GPa)
#
#
# Indices 1 2 3 4 5 6 
#
# 1 90.7746 27.2173 -0.7142 0.0000 22.2799 0.0000
# 2 27.2173 77.2611 -6.3814 0.0000 -7.3534 0.0000
# 3 -0.7142 -6.3814 67.6503 0.0000 16.6780 0.0000
# 4 0.0000 0.0000 0.0000 35.1959 0.0000 9.6900
# 5 22.2799 -7.3534 16.6780 0.0000 36.2900 0.0000
# 6 0.0000 0.0000 0.0000 9.6900 0.0000 17.3102
#
#
#
# Elastic Compliance Matrix: (Units=1/GPa)
#
#
# Indices 1 2 3 4 5 6 
#
# 1 0.016068 -0.006626 0.002602 0.000000 -0.012403 0.000000
# 2 -0.006626 0.015956 -0.000411 0.000000 0.007490 0.000000
# 3 0.002602 -0.000411 0.017125 0.000000 -0.009551 0.000000
# 4 0.000000 0.000000 0.000000 0.033589 0.000000 -0.018803
# 5 -0.012403 0.007490 -0.009551 0.000000 0.041078 0.000000
# 6 0.000000 0.000000 0.000000 -0.018803 0.000000 0.068295
#
#
# Mechanical properties :
#
#
# Convention : Reuss Voigt Hill
#
# Bulk Modulus (GPa) = 24.82647 30.65884 27.74266
# Shear Modulus (GPa) = 23.32014 32.13018 27.72516
#
# Velocity S-wave (km/s) = 3.00761 3.53031 3.27939
# Velocity P-wave (km/s) = 4.65736 5.33946 5.01003
#
# Compressibility (1/GPa) = 0.04027958
#
# Stress axis : x y z
#
# Youngs Moduli (GPa) = 62.23680 62.67188 58.39316
#
# Poissons Ratio (x) = 0.41525 -0.15196
# Poissons Ratio (y) = 0.41237 0.02402
# Poissons Ratio (z) = -0.16196 0.02578
#
# Static dielectric constant tensor:
#      x y z
#    x 2.066030 0.000000 -0.061300 
#    y 0.000000 2.089660 0.000000 
#    z -0.061300 0.000000 2.092700 
# 
# From -- ./inp_files/7443.got.cif
#   From: 2010.05.17/outbox.cif.g08.bks.cpg/sg14_4_cif.got.tgz:7443.got - 2010.06.03 17:49:19.
