data_PCOD9247938
_publ_section_title
;
Structure prediction by ZEFSAII (Michael W. Deem and Ramdas Pophale) SiO2 
 PCOD9247938
Probable space group: P 21/C
;
_chemical_formula_sum "Si O2"
_cell_formula_units_Z 24
_cell_length_a 12.419149
_cell_length_b 8.382432
_cell_length_c 11.116018
_cell_angle_alpha 90.000000
_cell_angle_beta 96.341021
_cell_angle_gamma 90.000000
_cell_volume 1150.127540
_symmetry_space_group_name_H-M "P 21/C"
_symmetry_group_IT_number 14
_symmetry_cell_setting 'monoclinic'
loop_
_space_group_symop_operation_xyz
x,y,z
-x,1/2+y,1/2-z
-x,-y,-z
x,1/2-y,1/2+z
loop_
_atom_site_type_symbol
_atom_site_label
_atom_site_fract_x
_atom_site_fract_y
_atom_site_fract_z
Si Si1 0.799281 0.391277 0.683587
Si Si2 0.450737 0.944901 0.366609
Si Si3 0.902298 0.392590 0.449717
Si Si4 0.441448 0.939768 0.870445
Si Si5 0.216625 0.530051 0.767588
Si Si6 0.006046 0.570776 0.133801
O O1 0.847214 0.329544 0.563197
O O2 0.686944 0.481130 0.648184
O O3 0.772404 0.223314 0.743699
O O4 0.892412 0.483901 0.769653
O O5 0.449225 0.752664 0.371190
O O6 0.329258 0.017464 0.339183
O O7 0.500000 0.000000 0.500000
O O8 0.509336 0.996437 0.249512
O O9 0.813553 0.504581 0.373617
O O10 0.000000 0.500000 0.500000
O O11 0.961701 0.255313 0.380229
O O12 0.500000 0.000000 0.000000
O O13 0.109472 0.468977 0.821977
O O14 0.000000 0.500000 0.000000
#
# Coordination Sequence:
#
# PCOD9247938 Si02
#       6
#     4   4   4   4   4   4
#     4  10  22  40  67  89 127 174 207 261 328 386
#     4  11  25  45  69  98 134 178 230 279 339 397
#     4  11  21  39  60  93 129 161 208 258 319 383
#     4  11  24  47  70  97 134 179 229 278 337 400
#     4  10  22  41  63  90 129 170 209 262 326 390
#     4  11  22  38  63  92 122 164 211 251 318 388
#
# _framework density 20.867253000000002
#
# number of rings (size 3 to 8) (size 9 to 14) (size 15 to 20)
#    0.000    1.333    3.333    2.000    2.333    2.667 
#    9.000    0.000    0.000    0.000    0.000    0.000 
#    0.000    0.000    0.000    0.000    0.000    0.000 
#
# Total GULP energy -133633.382995 kJ/mol
# GULP energy per Si atom -5568.057625 kJ/mol
# Density = 2.081976 g / cm^3
# Si number density = 20.867253 Si / 1000 Ang^3
#
#
#
# Elastic Constant Matrix: (Units=GPa)
#
#
# Indices 1 2 3 4 5 6 
#
# 1 155.2621 29.0040 82.5420 0.0000 40.7196 0.0000
# 2 29.0040 48.8745 32.9159 0.0000 11.4997 0.0000
# 3 82.5420 32.9159 161.3813 0.0000 31.4622 0.0000
# 4 0.0000 0.0000 0.0000 35.8174 0.0000 -2.3729
# 5 40.7196 11.4997 31.4622 0.0000 42.6560 0.0000
# 6 0.0000 0.0000 0.0000 -2.3729 0.0000 25.4477
#
#
#
# Elastic Compliance Matrix: (Units=1/GPa)
#
#
# Indices 1 2 3 4 5 6 
#
# 1 0.010571 -0.002229 -0.003623 0.000000 -0.006818 0.000000
# 2 -0.002229 0.024593 -0.003502 0.000000 -0.001919 0.000000
# 3 -0.003623 -0.003502 0.009233 0.000000 -0.002408 0.000000
# 4 0.000000 0.000000 0.000000 0.028093 0.000000 0.002620
# 5 -0.006818 -0.001919 -0.002408 0.000000 0.032245 0.000000
# 6 0.000000 0.000000 0.000000 0.002620 0.000000 0.039541
#
#
# Mechanical properties :
#
#
# Convention : Reuss Voigt Hill
#
# Bulk Modulus (GPa) = 38.92566 72.71576 55.82071
# Shear Modulus (GPa) = 29.14627 35.52127 32.33377
#
# Velocity S-wave (km/s) = 3.74136 4.13031 3.94064
# Velocity P-wave (km/s) = 6.11213 7.59397 6.89299
#
# Compressibility (1/GPa) = 0.02569000
#
# Stress axis : x y z
#
# Youngs Moduli (GPa) = 94.59416 40.66121 108.30453
#
# Poissons Ratio (x) = 0.09064 0.39240
# Poissons Ratio (y) = 0.21087 0.37926
# Poissons Ratio (z) = 0.34272 0.14239
#
# Static dielectric constant tensor:
#      x y z
#    x 1.794040 0.000000 0.030770 
#    y 0.000000 1.820130 0.000000 
#    z 0.030770 0.000000 1.933210 
# 
# From -- ./inp_files/28169.got.cif
#   From: 2010.05.17/outbox.cif.g08.bks.cpg/sg14_15_cif.got.tgz:28169.got - 2010.06.03 17:49:19.
