data_PCOD9247443
_publ_section_title
;
Structure prediction by ZEFSAII (Michael W. Deem and Ramdas Pophale) SiO2 
 PCOD9247443
Probable space group: P 21/C
;
_chemical_formula_sum "Si O2"
_cell_formula_units_Z 20
_cell_length_a 19.463719
_cell_length_b 9.572310
_cell_length_c 8.144636
_cell_angle_alpha 90.000000
_cell_angle_beta 31.440451
_cell_angle_gamma 90.000000
_cell_volume 791.520062
_symmetry_space_group_name_H-M "P 21/C"
_symmetry_group_IT_number 14
_symmetry_cell_setting 'monoclinic'
loop_
_space_group_symop_operation_xyz
x,y,z
-x,1/2+y,1/2-z
-x,-y,-z
x,1/2-y,1/2+z
loop_
_atom_site_type_symbol
_atom_site_label
_atom_site_fract_x
_atom_site_fract_y
_atom_site_fract_z
Si Si1 0.218710 0.069478 0.291804
Si Si2 0.708357 0.223124 0.724346
Si Si3 0.416225 0.928903 0.316193
Si Si4 0.934649 0.044269 0.804969
Si Si5 0.722295 0.846000 0.199958
O O1 0.291867 0.181357 0.256195
O O2 0.062718 0.081304 0.648744
O O3 0.262475 0.912052 0.225878
O O4 0.255607 0.115368 0.033253
O O5 0.689963 0.154782 0.582277
O O6 0.830930 0.331513 0.484416
O O7 0.580155 0.309437 0.047454
O O8 0.386882 0.062177 0.490513
O O9 0.500000 0.000000 0.000000
O O10 0.000000 0.000000 0.500000
O O11 0.852303 0.908304 0.028705
#
# Coordination Sequence:
#
# PCOD9247443 Si02
#       5
#     4   4   4   4   4
#     4  11  21  38  62  94 130 164 201 254 315 380
#     4  11  23  42  67  94 126 167 213 258 310 380
#     4  11  25  45  65  89 122 167 216 267 314 358
#     4   9  19  37  60  91 128 165 201 251 314 378
#     4  10  22  38  58  90 125 161 209 256 306 374
#
# _framework density 25.267837
#
# number of rings (size 3 to 8) (size 9 to 14) (size 15 to 20)
#    0.000    1.600    0.000    6.000    0.000    8.000 
#    0.000   13.000    0.000    0.000    0.000    0.000 
#    0.000    0.000    0.000    0.000    0.000    0.000 
#
# Total GULP energy -111596.677921 kJ/mol
# GULP energy per Si atom -5579.833896 kJ/mol
# Density = 2.521033 g / cm^3
# Si number density = 25.267837 Si / 1000 Ang^3
#
#
#
# Elastic Constant Matrix: (Units=GPa)
#
#
# Indices 1 2 3 4 5 6 
#
# 1 30.0879 16.4387 0.9992 0.0000 6.1439 0.0000
# 2 16.4387 218.3622 49.7587 0.0000 -8.4463 0.0000
# 3 0.9992 49.7587 92.2835 0.0000 11.1872 0.0000
# 4 0.0000 0.0000 0.0000 51.6026 0.0000 -2.2579
# 5 6.1439 -8.4463 11.1872 0.0000 28.6459 0.0000
# 6 0.0000 0.0000 0.0000 -2.2579 0.0000 45.1790
#
#
#
# Elastic Compliance Matrix: (Units=1/GPa)
#
#
# Indices 1 2 3 4 5 6 
#
# 1 0.037363 -0.003881 0.002937 0.000000 -0.010305 0.000000
# 2 -0.003881 0.005842 -0.003588 0.000000 0.003956 0.000000
# 3 0.002937 -0.003588 0.013587 0.000000 -0.006994 0.000000
# 4 0.000000 0.000000 0.000000 0.019421 0.000000 0.000971
# 5 -0.010305 0.003956 -0.006994 0.000000 0.041017 0.000000
# 6 0.000000 0.000000 0.000000 0.000971 0.000000 0.022183
#
#
# Mechanical properties :
#
#
# Convention : Reuss Voigt Hill
#
# Bulk Modulus (GPa) = 20.95150 52.79187 36.87168
# Shear Modulus (GPa) = 30.41644 43.32129 36.86886
#
# Velocity S-wave (km/s) = 3.47329 4.14512 3.82399
# Velocity P-wave (km/s) = 4.93910 6.62176 5.84134
#
# Compressibility (1/GPa) = 0.04772929
#
# Stress axis : x y z
#
# Youngs Moduli (GPa) = 26.76457 171.16756 73.60174
#
# Poissons Ratio (x) = 0.66423 -0.21617
# Poissons Ratio (y) = 0.10386 0.26406
# Poissons Ratio (z) = -0.07861 0.61409
#
# Static dielectric constant tensor:
#      x y z
#    x 2.155810 0.000000 -0.135350 
#    y 0.000000 1.960720 0.000000 
#    z -0.135350 0.000000 2.095270 
# 
# From -- ./inp_files/19621.got.cif
#   From: 2010.05.17/outbox.cif.g08.bks.cpg/sg14_10_cif.got.tgz:19621.got - 2010.06.03 17:49:19.
