data_PCOD9247398
_publ_section_title
;
Structure prediction by ZEFSAII (Michael W. Deem and Ramdas Pophale) SiO2 
 PCOD9247398
Probable space group: P 21/C
;
_chemical_formula_sum "Si O2"
_cell_formula_units_Z 20
_cell_length_a 9.567212
_cell_length_b 9.203370
_cell_length_c 10.062881
_cell_angle_alpha 90.000000
_cell_angle_beta 96.848073
_cell_angle_gamma 90.000000
_cell_volume 879.721435
_symmetry_space_group_name_H-M "P 21/C"
_symmetry_group_IT_number 14
_symmetry_cell_setting 'monoclinic'
loop_
_space_group_symop_operation_xyz
x,y,z
-x,1/2+y,1/2-z
-x,-y,-z
x,1/2-y,1/2+z
loop_
_atom_site_type_symbol
_atom_site_label
_atom_site_fract_x
_atom_site_fract_y
_atom_site_fract_z
Si Si1 0.029953 0.744451 0.518368
Si Si2 0.158822 0.489322 0.618340
Si Si3 0.355184 0.095588 0.638927
Si Si4 0.959588 0.510594 0.819332
Si Si5 0.602686 0.632345 0.167932
O O1 0.164248 0.635513 0.531758
O O2 0.889266 0.658978 0.456748
O O3 0.050120 0.878533 0.418459
O O4 0.011460 0.841425 0.647736
O O5 0.280037 0.459820 0.736819
O O6 0.015501 0.533510 0.679271
O O7 0.200877 0.046453 0.668724
O O8 0.358390 0.147014 0.484114
O O9 0.404808 0.218834 0.748899
O O10 0.459030 0.958239 0.657343
#
# Coordination Sequence:
#
# PCOD9247398 Si02
#       5
#     4   4   4   4   4
#     4  10  22  37  62 101 132 171 214 274 333 399
#     4  11  23  40  68  98 136 169 226 272 339 392
#     4  11  27  47  71  96 138 178 230 273 339 394
#     4  11  22  40  67  97 130 174 217 281 327 395
#     4  11  26  49  68 100 135 181 223 282 329 408
#
# _framework density 22.734469000000001
#
# number of rings (size 3 to 8) (size 9 to 14) (size 15 to 20)
#    0.000    1.200    2.000    3.600    5.600    0.800 
#    3.600    0.000    0.000    0.000    0.000    0.000 
#    0.000    0.000    0.000    0.000    0.000    0.000 
#
# Total GULP energy -111631.460243 kJ/mol
# GULP energy per Si atom -5581.573012 kJ/mol
# Density = 2.268272 g / cm^3
# Si number density = 22.734469 Si / 1000 Ang^3
#
#
#
# Elastic Constant Matrix: (Units=GPa)
#
#
# Indices 1 2 3 4 5 6 
#
# 1 81.3237 22.7093 25.0808 0.0000 -14.1751 0.0000
# 2 22.7093 142.2448 19.0414 0.0000 6.9157 0.0000
# 3 25.0808 19.0414 62.5907 0.0000 15.1909 0.0000
# 4 0.0000 0.0000 0.0000 39.9971 0.0000 13.3421
# 5 -14.1751 6.9157 15.1909 0.0000 21.9725 0.0000
# 6 0.0000 0.0000 0.0000 13.3421 0.0000 30.2655
#
#
#
# Elastic Compliance Matrix: (Units=1/GPa)
#
#
# Indices 1 2 3 4 5 6 
#
# 1 0.021487 -0.002781 -0.013627 0.000000 0.024158 0.000000
# 2 -0.002781 0.007704 -0.000247 0.000000 -0.004048 0.000000
# 3 -0.013627 -0.000247 0.028391 0.000000 -0.028342 0.000000
# 4 0.000000 0.000000 0.000000 0.029312 0.000000 -0.012922
# 5 0.024158 -0.004048 -0.028342 0.000000 0.081965 0.000000
# 6 0.000000 0.000000 0.000000 -0.012922 0.000000 0.038737
#
#
# Mechanical properties :
#
#
# Convention : Reuss Voigt Hill
#
# Bulk Modulus (GPa) = 41.19980 46.64692 43.92336
# Shear Modulus (GPa) = 20.08052 33.06887 26.57470
#
# Velocity S-wave (km/s) = 2.97520 3.81802 3.42265
# Velocity P-wave (km/s) = 5.47393 6.32448 5.91452
#
# Compressibility (1/GPa) = 0.02427196
#
# Stress axis : x y z
#
# Youngs Moduli (GPa) = 46.54049 129.80378 35.22204
#
# Poissons Ratio (x) = 0.36094 0.47998
# Poissons Ratio (y) = 0.12941 0.00870
# Poissons Ratio (z) = 0.63422 0.03206
#
# Static dielectric constant tensor:
#      x y z
#    x 1.813010 0.000000 0.008150 
#    y 0.000000 1.966030 0.000000 
#    z 0.008150 0.000000 1.998930 
# 
# From -- ./inp_files/23129.got.cif
#   From: 2010.05.17/outbox.cif.g08.bks.cpg/sg14_12_cif.got.tgz:23129.got - 2010.06.03 17:49:19.
