data_PCOD9247263
_publ_section_title
;
Structure prediction by ZEFSAII (Michael W. Deem and Ramdas Pophale) SiO2 
 PCOD9247263
Probable space group: P 21/C
;
_chemical_formula_sum "Si O2"
_cell_formula_units_Z 20
_cell_length_a 14.749784
_cell_length_b 9.497158
_cell_length_c 10.602352
_cell_angle_alpha 90.000000
_cell_angle_beta 149.363081
_cell_angle_gamma 90.000000
_cell_volume 756.845962
_symmetry_space_group_name_H-M "P 21/C"
_symmetry_group_IT_number 14
_symmetry_cell_setting 'monoclinic'
loop_
_space_group_symop_operation_xyz
x,y,z
-x,1/2+y,1/2-z
-x,-y,-z
x,1/2-y,1/2+z
loop_
_atom_site_type_symbol
_atom_site_label
_atom_site_fract_x
_atom_site_fract_y
_atom_site_fract_z
Si Si1 0.915037 0.346282 0.421916
Si Si2 0.976006 0.359460 0.222117
Si Si3 0.533850 0.283068 0.891569
Si Si4 0.709796 0.492134 0.511185
Si Si5 0.304054 0.057919 0.733031
O O1 0.963488 0.282204 0.341504
O O2 0.988159 0.255096 0.624886
O O3 0.000000 0.500000 0.500000
O O4 0.699105 0.339322 0.172512
O O5 0.138952 0.468726 0.406649
O O6 0.803745 0.458791 0.991308
O O7 0.453424 0.405922 0.713931
O O8 0.363151 0.211399 0.756174
O O9 0.623334 0.161000 0.914584
O O10 0.786865 0.534999 0.740450
O O11 0.500000 0.000000 0.000000
#
# Coordination Sequence:
#
# PCOD9247263 Si02
#       5
#     4   4   4   4   4
#     4  12  30  49  83 117 163 212 273 335 401 489
#     4  12  28  50  78 117 162 209 269 331 407 477
#     4  11  26  48  75 116 159 207 270 333 405 478
#     4  11  26  43  77 111 157 215 264 331 404 482
#     4  10  21  47  73 105 154 210 261 330 400 473
#
# _framework density 26.425456000000001
#
# number of rings (size 3 to 8) (size 9 to 14) (size 15 to 20)
#    0.000    0.800    4.000    3.000   11.200    0.000 
#    0.000    2.000    0.000    0.000    0.000    0.000 
#    0.000    0.000    0.000    0.000    0.000    0.000 
#
# Total GULP energy -111997.926461 kJ/mol
# GULP energy per Si atom -5599.896323 kJ/mol
# Density = 2.636531 g / cm^3
# Si number density = 26.425456 Si / 1000 Ang^3
#
#
#
# Elastic Constant Matrix: (Units=GPa)
#
#
# Indices 1 2 3 4 5 6 
#
# 1 102.6434 1.6739 17.9427 0.0000 10.9912 0.0000
# 2 1.6739 145.1766 58.6070 0.0000 17.6316 0.0000
# 3 17.9427 58.6070 99.7519 0.0000 12.7423 0.0000
# 4 0.0000 0.0000 0.0000 64.4388 0.0000 0.5129
# 5 10.9912 17.6316 12.7423 0.0000 51.9821 0.0000
# 6 0.0000 0.0000 0.0000 0.5129 0.0000 42.7856
#
#
#
# Elastic Compliance Matrix: (Units=1/GPa)
#
#
# Indices 1 2 3 4 5 6 
#
# 1 0.010323 0.001009 -0.002196 0.000000 -0.001987 0.000000
# 2 0.001009 0.009298 -0.005383 0.000000 -0.002048 0.000000
# 3 -0.002196 -0.005383 0.013719 0.000000 -0.001073 0.000000
# 4 0.000000 0.000000 0.000000 0.015520 0.000000 -0.000186
# 5 -0.001987 -0.002048 -0.001073 0.000000 0.020615 0.000000
# 6 0.000000 0.000000 0.000000 -0.000186 0.000000 0.023375
#
#
# Mechanical properties :
#
#
# Convention : Reuss Voigt Hill
#
# Bulk Modulus (GPa) = 49.50356 56.00214 52.75285
# Shear Modulus (GPa) = 44.35654 49.79786 47.07720
#
# Velocity S-wave (km/s) = 4.10146 4.34575 4.22537
# Velocity P-wave (km/s) = 6.41898 6.81317 6.61901
#
# Compressibility (1/GPa) = 0.02020057
#
# Stress axis : x y z
#
# Youngs Moduli (GPa) = 96.87536 107.54738 72.88935
#
# Poissons Ratio (x) = -0.10847 0.16003
# Poissons Ratio (y) = -0.09771 0.39235
# Poissons Ratio (z) = 0.21270 0.57891
#
# Static dielectric constant tensor:
#      x y z
#    x 2.265590 0.000000 -0.070590 
#    y 0.000000 2.177100 0.000000 
#    z -0.070590 0.000000 2.054490 
# 
# From -- ./inp_files/33691.got.cif
#   From: 2010.05.17/outbox.cif.g08.bks.cpg/sg14_17_cif.got.tgz:33691.got - 2010.06.03 17:49:19.
