data_PCOD9247893
_publ_section_title
;
Structure prediction by ZEFSAII (Michael W. Deem and Ramdas Pophale) SiO2 
 PCOD9247893
Probable space group: P 21/C
;
_chemical_formula_sum "Si O2"
_cell_formula_units_Z 28
_cell_length_a 7.764893
_cell_length_b 8.874725
_cell_length_c 28.223885
_cell_angle_alpha 90.000000
_cell_angle_beta 141.947717
_cell_angle_gamma 90.000000
_cell_volume 1198.825341
_symmetry_space_group_name_H-M "P 21/C"
_symmetry_group_IT_number 14
_symmetry_cell_setting 'monoclinic'
loop_
_space_group_symop_operation_xyz
x,y,z
-x,1/2+y,1/2-z
-x,-y,-z
x,1/2-y,1/2+z
loop_
_atom_site_type_symbol
_atom_site_label
_atom_site_fract_x
_atom_site_fract_y
_atom_site_fract_z
Si Si1 0.996440 0.669827 0.867409
Si Si2 0.211169 0.385006 0.969183
Si Si3 0.390389 0.683041 0.865928
Si Si4 0.590106 0.151936 0.994971
Si Si5 0.333441 0.985995 0.084370
Si Si6 0.393948 0.954162 0.264028
Si Si7 0.661427 0.224827 0.829978
O O1 0.156243 0.532271 0.927270
O O2 0.119826 0.688860 0.841526
O O3 0.681048 0.618792 0.805719
O O4 0.092345 0.810598 0.920054
O O5 0.396040 0.274652 0.977396
O O6 0.912867 0.308161 0.912246
O O7 0.374971 0.407649 0.053465
O O8 0.340356 0.602395 0.805326
O O9 0.519250 0.850744 0.887993
O O10 0.560528 0.127778 0.933255
O O11 0.500000 0.000000 0.000000
O O12 0.418373 0.910902 0.152368
O O13 0.000000 0.000000 0.000000
O O14 0.201017 0.860519 0.185841
O O15 0.446018 0.134444 0.273764
#
# Coordination Sequence:
#
# PCOD9247893 Si02
#       7
#     4   4   4   4   4   4   4
#     4  10  23  40  64  97 133 166 223 268 332 392
#     4  10  22  40  65  94 132 165 221 275 327 392
#     4  11  21  42  66  98 129 172 214 280 328 396
#     4  11  19  35  61  99 127 165 208 277 325 382
#     4  12  22  38  65  98 133 166 223 269 336 393
#     4  11  26  45  67  90 139 178 221 272 339 405
#     4  11  25  45  64  96 129 181 221 275 335 398
#
# _framework density 23.356196000000001
#
# number of rings (size 3 to 8) (size 9 to 14) (size 15 to 20)
#    0.000    1.143    4.286    3.429    4.000    2.286 
#    2.571    0.000    0.000    0.000    0.000    0.000 
#    0.000    0.000    0.000    0.000    0.000    0.000 
#
# Total GULP energy -156427.813447 kJ/mol
# GULP energy per Si atom -5586.707623 kJ/mol
# Density = 2.330304 g / cm^3
# Si number density = 23.356196 Si / 1000 Ang^3
#
#
#
# Elastic Constant Matrix: (Units=GPa)
#
#
# Indices 1 2 3 4 5 6 
#
# 1 67.4922 21.5110 14.6834 0.0000 -28.7295 0.0000
# 2 21.5110 101.8192 10.0493 0.0000 -10.1728 0.0000
# 3 14.6834 10.0493 52.5016 0.0000 -31.7377 0.0000
# 4 0.0000 0.0000 0.0000 41.0946 0.0000 -6.4580
# 5 -28.7295 -10.1728 -31.7377 0.0000 57.6720 0.0000
# 6 0.0000 0.0000 0.0000 -6.4580 0.0000 36.1205
#
#
#
# Elastic Compliance Matrix: (Units=1/GPa)
#
#
# Indices 1 2 3 4 5 6 
#
# 1 0.019850 -0.003310 0.001059 0.000000 0.009887 0.000000
# 2 -0.003310 0.010606 -0.001454 0.000000 -0.000578 0.000000
# 3 0.001059 -0.001454 0.028761 0.000000 0.016099 0.000000
# 4 0.000000 0.000000 0.000000 0.025038 0.000000 0.004476
# 5 0.009887 -0.000578 0.016099 0.000000 0.031022 0.000000
# 6 0.000000 0.000000 0.000000 0.004476 0.000000 0.028485
#
#
# Mechanical properties :
#
#
# Convention : Reuss Voigt Hill
#
# Bulk Modulus (GPa) = 19.30255 34.92228 27.11241
# Shear Modulus (GPa) = 29.68386 38.68202 34.18294
#
# Velocity S-wave (km/s) = 3.56886 4.07403 3.82979
# Velocity P-wave (km/s) = 5.02641 6.09219 5.58478
#
# Compressibility (1/GPa) = 0.05180663
#
# Stress axis : x y z
#
# Youngs Moduli (GPa) = 50.37813 94.28257 34.76945
#
# Poissons Ratio (x) = 0.31211 -0.03682
# Poissons Ratio (y) = 0.16677 0.05055
# Poissons Ratio (z) = -0.05335 0.13708
#
# Static dielectric constant tensor:
#      x y z
#    x 1.907110 0.000000 0.065430 
#    y 0.000000 1.845780 0.000000 
#    z 0.065430 0.000000 2.224510 
# 
# From -- ./inp_files/76490.got.cif
#   From: 2010.05.17/outbox.cif.g08.bks.cpg/sg14_39_cif.got.tgz:76490.got - 2010.06.03 17:49:19.
