data_PCOD9247045
_publ_section_title
;
Structure prediction by ZEFSAII (Michael W. Deem and Ramdas Pophale) SiO2 
 PCOD9247045
Probable space group: P 21/C
;
_chemical_formula_sum "Si O2"
_cell_formula_units_Z 32
_cell_length_a 19.806435
_cell_length_b 17.507553
_cell_length_c 8.555020
_cell_angle_alpha 90.000000
_cell_angle_beta 150.227501
_cell_angle_gamma 90.000000
_cell_volume 1473.066125
_symmetry_space_group_name_H-M "P 21/C"
_symmetry_group_IT_number 14
_symmetry_cell_setting 'monoclinic'
loop_
_space_group_symop_operation_xyz
x,y,z
-x,1/2+y,1/2-z
-x,-y,-z
x,1/2-y,1/2+z
loop_
_atom_site_type_symbol
_atom_site_label
_atom_site_fract_x
_atom_site_fract_y
_atom_site_fract_z
Si Si1 0.454363 0.227612 0.580165
Si Si2 0.291697 0.369839 0.232192
Si Si3 0.999521 0.073920 0.610779
Si Si4 0.853068 0.475045 0.120299
Si Si5 0.645876 0.225453 0.705382
Si Si6 0.047980 0.314776 0.930408
Si Si7 0.201584 0.840805 0.270972
Si Si8 0.183454 0.336349 0.673119
O O1 0.430542 0.320392 0.523478
O O2 0.526577 0.193544 0.574502
O O3 0.306728 0.195544 0.317846
O O4 0.561990 0.213844 0.933249
O O5 0.255461 0.458693 0.138620
O O6 0.198704 0.344608 0.192211
O O7 0.235319 0.341149 0.952501
O O8 0.888834 0.063500 0.524716
O O9 0.998092 0.146340 0.489898
O O10 0.000000 0.000000 0.500000
O O11 0.132907 0.087882 0.985668
O O12 0.783310 0.416343 0.098210
O O13 0.000000 0.500000 0.500000
O O14 0.717806 0.168919 0.729892
O O15 0.752090 0.269683 0.028813
O O16 0.953481 0.339621 0.597653
O O17 0.059728 0.223702 0.941313
#
# Coordination Sequence:
#
# PCOD9247045 Si02
#       8
#     4   4   4   4   4   4   4   4
#     4  10  21  43  68  97 123 170 242 281 328 385
#     4  11  21  40  68  96 136 172 217 285 338 403
#     4  12  24  38  62 103 147 178 212 274 360 424
#     4  12  23  43  62 100 148 182 215 268 357 428
#     4  10  24  42  64  95 128 176 225 280 331 393
#     4  11  23  38  62 106 132 174 227 278 348 411
#     4  11  25  42  66  94 140 180 215 279 346 412
#     4  11  23  37  70  98 133 174 227 295 339 394
#
# _framework density 21.723396999999999
#
# number of rings (size 3 to 8) (size 9 to 14) (size 15 to 20)
#    0.000    1.000    5.000    1.500    7.000    1.000 
#    0.000    2.500    0.000    0.750    0.000    0.000 
#    0.000    0.000    0.000    0.000    0.000    0.000 
#
# Total GULP energy -178376.587601 kJ/mol
# GULP energy per Si atom -5574.268363 kJ/mol
# Density = 2.167395 g / cm^3
# Si number density = 21.723397 Si / 1000 Ang^3
#
#
#
# Elastic Constant Matrix: (Units=GPa)
#
#
# Indices 1 2 3 4 5 6 
#
# 1 156.6343 50.0169 6.8905 0.0000 -7.2691 0.0000
# 2 50.0169 53.3243 -4.3716 0.0000 6.2059 0.0000
# 3 6.8905 -4.3716 40.7705 0.0000 -13.1000 0.0000
# 4 0.0000 0.0000 0.0000 19.9038 0.0000 -9.9977
# 5 -7.2691 6.2059 -13.1000 0.0000 35.2424 0.0000
# 6 0.0000 0.0000 0.0000 -9.9977 0.0000 20.6587
#
#
#
# Elastic Compliance Matrix: (Units=1/GPa)
#
#
# Indices 1 2 3 4 5 6 
#
# 1 0.009645 -0.009539 -0.001674 0.000000 0.003047 0.000000
# 2 -0.009539 0.028623 0.002759 0.000000 -0.005982 0.000000
# 3 -0.001674 0.002759 0.028208 0.000000 0.009654 0.000000
# 4 0.000000 0.000000 0.000000 0.066377 0.000000 0.032123
# 5 0.003047 -0.005982 0.009654 0.000000 0.033645 0.000000
# 6 0.000000 0.000000 0.000000 0.032123 0.000000 0.063952
#
#
# Mechanical properties :
#
#
# Convention : Reuss Voigt Hill
#
# Bulk Modulus (GPa) = 20.17388 39.53340 29.85364
# Shear Modulus (GPa) = 18.94791 28.37386 23.66088
#
# Velocity S-wave (km/s) = 2.95657 3.61798 3.30387
# Velocity P-wave (km/s) = 4.57842 5.97420 5.32226
#
# Compressibility (1/GPa) = 0.04956906
#
# Stress axis : x y z
#
# Youngs Moduli (GPa) = 103.67692 34.93704 35.45053
#
# Poissons Ratio (x) = 0.33326 0.05934
# Poissons Ratio (y) = 0.98897 -0.09781
# Poissons Ratio (z) = 0.17355 -0.09640
#
# Static dielectric constant tensor:
#      x y z
#    x 1.844200 0.000000 -0.005490 
#    y 0.000000 1.873570 0.000000 
#    z -0.005490 0.000000 1.801680 
# 
# From -- ./inp_files/19188.got.cif
#   From: 2010.05.17/outbox.cif.g08.bks.cpg/sg14_10_cif.got.tgz:19188.got - 2010.06.03 17:49:19.
