data_PCOD9247993
_publ_section_title
;
Structure prediction by ZEFSAII (Michael W. Deem and Ramdas Pophale) SiO2 
 PCOD9247993
Probable space group: P 21/C
;
_chemical_formula_sum "Si O2"
_cell_formula_units_Z 28
_cell_length_a 9.078270
_cell_length_b 8.071589
_cell_length_c 28.758800
_cell_angle_alpha 90.000000
_cell_angle_beta 36.989852
_cell_angle_gamma 90.000000
_cell_volume 1267.925758
_symmetry_space_group_name_H-M "P 21/C"
_symmetry_group_IT_number 14
_symmetry_cell_setting 'monoclinic'
loop_
_space_group_symop_operation_xyz
x,y,z
-x,1/2+y,1/2-z
-x,-y,-z
x,1/2-y,1/2+z
loop_
_atom_site_type_symbol
_atom_site_label
_atom_site_fract_x
_atom_site_fract_y
_atom_site_fract_z
Si Si1 0.774464 0.046353 0.418955
Si Si2 0.645480 0.042546 0.627028
Si Si3 0.884434 0.277746 0.148002
Si Si4 0.835792 0.953815 0.995145
Si Si5 0.948707 0.306887 0.966917
Si Si6 0.844881 0.403797 0.746022
Si Si7 0.728236 0.343070 0.356621
O O1 0.887724 0.068714 0.441426
O O2 0.772474 0.204820 0.385883
O O3 0.500000 0.000000 0.500000
O O4 0.942490 0.890938 0.362168
O O5 0.791576 0.149286 0.551899
O O6 0.687375 0.123397 0.666901
O O7 0.363878 0.032338 0.685051
O O8 0.771221 0.858543 0.592580
O O9 0.045486 0.178788 0.069359
O O10 0.768146 0.150495 0.213525
O O11 0.863561 0.135045 0.966160
O O12 0.556281 0.899918 0.074048
O O13 0.000000 0.000000 0.000000
O O14 0.816800 0.251193 0.788071
O O15 0.103858 0.495358 0.678798
#
# Coordination Sequence:
#
# PCOD9247993 Si02
#       7
#     4   4   4   4   4   4   4
#     4  11  22  42  70  97 139 175 236 283 345 415
#     4  10  23  45  68 100 136 186 229 287 353 412
#     4  11  25  44  70 104 134 187 232 292 346 414
#     4  12  24  43  73 104 133 178 242 290 338 416
#     4  10  22  40  73  98 131 178 237 288 339 408
#     4  12  28  45  67 100 150 181 229 282 361 423
#     4  12  28  45  69 103 143 191 226 290 358 421
#
# _framework density 22.083313
#
# number of rings (size 3 to 8) (size 9 to 14) (size 15 to 20)
#    0.000    0.857    2.857    3.429    6.000    5.714 
#    0.000    0.000    0.000    0.000    0.000    0.000 
#    0.000    0.000    0.000    0.000    0.000    0.000 
#
# Total GULP energy -156182.155891 kJ/mol
# GULP energy per Si atom -5577.934139 kJ/mol
# Density = 2.203305 g / cm^3
# Si number density = 22.083313 Si / 1000 Ang^3
#
#
#
# Elastic Constant Matrix: (Units=GPa)
#
#
# Indices 1 2 3 4 5 6 
#
# 1 72.9790 14.0590 24.0603 0.0000 6.4576 0.0000
# 2 14.0590 90.1834 10.2945 0.0000 0.3251 0.0000
# 3 24.0603 10.2945 58.6790 0.0000 11.4266 0.0000
# 4 0.0000 0.0000 0.0000 33.2932 0.0000 4.0533
# 5 6.4576 0.3251 11.4266 0.0000 32.4633 0.0000
# 6 0.0000 0.0000 0.0000 4.0533 0.0000 41.5589
#
#
#
# Elastic Compliance Matrix: (Units=1/GPa)
#
#
# Indices 1 2 3 4 5 6 
#
# 1 0.016157 -0.001819 -0.006102 0.000000 -0.001048 0.000000
# 2 -0.001819 0.011532 -0.001423 0.000000 0.000747 0.000000
# 3 -0.006102 -0.001423 0.020993 0.000000 -0.006161 0.000000
# 4 0.000000 0.000000 0.000000 0.030397 0.000000 -0.002965
# 5 -0.001048 0.000747 -0.006161 0.000000 0.033174 0.000000
# 6 0.000000 0.000000 0.000000 -0.002965 0.000000 0.024351
#
#
# Mechanical properties :
#
#
# Convention : Reuss Voigt Hill
#
# Bulk Modulus (GPa) = 33.33816 35.40765 34.37290
# Shear Modulus (GPa) = 30.24988 33.02492 31.63740
#
# Velocity S-wave (km/s) = 3.70511 3.87133 3.78913
# Velocity P-wave (km/s) = 5.78213 6.00428 5.89425
#
# Compressibility (1/GPa) = 0.02999566
#
# Stress axis : x y z
#
# Youngs Moduli (GPa) = 61.89123 86.71712 47.63424
#
# Poissons Ratio (x) = 0.15770 0.29066
# Poissons Ratio (y) = 0.11255 0.06778
# Poissons Ratio (z) = 0.37766 0.12339
#
# Static dielectric constant tensor:
#      x y z
#    x 1.694010 0.000000 0.303850 
#    y 0.000000 2.609020 0.000000 
#    z 0.303850 0.000000 1.615860 
# 
# From -- ./inp_files/76449.got.cif
#   From: 2010.05.17/outbox.cif.g08.bks.cpg/sg14_39_cif.got.tgz:76449.got - 2010.06.03 17:49:19.
