data_PCOD9247581
_publ_section_title
;
Structure prediction by ZEFSAII (Michael W. Deem and Ramdas Pophale) SiO2 
 PCOD9247581
Probable space group: P 21/C
;
_chemical_formula_sum "Si O2"
_cell_formula_units_Z 16
_cell_length_a 7.268767
_cell_length_b 7.158720
_cell_length_c 13.672303
_cell_angle_alpha 90.000000
_cell_angle_beta 61.195246
_cell_angle_gamma 90.000000
_cell_volume 623.410494
_symmetry_space_group_name_H-M "P 21/C"
_symmetry_group_IT_number 14
_symmetry_cell_setting 'monoclinic'
loop_
_space_group_symop_operation_xyz
x,y,z
-x,1/2+y,1/2-z
-x,-y,-z
x,1/2-y,1/2+z
loop_
_atom_site_type_symbol
_atom_site_label
_atom_site_fract_x
_atom_site_fract_y
_atom_site_fract_z
Si Si1 0.838176 0.726563 0.111341
Si Si2 0.244617 0.294612 0.153350
Si Si3 0.168663 0.618587 0.314168
Si Si4 0.689684 0.364846 0.068712
O O1 0.784145 0.681376 0.237905
O O2 0.705370 0.586972 0.078945
O O3 0.806172 0.948307 0.115434
O O4 0.085350 0.691667 0.031447
O O5 0.061342 0.212988 0.133170
O O6 0.488055 0.291797 0.063474
O O7 0.207810 0.508220 0.202527
O O8 0.317986 0.776998 0.319508
#
# Coordination Sequence:
#
# PCOD9247581 Si02
#       4
#     4   4   4   4
#     4   9  23  38  62  93 118 157 209 249 295 375
#     4  10  22  39  62  88 123 163 196 251 309 350
#     4  10  22  39  59  90 124 155 205 255 290 375
#     4  11  20  43  62  87 123 161 202 252 305 355
#
# _framework density 25.665272000000002
#
# number of rings (size 3 to 8) (size 9 to 14) (size 15 to 20)
#    1.500    0.500    0.000    3.750    0.000    1.000 
#    0.000   13.750    0.000    0.000    0.000    0.000 
#    0.000    0.000    0.000    0.000    0.000    0.000 
#
# Total GULP energy -89288.906750 kJ/mol
# GULP energy per Si atom -5580.556672 kJ/mol
# Density = 2.560686 g / cm^3
# Si number density = 25.665272 Si / 1000 Ang^3
#
#
#
# Elastic Constant Matrix: (Units=GPa)
#
#
# Indices 1 2 3 4 5 6 
#
# 1 157.7499 44.0760 12.5936 0.0000 -31.7669 0.0000
# 2 44.0760 125.4838 8.4700 0.0000 0.1341 0.0000
# 3 12.5936 8.4700 45.6880 0.0000 -26.5198 0.0000
# 4 0.0000 0.0000 0.0000 22.0448 0.0000 -3.1532
# 5 -31.7669 0.1341 -26.5198 0.0000 34.8732 0.0000
# 6 0.0000 0.0000 0.0000 -3.1532 0.0000 28.5927
#
#
#
# Elastic Compliance Matrix: (Units=1/GPa)
#
#
# Indices 1 2 3 4 5 6 
#
# 1 0.009550 -0.003745 0.005585 0.000000 0.012961 0.000000
# 2 -0.003745 0.009625 -0.004930 0.000000 -0.007198 0.000000
# 3 0.005585 -0.004930 0.043370 0.000000 0.038088 0.000000
# 4 0.000000 0.000000 0.000000 0.046089 0.000000 0.005083
# 5 0.012961 -0.007198 0.038088 0.000000 0.069474 0.000000
# 6 0.000000 0.000000 0.000000 0.005083 0.000000 0.035534
#
#
# Mechanical properties :
#
#
# Convention : Reuss Voigt Hill
#
# Bulk Modulus (GPa) = 17.74148 51.02233 34.38190
# Shear Modulus (GPa) = 20.95465 34.68763 27.82114
#
# Velocity S-wave (km/s) = 2.86047 3.68032 3.29599
# Velocity P-wave (km/s) = 4.22343 6.16301 5.28300
#
# Compressibility (1/GPa) = 0.05636508
#
# Stress axis : x y z
#
# Youngs Moduli (GPa) = 104.71622 103.89529 23.05722
#
# Poissons Ratio (x) = 0.38910 -0.12878
# Poissons Ratio (y) = 0.39217 0.11367
# Poissons Ratio (z) = -0.58484 0.51219
#
# Static dielectric constant tensor:
#      x y z
#    x 1.922880 0.000000 0.029050 
#    y 0.000000 1.986100 0.000000 
#    z 0.029050 0.000000 2.120040 
# 
# From -- ./inp_files/36694.got.cif
#   From: 2010.05.17/outbox.cif.g08.bks.cpg/sg14_19_cif.got.tgz:36694.got - 2010.06.03 17:49:19.
