data_PCOD9247886
_publ_section_title
;
Structure prediction by ZEFSAII (Michael W. Deem and Ramdas Pophale) SiO2 
 PCOD9247886
Probable space group: P 21/C
;
_chemical_formula_sum "Si O2"
_cell_formula_units_Z 24
_cell_length_a 12.174202
_cell_length_b 22.954837
_cell_length_c 9.529086
_cell_angle_alpha 90.000000
_cell_angle_beta 28.869261
_cell_angle_gamma 90.000000
_cell_volume 1285.714629
_symmetry_space_group_name_H-M "P 21/C"
_symmetry_group_IT_number 14
_symmetry_cell_setting 'monoclinic'
loop_
_space_group_symop_operation_xyz
x,y,z
-x,1/2+y,1/2-z
-x,-y,-z
x,1/2-y,1/2+z
loop_
_atom_site_type_symbol
_atom_site_label
_atom_site_fract_x
_atom_site_fract_y
_atom_site_fract_z
Si Si1 0.951641 0.288506 0.384853
Si Si2 0.793648 0.128397 0.840148
Si Si3 0.187110 0.294105 0.419105
Si Si4 0.275860 0.500009 0.647525
Si Si5 0.206317 0.128202 0.151859
Si Si6 0.548507 0.216012 0.920763
O O1 0.871422 0.347600 0.402639
O O2 0.036364 0.295179 0.448138
O O3 0.135752 0.262420 0.072185
O O4 0.766904 0.236831 0.591002
O O5 0.996944 0.129330 0.496444
O O6 0.703791 0.062738 0.949295
O O7 0.619748 0.175732 0.971566
O O8 0.153264 0.349466 0.555368
O O9 0.438628 0.277779 0.086477
O O10 0.500000 0.500000 0.500000
O O11 0.296733 0.437713 0.548316
O O12 0.000000 0.500000 0.000000
O O13 0.383992 0.175702 0.012640
#
# Coordination Sequence:
#
# PCOD9247886 Si02
#       6
#     4   4   4   4   4   4
#     4  12  23  37  56  90 124 156 198 250 310 370
#     4  11  22  39  61  89 119 156 207 253 302 365
#     4  12  23  37  56  90 124 156 198 250 310 370
#     4  10  22  40  65  91 118 166 211 258 298 366
#     4  11  22  39  61  89 119 156 207 253 302 365
#     4  12  20  35  64  85 122 152 200 248 318 358
#
# _framework density 18.666661999999999
#
# number of rings (size 3 to 8) (size 9 to 14) (size 15 to 20)
#    0.000    0.667    8.333    1.000    0.000    0.000 
#    0.000    0.833    0.000    1.000    0.000    0.000 
#    0.000    0.000    0.000    0.000    0.000    0.000 
#
# Total GULP energy -133641.307492 kJ/mol
# GULP energy per Si atom -5568.387812 kJ/mol
# Density = 1.862418 g / cm^3
# Si number density = 18.666662 Si / 1000 Ang^3
#
#
#
# Elastic Constant Matrix: (Units=GPa)
#
#
# Indices 1 2 3 4 5 6 
#
# 1 127.3347 66.0871 18.1003 0.0000 4.1395 0.0000
# 2 66.0871 148.2125 10.0473 0.0000 5.4972 0.0000
# 3 18.1003 10.0473 35.2859 0.0000 -8.4058 0.0000
# 4 0.0000 0.0000 0.0000 3.7051 0.0000 -2.4789
# 5 4.1395 5.4972 -8.4058 0.0000 21.6299 0.0000
# 6 0.0000 0.0000 0.0000 -2.4789 0.0000 43.4136
#
#
#
# Elastic Compliance Matrix: (Units=1/GPa)
#
#
# Indices 1 2 3 4 5 6 
#
# 1 0.010974 -0.004441 -0.005065 0.000000 -0.002940 0.000000
# 2 -0.004441 0.008830 -0.000627 0.000000 -0.001638 0.000000
# 3 -0.005065 -0.000627 0.034587 0.000000 0.014570 0.000000
# 4 0.000000 0.000000 0.000000 0.280620 0.000000 0.016023
# 5 -0.002940 -0.001638 0.014570 0.000000 0.052873 0.000000
# 6 0.000000 0.000000 0.000000 0.016023 0.000000 0.023949
#
#
# Mechanical properties :
#
#
# Convention : Reuss Voigt Hill
#
# Bulk Modulus (GPa) = 29.30255 55.47809 42.39032
# Shear Modulus (GPa) = 11.27462 28.18961 19.73211
#
# Velocity S-wave (km/s) = 2.46030 3.89029 3.25480
# Velocity P-wave (km/s) = 4.87880 7.06853 6.07317
#
# Compressibility (1/GPa) = 0.03412673
#
# Stress axis : x y z
#
# Youngs Moduli (GPa) = 91.12809 113.24557 28.91241
#
# Poissons Ratio (x) = 0.50289 0.14644
# Poissons Ratio (y) = 0.40467 0.01812
# Poissons Ratio (z) = 0.46155 0.07097
#
# Static dielectric constant tensor:
#      x y z
#    x 1.683430 0.000000 -0.053380 
#    y 0.000000 1.630560 0.000000 
#    z -0.053380 0.000000 1.674490 
# 
# From -- ./inp_files/6270.got.cif
#   From: 2010.05.17/outbox.cif.g08.bks.cpg/sg14_4_cif.got.tgz:6270.got - 2010.06.03 17:49:19.
