data_PCOD9247708
_publ_section_title
;
Structure prediction by ZEFSAII (Michael W. Deem and Ramdas Pophale) SiO2 
 PCOD9247708
Probable space group: P 21/C
;
_chemical_formula_sum "Si O2"
_cell_formula_units_Z 28
_cell_length_a 17.792493
_cell_length_b 18.241292
_cell_length_c 7.812584
_cell_angle_alpha 90.000000
_cell_angle_beta 145.838375
_cell_angle_gamma 90.000000
_cell_volume 1423.834525
_symmetry_space_group_name_H-M "P 21/C"
_symmetry_group_IT_number 14
_symmetry_cell_setting 'monoclinic'
loop_
_space_group_symop_operation_xyz
x,y,z
-x,1/2+y,1/2-z
-x,-y,-z
x,1/2-y,1/2+z
loop_
_atom_site_type_symbol
_atom_site_label
_atom_site_fract_x
_atom_site_fract_y
_atom_site_fract_z
Si Si1 0.221103 0.356232 0.173213
Si Si2 0.469690 0.659926 0.220553
Si Si3 0.393807 0.935638 0.268351
Si Si4 0.117634 0.509332 0.083988
Si Si5 0.914576 0.751324 0.809765
Si Si6 0.086092 0.661941 0.866232
Si Si7 0.396906 0.822018 0.977825
O O1 0.376921 0.365716 0.503641
O O2 0.149002 0.434216 0.045005
O O3 0.149108 0.303773 0.174616
O O4 0.198885 0.308778 0.960804
O O5 0.425906 0.655284 0.336450
O O6 0.385309 0.611984 0.926401
O O7 0.461597 0.744311 0.145748
O O8 0.500000 0.000000 0.500000
O O9 0.251334 0.967466 0.939931
O O10 0.439267 0.882292 0.198240
O O11 0.084384 0.575079 0.890728
O O12 0.000000 0.500000 0.000000
O O13 0.977916 0.697973 0.788554
O O14 0.037883 0.803270 0.098533
O O15 0.236428 0.686530 0.191593
#
# Coordination Sequence:
#
# PCOD9247708 Si02
#       7
#     4   4   4   4   4   4   4
#     4  11  23  41  64  94 130 170 221 266 335 394
#     4  12  23  43  68  99 133 174 225 275 328 401
#     4  11  25  45  68  98 137 176 220 279 333 394
#     4  11  23  43  65  94 133 175 213 271 339 392
#     4  10  22  39  66  92 127 169 216 274 322 391
#     4  10  22  41  63  95 128 165 220 268 327 395
#     4  11  24  40  71  99 128 175 225 270 334 397
#
# _framework density 19.665206000000001
#
# number of rings (size 3 to 8) (size 9 to 14) (size 15 to 20)
#    0.000    1.143    4.286    1.714    2.000    2.286 
#    2.571    0.000    0.000    0.000    0.000    0.000 
#    0.000    0.000    0.000    0.000    0.000    0.000 
#
# Total GULP energy -156294.650700 kJ/mol
# GULP energy per Si atom -5581.951811 kJ/mol
# Density = 1.962045 g / cm^3
# Si number density = 19.665206 Si / 1000 Ang^3
#
#
#
# Elastic Constant Matrix: (Units=GPa)
#
#
# Indices 1 2 3 4 5 6 
#
# 1 53.7480 13.9602 -9.1021 0.0000 -9.1482 0.0000
# 2 13.9602 113.5136 25.7213 0.0000 -13.2775 0.0000
# 3 -9.1021 25.7213 36.9451 0.0000 -7.0161 0.0000
# 4 0.0000 0.0000 0.0000 -664.8256 0.0000 161.9406
# 5 -9.1482 -13.2775 -7.0161 0.0000 33.2785 0.0000
# 6 0.0000 0.0000 0.0000 161.9406 0.0000 -11.0230
#
#
#
# Elastic Compliance Matrix: (Units=1/GPa)
#
#
# Indices 1 2 3 4 5 6 
#
# 1 0.022449 -0.004192 0.009691 0.000000 0.006542 0.000000
# 2 -0.004192 0.011489 -0.008729 0.000000 0.001591 0.000000
# 3 0.009691 -0.008729 0.036852 0.000000 0.006951 0.000000
# 4 0.000000 0.000000 0.000000 0.000583 0.000000 0.008570
# 5 0.006542 0.001591 0.006951 0.000000 0.033948 0.000000
# 6 0.000000 0.000000 0.000000 0.008570 0.000000 0.035183
#
#
# Mechanical properties :
#
#
# Convention : Reuss Voigt Hill
#
# Bulk Modulus (GPa) = 15.54465 29.48504 22.51485
# Shear Modulus (GPa) = 29.69001 -116.93886 -43.62443
#
# Velocity S-wave (km/s) = 3.88980 -7.71971 -4.71505
# Velocity P-wave (km/s) = 5.30055 8.02699 4.26244
#
# Compressibility (1/GPa) = 0.06433081
#
# Stress axis : x y z
#
# Youngs Moduli (GPa) = 44.54597 87.03889 27.13549
#
# Poissons Ratio (x) = 0.36483 -0.26298
# Poissons Ratio (y) = 0.18672 0.23687
# Poissons Ratio (z) = -0.43170 0.75978
#
# Static dielectric constant tensor:
#      x y z
#    x 1.681950 0.000000 -0.038310 
#    y 0.000000 1.661180 0.000000 
#    z -0.038310 0.000000 1.731650 
# 
# From -- ./inp_files/19092.got.cif
#   From: 2010.05.17/outbox.cif.g08.bks.cpg/sg14_10_cif.got.tgz:19092.got - 2010.06.03 17:49:19.
