data_PCOD9247552
_publ_section_title
;
Structure prediction by ZEFSAII (Michael W. Deem and Ramdas Pophale) SiO2 
 PCOD9247552
Probable space group: P 21/C
;
_chemical_formula_sum "Si O2"
_cell_formula_units_Z 32
_cell_length_a 8.166732
_cell_length_b 13.228401
_cell_length_c 21.252902
_cell_angle_alpha 90.000000
_cell_angle_beta 35.063309
_cell_angle_gamma 90.000000
_cell_volume 1319.014963
_symmetry_space_group_name_H-M "P 21/C"
_symmetry_group_IT_number 14
_symmetry_cell_setting 'monoclinic'
loop_
_space_group_symop_operation_xyz
x,y,z
-x,1/2+y,1/2-z
-x,-y,-z
x,1/2-y,1/2+z
loop_
_atom_site_type_symbol
_atom_site_label
_atom_site_fract_x
_atom_site_fract_y
_atom_site_fract_z
Si Si1 0.963125 0.588637 0.791468
Si Si2 0.702134 0.237249 0.132016
Si Si3 0.103526 0.189325 0.343961
Si Si4 0.666816 0.432966 0.066752
Si Si5 0.830390 0.188895 0.304890
Si Si6 0.255291 0.879038 0.012820
Si Si7 0.158031 0.057529 0.124888
Si Si8 0.804314 0.639574 0.977373
O O1 0.636395 0.568083 0.873731
O O2 0.946939 0.585302 0.872202
O O3 0.071947 0.700600 0.743680
O O4 0.154253 0.522083 0.684386
O O5 0.435607 0.196120 0.255224
O O6 0.619416 0.353556 0.138144
O O7 0.009979 0.262468 0.063319
O O8 0.721433 0.162458 0.065651
O O9 0.905318 0.124617 0.451108
O O10 0.047471 0.151875 0.290838
O O11 0.969992 0.301722 0.386727
O O12 0.765822 0.549184 0.040431
O O13 0.517764 0.176653 0.431343
O O14 0.880721 0.122688 0.226778
O O15 0.159777 0.993105 0.060427
O O16 0.561567 0.874940 0.951699
#
# Coordination Sequence:
#
# PCOD9247552 Si02
#       8
#     4   4   4   4   4   4   4   4
#     4  12  23  40  70 106 138 176 238 301 356 411
#     4  11  24  43  66  97 141 189 225 293 365 429
#     4  11  20  40  71  96 135 184 235 285 356 415
#     4  11  21  42  70  98 129 186 241 285 343 434
#     4  12  22  39  69 102 135 178 229 306 347 413
#     4  10  22  38  69 100 136 180 236 287 352 431
#     4  11  21  39  70 110 131 179 245 295 346 415
#     4  12  27  40  66 106 144 175 237 301 361 420
#
# _framework density 24.260528999999998
#
# number of rings (size 3 to 8) (size 9 to 14) (size 15 to 20)
#    0.000    0.750    6.250    2.250    0.000    2.000 
#    0.000    0.000    2.750    2.250    0.000    0.000 
#    0.000    0.000    0.000    0.000    0.000    0.000 
#
# Total GULP energy -178732.077250 kJ/mol
# GULP energy per Si atom -5585.377414 kJ/mol
# Density = 2.420531 g / cm^3
# Si number density = 24.260529 Si / 1000 Ang^3
#
#
#
# Elastic Constant Matrix: (Units=GPa)
#
#
# Indices 1 2 3 4 5 6 
#
# 1 37.3532 11.6364 1.7679 0.0000 -11.4333 0.0000
# 2 11.6364 88.6733 35.3482 0.0000 -2.7703 0.0000
# 3 1.7679 35.3482 113.0585 0.0000 -11.5365 0.0000
# 4 0.0000 0.0000 0.0000 47.5260 0.0000 5.8087
# 5 -11.4333 -2.7703 -11.5365 0.0000 22.5866 0.0000
# 6 0.0000 0.0000 0.0000 5.8087 0.0000 28.9689
#
#
#
# Elastic Compliance Matrix: (Units=1/GPa)
#
#
# Indices 1 2 3 4 5 6 
#
# 1 0.033671 -0.005001 0.002863 0.000000 0.017893 0.000000
# 2 -0.005001 0.013631 -0.004506 0.000000 -0.003161 0.000000
# 3 0.002863 -0.004506 0.010867 0.000000 0.006447 0.000000
# 4 0.000000 0.000000 0.000000 0.021570 0.000000 -0.004325
# 5 0.017893 -0.003161 0.006447 0.000000 0.056236 0.000000
# 6 0.000000 0.000000 0.000000 -0.004325 0.000000 0.035387
#
#
# Mechanical properties :
#
#
# Convention : Reuss Voigt Hill
#
# Bulk Modulus (GPa) = 22.28145 37.39889 29.84017
# Shear Modulus (GPa) = 25.04881 32.50513 28.77697
#
# Velocity S-wave (km/s) = 3.21673 3.66435 3.44781
# Velocity P-wave (km/s) = 4.79590 5.77514 5.30815
#
# Compressibility (1/GPa) = 0.04488038
#
# Stress axis : x y z
#
# Youngs Moduli (GPa) = 29.69950 73.36136 92.02225
#
# Poissons Ratio (x) = 0.36686 -0.26344
# Poissons Ratio (y) = 0.14852 0.41467
# Poissons Ratio (z) = -0.08502 0.33058
#
# Static dielectric constant tensor:
#      x y z
#    x 2.013020 0.000000 0.021820 
#    y 0.000000 1.972620 0.000000 
#    z 0.021820 0.000000 1.952590 
# 
# From -- ./inp_files/72467.got.cif
#   From: 2010.05.17/outbox.cif.g08.bks.cpg/sg14_37_cif.got.tgz:72467.got - 2010.06.03 17:49:19.
