data_PCOD9247143
_publ_section_title
;
Structure prediction by ZEFSAII (Michael W. Deem and Ramdas Pophale) SiO2 
 PCOD9247143
Probable space group: P 21/C
;
_chemical_formula_sum "Si O2"
_cell_formula_units_Z 28
_cell_length_a 19.230348
_cell_length_b 11.435772
_cell_length_c 9.112089
_cell_angle_alpha 90.000000
_cell_angle_beta 141.337512
_cell_angle_gamma 90.000000
_cell_volume 1251.883849
_symmetry_space_group_name_H-M "P 21/C"
_symmetry_group_IT_number 14
_symmetry_cell_setting 'monoclinic'
loop_
_space_group_symop_operation_xyz
x,y,z
-x,1/2+y,1/2-z
-x,-y,-z
x,1/2-y,1/2+z
loop_
_atom_site_type_symbol
_atom_site_label
_atom_site_fract_x
_atom_site_fract_y
_atom_site_fract_z
Si Si1 0.126055 0.409700 0.858192
Si Si2 0.411988 0.608012 0.463091
Si Si3 0.896686 0.128341 0.872494
Si Si4 0.264917 0.985762 0.159834
Si Si5 0.272055 0.104596 0.868066
Si Si6 0.313251 0.741285 0.561306
Si Si7 0.650590 0.640697 0.953193
O O1 0.097488 0.542434 0.759435
O O2 0.235943 0.377150 0.949057
O O3 0.018624 0.338171 0.628368
O O4 0.162711 0.391643 0.085486
O O5 0.350281 0.495991 0.427960
O O6 0.382692 0.708981 0.533352
O O7 0.359848 0.646939 0.223403
O O8 0.544554 0.607017 0.681659
O O9 0.837670 0.055356 0.907207
O O10 0.813020 0.232274 0.695248
O O11 0.315832 0.869117 0.173426
O O12 0.346682 0.056363 0.401485
O O13 0.239217 0.068056 0.978956
O O14 0.340460 0.225024 0.982028
#
# Coordination Sequence:
#
# PCOD9247143 Si02
#       7
#     4   4   4   4   4   4   4
#     4  10  23  42  67  96 134 178 229 277 351 405
#     4  11  26  40  71  97 139 181 239 278 345 419
#     4  10  21  44  68  95 136 175 229 290 330 411
#     4  10  24  43  67 101 138 174 235 283 340 407
#     4  11  24  43  65 102 136 181 231 281 356 407
#     4  11  22  43  68 103 129 183 230 290 339 403
#     4  11  26  44  64 101 144 183 223 289 345 411
#
# _framework density 22.366292999999999
#
# number of rings (size 3 to 8) (size 9 to 14) (size 15 to 20)
#    0.000    1.429    2.857    0.857    6.000    3.429 
#    0.000    4.286    0.000    0.000    0.000    0.000 
#    0.000    0.000    0.000    0.000    0.000    0.000 
#
# Total GULP energy -156635.428317 kJ/mol
# GULP energy per Si atom -5594.122440 kJ/mol
# Density = 2.231539 g / cm^3
# Si number density = 22.366293 Si / 1000 Ang^3
#
#
#
# Elastic Constant Matrix: (Units=GPa)
#
#
# Indices 1 2 3 4 5 6 
#
# 1 42.7730 7.7501 21.3239 0.0000 -8.8189 0.0000
# 2 7.7501 75.2770 31.0471 0.0000 -0.4248 0.0000
# 3 21.3239 31.0471 141.2740 0.0000 6.5318 0.0000
# 4 0.0000 0.0000 0.0000 9.9646 0.0000 -2.3990
# 5 -8.8189 -0.4248 6.5318 0.0000 37.2757 0.0000
# 6 0.0000 0.0000 0.0000 -2.3990 0.0000 31.6810
#
#
#
# Elastic Compliance Matrix: (Units=1/GPa)
#
#
# Indices 1 2 3 4 5 6 
#
# 1 0.027131 -0.001020 -0.004201 0.000000 0.007143 0.000000
# 2 -0.001020 0.014667 -0.003091 0.000000 0.000467 0.000000
# 3 -0.004201 -0.003091 0.008508 0.000000 -0.002520 0.000000
# 4 0.000000 0.000000 0.000000 0.102219 0.000000 0.007740
# 5 0.007143 0.000467 -0.002520 0.000000 0.028964 0.000000
# 6 0.000000 0.000000 0.000000 0.007740 0.000000 0.032151
#
#
# Mechanical properties :
#
#
# Convention : Reuss Voigt Hill
#
# Bulk Modulus (GPa) = 29.68962 42.17400 35.93181
# Shear Modulus (GPa) = 20.70457 29.06445 24.88451
#
# Velocity S-wave (km/s) = 3.04584 3.60873 3.33917
# Velocity P-wave (km/s) = 5.06681 6.02171 5.56478
#
# Compressibility (1/GPa) = 0.03368181
#
# Stress axis : x y z
#
# Youngs Moduli (GPa) = 36.85762 68.18149 117.53139
#
# Poissons Ratio (x) = 0.06956 0.49378
# Poissons Ratio (y) = 0.03760 0.36327
# Poissons Ratio (z) = 0.15485 0.21074
#
# Static dielectric constant tensor:
#      x y z
#    x 1.815560 0.000000 -0.017210 
#    y 0.000000 1.857170 0.000000 
#    z -0.017210 0.000000 1.822240 
# 
# From -- ./inp_files/18968.got.cif
#   From: 2010.05.17/outbox.cif.g08.bks.cpg/sg14_10_cif.got.tgz:18968.got - 2010.06.03 17:49:19.
