data_PCOD9247039
_publ_section_title
;
Structure prediction by ZEFSAII (Michael W. Deem and Ramdas Pophale) SiO2 
 PCOD9247039
Probable space group: P 21/C
;
_chemical_formula_sum "Si O2"
_cell_formula_units_Z 32
_cell_length_a 8.401038
_cell_length_b 11.576851
_cell_length_c 14.258737
_cell_angle_alpha 90.000000
_cell_angle_beta 100.044874
_cell_angle_gamma 90.000000
_cell_volume 1365.512869
_symmetry_space_group_name_H-M "P 21/C"
_symmetry_group_IT_number 14
_symmetry_cell_setting 'monoclinic'
loop_
_space_group_symop_operation_xyz
x,y,z
-x,1/2+y,1/2-z
-x,-y,-z
x,1/2-y,1/2+z
loop_
_atom_site_type_symbol
_atom_site_label
_atom_site_fract_x
_atom_site_fract_y
_atom_site_fract_z
Si Si1 0.390729 0.936978 0.098265
Si Si2 0.840735 0.401354 0.574644
Si Si3 0.815905 0.547566 0.096100
Si Si4 0.956015 0.169325 0.517050
Si Si5 0.443983 0.295230 0.857049
Si Si6 0.904905 0.060020 0.804227
Si Si7 0.173519 0.163444 0.721364
Si Si8 0.652321 0.420015 0.730424
O O1 0.495279 0.822367 0.088949
O O2 0.260773 0.905010 0.165188
O O3 0.498120 0.036130 0.155361
O O4 0.293338 0.973649 0.995695
O O5 0.766847 0.358314 0.665988
O O6 0.876596 0.293759 0.511767
O O7 0.995815 0.476924 0.615573
O O8 0.646302 0.614307 0.084658
O O9 0.862534 0.509093 0.205280
O O10 0.831247 0.431080 0.035518
O O11 0.952956 0.629829 0.066387
O O12 0.092194 0.179587 0.612657
O O13 0.307708 0.253557 0.767906
O O14 0.588840 0.352082 0.813284
O O15 0.029849 0.157529 0.783127
O O16 0.254541 0.036719 0.731016
#
# Coordination Sequence:
#
# PCOD9247039 Si02
#       8
#     4   4   4   4   4   4   4   4
#     4  11  24  41  63  97 130 168 218 266 324 395
#     4  11  24  40  66  98 124 173 214 274 323 381
#     4  10  22  42  63  94 131 169 210 275 321 385
#     4  10  23  40  67  98 125 163 227 269 319 385
#     4  11  23  40  67  91 130 181 209 262 333 391
#     4  10  21  43  68  92 130 170 216 271 323 385
#     4   9  22  40  62  94 126 169 218 270 314 389
#     4  10  23  42  62  91 136 169 212 262 332 388
#
# _framework density 23.434418999999998
#
# number of rings (size 3 to 8) (size 9 to 14) (size 15 to 20)
#    0.000    1.750    1.250    1.500    5.250    5.000 
#    2.250    1.250    0.000    0.000    0.000    0.000 
#    0.000    0.000    0.000    0.000    0.000    0.000 
#
# Total GULP energy -179081.219109 kJ/mol
# GULP energy per Si atom -5596.288097 kJ/mol
# Density = 2.338108 g / cm^3
# Si number density = 23.434419 Si / 1000 Ang^3
#
#
#
# Elastic Constant Matrix: (Units=GPa)
#
#
# Indices 1 2 3 4 5 6 
#
# 1 69.1623 9.7704 12.0936 0.0000 -7.5161 0.0000
# 2 9.7704 48.5085 13.9829 0.0000 2.4573 0.0000
# 3 12.0936 13.9829 69.6192 0.0000 -13.2491 0.0000
# 4 0.0000 0.0000 0.0000 22.6763 0.0000 -6.5742
# 5 -7.5161 2.4573 -13.2491 0.0000 21.3181 0.0000
# 6 0.0000 0.0000 0.0000 -6.5742 0.0000 33.3210
#
#
#
# Elastic Compliance Matrix: (Units=1/GPa)
#
#
# Indices 1 2 3 4 5 6 
#
# 1 0.015654 -0.003095 -0.001111 0.000000 0.005186 0.000000
# 2 -0.003095 0.023182 -0.005483 0.000000 -0.007171 0.000000
# 3 -0.001111 -0.005483 0.017810 0.000000 0.011309 0.000000
# 4 0.000000 0.000000 0.000000 0.046774 0.000000 0.009228
# 5 0.005186 -0.007171 0.011309 0.000000 0.056592 0.000000
# 6 0.000000 0.000000 0.000000 0.009228 0.000000 0.031832
#
#
# Mechanical properties :
#
#
# Convention : Reuss Voigt Hill
#
# Bulk Modulus (GPa) = 26.83277 28.77596 27.80436
# Shear Modulus (GPa) = 22.35677 25.55928 23.95802
#
# Velocity S-wave (km/s) = 3.09206 3.30612 3.20088
# Velocity P-wave (km/s) = 4.92167 5.18458 5.05483
#
# Compressibility (1/GPa) = 0.03726787
#
# Stress axis : x y z
#
# Youngs Moduli (GPa) = 63.88242 43.13646 56.14711
#
# Poissons Ratio (x) = 0.13353 0.06236
# Poissons Ratio (y) = 0.19774 0.30786
# Poissons Ratio (z) = 0.07095 0.23652
#
# Static dielectric constant tensor:
#      x y z
#    x 1.894190 0.000000 -0.006860 
#    y 0.000000 1.883330 0.000000 
#    z -0.006860 0.000000 1.877160 
# 
# From -- ./inp_files/40312.got.cif
#   From: 2010.05.17/outbox.cif.g08.bks.cpg/sg14_21_cif.got.tgz:40312.got - 2010.06.03 17:49:19.
