data_PCOD9247366
_publ_section_title
;
Structure prediction by ZEFSAII (Michael W. Deem and Ramdas Pophale) SiO2 
 PCOD9247366
Probable space group: P 21/C
;
_chemical_formula_sum "Si O2"
_cell_formula_units_Z 32
_cell_length_a 9.469006
_cell_length_b 20.607965
_cell_length_c 8.700082
_cell_angle_alpha 90.000000
_cell_angle_beta 106.494148
_cell_angle_gamma 90.000000
_cell_volume 1627.844614
_symmetry_space_group_name_H-M "P 21/C"
_symmetry_group_IT_number 14
_symmetry_cell_setting 'monoclinic'
loop_
_space_group_symop_operation_xyz
x,y,z
-x,1/2+y,1/2-z
-x,-y,-z
x,1/2-y,1/2+z
loop_
_atom_site_type_symbol
_atom_site_label
_atom_site_fract_x
_atom_site_fract_y
_atom_site_fract_z
Si Si1 0.753473 0.897600 0.280151
Si Si2 0.530245 0.347600 0.837623
Si Si3 0.938289 0.433504 0.054780
Si Si4 0.359101 0.518355 0.055219
Si Si5 0.556423 0.678765 0.528214
Si Si6 0.917054 0.312993 0.812288
Si Si7 0.742155 0.808101 0.567787
Si Si8 0.273277 0.730815 0.527850
O O1 0.651356 0.883158 0.103946
O O2 0.741593 0.836959 0.395301
O O3 0.926928 0.907186 0.301587
O O4 0.692965 0.959316 0.354958
O O5 0.593531 0.418678 0.835576
O O6 0.510899 0.318979 0.662402
O O7 0.371017 0.351384 0.868578
O O8 0.639688 0.300546 0.969741
O O9 0.784294 0.455205 0.081416
O O10 0.910062 0.378510 0.914582
O O11 0.000000 0.500000 0.000000
O O12 0.500000 0.500000 0.000000
O O13 0.670471 0.737983 0.563812
O O14 0.419586 0.687935 0.603631
O O15 0.815786 0.307112 0.631110
O O16 0.089268 0.306509 0.826919
O O17 0.850666 0.253082 0.890419
#
# Coordination Sequence:
#
# PCOD9247366 Si02
#       8
#     4   4   4   4   4   4   4   4
#     4  10  22  38  61  88 116 162 203 245 303 371
#     4  11  22  39  58  84 123 156 199 253 304 369
#     4   9  20  40  60  87 120 161 205 247 303 375
#     4  11  20  37  64  88 113 158 209 251 300 365
#     4  11  23  38  58  89 122 158 196 256 310 361
#     4  11  23  37  61  91 120 161 201 255 311 365
#     4  10  22  37  58  84 119 155 195 242 308 367
#     4  11  22  39  60  89 122 157 204 252 314 362
#
# _framework density 19.657897999999999
#
# number of rings (size 3 to 8) (size 9 to 14) (size 15 to 20)
#    0.000    1.500    3.750    1.500    7.000    0.500 
#    0.000    0.000    0.000    0.750    0.000    0.000 
#    0.000    0.000    0.000    0.000    0.000    0.000 
#
# Total GULP energy -178135.909339 kJ/mol
# GULP energy per Si atom -5566.747167 kJ/mol
# Density = 1.961316 g / cm^3
# Si number density = 19.657898 Si / 1000 Ang^3
#
#
#
# Elastic Constant Matrix: (Units=GPa)
#
#
# Indices 1 2 3 4 5 6 
#
# 1 158.6758 24.5427 16.4453 0.0000 21.4690 0.0000
# 2 24.5427 69.3841 16.1786 0.0000 20.4825 0.0000
# 3 16.4453 16.1786 24.2077 0.0000 16.6189 0.0000
# 4 0.0000 0.0000 0.0000 13.1172 0.0000 12.3424
# 5 21.4690 20.4825 16.6189 0.0000 22.8626 0.0000
# 6 0.0000 0.0000 0.0000 12.3424 0.0000 31.5812
#
#
#
# Elastic Compliance Matrix: (Units=1/GPa)
#
#
# Indices 1 2 3 4 5 6 
#
# 1 0.007250 -0.000744 -0.000423 0.000000 -0.005835 0.000000
# 2 -0.000744 0.019724 -0.002046 0.000000 -0.015485 0.000000
# 3 -0.000423 -0.002046 0.082705 0.000000 -0.057888 0.000000
# 4 0.000000 0.000000 0.000000 0.120575 0.000000 -0.047123
# 5 -0.005835 -0.015485 -0.057888 0.000000 0.105171 0.000000
# 6 0.000000 0.000000 0.000000 -0.047123 0.000000 0.050081
#
#
# Mechanical properties :
#
#
# Convention : Reuss Voigt Hill
#
# Bulk Modulus (GPa) = 9.68483 40.73341 25.20912
# Shear Modulus (GPa) = 11.72746 26.51892 19.12319
#
# Velocity S-wave (km/s) = 2.44514 3.67689 3.12236
# Velocity P-wave (km/s) = 3.59291 6.22833 5.08435
#
# Compressibility (1/GPa) = 0.10325431
#
# Stress axis : x y z
#
# Youngs Moduli (GPa) = 137.92205 50.70004 12.09115
#
# Poissons Ratio (x) = 0.03770 0.00511
# Poissons Ratio (y) = 0.10255 0.02474
# Poissons Ratio (z) = 0.05831 0.10375
#
# Static dielectric constant tensor:
#      x y z
#    x 1.740960 0.000000 0.002950 
#    y 0.000000 1.702210 0.000000 
#    z 0.002950 0.000000 1.708680 
# 
# From -- ./inp_files/10261.got.cif
#   From: 2010.05.17/outbox.cif.g08.bks.cpg/sg14_6_cif.got.tgz:10261.got - 2010.06.03 17:49:19.
