data_PCOD9247419
_publ_section_title
;
Structure prediction by ZEFSAII (Michael W. Deem and Ramdas Pophale) SiO2 
 PCOD9247419
Probable space group: P 21/C
;
_chemical_formula_sum "Si O2"
_cell_formula_units_Z 28
_cell_length_a 11.393873
_cell_length_b 13.412973
_cell_length_c 8.340343
_cell_angle_alpha 90.000000
_cell_angle_beta 123.773450
_cell_angle_gamma 90.000000
_cell_volume 1059.516923
_symmetry_space_group_name_H-M "P 21/C"
_symmetry_group_IT_number 14
_symmetry_cell_setting 'monoclinic'
loop_
_space_group_symop_operation_xyz
x,y,z
-x,1/2+y,1/2-z
-x,-y,-z
x,1/2-y,1/2+z
loop_
_atom_site_type_symbol
_atom_site_label
_atom_site_fract_x
_atom_site_fract_y
_atom_site_fract_z
Si Si1 0.229860 0.273089 0.106622
Si Si2 0.921963 0.625972 0.300345
Si Si3 0.443625 0.954367 0.622365
Si Si4 0.828477 0.247622 0.891225
Si Si5 0.881388 0.465611 0.042048
Si Si6 0.388008 0.143647 0.001311
Si Si7 0.632908 0.275472 0.481230
O O1 0.195322 0.167491 0.165889
O O2 0.359571 0.241525 0.091148
O O3 0.258842 0.347994 0.276935
O O4 0.113968 0.316835 0.896649
O O5 0.929499 0.513310 0.247144
O O6 0.057881 0.664847 0.494210
O O7 0.291125 0.992054 0.578027
O O8 0.566737 0.947680 0.851463
O O9 0.412004 0.839026 0.560280
O O10 0.500000 0.000000 0.500000
O O11 0.878335 0.346827 0.021681
O O12 0.679170 0.202134 0.836710
O O13 0.783378 0.287132 0.684697
O O14 0.000000 0.500000 0.000000
O O15 0.520503 0.160084 0.986835
#
# Coordination Sequence:
#
# PCOD9247419 Si02
#       7
#     4   4   4   4   4   4   4
#     4  10  22  37  65  95 129 178 216 273 337 408
#     4  11  23  42  65  94 136 172 223 278 343 396
#     4  11  24  41  66 102 138 173 226 286 335 402
#     4  11  23  42  68  96 127 178 231 269 342 408
#     4  11  23  41  65  95 136 174 221 282 336 396
#     4  11  19  39  64  94 130 171 222 262 340 394
#     4  11  20  40  66  93 125 174 223 274 326 402
#
# _framework density 26.427136000000001
#
# number of rings (size 3 to 8) (size 9 to 14) (size 15 to 20)
#    0.000    1.143    4.286    3.429    2.000    0.000 
#    0.000   12.857    0.000    0.000    0.000    0.000 
#    0.000    0.000    0.000    0.000    0.000    0.000 
#
# Total GULP energy -156222.012581 kJ/mol
# GULP energy per Si atom -5579.357592 kJ/mol
# Density = 2.636699 g / cm^3
# Si number density = 26.427136 Si / 1000 Ang^3
#
#
#
# Elastic Constant Matrix: (Units=GPa)
#
#
# Indices 1 2 3 4 5 6 
#
# 1 148.1871 11.6970 14.0634 0.0000 -6.6091 0.0000
# 2 11.6970 64.4176 10.2874 0.0000 -9.5154 0.0000
# 3 14.0634 10.2874 80.1472 0.0000 -1.6766 0.0000
# 4 0.0000 0.0000 0.0000 50.6040 0.0000 -15.2260
# 5 -6.6091 -9.5154 -1.6766 0.0000 35.2444 0.0000
# 6 0.0000 0.0000 0.0000 -15.2260 0.0000 37.3462
#
#
#
# Elastic Compliance Matrix: (Units=1/GPa)
#
#
# Indices 1 2 3 4 5 6 
#
# 1 0.006970 -0.000945 -0.001081 0.000000 0.001000 0.000000
# 2 -0.000945 0.016619 -0.001879 0.000000 0.004220 0.000000
# 3 -0.001081 -0.001879 0.012906 0.000000 -0.000096 0.000000
# 4 0.000000 0.000000 0.000000 0.022524 0.000000 0.009183
# 5 0.001000 0.004220 -0.000096 0.000000 0.029696 0.000000
# 6 0.000000 0.000000 0.000000 0.009183 0.000000 0.030520
#
#
# Mechanical properties :
#
#
# Convention : Reuss Voigt Hill
#
# Bulk Modulus (GPa) = 34.86184 40.53861 37.70022
# Shear Modulus (GPa) = 36.60141 41.75251 39.17696
#
# Velocity S-wave (km/s) = 3.72559 3.97912 3.85444
# Velocity P-wave (km/s) = 5.63267 6.04022 5.84000
#
# Compressibility (1/GPa) = 0.02868466
#
# Stress axis : x y z
#
# Youngs Moduli (GPa) = 143.47152 60.17283 77.48416
#
# Poissons Ratio (x) = 0.05688 0.08374
# Poissons Ratio (y) = 0.13562 0.14559
# Poissons Ratio (z) = 0.15506 0.11306
#
# Static dielectric constant tensor:
#      x y z
#    x 2.149500 0.000000 0.035380 
#    y 0.000000 2.048010 0.000000 
#    z 0.035380 0.000000 2.203570 
# 
# From -- ./inp_files/13424.got.cif
#   From: 2010.05.17/outbox.cif.g08.bks.cpg/sg14_7_cif.got.tgz:13424.got - 2010.06.03 17:49:19.
