data_PCOD9247949
_publ_section_title
;
Structure prediction by ZEFSAII (Michael W. Deem and Ramdas Pophale) SiO2 
 PCOD9247949
Probable space group: P 21/C
;
_chemical_formula_sum "Si O2"
_cell_formula_units_Z 30
_cell_length_a 17.984311
_cell_length_b 7.231861
_cell_length_c 18.420274
_cell_angle_alpha 90.000000
_cell_angle_beta 30.210530
_cell_angle_gamma 90.000000
_cell_volume 1205.486291
_symmetry_space_group_name_H-M "P 21/C"
_symmetry_group_IT_number 14
_symmetry_cell_setting 'monoclinic'
loop_
_space_group_symop_operation_xyz
x,y,z
-x,1/2+y,1/2-z
-x,-y,-z
x,1/2-y,1/2+z
loop_
_atom_site_type_symbol
_atom_site_label
_atom_site_fract_x
_atom_site_fract_y
_atom_site_fract_z
Si Si1 0.762425 0.866986 0.623570
Si Si2 0.203613 0.818726 0.293831
Si Si3 0.390914 0.503426 0.213116
Si Si4 0.952918 0.589600 0.698598
Si Si5 0.171514 0.190674 0.074839
Si Si6 0.000000 0.500000 0.500000
Si Si7 0.436081 0.962406 0.844988
Si Si8 0.316245 0.808527 0.557445
O O1 0.819059 0.003439 0.637523
O O2 0.598769 0.944364 0.740552
O O3 0.735207 0.657944 0.677544
O O4 0.839695 0.842604 0.479974
O O5 0.317312 0.679239 0.238831
O O6 0.061505 0.688073 0.405970
O O7 0.274994 0.841881 0.153911
O O8 0.433197 0.540291 0.260725
O O9 0.532683 0.419319 0.053492
O O10 0.916156 0.763299 0.779173
O O11 0.815867 0.453591 0.832290
O O12 0.101181 0.492678 0.600615
O O13 0.972245 0.620728 0.597827
O O14 0.343069 0.144947 0.944506
O O15 0.349278 0.791560 0.954173
#
# Coordination Sequence:
#
# PCOD9247949 Si02
#       8
#     4   4   4   4   4   2   4   4
#     4  10  24  40  68  99 128 172 223 276 340 404
#     4  11  24  43  69  92 138 178 220 283 339 402
#     4  10  22  40  67  98 135 173 218 284 333 410
#     4  11  24  42  66  92 135 174 228 274 341 402
#     4  11  24  42  66 104 128 182 229 282 337 410
#     4  10  24  46  60  96 130 184 218 272 346 398
#     4  10  22  41  65 100 132 166 227 281 337 400
#     4  10  23  43  63 100 131 173 227 267 341 413
#
# _framework density 24.886220000000002
#
# number of rings (size 3 to 8) (size 9 to 14) (size 15 to 20)
#    0.000    1.600    0.000    3.600   11.200    2.133 
#    7.200    3.333    0.000    0.000    0.000    0.000 
#    0.000    0.000    0.000    0.000    0.000    0.000 
#
# Total GULP energy -167564.213392 kJ/mol
# GULP energy per Si atom -5585.473780 kJ/mol
# Density = 2.482958 g / cm^3
# Si number density = 24.886220 Si / 1000 Ang^3
#
#
#
# Elastic Constant Matrix: (Units=GPa)
#
#
# Indices 1 2 3 4 5 6 
#
# 1 58.8124 8.5110 30.8818 0.0000 14.9608 0.0000
# 2 8.5110 65.4482 15.0736 0.0000 10.8618 0.0000
# 3 30.8818 15.0736 113.2919 0.0000 14.4247 0.0000
# 4 0.0000 0.0000 0.0000 68.9812 0.0000 4.1764
# 5 14.9608 10.8618 14.4247 0.0000 38.1042 0.0000
# 6 0.0000 0.0000 0.0000 4.1764 0.0000 45.7873
#
#
#
# Elastic Compliance Matrix: (Units=1/GPa)
#
#
# Indices 1 2 3 4 5 6 
#
# 1 0.021279 -0.000585 -0.004917 0.000000 -0.006327 0.000000
# 2 -0.000585 0.016346 -0.001525 0.000000 -0.003853 0.000000
# 3 -0.004917 -0.001525 0.010579 0.000000 -0.001639 0.000000
# 4 0.000000 0.000000 0.000000 0.014577 0.000000 -0.001330
# 5 -0.006327 -0.003853 -0.001639 0.000000 0.030447 0.000000
# 6 0.000000 0.000000 0.000000 -0.001330 0.000000 0.021961
#
#
# Mechanical properties :
#
#
# Convention : Reuss Voigt Hill
#
# Bulk Modulus (GPa) = 29.28230 38.49836 33.89033
# Shear Modulus (GPa) = 35.55533 42.78029 39.16781
#
# Velocity S-wave (km/s) = 3.78394 4.15062 3.97151
# Velocity P-wave (km/s) = 5.55724 6.20271 5.88882
#
# Compressibility (1/GPa) = 0.03415033
#
# Stress axis : x y z
#
# Youngs Moduli (GPa) = 46.99432 61.17750 94.52945
#
# Poissons Ratio (x) = 0.03577 0.46481
# Poissons Ratio (y) = 0.02748 0.14415
# Poissons Ratio (z) = 0.23107 0.09329
#
# Static dielectric constant tensor:
#      x y z
#    x 1.677390 0.000000 0.113820 
#    y 0.000000 1.914670 0.000000 
#    z 0.113820 0.000000 1.850420 
# 
# From -- ./inp_files/61138.got.cif
#   From: 2010.05.17/outbox.cif.g08.bks.cpg/sg14_31_cif.got.tgz:61138.got - 2010.06.03 17:49:19.
