data_PCOD9247592
_publ_section_title
;
Structure prediction by ZEFSAII (Michael W. Deem and Ramdas Pophale) SiO2 
 PCOD9247592
Probable space group: P 21/C
;
_chemical_formula_sum "Si O2"
_cell_formula_units_Z 28
_cell_length_a 7.668272
_cell_length_b 20.625805
_cell_length_c 11.161462
_cell_angle_alpha 90.000000
_cell_angle_beta 139.342378
_cell_angle_gamma 90.000000
_cell_volume 1150.188198
_symmetry_space_group_name_H-M "P 21/C"
_symmetry_group_IT_number 14
_symmetry_cell_setting 'monoclinic'
loop_
_space_group_symop_operation_xyz
x,y,z
-x,1/2+y,1/2-z
-x,-y,-z
x,1/2-y,1/2+z
loop_
_atom_site_type_symbol
_atom_site_label
_atom_site_fract_x
_atom_site_fract_y
_atom_site_fract_z
Si Si1 0.740313 0.875103 0.110031
Si Si2 0.218955 0.569115 0.223483
Si Si3 0.564307 0.635168 0.080372
Si Si4 0.650808 0.228575 0.992761
Si Si5 0.922594 0.696244 0.079269
Si Si6 0.838381 0.034834 0.565636
Si Si7 0.966616 0.826819 0.985553
O O1 0.487119 0.918347 0.936344
O O2 0.606196 0.809053 0.088249
O O3 0.926192 0.861671 0.091023
O O4 0.915818 0.914460 0.294798
O O5 0.983663 0.532427 0.173254
O O6 0.106917 0.638932 0.125957
O O7 0.264076 0.530338 0.124340
O O8 0.670738 0.662845 0.010848
O O9 0.804202 0.632944 0.301738
O O10 0.393656 0.695336 0.044913
O O11 0.399211 0.569299 0.986562
O O12 0.889007 0.222972 0.214749
O O13 0.750574 0.190536 0.927055
O O14 0.853149 0.754226 0.953953
#
# Coordination Sequence:
#
# PCOD9247592 Si02
#       7
#     4   4   4   4   4   4   4
#     4  11  22  43  66  93 125 165 202 262 310 368
#     4  10  23  43  63  89 125 167 210 257 301 366
#     4  11  22  37  60  93 127 158 210 254 303 382
#     4  10  23  37  59  95 126 157 207 252 314 377
#     4  10  22  39  60  88 127 165 200 257 316 362
#     4  11  23  40  66  90 120 170 214 247 307 372
#     4  11  22  37  63  92 128 161 198 260 316 363
#
# _framework density 24.343841999999999
#
# number of rings (size 3 to 8) (size 9 to 14) (size 15 to 20)
#    0.000    1.429    2.857    2.143    6.000    1.714 
#    0.000    0.000    0.000    3.429    0.000    0.000 
#    0.000    0.000    0.000    0.000    0.000    0.000 
#
# Total GULP energy -156567.797308 kJ/mol
# GULP energy per Si atom -5591.707047 kJ/mol
# Density = 2.428843 g / cm^3
# Si number density = 24.343842 Si / 1000 Ang^3
#
#
#
# Elastic Constant Matrix: (Units=GPa)
#
#
# Indices 1 2 3 4 5 6 
#
# 1 85.7115 -4.2398 13.8894 0.0000 -5.1688 0.0000
# 2 -4.2398 59.9918 14.8482 0.0000 5.2007 0.0000
# 3 13.8894 14.8482 82.4296 0.0000 -5.2411 0.0000
# 4 0.0000 0.0000 0.0000 32.8703 0.0000 1.7409
# 5 -5.1688 5.2007 -5.2411 0.0000 22.8892 0.0000
# 6 0.0000 0.0000 0.0000 1.7409 0.0000 30.2279
#
#
#
# Elastic Compliance Matrix: (Units=1/GPa)
#
#
# Indices 1 2 3 4 5 6 
#
# 1 0.012195 0.001222 -0.002149 0.000000 0.001984 0.000000
# 2 0.001222 0.018094 -0.003764 0.000000 -0.004697 0.000000
# 3 -0.002149 -0.003764 0.013390 0.000000 0.003436 0.000000
# 4 0.000000 0.000000 0.000000 0.030516 0.000000 -0.001757
# 5 0.001984 -0.004697 0.003436 0.000000 0.045991 0.000000
# 6 0.000000 0.000000 0.000000 -0.001757 0.000000 0.033183
#
#
# Mechanical properties :
#
#
# Convention : Reuss Voigt Hill
#
# Bulk Modulus (GPa) = 29.15653 30.79203 29.97428
# Shear Modulus (GPa) = 28.70531 30.77314 29.73922
#
# Velocity S-wave (km/s) = 3.43762 3.55928 3.49898
# Velocity P-wave (km/s) = 5.26870 5.43761 5.35382
#
# Compressibility (1/GPa) = 0.03429763
#
# Stress axis : x y z
#
# Youngs Moduli (GPa) = 81.99843 55.26678 74.68207
#
# Poissons Ratio (x) = -0.06752 0.16048
# Poissons Ratio (y) = -0.10018 0.28109
# Poissons Ratio (z) = 0.17620 0.20801
#
# Static dielectric constant tensor:
#      x y z
#    x 1.977840 0.000000 0.019710 
#    y 0.000000 1.947810 0.000000 
#    z 0.019710 0.000000 1.907960 
# 
# From -- ./inp_files/26836.got.cif
#   From: 2010.05.17/outbox.cif.g08.bks.cpg/sg14_14_cif.got.tgz:26836.got - 2010.06.03 17:49:19.
