data_PCOD9247357
_publ_section_title
;
Structure prediction by ZEFSAII (Michael W. Deem and Ramdas Pophale) SiO2 
 PCOD9247357
Probable space group: P 21/C
;
_chemical_formula_sum "Si O2"
_cell_formula_units_Z 22
_cell_length_a 8.518675
_cell_length_b 7.513371
_cell_length_c 13.925337
_cell_angle_alpha 90.000000
_cell_angle_beta 56.334861
_cell_angle_gamma 90.000000
_cell_volume 741.802149
_symmetry_space_group_name_H-M "P 21/C"
_symmetry_group_IT_number 14
_symmetry_cell_setting 'monoclinic'
loop_
_space_group_symop_operation_xyz
x,y,z
-x,1/2+y,1/2-z
-x,-y,-z
x,1/2-y,1/2+z
loop_
_atom_site_type_symbol
_atom_site_label
_atom_site_fract_x
_atom_site_fract_y
_atom_site_fract_z
Si Si1 0.524588 0.084633 0.245645
Si Si2 0.902219 0.231399 0.116028
Si Si3 0.500000 0.500000 0.500000
Si Si4 0.905736 0.365181 0.392712
Si Si5 0.292242 0.299622 0.208232
Si Si6 0.711272 0.639139 0.991285
O O1 0.432599 0.127962 0.171560
O O2 0.369520 0.069255 0.381474
O O3 0.683133 0.233064 0.216854
O O4 0.646879 0.905032 0.216542
O O5 0.061701 0.376011 0.080172
O O6 0.992303 0.056681 0.134237
O O7 0.892888 0.201856 0.005527
O O8 0.697777 0.374165 0.422401
O O9 0.366240 0.340273 0.495940
O O10 0.073406 0.253662 0.284938
O O11 0.333712 0.422211 0.102546
#
# Coordination Sequence:
#
# PCOD9247357 Si02
#       6
#     4   4   2   4   4   4
#     4  11  24  43  66  95 135 182 217 291 345 411
#     4   9  19  38  63  92 128 169 221 270 338 395
#     4  10  22  36  70  96 128 178 232 264 342 412
#     4   9  18  38  63  95 127 171 222 280 319 414
#     4  11  24  42  68  96 139 175 230 282 353 402
#     4  11  23  40  65  98 132 175 228 286 339 413
#
# _framework density 29.657501
#
# number of rings (size 3 to 8) (size 9 to 14) (size 15 to 20)
#    0.000    1.818    1.818    1.636    7.636    0.000 
#    0.000    0.909    0.000    0.000    0.000    0.000 
#    0.000    0.000    0.000    0.000    0.000    0.000 
#
# Total GULP energy -122756.251726 kJ/mol
# GULP energy per Si atom -5579.829624 kJ/mol
# Density = 2.959000 g / cm^3
# Si number density = 29.657501 Si / 1000 Ang^3
#
#
#
# Elastic Constant Matrix: (Units=GPa)
#
#
# Indices 1 2 3 4 5 6 
#
# 1 234.8764 26.5209 74.4187 0.0000 -31.3987 0.0000
# 2 26.5209 76.4953 6.6294 0.0000 0.1042 0.0000
# 3 74.4187 6.6294 133.7580 0.0000 -16.2494 0.0000
# 4 0.0000 0.0000 0.0000 33.6437 0.0000 7.9311
# 5 -31.3987 0.1042 -16.2494 0.0000 90.1933 0.0000
# 6 0.0000 0.0000 0.0000 7.9311 0.0000 41.7916
#
#
#
# Elastic Compliance Matrix: (Units=1/GPa)
#
#
# Indices 1 2 3 4 5 6 
#
# 1 0.005530 -0.001675 -0.002822 0.000000 0.001419 0.000000
# 2 -0.001675 0.013638 0.000187 0.000000 -0.000565 0.000000
# 3 -0.002822 0.000187 0.009117 0.000000 0.000660 0.000000
# 4 0.000000 0.000000 0.000000 0.031115 0.000000 -0.005905
# 5 0.001419 -0.000565 0.000660 0.000000 0.011701 0.000000
# 6 0.000000 0.000000 0.000000 -0.005905 0.000000 0.025049
#
#
# Mechanical properties :
#
#
# Convention : Reuss Voigt Hill
#
# Bulk Modulus (GPa) = 50.84672 73.36307 62.10489
# Shear Modulus (GPa) = 44.91400 55.62977 50.27189
#
# Velocity S-wave (km/s) = 3.89578 4.33568 4.12160
# Velocity P-wave (km/s) = 6.11703 7.06078 6.60578
#
# Compressibility (1/GPa) = 0.01966695
#
# Stress axis : x y z
#
# Youngs Moduli (GPa) = 180.82159 73.32520 109.68641
#
# Poissons Ratio (x) = 0.12280 0.30948
# Poissons Ratio (y) = 0.30283 -0.02053
# Poissons Ratio (z) = 0.51019 -0.01373
#
# Static dielectric constant tensor:
#      x y z
#    x 2.215090 0.000000 -0.067120 
#    y 0.000000 2.383120 0.000000 
#    z -0.067120 0.000000 2.105980 
# 
# From -- ./inp_files/39524.got.cif
#   From: 2010.05.17/outbox.cif.g08.bks.cpg/sg14_20_cif.got.tgz:39524.got - 2010.06.03 17:49:19.
