data_PCOD9247109
_publ_section_title
;
Structure prediction by ZEFSAII (Michael W. Deem and Ramdas Pophale) SiO2 
 PCOD9247109
Probable space group: P 21/C
;
_chemical_formula_sum "Si O2"
_cell_formula_units_Z 32
_cell_length_a 20.561626
_cell_length_b 13.788443
_cell_length_c 14.227294
_cell_angle_alpha 90.000000
_cell_angle_beta 160.311124
_cell_angle_gamma 90.000000
_cell_volume 1358.976882
_symmetry_space_group_name_H-M "P 21/C"
_symmetry_group_IT_number 14
_symmetry_cell_setting 'monoclinic'
loop_
_space_group_symop_operation_xyz
x,y,z
-x,1/2+y,1/2-z
-x,-y,-z
x,1/2-y,1/2+z
loop_
_atom_site_type_symbol
_atom_site_label
_atom_site_fract_x
_atom_site_fract_y
_atom_site_fract_z
Si Si1 0.682398 0.798952 0.298206
Si Si2 0.669995 0.298873 0.122586
Si Si3 0.033708 0.862755 0.476290
Si Si4 0.853005 0.365636 0.178441
Si Si5 0.622275 0.554551 0.870039
Si Si6 0.142725 0.813797 0.944871
Si Si7 0.777997 0.023126 0.096275
Si Si8 0.764258 0.710591 0.216071
O O1 0.596044 0.893659 0.233174
O O2 0.660613 0.774076 0.157336
O O3 0.909305 0.806952 0.630973
O O4 0.556691 0.714233 0.175380
O O5 0.736610 0.326551 0.110911
O O6 0.764540 0.359410 0.334602
O O7 0.785601 0.200484 0.309497
O O8 0.883439 0.787563 0.316846
O O9 0.122168 0.928145 0.677957
O O10 0.910476 0.933714 0.243299
O O11 0.804575 0.291460 0.028548
O O12 0.077380 0.352065 0.510703
O O13 0.790626 0.476453 0.084474
O O14 0.435377 0.499397 0.657187
O O15 0.662699 0.638577 0.003526
O O16 0.214132 0.891030 0.966406
#
# Coordination Sequence:
#
# PCOD9247109 Si02
#       8
#     4   4   4   4   4   4   4   4
#     4  11  22  40  67  97 125 170 229 265 323 397
#     4  11  22  43  70  92 131 183 220 269 333 401
#     4  10  21  44  65  87 133 175 208 275 330 384
#     4  10  23  45  63  97 136 172 220 272 333 393
#     4  12  24  41  70 101 130 176 224 273 324 403
#     4  11  23  44  65  96 138 173 214 280 332 391
#     4  11  22  42  66  93 132 170 218 270 333 384
#     4  10  22  45  68  93 137 174 213 276 335 390
#
# _framework density 23.547125000000001
#
# number of rings (size 3 to 8) (size 9 to 14) (size 15 to 20)
#    0.000    1.250    5.000    2.625    0.000    5.000 
#    0.000    8.125    0.000    0.000    0.000    0.000 
#    0.000    0.000    0.000    0.000    0.000    0.000 
#
# Total GULP energy -178481.197966 kJ/mol
# GULP energy per Si atom -5577.537436 kJ/mol
# Density = 2.349353 g / cm^3
# Si number density = 23.547125 Si / 1000 Ang^3
#
#
#
# Elastic Constant Matrix: (Units=GPa)
#
#
# Indices 1 2 3 4 5 6 
#
# 1 99.6802 15.9324 6.0090 0.0000 2.5038 0.0000
# 2 15.9324 76.0542 4.6239 0.0000 -1.4511 0.0000
# 3 6.0090 4.6239 51.7555 0.0000 15.9278 0.0000
# 4 0.0000 0.0000 0.0000 1.6149 0.0000 17.7371
# 5 2.5038 -1.4511 15.9278 0.0000 27.5644 0.0000
# 6 0.0000 0.0000 0.0000 17.7371 0.0000 -7.9439
#
#
#
# Elastic Compliance Matrix: (Units=1/GPa)
#
#
# Indices 1 2 3 4 5 6 
#
# 1 0.010440 -0.002147 -0.000844 0.000000 -0.000574 0.000000
# 2 -0.002147 0.013726 -0.001532 0.000000 0.001803 0.000000
# 3 -0.000844 -0.001532 0.023788 0.000000 -0.013750 0.000000
# 4 0.000000 0.000000 0.000000 0.024261 0.000000 0.054170
# 5 -0.000574 0.001803 -0.013750 0.000000 0.044371 0.000000
# 6 0.000000 0.000000 0.000000 0.054170 0.000000 -0.004932
#
#
# Mechanical properties :
#
#
# Convention : Reuss Voigt Hill
#
# Bulk Modulus (GPa) = 25.70079 31.18007 28.44043
# Shear Modulus (GPa) = 37.40590 17.64205 27.52398
#
# Velocity S-wave (km/s) = 3.98999 2.74016 3.42261
# Velocity P-wave (km/s) = 5.67142 4.82510 5.26530
#
# Compressibility (1/GPa) = 0.03890931
#
# Stress axis : x y z
#
# Youngs Moduli (GPa) = 95.78091 72.85569 42.03814
#
# Poissons Ratio (x) = 0.15641 0.03547
# Poissons Ratio (y) = 0.20562 0.06440
# Poissons Ratio (z) = 0.08082 0.11160
#
# Static dielectric constant tensor:
#      x y z
#    x 1.886020 0.000000 -0.009650 
#    y 0.000000 2.284240 0.000000 
#    z -0.009650 0.000000 1.946460 
# 
# From -- ./inp_files/50649.got.cif
#   From: 2010.05.17/outbox.cif.g08.bks.cpg/sg14_26_cif.got.tgz:50649.got - 2010.06.03 17:49:19.
