data_PCOD9247600
_publ_section_title
;
Structure prediction by ZEFSAII (Michael W. Deem and Ramdas Pophale) SiO2 
 PCOD9247600
Probable space group: P 21/C
;
_chemical_formula_sum "Si O2"
_cell_formula_units_Z 32
_cell_length_a 22.793411
_cell_length_b 7.164927
_cell_length_c 30.856946
_cell_angle_alpha 90.000000
_cell_angle_beta 163.721682
_cell_angle_gamma 90.000000
_cell_volume 1412.545732
_symmetry_space_group_name_H-M "P 21/C"
_symmetry_group_IT_number 14
_symmetry_cell_setting 'monoclinic'
loop_
_space_group_symop_operation_xyz
x,y,z
-x,1/2+y,1/2-z
-x,-y,-z
x,1/2-y,1/2+z
loop_
_atom_site_type_symbol
_atom_site_label
_atom_site_fract_x
_atom_site_fract_y
_atom_site_fract_z
Si Si1 0.726605 0.128001 0.567894
Si Si2 0.276929 0.774964 0.067420
Si Si3 0.454271 0.679012 0.918076
Si Si4 0.290395 0.425942 0.025896
Si Si5 0.400594 0.060270 0.827933
Si Si6 0.430138 0.596161 0.261919
Si Si7 0.896482 0.273881 0.775346
Si Si8 0.797204 0.690060 0.726597
O O1 0.611408 0.317198 0.471958
O O2 0.870773 0.175697 0.710828
O O3 0.543711 0.991561 0.454769
O O4 0.825404 0.012271 0.598297
O O5 0.379820 0.608222 0.112109
O O6 0.299742 0.702863 0.132737
O O7 0.403998 0.959070 0.144513
O O8 0.027420 0.774312 0.880669
O O9 0.220475 0.657787 0.770925
O O10 0.454878 0.867806 0.890765
O O11 0.609375 0.705775 0.069064
O O12 0.449481 0.263874 0.128382
O O13 0.135499 0.328887 0.950384
O O14 0.317943 0.016895 0.721053
O O15 0.250976 0.164426 0.756521
O O16 0.790750 0.479174 0.702136
#
# Coordination Sequence:
#
# PCOD9247600 Si02
#       8
#     4   4   4   4   4   4   4   4
#     4  12  22  36  64  96 129 169 206 245 316 379
#     4  11  25  43  70  88 119 169 217 261 319 370
#     4  11  21  40  63  93 133 170 201 250 313 378
#     4  11  25  40  61  97 125 169 214 255 314 375
#     4  11  22  40  65  93 132 164 202 265 311 368
#     4  12  24  45  67  87 126 164 214 273 312 364
#     4  10  22  39  60  92 136 165 206 247 306 379
#     4  10  22  42  64  95 129 167 208 250 316 376
#
# _framework density 22.654133999999999
#
# number of rings (size 3 to 8) (size 9 to 14) (size 15 to 20)
#    0.000    1.000    6.250    1.125    1.750    3.500 
#    0.000    0.000    0.000    1.500    0.000    0.000 
#    0.000    0.000    0.000    0.000    0.000    0.000 
#
# Total GULP energy -178661.321328 kJ/mol
# GULP energy per Si atom -5583.166292 kJ/mol
# Density = 2.260257 g / cm^3
# Si number density = 22.654134 Si / 1000 Ang^3
#
#
#
# Elastic Constant Matrix: (Units=GPa)
#
#
# Indices 1 2 3 4 5 6 
#
# 1 115.4046 21.7008 14.6212 0.0000 -6.3425 0.0000
# 2 21.7008 87.2725 19.7905 0.0000 0.7388 0.0000
# 3 14.6212 19.7905 30.2756 0.0000 4.3643 0.0000
# 4 0.0000 0.0000 0.0000 24.9070 0.0000 -0.1723
# 5 -6.3425 0.7388 4.3643 0.0000 22.9221 0.0000
# 6 0.0000 0.0000 0.0000 -0.1723 0.0000 40.2549
#
#
#
# Elastic Compliance Matrix: (Units=1/GPa)
#
#
# Indices 1 2 3 4 5 6 
#
# 1 0.009671 -0.001480 -0.004211 0.000000 0.003525 0.000000
# 2 -0.001480 0.013715 -0.008357 0.000000 0.000740 0.000000
# 3 -0.004211 -0.008357 0.041803 0.000000 -0.008855 0.000000
# 4 0.000000 0.000000 0.000000 0.040151 0.000000 0.000172
# 5 0.003525 0.000740 -0.008855 0.000000 0.046264 0.000000
# 6 0.000000 0.000000 0.000000 0.000172 0.000000 0.024842
#
#
# Mechanical properties :
#
#
# Convention : Reuss Voigt Hill
#
# Bulk Modulus (GPa) = 26.95965 38.35306 32.65635
# Shear Modulus (GPa) = 23.05141 29.40616 26.22878
#
# Velocity S-wave (km/s) = 3.19335 3.60675 3.40633
# Velocity P-wave (km/s) = 5.05203 5.85760 5.46966
#
# Compressibility (1/GPa) = 0.03709248
#
# Stress axis : x y z
#
# Youngs Moduli (GPa) = 103.40535 72.91197 23.92157
#
# Poissons Ratio (x) = 0.10787 0.10074
# Poissons Ratio (y) = 0.15299 0.19992
# Poissons Ratio (z) = 0.43548 0.60936
#
# Static dielectric constant tensor:
#      x y z
#    x 1.892900 0.000000 0.007900 
#    y 0.000000 1.865880 0.000000 
#    z 0.007900 0.000000 1.829230 
# 
# From -- ./inp_files/80531.got.cif
#   From: 2010.05.17/outbox.cif.g08.bks.cpg/sg14_41_cif.got.tgz:80531.got - 2010.06.03 17:49:19.
