data_PCOD9247666
_publ_section_title
;
Structure prediction by ZEFSAII (Michael W. Deem and Ramdas Pophale) SiO2 
 PCOD9247666
Probable space group: P 21/C
;
_chemical_formula_sum "Si O2"
_cell_formula_units_Z 24
_cell_length_a 13.900739
_cell_length_b 7.735837
_cell_length_c 14.048996
_cell_angle_alpha 90.000000
_cell_angle_beta 138.871011
_cell_angle_gamma 90.000000
_cell_volume 993.700687
_symmetry_space_group_name_H-M "P 21/C"
_symmetry_group_IT_number 14
_symmetry_cell_setting 'monoclinic'
loop_
_space_group_symop_operation_xyz
x,y,z
-x,1/2+y,1/2-z
-x,-y,-z
x,1/2-y,1/2+z
loop_
_atom_site_type_symbol
_atom_site_label
_atom_site_fract_x
_atom_site_fract_y
_atom_site_fract_z
Si Si1 0.448882 0.657333 0.394877
Si Si2 0.424477 0.871100 0.551254
Si Si3 0.122115 0.976921 0.379437
Si Si4 0.110193 0.835018 0.570738
Si Si5 0.391853 0.981422 0.151458
Si Si6 0.086520 0.358462 0.434418
O O1 0.500000 0.500000 0.500000
O O2 0.479804 0.814656 0.489450
O O3 0.275174 0.645444 0.236805
O O4 0.545514 0.626337 0.373830
O O5 0.262164 0.941872 0.420065
O O6 0.514617 0.001968 0.683372
O O7 0.410008 0.695545 0.605929
O O8 0.122720 0.838132 0.465957
O O9 0.985210 0.951971 0.209493
O O10 0.129564 0.166560 0.429878
O O11 0.026216 0.682447 0.563843
O O12 0.000000 0.000000 0.500000
O O13 0.230625 0.034407 0.064590
#
# Coordination Sequence:
#
# PCOD9247666 Si02
#       6
#     4   4   4   4   4   4
#     4  10  22  39  64  90 124 169 211 247 308 387
#     4  11  22  42  65  90 128 160 211 259 307 374
#     4  11  22  42  65  90 128 160 211 259 307 374
#     4  10  22  39  64  90 124 169 211 247 308 387
#     4  11  24  40  64  94 123 166 209 255 314 366
#     4  11  24  40  64  94 123 166 209 255 314 366
#
# _framework density 24.152139999999999
#
# number of rings (size 3 to 8) (size 9 to 14) (size 15 to 20)
#    0.000    1.333    3.333    2.000   14.000    0.000 
#    0.000   10.000    0.000    0.000    0.000    0.000 
#    0.000    0.000    0.000    0.000    0.000    0.000 
#
# Total GULP energy -134197.551471 kJ/mol
# GULP energy per Si atom -5591.564645 kJ/mol
# Density = 2.409717 g / cm^3
# Si number density = 24.152140 Si / 1000 Ang^3
#
#
#
# Elastic Constant Matrix: (Units=GPa)
#
#
# Indices 1 2 3 4 5 6 
#
# 1 102.8191 1.4200 17.0109 0.0000 -1.6225 0.0000
# 2 1.4200 100.4529 10.6056 0.0000 3.5850 0.0000
# 3 17.0109 10.6056 85.8359 0.0000 3.6547 0.0000
# 4 0.0000 0.0000 0.0000 -0.5077 0.0000 -5.3683
# 5 -1.6225 3.5850 3.6547 0.0000 39.3686 0.0000
# 6 0.0000 0.0000 0.0000 -5.3683 0.0000 31.9328
#
#
#
# Elastic Compliance Matrix: (Units=1/GPa)
#
#
# Indices 1 2 3 4 5 6 
#
# 1 0.010070 0.000050 -0.002027 0.000000 0.000599 0.000000
# 2 0.000050 0.010112 -0.001225 0.000000 -0.000805 0.000000
# 3 -0.002027 -0.001225 0.012251 0.000000 -0.001109 0.000000
# 4 0.000000 0.000000 0.000000 -0.709116 0.000000 -0.119212
# 5 0.000599 -0.000805 -0.001109 0.000000 0.025602 0.000000
# 6 0.000000 0.000000 0.000000 -0.119212 0.000000 0.011275
#
#
# Mechanical properties :
#
#
# Convention : Reuss Voigt Hill
#
# Bulk Modulus (GPa) = 38.41952 38.57566 38.49759
# Shear Modulus (GPa) = -8.00351 31.49683 11.74666
#
# Velocity S-wave (km/s) = -1.82236 3.61515 2.20775
# Velocity P-wave (km/s) = 3.39321 5.78207 4.74058
#
# Compressibility (1/GPa) = 0.02602843
#
# Stress axis : x y z
#
# Youngs Moduli (GPa) = 99.30499 98.88970 81.62920
#
# Poissons Ratio (x) = -0.00498 0.16549
# Poissons Ratio (y) = -0.00500 0.10001
# Poissons Ratio (z) = 0.20133 0.12115
#
# Static dielectric constant tensor:
#      x y z
#    x 1.883740 0.000000 0.004050 
#    y 0.000000 2.133430 0.000000 
#    z 0.004050 0.000000 1.831480 
# 
# From -- ./inp_files/15070.got.cif
#   From: 2010.05.17/outbox.cif.g08.bks.cpg/sg14_8_cif.got.tgz:15070.got - 2010.06.03 17:49:19.
