data_PCOD9247301
_publ_section_title
;
Structure prediction by ZEFSAII (Michael W. Deem and Ramdas Pophale) SiO2 
 PCOD9247301
Probable space group: P 21/C
;
_chemical_formula_sum "Si O2"
_cell_formula_units_Z 20
_cell_length_a 7.153112
_cell_length_b 5.535580
_cell_length_c 20.390410
_cell_angle_alpha 90.000000
_cell_angle_beta 120.769512
_cell_angle_gamma 90.000000
_cell_volume 693.736716
_symmetry_space_group_name_H-M "P 21/C"
_symmetry_group_IT_number 14
_symmetry_cell_setting 'monoclinic'
loop_
_space_group_symop_operation_xyz
x,y,z
-x,1/2+y,1/2-z
-x,-y,-z
x,1/2-y,1/2+z
loop_
_atom_site_type_symbol
_atom_site_label
_atom_site_fract_x
_atom_site_fract_y
_atom_site_fract_z
Si Si1 0.886866 0.251239 0.456582
Si Si2 0.520170 0.599909 0.919357
Si Si3 0.288143 0.354775 0.282379
Si Si4 0.687057 0.158651 0.756388
Si Si5 0.794605 0.767140 0.587921
O O1 0.648600 0.160436 0.435308
O O2 0.000000 0.500000 0.500000
O O3 0.961857 0.271048 0.394446
O O4 0.000000 0.000000 0.500000
O O5 0.486938 0.678058 0.838726
O O6 0.284537 0.537016 0.906825
O O7 0.645171 0.764188 0.994793
O O8 0.186175 0.594898 0.235048
O O9 0.528872 0.352488 0.290890
O O10 0.257605 0.372966 0.355065
O O11 0.204013 0.097645 0.240497
#
# Coordination Sequence:
#
# PCOD9247301 Si02
#       5
#     4   4   4   4   4
#     4  10  22  36  52  80 113 138 172 224 271 314
#     4   9  19  35  57  81 107 143 182 220 268 323
#     4   9  18  32  52  78 106 139 179 222 268 316
#     4   9  18  32  52  78 107 140 178 221 268 317
#     4   9  19  34  57  81 107 142 181 221 267 322
#
# _framework density 28.82938
#
# number of rings (size 3 to 8) (size 9 to 14) (size 15 to 20)
#    0.000    2.800    0.000    0.000    0.000   16.000 
#    0.000    0.000    0.000   24.000    0.000    0.000 
#    0.000    0.000    0.000    0.000    0.000    0.000 
#
# Total GULP energy -111444.591177 kJ/mol
# GULP energy per Si atom -5572.229559 kJ/mol
# Density = 2.876376 g / cm^3
# Si number density = 28.829380 Si / 1000 Ang^3
#
#
#
# Elastic Constant Matrix: (Units=GPa)
#
#
# Indices 1 2 3 4 5 6 
#
# 1 165.6485 23.1810 17.5753 0.0000 -36.9373 0.0000
# 2 23.1810 211.0611 40.6589 0.0000 -13.6849 0.0000
# 3 17.5753 40.6589 148.0719 0.0000 -56.4049 0.0000
# 4 0.0000 0.0000 0.0000 60.8511 0.0000 -17.1081
# 5 -36.9373 -13.6849 -56.4049 0.0000 48.8221 0.0000
# 6 0.0000 0.0000 0.0000 -17.1081 0.0000 17.6322
#
#
#
# Elastic Compliance Matrix: (Units=1/GPa)
#
#
# Indices 1 2 3 4 5 6 
#
# 1 0.007811 -0.000796 0.002603 0.000000 0.008693 0.000000
# 2 -0.000796 0.005087 -0.001765 0.000000 -0.001216 0.000000
# 3 0.002603 -0.001765 0.013379 0.000000 0.016931 0.000000
# 4 0.000000 0.000000 0.000000 0.022598 0.000000 0.021927
# 5 0.008693 -0.001216 0.016931 0.000000 0.046280 0.000000
# 6 0.000000 0.000000 0.000000 0.021927 0.000000 0.077989
#
#
# Mechanical properties :
#
#
# Convention : Reuss Voigt Hill
#
# Bulk Modulus (GPa) = 37.93619 76.40130 57.16875
# Shear Modulus (GPa) = 27.49575 55.01885 41.25730
#
# Velocity S-wave (km/s) = 3.09162 4.37330 3.78707
# Velocity P-wave (km/s) = 5.09231 7.21524 6.24465
#
# Compressibility (1/GPa) = 0.02636005
#
# Stress axis : x y z
#
# Youngs Moduli (GPa) = 128.03166 196.59468 74.74455
#
# Poissons Ratio (x) = 0.15641 -0.19456
# Poissons Ratio (y) = 0.10186 0.13195
# Poissons Ratio (z) = -0.33327 0.34707
#
# Static dielectric constant tensor:
#      x y z
#    x 2.299570 0.000000 0.105330 
#    y 0.000000 2.110500 0.000000 
#    z 0.105330 0.000000 2.547540 
# 
# From -- ./inp_files/71472.got.cif
#   From: 2010.05.17/outbox.cif.g08.bks.cpg/sg14_36_cif.got.tgz:71472.got - 2010.06.03 17:49:19.
