data_PCOD9247542
_publ_section_title
;
Structure prediction by ZEFSAII (Michael W. Deem and Ramdas Pophale) SiO2 
 PCOD9247542
Probable space group: P 21/C
;
_chemical_formula_sum "Si O2"
_cell_formula_units_Z 28
_cell_length_a 5.256122
_cell_length_b 9.463652
_cell_length_c 27.267941
_cell_angle_alpha 90.000000
_cell_angle_beta 118.105960
_cell_angle_gamma 90.000000
_cell_volume 1196.419462
_symmetry_space_group_name_H-M "P 21/C"
_symmetry_group_IT_number 14
_symmetry_cell_setting 'monoclinic'
loop_
_space_group_symop_operation_xyz
x,y,z
-x,1/2+y,1/2-z
-x,-y,-z
x,1/2-y,1/2+z
loop_
_atom_site_type_symbol
_atom_site_label
_atom_site_fract_x
_atom_site_fract_y
_atom_site_fract_z
Si Si1 0.686552 0.882243 0.609530
Si Si2 0.651052 0.298346 0.825977
Si Si3 0.136920 0.392739 0.473721
Si Si4 0.849030 0.351828 0.997666
Si Si5 0.447917 0.095179 0.731376
Si Si6 0.772643 0.355539 0.575097
Si Si7 0.218215 0.824142 0.333588
O O1 0.542260 0.803819 0.642807
O O2 0.491783 0.864804 0.543706
O O3 0.015797 0.836421 0.634428
O O4 0.671955 0.046580 0.622807
O O5 0.612549 0.152469 0.793694
O O6 0.540725 0.429139 0.781168
O O7 0.459028 0.365280 0.521602
O O8 0.114700 0.484874 0.422576
O O9 0.000000 0.500000 0.500000
O O10 0.960265 0.252738 0.465661
O O11 0.918326 0.270729 0.055294
O O12 0.000000 0.500000 0.000000
O O13 0.589891 0.174364 0.697511
O O14 0.114425 0.139728 0.707769
O O15 0.763460 0.311895 0.630391
#
# Coordination Sequence:
#
# PCOD9247542 Si02
#       7
#     4   4   4   4   4   4   4
#     4  10  23  39  64  95 130 165 208 273 321 381
#     4  10  22  44  64  89 129 160 213 273 325 378
#     4   9  21  40  57  84 130 169 209 260 315 364
#     4  11  24  37  66  96 131 174 223 260 332 394
#     4  10  22  42  66  93 120 164 212 265 328 382
#     4  10  22  40  62  89 132 172 212 269 311 393
#     4  10  22  38  67  93 124 168 213 255 325 391
#
# _framework density 23.403165999999999
#
# number of rings (size 3 to 8) (size 9 to 14) (size 15 to 20)
#    0.000    2.000    0.000    1.714   12.000    1.143 
#    2.571    0.000    0.000    0.000    0.000    0.000 
#    0.000    0.000    0.000    0.000    0.000    0.000 
#
# Total GULP energy -156543.486824 kJ/mol
# GULP energy per Si atom -5590.838815 kJ/mol
# Density = 2.334990 g / cm^3
# Si number density = 23.403166 Si / 1000 Ang^3
#
#
#
# Elastic Constant Matrix: (Units=GPa)
#
#
# Indices 1 2 3 4 5 6 
#
# 1 84.6538 21.3822 -0.9582 0.0000 -12.7313 0.0000
# 2 21.3822 78.7384 17.4895 0.0000 -5.6852 0.0000
# 3 -0.9582 17.4895 34.0509 0.0000 -3.3875 0.0000
# 4 0.0000 0.0000 0.0000 33.4132 0.0000 -8.1250
# 5 -12.7313 -5.6852 -3.3875 0.0000 23.5607 0.0000
# 6 0.0000 0.0000 0.0000 -8.1250 0.0000 33.3554
#
#
#
# Elastic Compliance Matrix: (Units=1/GPa)
#
#
# Indices 1 2 3 4 5 6 
#
# 1 0.013903 -0.003964 0.003124 0.000000 0.007005 0.000000
# 2 -0.003964 0.015605 -0.008081 0.000000 0.000462 0.000000
# 3 0.003124 -0.008081 0.034067 0.000000 0.004636 0.000000
# 4 0.000000 0.000000 0.000000 0.031813 0.000000 0.007749
# 5 0.007005 0.000462 0.004636 0.000000 0.047007 0.000000
# 6 0.000000 0.000000 0.000000 0.007749 0.000000 0.031868
#
#
# Mechanical properties :
#
#
# Convention : Reuss Voigt Hill
#
# Bulk Modulus (GPa) = 21.86534 30.36337 26.11435
# Shear Modulus (GPa) = 24.11405 28.70116 26.40761
#
# Velocity S-wave (km/s) = 3.21343 3.50577 3.36278
# Velocity P-wave (km/s) = 4.80951 5.42120 5.12449
#
# Compressibility (1/GPa) = 0.04573449
#
# Stress axis : x y z
#
# Youngs Moduli (GPa) = 71.92764 64.08249 29.35356
#
# Poissons Ratio (x) = 0.25399 -0.09170
# Poissons Ratio (y) = 0.28509 0.23720
# Poissons Ratio (z) = -0.22470 0.51783
#
# Static dielectric constant tensor:
#      x y z
#    x 1.920230 0.000000 -0.013080 
#    y 0.000000 1.859110 0.000000 
#    z -0.013080 0.000000 1.842990 
# 
# From -- ./inp_files/78870.got.cif
#   From: 2010.05.17/outbox.cif.g08.bks.cpg/sg14_40_cif.got.tgz:78870.got - 2010.06.03 17:49:19.
