data_PCOD9247610
_publ_section_title
;
Structure prediction by ZEFSAII (Michael W. Deem and Ramdas Pophale) SiO2 
 PCOD9247610
Probable space group: P 21/C
;
_chemical_formula_sum "Si O2"
_cell_formula_units_Z 24
_cell_length_a 12.223260
_cell_length_b 21.065919
_cell_length_c 9.350850
_cell_angle_alpha 90.000000
_cell_angle_beta 150.065273
_cell_angle_gamma 90.000000
_cell_volume 1201.518535
_symmetry_space_group_name_H-M "P 21/C"
_symmetry_group_IT_number 14
_symmetry_cell_setting 'monoclinic'
loop_
_space_group_symop_operation_xyz
x,y,z
-x,1/2+y,1/2-z
-x,-y,-z
x,1/2-y,1/2+z
loop_
_atom_site_type_symbol
_atom_site_label
_atom_site_fract_x
_atom_site_fract_y
_atom_site_fract_z
Si Si1 0.819825 0.862455 0.710803
Si Si2 0.039019 0.589170 0.175338
Si Si3 0.331526 0.030865 0.924447
Si Si4 0.244991 0.808593 0.246852
Si Si5 0.470078 0.068279 0.392587
Si Si6 0.619052 0.302820 0.411936
O O1 0.729051 0.902709 0.740208
O O2 0.615538 0.833136 0.391634
O O3 0.954553 0.900719 0.741872
O O4 0.983852 0.811436 0.966878
O O5 0.177374 0.525170 0.311128
O O6 0.208927 0.645609 0.330746
O O7 0.825826 0.580994 0.834154
O O8 0.440507 0.059866 0.189454
O O9 0.500000 0.000000 0.000000
O O10 0.338369 0.879922 0.368228
O O11 0.282723 0.785668 0.129714
O O12 0.379208 0.760555 0.495511
O O13 0.500000 0.000000 0.500000
#
# Coordination Sequence:
#
# PCOD9247610 Si02
#       6
#     4   4   4   4   4   4
#     4  10  22  42  62  86 122 160 203 253 306 369
#     4  10  22  39  61  88 122 163 201 253 313 368
#     4  11  23  38  61  94 125 160 207 256 312 369
#     4  10  24  39  62  91 119 165 207 252 317 377
#     4  11  23  40  63  92 125 162 208 260 314 372
#     4  10  22  40  59  87 123 158 203 254 309 371
#
# _framework density 19.974723000000001
#
# number of rings (size 3 to 8) (size 9 to 14) (size 15 to 20)
#    0.000    1.667    0.000    5.000    0.000   16.000 
#    0.000    0.000    0.000    0.000    0.000    0.000 
#    0.000    0.000    0.000    0.000    0.000    0.000 
#
# Total GULP energy -133850.787527 kJ/mol
# GULP energy per Si atom -5577.116147 kJ/mol
# Density = 1.992926 g / cm^3
# Si number density = 19.974723 Si / 1000 Ang^3
#
#
#
# Elastic Constant Matrix: (Units=GPa)
#
#
# Indices 1 2 3 4 5 6 
#
# 1 61.9617 -0.4221 2.8379 0.0000 1.2004 0.0000
# 2 -0.4221 18.2123 -50.5627 0.0000 -7.3017 0.0000
# 3 2.8379 -50.5627 -37.6015 0.0000 -8.7322 0.0000
# 4 0.0000 0.0000 0.0000 23.1299 0.0000 -14.5686
# 5 1.2004 -7.3017 -8.7322 0.0000 38.3750 0.0000
# 6 0.0000 0.0000 0.0000 -14.5686 0.0000 12.9866
#
#
#
# Elastic Compliance Matrix: (Units=1/GPa)
#
#
# Indices 1 2 3 4 5 6 
#
# 1 0.016141 0.000809 0.000201 0.000000 -0.000305 0.000000
# 2 0.000809 0.011707 -0.015380 0.000000 -0.001298 0.000000
# 3 0.000201 -0.015380 -0.004955 0.000000 -0.004060 0.000000
# 4 0.000000 0.000000 0.000000 0.147349 0.000000 0.165298
# 5 -0.000305 -0.001298 -0.004060 0.000000 0.024897 0.000000
# 6 0.000000 0.000000 0.000000 0.165298 0.000000 0.262437
#
#
# Mechanical properties :
#
#
# Convention : Reuss Voigt Hill
#
# Bulk Modulus (GPa) = -171.03993 -5.96905 -88.50449
# Shear Modulus (GPa) = 10.32275 20.94627 15.63451
#
# Velocity S-wave (km/s) = 2.27577 3.24178 2.80074
# Velocity P-wave (km/s) = 8.88305 3.31925 5.82628
#
# Compressibility (1/GPa) = -0.00584659
#
# Stress axis : x y z
#
# Youngs Moduli (GPa) = 61.95311 85.41882 -201.81166
#
# Poissons Ratio (x) = -0.06913 0.04053
# Poissons Ratio (y) = -0.05014 -3.10387
# Poissons Ratio (z) = -0.01244 1.31374
#
# Static dielectric constant tensor:
#      x y z
#    x 1.618220 0.000000 0.024090 
#    y 0.000000 2.002060 0.000000 
#    z 0.024090 0.000000 1.751790 
# 
# From -- ./inp_files/14568.got.cif
#   From: 2010.05.17/outbox.cif.g08.bks.cpg/sg14_8_cif.got.tgz:14568.got - 2010.06.03 17:49:19.
