data_PCOD9247154
_publ_section_title
;
Structure prediction by ZEFSAII (Michael W. Deem and Ramdas Pophale) SiO2 
 PCOD9247154
Probable space group: P 21/C
;
_chemical_formula_sum "Si O2"
_cell_formula_units_Z 26
_cell_length_a 10.427353
_cell_length_b 4.647621
_cell_length_c 22.905719
_cell_angle_alpha 90.000000
_cell_angle_beta 124.704495
_cell_angle_gamma 90.000000
_cell_volume 912.584376
_symmetry_space_group_name_H-M "P 21/C"
_symmetry_group_IT_number 14
_symmetry_cell_setting 'monoclinic'
loop_
_space_group_symop_operation_xyz
x,y,z
-x,1/2+y,1/2-z
-x,-y,-z
x,1/2-y,1/2+z
loop_
_atom_site_type_symbol
_atom_site_label
_atom_site_fract_x
_atom_site_fract_y
_atom_site_fract_z
Si Si1 0.733831 0.962493 0.557127
Si Si2 0.907014 0.715294 0.751840
Si Si3 0.000000 0.500000 0.500000
Si Si4 0.611258 0.935901 0.786342
Si Si5 0.324132 0.240831 0.573054
Si Si6 0.636265 0.497361 0.603914
Si Si7 0.083498 0.802421 0.642455
O O1 0.705590 0.011768 0.481382
O O2 0.604384 0.744193 0.548177
O O3 0.896317 0.787550 0.608148
O O4 0.728797 0.243740 0.594932
O O5 0.743209 0.648343 0.679973
O O6 0.896715 0.599648 0.815666
O O7 0.964724 0.033591 0.752537
O O8 0.172245 0.431572 0.523784
O O9 0.071695 0.743818 0.569611
O O10 0.505714 0.698416 0.725293
O O11 0.668352 0.737885 0.855324
O O12 0.762716 0.110454 0.800955
O O13 0.486775 0.372340 0.596082
#
# Coordination Sequence:
#
# PCOD9247154 Si02
#       7
#     4   4   2   4   4   4   4
#     4  11  24  42  68 102 140 183 231 293 360 430
#     4  12  23  40  65 101 140 180 226 288 360 426
#     4   8  20  44  72  98 136 194 232 298 342 422
#     4  11  26  45  69 100 135 189 239 298 353 420
#     4  10  23  44  70 101 139 185 241 294 357 422
#     4  12  23  41  67 104 139 185 229 292 360 431
#     4  10  21  44  69  98 142 178 241 284 358 426
#
# _framework density 28.490513
#
# number of rings (size 3 to 8) (size 9 to 14) (size 15 to 20)
#    0.000    1.231    3.077    1.846    0.000    7.385 
#    0.000    0.000    0.000   18.462    0.000    0.000 
#    0.000    0.000    0.000    0.000    0.000    0.000 
#
# Total GULP energy -144766.006342 kJ/mol
# GULP energy per Si atom -5567.923321 kJ/mol
# Density = 2.842567 g / cm^3
# Si number density = 28.490513 Si / 1000 Ang^3
#
#
#
# Elastic Constant Matrix: (Units=GPa)
#
#
# Indices 1 2 3 4 5 6 
#
# 1 146.4514 38.0942 48.9719 0.0000 4.3449 0.0000
# 2 38.0942 107.7481 19.0475 0.0000 -0.0411 0.0000
# 3 48.9719 19.0475 74.6252 0.0000 19.9016 0.0000
# 4 0.0000 0.0000 0.0000 27.6212 0.0000 -2.4832
# 5 4.3449 -0.0411 19.9016 0.0000 52.4948 0.0000
# 6 0.0000 0.0000 0.0000 -2.4832 0.0000 37.1199
#
#
#
# Elastic Compliance Matrix: (Units=1/GPa)
#
#
# Indices 1 2 3 4 5 6 
#
# 1 0.009366 -0.002256 -0.005967 0.000000 0.001485 0.000000
# 2 -0.002256 0.010316 -0.001340 0.000000 0.000703 0.000000
# 3 -0.005967 -0.001340 0.019498 0.000000 -0.006899 0.000000
# 4 0.000000 0.000000 0.000000 0.036423 0.000000 0.002437
# 5 0.001485 0.000703 -0.006899 0.000000 0.021543 0.000000
# 6 0.000000 0.000000 0.000000 0.002437 0.000000 0.027103
#
#
# Mechanical properties :
#
#
# Convention : Reuss Voigt Hill
#
# Bulk Modulus (GPa) = 49.86445 60.11687 54.99066
# Shear Modulus (GPa) = 33.32045 38.29461 35.80753
#
# Velocity S-wave (km/s) = 3.42355 3.67020 3.54902
# Velocity P-wave (km/s) = 5.75914 6.25355 6.01143
#
# Compressibility (1/GPa) = 0.02005437
#
# Stress axis : x y z
#
# Youngs Moduli (GPa) = 106.76732 96.93991 51.28804
#
# Poissons Ratio (x) = 0.21870 0.30602
# Poissons Ratio (y) = 0.24087 0.06872
# Poissons Ratio (z) = 0.63704 0.12989
#
# Static dielectric constant tensor:
#      x y z
#    x 2.207340 0.000000 -0.041550 
#    y 0.000000 2.232890 0.000000 
#    z -0.041550 0.000000 2.266870 
# 
# From -- ./inp_files/72793.got.cif
#   From: 2010.05.17/outbox.cif.g08.bks.cpg/sg14_37_cif.got.tgz:72793.got - 2010.06.03 17:49:19.
