data_PCOD9247080
_publ_section_title
;
Structure prediction by ZEFSAII (Michael W. Deem and Ramdas Pophale) SiO2 
 PCOD9247080
Probable space group: P 21/C
;
_chemical_formula_sum "Si O2"
_cell_formula_units_Z 32
_cell_length_a 18.226197
_cell_length_b 5.258939
_cell_length_c 13.671140
_cell_angle_alpha 90.000000
_cell_angle_beta 76.349880
_cell_angle_gamma 90.000000
_cell_volume 1273.373124
_symmetry_space_group_name_H-M "P 21/C"
_symmetry_group_IT_number 14
_symmetry_cell_setting 'monoclinic'
loop_
_space_group_symop_operation_xyz
x,y,z
-x,1/2+y,1/2-z
-x,-y,-z
x,1/2-y,1/2+z
loop_
_atom_site_type_symbol
_atom_site_label
_atom_site_fract_x
_atom_site_fract_y
_atom_site_fract_z
Si Si1 0.311130 0.502225 0.024011
Si Si2 0.537637 0.815918 0.571236
Si Si3 0.698280 0.390157 0.745109
Si Si4 0.076799 0.638186 0.501304
Si Si5 0.840402 0.092734 0.700608
Si Si6 0.043060 0.834534 0.703741
Si Si7 0.802148 0.782972 0.071856
Si Si8 0.426211 0.802302 0.859905
O O1 0.375233 0.288995 0.989492
O O2 0.298396 0.524249 0.143442
O O3 0.238351 0.428203 0.982979
O O4 0.356709 0.735551 0.958757
O O5 0.522063 0.527152 0.610256
O O6 0.500000 0.000000 0.500000
O O7 0.537371 0.021120 0.659198
O O8 0.750910 0.139453 0.729078
O O9 0.738245 0.564106 0.650604
O O10 0.614777 0.360163 0.729403
O O11 0.115977 0.745882 0.394074
O O12 0.055287 0.854292 0.584658
O O13 0.141672 0.441227 0.514452
O O14 0.000000 0.500000 0.500000
O O15 0.879437 0.206912 0.782749
O O16 0.850397 0.818019 0.650074
O O17 0.983816 0.605056 0.746410
#
# Coordination Sequence:
#
# PCOD9247080 Si02
#       8
#     4   4   4   4   4   4   4   4
#     4  10  24  40  70 101 142 184 229 290 351 408
#     4  10  21  43  72 101 143 188 223 280 342 405
#     4  11  23  43  65 104 133 186 229 289 347 416
#     4  11  25  45  65  92 135 176 227 292 357 416
#     4  11  25  41  66  92 129 176 227 282 349 414
#     4  12  28  45  68  95 129 172 226 284 351 424
#     4  11  24  43  68  97 137 177 237 291 353 419
#     4  10  21  44  66 102 144 173 228 285 329 405
#
# _framework density 25.130102999999998
#
# number of rings (size 3 to 8) (size 9 to 14) (size 15 to 20)
#    0.750    0.500    3.750    1.125    7.000    2.000 
#    0.000    1.250    0.000    0.000    0.000    0.000 
#    0.000    0.000    0.000    0.000    0.000    0.000 
#
# Total GULP energy -178390.183874 kJ/mol
# GULP energy per Si atom -5574.693246 kJ/mol
# Density = 2.507291 g / cm^3
# Si number density = 25.130103 Si / 1000 Ang^3
#
#
#
# Elastic Constant Matrix: (Units=GPa)
#
#
# Indices 1 2 3 4 5 6 
#
# 1 96.2399 16.2838 18.5367 0.0000 -1.6618 0.0000
# 2 16.2838 100.8599 8.7117 0.0000 -11.0774 0.0000
# 3 18.5367 8.7117 111.6568 0.0000 -0.5986 0.0000
# 4 0.0000 0.0000 0.0000 20.2174 0.0000 7.7914
# 5 -1.6618 -11.0774 -0.5986 0.0000 36.2892 0.0000
# 6 0.0000 0.0000 0.0000 7.7914 0.0000 25.8330
#
#
#
# Elastic Compliance Matrix: (Units=1/GPa)
#
#
# Indices 1 2 3 4 5 6 
#
# 1 0.010993 -0.001631 -0.001698 0.000000 -0.000022 0.000000
# 2 -0.001631 0.010570 -0.000537 0.000000 0.003143 0.000000
# 3 -0.001698 -0.000537 0.009279 0.000000 -0.000089 0.000000
# 4 0.000000 0.000000 0.000000 0.055968 0.000000 -0.016880
# 5 -0.000022 0.003143 -0.000089 0.000000 0.028513 0.000000
# 6 0.000000 0.000000 0.000000 -0.016880 0.000000 0.043801
#
#
# Mechanical properties :
#
#
# Convention : Reuss Voigt Hill
#
# Bulk Modulus (GPa) = 43.26984 43.98012 43.62498
# Shear Modulus (GPa) = 28.64353 34.14955 31.39654
#
# Velocity S-wave (km/s) = 3.37977 3.69034 3.53846
# Velocity P-wave (km/s) = 5.69966 5.97470 5.83880
#
# Compressibility (1/GPa) = 0.02311078
#
# Stress axis : x y z
#
# Youngs Moduli (GPa) = 90.96481 94.61117 107.76638
#
# Poissons Ratio (x) = 0.15428 0.18298
# Poissons Ratio (y) = 0.14833 0.05788
# Poissons Ratio (z) = 0.15445 0.05082
#
# Static dielectric constant tensor:
#      x y z
#    x 2.260860 0.000000 0.156280 
#    y 0.000000 1.985730 0.000000 
#    z 0.156280 0.000000 2.040370 
# 
# From -- ./inp_files/48162.got.cif
#   From: 2010.05.17/outbox.cif.g08.bks.cpg/sg14_25_cif.got.tgz:48162.got - 2010.06.03 17:49:19.
