data_PCOD9247121
_publ_section_title
;
Structure prediction by ZEFSAII (Michael W. Deem and Ramdas Pophale) SiO2 
 PCOD9247121
Probable space group: P 21/C
;
_chemical_formula_sum "Si O2"
_cell_formula_units_Z 16
_cell_length_a 5.059617
_cell_length_b 11.582317
_cell_length_c 10.845137
_cell_angle_alpha 90.000000
_cell_angle_beta 95.319861
_cell_angle_gamma 90.000000
_cell_volume 632.810127
_symmetry_space_group_name_H-M "P 21/C"
_symmetry_group_IT_number 14
_symmetry_cell_setting 'monoclinic'
loop_
_space_group_symop_operation_xyz
x,y,z
-x,1/2+y,1/2-z
-x,-y,-z
x,1/2-y,1/2+z
loop_
_atom_site_type_symbol
_atom_site_label
_atom_site_fract_x
_atom_site_fract_y
_atom_site_fract_z
Si Si1 0.997228 0.636790 0.016725
Si Si2 0.474318 0.212527 0.332811
Si Si3 0.286289 0.051481 0.897011
Si Si4 0.940988 0.653945 0.376358
O O1 0.230250 0.678985 0.118227
O O2 0.711448 0.667488 0.062871
O O3 0.000000 0.500000 0.000000
O O4 0.040474 0.714154 0.894352
O O5 0.427167 0.350624 0.322599
O O6 0.336824 0.157830 0.206916
O O7 0.087643 0.117243 0.981948
O O8 0.123700 0.947281 0.830353
O O9 0.500000 0.000000 0.000000
#
# Coordination Sequence:
#
# PCOD9247121 Si02
#       4
#     4   4   4   4
#     4  11  25  45  62 100 138 166 220 281 327 394
#     4  11  25  41  69  98 126 183 219 265 346 391
#     4  10  21  44  66  92 137 172 228 279 322 402
#     4  10  24  41  67  97 131 179 224 276 333 400
#
# _framework density 25.284044999999999
#
# number of rings (size 3 to 8) (size 9 to 14) (size 15 to 20)
#    0.000    1.500    2.500    0.750    7.000    0.000 
#    0.000    0.000    0.000    0.000    0.000    0.000 
#    0.000    0.000    0.000    0.000    0.000    0.000 
#
# Total GULP energy -89461.817056 kJ/mol
# GULP energy per Si atom -5591.363566 kJ/mol
# Density = 2.522650 g / cm^3
# Si number density = 25.284045 Si / 1000 Ang^3
#
#
#
# Elastic Constant Matrix: (Units=GPa)
#
#
# Indices 1 2 3 4 5 6 
#
# 1 57.3975 27.4319 10.4391 0.0000 23.6785 0.0000
# 2 27.4319 178.3404 31.4457 0.0000 16.8626 0.0000
# 3 10.4391 31.4457 83.3895 0.0000 33.9368 0.0000
# 4 0.0000 0.0000 0.0000 43.5948 0.0000 7.8674
# 5 23.6785 16.8626 33.9368 0.0000 50.2422 0.0000
# 6 0.0000 0.0000 0.0000 7.8674 0.0000 38.1213
#
#
#
# Elastic Compliance Matrix: (Units=1/GPa)
#
#
# Indices 1 2 3 4 5 6 
#
# 1 0.023262 -0.002988 0.003128 0.000000 -0.012073 0.000000
# 2 -0.002988 0.006407 -0.002400 0.000000 0.000879 0.000000
# 3 0.003128 -0.002400 0.017621 0.000000 -0.012572 0.000000
# 4 0.000000 0.000000 0.000000 0.023826 0.000000 -0.004917
# 5 -0.012073 0.000879 -0.012572 0.000000 0.033790 0.000000
# 6 0.000000 0.000000 0.000000 -0.004917 0.000000 0.027247
#
#
# Mechanical properties :
#
#
# Convention : Reuss Voigt Hill
#
# Bulk Modulus (GPa) = 23.38013 50.86230 37.12122
# Shear Modulus (GPa) = 33.12801 43.04570 38.08686
#
# Velocity S-wave (km/s) = 3.62364 4.13059 3.88540
# Velocity P-wave (km/s) = 5.17443 6.55050 5.90271
#
# Compressibility (1/GPa) = 0.04277136
#
# Stress axis : x y z
#
# Youngs Moduli (GPa) = 42.98824 156.08189 56.74922
#
# Poissons Ratio (x) = 0.46639 -0.17752
# Poissons Ratio (y) = 0.12845 0.13617
# Poissons Ratio (z) = -0.13447 0.37453
#
# Static dielectric constant tensor:
#      x y z
#    x 2.028770 0.000000 -0.115630 
#    y 0.000000 2.104610 0.000000 
#    z -0.115630 0.000000 1.996190 
# 
# From -- ./inp_files/20210.got.cif
#   From: 2010.05.17/outbox.cif.g08.bks.cpg/sg14_11_cif.got.tgz:20210.got - 2010.06.03 17:49:19.
