data_PCOD9247772
_publ_section_title
;
Structure prediction by ZEFSAII (Michael W. Deem and Ramdas Pophale) SiO2 
 PCOD9247772
Probable space group: P 21/C
;
_chemical_formula_sum "Si O2"
_cell_formula_units_Z 20
_cell_length_a 8.276346
_cell_length_b 7.405762
_cell_length_c 18.530746
_cell_angle_alpha 90.000000
_cell_angle_beta 129.748057
_cell_angle_gamma 90.000000
_cell_volume 873.274032
_symmetry_space_group_name_H-M "P 21/C"
_symmetry_group_IT_number 14
_symmetry_cell_setting 'monoclinic'
loop_
_space_group_symop_operation_xyz
x,y,z
-x,1/2+y,1/2-z
-x,-y,-z
x,1/2-y,1/2+z
loop_
_atom_site_type_symbol
_atom_site_label
_atom_site_fract_x
_atom_site_fract_y
_atom_site_fract_z
Si Si1 0.186054 0.490530 0.751976
Si Si2 0.198385 0.766803 0.872474
Si Si3 0.459012 0.692421 0.072771
Si Si4 0.149844 0.614813 0.595386
Si Si5 0.097251 0.040975 0.449409
O O1 0.234757 0.675434 0.806571
O O2 0.307769 0.342071 0.834649
O O3 0.255286 0.498669 0.688736
O O4 0.942249 0.440637 0.678244
O O5 0.059766 0.617107 0.879509
O O6 0.399807 0.790523 0.981326
O O7 0.325675 0.791484 0.096562
O O8 0.346707 0.494331 0.030339
O O9 0.000000 0.500000 0.500000
O O10 0.002787 0.765057 0.593210
O O11 0.000000 0.000000 0.500000
#
# Coordination Sequence:
#
# PCOD9247772 Si02
#       5
#     4   4   4   4   4
#     4  12  22  39  66  92 121 169 206 245 318 365
#     4  10  22  40  60  89 129 156 204 262 301 365
#     4   9  22  40  62  85 125 160 204 254 301 369
#     4  11  20  38  62  89 123 159 209 257 297 364
#     4   8  17  37  58  80 124 160 188 255 302 342
#
# _framework density 22.902318999999999
#
# number of rings (size 3 to 8) (size 9 to 14) (size 15 to 20)
#    1.200    0.800    2.000    1.800    0.000    4.800 
#    0.000    3.000    0.000    0.000    0.000    0.000 
#    0.000    0.000    0.000    0.000    0.000    0.000 
#
# Total GULP energy -111405.499211 kJ/mol
# GULP energy per Si atom -5570.274961 kJ/mol
# Density = 2.285019 g / cm^3
# Si number density = 22.902319 Si / 1000 Ang^3
#
#
#
# Elastic Constant Matrix: (Units=GPa)
#
#
# Indices 1 2 3 4 5 6 
#
# 1 32.8357 -2.3826 21.4875 0.0000 -13.6966 0.0000
# 2 -2.3826 44.7004 17.0946 0.0000 -0.0127 0.0000
# 3 21.4875 17.0946 137.2598 0.0000 -34.0430 0.0000
# 4 0.0000 0.0000 0.0000 22.1554 0.0000 -6.1690
# 5 -13.6966 -0.0127 -34.0430 0.0000 25.2511 0.0000
# 6 0.0000 0.0000 0.0000 -6.1690 0.0000 43.9897
#
#
#
# Elastic Compliance Matrix: (Units=1/GPa)
#
#
# Indices 1 2 3 4 5 6 
#
# 1 0.039847 0.002836 -0.001848 0.000000 0.019123 0.000000
# 2 0.002836 0.024293 -0.004635 0.000000 -0.004698 0.000000
# 3 -0.001848 -0.004635 0.011873 0.000000 0.015002 0.000000
# 4 0.000000 0.000000 0.000000 0.046970 0.000000 0.006587
# 5 0.019123 -0.004698 0.015002 0.000000 0.070198 0.000000
# 6 0.000000 0.000000 0.000000 0.006587 0.000000 0.023656
#
#
# Mechanical properties :
#
#
# Convention : Reuss Voigt Hill
#
# Bulk Modulus (GPa) = 14.55193 31.91054 23.23124
# Shear Modulus (GPa) = 20.23991 30.18567 25.21279
#
# Velocity S-wave (km/s) = 2.97602 3.63439 3.32156
# Velocity P-wave (km/s) = 4.26340 5.61919 4.98758
#
# Compressibility (1/GPa) = 0.06871939
#
# Stress axis : x y z
#
# Youngs Moduli (GPa) = 25.09621 41.16340 84.22690
#
# Poissons Ratio (x) = -0.11674 0.15566
# Poissons Ratio (y) = -0.07117 0.39036
# Poissons Ratio (z) = 0.04638 0.19078
#
# Static dielectric constant tensor:
#      x y z
#    x 1.857670 0.000000 -0.014750 
#    y 0.000000 1.922570 0.000000 
#    z -0.014750 0.000000 1.871340 
# 
# From -- ./inp_files/64663.got.cif
#   From: 2010.05.17/outbox.cif.g08.bks.cpg/sg14_33_cif.got.tgz:64663.got - 2010.06.03 17:49:19.
