data_PCOD9247614
_publ_section_title
;
Structure prediction by ZEFSAII (Michael W. Deem and Ramdas Pophale) SiO2 
 PCOD9247614
Probable space group: P 21/C
;
_chemical_formula_sum "Si O2"
_cell_formula_units_Z 20
_cell_length_a 15.566257
_cell_length_b 11.099871
_cell_length_c 12.950895
_cell_angle_alpha 90.000000
_cell_angle_beta 152.274610
_cell_angle_gamma 90.000000
_cell_volume 1041.055027
_symmetry_space_group_name_H-M "P 21/C"
_symmetry_group_IT_number 14
_symmetry_cell_setting 'monoclinic'
loop_
_space_group_symop_operation_xyz
x,y,z
-x,1/2+y,1/2-z
-x,-y,-z
x,1/2-y,1/2+z
loop_
_atom_site_type_symbol
_atom_site_label
_atom_site_fract_x
_atom_site_fract_y
_atom_site_fract_z
Si Si1 0.004125 0.364745 0.967641
Si Si2 0.670136 0.776099 0.573116
Si Si3 0.819280 0.969327 0.875642
Si Si4 0.076710 0.235990 0.848011
Si Si5 0.253157 0.742270 0.654015
O O1 0.186751 0.306233 0.211465
O O2 0.021393 0.344545 0.864849
O O3 0.000000 0.500000 0.000000
O O4 0.826795 0.293485 0.823404
O O5 0.683649 0.902093 0.650396
O O6 0.759483 0.776718 0.554323
O O7 0.463755 0.726082 0.355378
O O8 0.755933 0.097181 0.852100
O O9 0.866644 0.875971 0.018477
O O10 0.000000 0.000000 0.000000
O O11 0.895960 0.209520 0.587063
#
# Coordination Sequence:
#
# PCOD9247614 Si02
#       5
#     4   4   4   4   4
#     4  10  23  42  62  84 130 161 192 250 312 359
#     4  10  23  40  62  97 119 157 210 252 303 368
#     4  11  20  44  66  86 128 167 200 257 312 368
#     4  10  22  39  61  89 124 156 210 251 304 356
#     4  11  23  41  66  92 120 163 208 251 307 365
#
# _framework density 19.211279999999999
#
# number of rings (size 3 to 8) (size 9 to 14) (size 15 to 20)
#    0.000    1.600    6.000    0.600    5.600    4.000 
#    7.200    0.000    0.000    0.000    0.000    0.000 
#    0.000    0.000    0.000    0.000    0.000    0.000 
#
# Total GULP energy -111565.484637 kJ/mol
# GULP energy per Si atom -5578.274232 kJ/mol
# Density = 1.916755 g / cm^3
# Si number density = 19.211280 Si / 1000 Ang^3
#
#
#
# Elastic Constant Matrix: (Units=GPa)
#
#
# Indices 1 2 3 4 5 6 
#
# 1 124.0071 11.7544 74.1186 0.0000 9.5189 0.0000
# 2 11.7544 76.4884 -0.5701 0.0000 -1.5869 0.0000
# 3 74.1186 -0.5701 68.7529 0.0000 26.3074 0.0000
# 4 0.0000 0.0000 0.0000 14.0705 0.0000 0.5932
# 5 9.5189 -1.5869 26.3074 0.0000 36.3686 0.0000
# 6 0.0000 0.0000 0.0000 0.5932 0.0000 24.9235
#
#
#
# Elastic Compliance Matrix: (Units=1/GPa)
#
#
# Indices 1 2 3 4 5 6 
#
# 1 0.034591 -0.005155 -0.046712 0.000000 0.024511 0.000000
# 2 -0.005155 0.013855 0.006810 0.000000 -0.002972 0.000000
# 3 -0.046712 0.006810 0.083193 0.000000 -0.047655 0.000000
# 4 0.000000 0.000000 0.000000 0.071142 0.000000 -0.001693
# 5 0.024511 -0.002972 -0.047655 0.000000 0.055423 0.000000
# 6 0.000000 0.000000 0.000000 -0.001693 0.000000 0.040163
#
#
# Mechanical properties :
#
#
# Convention : Reuss Voigt Hill
#
# Bulk Modulus (GPa) = 24.08217 48.87269 36.47743
# Shear Modulus (GPa) = 12.42784 27.33556 19.88170
#
# Velocity S-wave (km/s) = 2.54619 3.77622 3.22047
# Velocity P-wave (km/s) = 4.60508 6.67142 5.73213
#
# Compressibility (1/GPa) = 0.04152450
#
# Stress axis : x y z
#
# Youngs Moduli (GPa) = 28.90951 72.17492 12.02024
#
# Poissons Ratio (x) = 0.37209 0.56149
# Poissons Ratio (y) = 0.14904 -0.08186
# Poissons Ratio (z) = 1.35041 -0.49150
#
# Static dielectric constant tensor:
#      x y z
#    x 1.702980 0.000000 -0.026280 
#    y 0.000000 1.701280 0.000000 
#    z -0.026280 0.000000 1.669030 
# 
# From -- ./inp_files/32115.got.cif
#   From: 2010.05.17/outbox.cif.g08.bks.cpg/sg14_17_cif.got.tgz:32115.got - 2010.06.03 17:49:19.
