data_PCOD9247255
_publ_section_title
;
Structure prediction by ZEFSAII (Michael W. Deem and Ramdas Pophale) SiO2 
 PCOD9247255
Probable space group: P 21/C
;
_chemical_formula_sum "Si O2"
_cell_formula_units_Z 32
_cell_length_a 26.737774
_cell_length_b 9.432142
_cell_length_c 11.071812
_cell_angle_alpha 90.000000
_cell_angle_beta 152.223126
_cell_angle_gamma 90.000000
_cell_volume 1301.270994
_symmetry_space_group_name_H-M "P 21/C"
_symmetry_group_IT_number 14
_symmetry_cell_setting 'monoclinic'
loop_
_space_group_symop_operation_xyz
x,y,z
-x,1/2+y,1/2-z
-x,-y,-z
x,1/2-y,1/2+z
loop_
_atom_site_type_symbol
_atom_site_label
_atom_site_fract_x
_atom_site_fract_y
_atom_site_fract_z
Si Si1 0.658981 0.286518 0.468307
Si Si2 0.655280 0.879945 0.328439
Si Si3 0.182290 0.539248 0.662907
Si Si4 0.759776 0.684092 0.384597
Si Si5 0.033679 0.565853 0.698864
Si Si6 0.437164 0.847413 0.981793
Si Si7 0.049758 0.353994 0.061338
Si Si8 0.773468 0.559686 0.752542
O O1 0.595759 0.275959 0.461713
O O2 0.600890 0.231949 0.222910
O O3 0.687157 0.451061 0.518701
O O4 0.769678 0.194834 0.714419
O O5 0.762989 0.945003 0.614692
O O6 0.680038 0.730519 0.319483
O O7 0.615331 0.995925 0.144779
O O8 0.563371 0.871248 0.232528
O O9 0.233066 0.474481 0.649041
O O10 0.056746 0.500559 0.404113
O O11 0.883277 0.717104 0.686298
O O12 0.733005 0.795483 0.222979
O O13 0.023180 0.735420 0.657549
O O14 0.000000 0.500000 0.500000
O O15 0.152424 0.523853 0.992062
O O16 0.143408 0.398261 0.172040
O O17 0.000000 0.500000 0.000000
#
# Coordination Sequence:
#
# PCOD9247255 Si02
#       8
#     4   4   4   4   4   4   4   4
#     4  11  27  46  73 109 143 185 240 300 360 420
#     4  10  21  46  73  96 144 190 227 288 365 437
#     4  11  25  43  68 101 140 181 240 289 352 428
#     4  12  22  46  67  98 138 187 233 289 358 426
#     4  12  25  44  67  96 137 189 235 284 367 422
#     4  10  24  46  75 109 139 188 237 296 366 425
#     4  12  28  43  64 101 135 183 241 291 344 429
#     4  12  26  43  71  98 142 185 232 297 351 432
#
# _framework density 24.591342999999998
#
# number of rings (size 3 to 8) (size 9 to 14) (size 15 to 20)
#    0.000    0.750    5.000    0.750   10.500    0.000 
#    0.000    0.625    0.000    0.000    0.000    0.000 
#    0.000    0.000    0.000    0.000    0.000    0.000 
#
# Total GULP energy -179061.368643 kJ/mol
# GULP energy per Si atom -5595.667770 kJ/mol
# Density = 2.453537 g / cm^3
# Si number density = 24.591343 Si / 1000 Ang^3
#
#
#
# Elastic Constant Matrix: (Units=GPa)
#
#
# Indices 1 2 3 4 5 6 
#
# 1 102.2282 16.0541 1.6981 0.0000 -6.2372 0.0000
# 2 16.0541 98.0349 12.4640 0.0000 -6.1869 0.0000
# 3 1.6981 12.4640 74.8296 0.0000 -0.3718 0.0000
# 4 0.0000 0.0000 0.0000 31.2662 0.0000 -4.8853
# 5 -6.2372 -6.1869 -0.3718 0.0000 31.7090 0.0000
# 6 0.0000 0.0000 0.0000 -4.8853 0.0000 45.2987
#
#
#
# Elastic Compliance Matrix: (Units=1/GPa)
#
#
# Indices 1 2 3 4 5 6 
#
# 1 0.010129 -0.001557 0.000038 0.000000 0.001689 0.000000
# 2 -0.001557 0.010791 -0.001753 0.000000 0.001779 0.000000
# 3 0.000038 -0.001753 0.013654 0.000000 -0.000175 0.000000
# 4 0.000000 0.000000 0.000000 0.032532 0.000000 0.003508
# 5 0.001689 0.001779 -0.000175 0.000000 0.032214 0.000000
# 6 0.000000 0.000000 0.000000 0.003508 0.000000 0.022454
#
#
# Mechanical properties :
#
#
# Convention : Reuss Voigt Hill
#
# Bulk Modulus (GPa) = 35.67730 37.28059 36.47894
# Shear Modulus (GPa) = 36.32122 37.97990 37.15056
#
# Velocity S-wave (km/s) = 3.84734 3.93420 3.89101
# Velocity P-wave (km/s) = 5.85453 5.98583 5.92055
#
# Compressibility (1/GPa) = 0.02802903
#
# Stress axis : x y z
#
# Youngs Moduli (GPa) = 98.72682 92.67371 73.23870
#
# Poissons Ratio (x) = 0.14429 -0.00277
# Poissons Ratio (y) = 0.15371 0.12840
# Poissons Ratio (z) = -0.00374 0.16247
#
# Static dielectric constant tensor:
#      x y z
#    x 2.024070 0.000000 -0.086950 
#    y 0.000000 1.945690 0.000000 
#    z -0.086950 0.000000 1.998530 
# 
# From -- ./inp_files/36498.got.cif
#   From: 2010.05.17/outbox.cif.g08.bks.cpg/sg14_19_cif.got.tgz:36498.got - 2010.06.03 17:49:19.
