data_PCOD9247494
_publ_section_title
;
Structure prediction by ZEFSAII (Michael W. Deem and Ramdas Pophale) SiO2 
 PCOD9247494
Probable space group: P 21/C
;
_chemical_formula_sum "Si O2"
_cell_formula_units_Z 26
_cell_length_a 15.381955
_cell_length_b 6.722344
_cell_length_c 13.302478
_cell_angle_alpha 90.000000
_cell_angle_beta 128.971462
_cell_angle_gamma 90.000000
_cell_volume 1069.405693
_symmetry_space_group_name_H-M "P 21/C"
_symmetry_group_IT_number 14
_symmetry_cell_setting 'monoclinic'
loop_
_space_group_symop_operation_xyz
x,y,z
-x,1/2+y,1/2-z
-x,-y,-z
x,1/2-y,1/2+z
loop_
_atom_site_type_symbol
_atom_site_label
_atom_site_fract_x
_atom_site_fract_y
_atom_site_fract_z
Si Si1 0.297869 0.452669 0.982161
Si Si2 0.108412 0.117472 0.827352
Si Si3 0.370853 0.621480 0.827853
Si Si4 0.620372 0.719810 0.762259
Si Si5 0.818548 0.443653 0.830645
Si Si6 0.500000 0.500000 0.500000
Si Si7 0.119031 0.765045 0.430893
O O1 0.195654 0.296897 0.896871
O O2 0.354544 0.495398 0.918040
O O3 0.237430 0.652067 0.978027
O O4 0.378837 0.363056 0.124855
O O5 0.981908 0.185673 0.718554
O O6 0.139572 0.995743 0.749179
O O7 0.120904 0.973121 0.931898
O O8 0.383889 0.456967 0.751303
O O9 0.257731 0.747187 0.730180
O O10 0.457889 0.796377 0.911751
O O11 0.737984 0.627000 0.804776
O O12 0.526500 0.629295 0.622060
O O13 0.902172 0.382477 0.980789
#
# Coordination Sequence:
#
# PCOD9247494 Si02
#       7
#     4   4   4   4   4   2   4
#     4  11  23  40  65  94 130 179 217 276 330 395
#     4  12  21  40  59  92 131 173 229 275 324 390
#     4  11  21  44  67  95 129 167 217 270 345 403
#     4  10  22  43  65  93 130 166 216 267 339 406
#     4  10  22  38  63  90 129 174 214 275 335 392
#     4  10  24  44  68  96 130 164 208 284 330 420
#     4  11  23  38  59  93 131 174 229 273 324 387
#
# _framework density 24.312570999999998
#
# number of rings (size 3 to 8) (size 9 to 14) (size 15 to 20)
#    0.000    1.231    4.615    1.846    0.000    0.000 
#    2.769    1.538    0.000    0.000    0.000    0.000 
#    0.000    0.000    0.000    0.000    0.000    0.000 
#
# Total GULP energy -144973.434425 kJ/mol
# GULP energy per Si atom -5575.901324 kJ/mol
# Density = 2.425723 g / cm^3
# Si number density = 24.312571 Si / 1000 Ang^3
#
#
#
# Elastic Constant Matrix: (Units=GPa)
#
#
# Indices 1 2 3 4 5 6 
#
# 1 49.3669 10.9484 -3.0823 0.0000 -5.0450 0.0000
# 2 10.9484 103.6989 8.7631 0.0000 10.9145 0.0000
# 3 -3.0823 8.7631 88.0691 0.0000 1.8613 0.0000
# 4 0.0000 0.0000 0.0000 44.3289 0.0000 8.8899
# 5 -5.0450 10.9145 1.8613 0.0000 15.2426 0.0000
# 6 0.0000 0.0000 0.0000 8.8899 0.0000 20.1726
#
#
#
# Elastic Compliance Matrix: (Units=1/GPa)
#
#
# Indices 1 2 3 4 5 6 
#
# 1 0.022057 -0.003420 0.000909 0.000000 0.009638 0.000000
# 2 -0.003420 0.011028 -0.001029 0.000000 -0.008903 0.000000
# 3 0.000909 -0.001029 0.011497 0.000000 -0.000366 0.000000
# 4 0.000000 0.000000 0.000000 0.024746 0.000000 -0.010905
# 5 0.009638 -0.008903 -0.000366 0.000000 0.075216 0.000000
# 6 0.000000 0.000000 0.000000 -0.010905 0.000000 0.054378
#
#
# Mechanical properties :
#
#
# Convention : Reuss Voigt Hill
#
# Bulk Modulus (GPa) = 26.66585 30.48815 28.57700
# Shear Modulus (GPa) = 22.88310 30.91586 26.89948
#
# Velocity S-wave (km/s) = 3.07123 3.56982 3.32987
# Velocity P-wave (km/s) = 4.85473 5.43680 5.15399
#
# Compressibility (1/GPa) = 0.03750115
#
# Stress axis : x y z
#
# Youngs Moduli (GPa) = 45.33781 90.67498 86.98193
#
# Poissons Ratio (x) = 0.31010 -0.07903
# Poissons Ratio (y) = 0.15505 0.08949
# Poissons Ratio (z) = -0.04119 0.09329
#
# Static dielectric constant tensor:
#      x y z
#    x 1.943000 0.000000 0.024670 
#    y 0.000000 1.900290 0.000000 
#    z 0.024670 0.000000 1.941560 
# 
# From -- ./inp_files/49512.got.cif
#   From: 2010.05.17/outbox.cif.g08.bks.cpg/sg14_25_cif.got.tgz:49512.got - 2010.06.03 17:49:19.
