data_PCOD9247195
_publ_section_title
;
Structure prediction by ZEFSAII (Michael W. Deem and Ramdas Pophale) SiO2 
 PCOD9247195
Probable space group: P 21/C
;
_chemical_formula_sum "Si O2"
_cell_formula_units_Z 20
_cell_length_a 9.084407
_cell_length_b 9.571161
_cell_length_c 17.414824
_cell_angle_alpha 90.000000
_cell_angle_beta 150.319509
_cell_angle_gamma 90.000000
_cell_volume 749.770536
_symmetry_space_group_name_H-M "P 21/C"
_symmetry_group_IT_number 14
_symmetry_cell_setting 'monoclinic'
loop_
_space_group_symop_operation_xyz
x,y,z
-x,1/2+y,1/2-z
-x,-y,-z
x,1/2-y,1/2+z
loop_
_atom_site_type_symbol
_atom_site_label
_atom_site_fract_x
_atom_site_fract_y
_atom_site_fract_z
Si Si1 0.718277 0.299189 0.929966
Si Si2 0.265157 0.164582 0.097001
Si Si3 0.225761 0.252492 0.325954
Si Si4 0.927031 0.497180 0.635274
Si Si5 0.619131 0.927628 0.454702
O O1 0.552538 0.360745 0.779250
O O2 0.447310 0.232507 0.855266
O O3 0.810126 0.433957 0.022727
O O4 0.974956 0.196377 0.017326
O O5 0.304147 0.310187 0.071228
O O6 0.221371 0.052294 0.009941
O O7 0.341891 0.145387 0.445129
O O8 0.183613 0.400193 0.347703
O O9 0.935499 0.165014 0.165351
O O10 0.276972 0.532672 0.785655
#
# Coordination Sequence:
#
# PCOD9247195 Si02
#       5
#     4   4   4   4   4
#     4  11  23  40  67  96 128 177 218 275 328 399
#     4  11  23  42  65  97 135 169 224 277 334 389
#     4  10  24  40  72  93 139 172 228 268 337 392
#     4  10  21  45  64  99 129 182 216 276 325 398
#     4  10  22  44  66  92 135 181 217 272 339 390
#
# _framework density 26.674827000000001
#
# number of rings (size 3 to 8) (size 9 to 14) (size 15 to 20)
#    0.000    1.600    2.000    3.000    5.600    3.200 
#    0.000    4.000    0.000    0.000    0.000    0.000 
#    0.000    0.000    0.000    0.000    0.000    0.000 
#
# Total GULP energy -112115.017128 kJ/mol
# GULP energy per Si atom -5605.750856 kJ/mol
# Density = 2.661411 g / cm^3
# Si number density = 26.674827 Si / 1000 Ang^3
#
#
#
# Elastic Constant Matrix: (Units=GPa)
#
#
# Indices 1 2 3 4 5 6 
#
# 1 106.1586 43.4939 2.3085 0.0000 -19.6858 0.0000
# 2 43.4939 132.8385 10.1930 0.0000 -2.3483 0.0000
# 3 2.3085 10.1930 99.1109 0.0000 -23.8828 0.0000
# 4 0.0000 0.0000 0.0000 40.6388 0.0000 1.6327
# 5 -19.6858 -2.3483 -23.8828 0.0000 29.3949 0.0000
# 6 0.0000 0.0000 0.0000 1.6327 0.0000 37.9493
#
#
#
# Elastic Compliance Matrix: (Units=1/GPa)
#
#
# Indices 1 2 3 4 5 6 
#
# 1 0.013094 -0.004306 0.002696 0.000000 0.010616 0.000000
# 2 -0.004306 0.009004 -0.001675 0.000000 -0.003526 0.000000
# 3 0.002696 -0.001675 0.013183 0.000000 0.012383 0.000000
# 4 0.000000 0.000000 0.000000 0.024650 0.000000 -0.001061
# 5 0.010616 -0.003526 0.012383 0.000000 0.050908 0.000000
# 6 0.000000 0.000000 0.000000 -0.001061 0.000000 0.026397
#
#
# Mechanical properties :
#
#
# Convention : Reuss Voigt Hill
#
# Bulk Modulus (GPa) = 34.83158 50.01097 42.42127
# Shear Modulus (GPa) = 32.59939 40.40409 36.50174
#
# Velocity S-wave (km/s) = 3.49965 3.89612 3.70320
# Velocity P-wave (km/s) = 5.42368 6.24730 5.85000
#
# Compressibility (1/GPa) = 0.02870958
#
# Stress axis : x y z
#
# Youngs Moduli (GPa) = 76.36990 111.05936 75.85487
#
# Poissons Ratio (x) = 0.47828 -0.20450
# Poissons Ratio (y) = 0.32889 0.12709
# Poissons Ratio (z) = -0.20589 0.18607
#
# Static dielectric constant tensor:
#      x y z
#    x 2.072280 0.000000 -0.047670 
#    y 0.000000 2.131670 0.000000 
#    z -0.047670 0.000000 2.156520 
# 
# From -- ./inp_files/23814.got.cif
#   From: 2010.05.17/outbox.cif.g08.bks.cpg/sg14_12_cif.got.tgz:23814.got - 2010.06.03 17:49:19.
