data_PCOD9247168
_publ_section_title
;
Structure prediction by ZEFSAII (Michael W. Deem and Ramdas Pophale) SiO2 
 PCOD9247168
Probable space group: P 21/C
;
_chemical_formula_sum "Si O2"
_cell_formula_units_Z 30
_cell_length_a 14.197614
_cell_length_b 8.209760
_cell_length_c 11.895669
_cell_angle_alpha 90.000000
_cell_angle_beta 108.070430
_cell_angle_gamma 90.000000
_cell_volume 1318.157186
_symmetry_space_group_name_H-M "P 21/C"
_symmetry_group_IT_number 14
_symmetry_cell_setting 'monoclinic'
loop_
_space_group_symop_operation_xyz
x,y,z
-x,1/2+y,1/2-z
-x,-y,-z
x,1/2-y,1/2+z
loop_
_atom_site_type_symbol
_atom_site_label
_atom_site_fract_x
_atom_site_fract_y
_atom_site_fract_z
Si Si1 0.757424 0.661854 0.970198
Si Si2 0.875081 0.881055 0.716039
Si Si3 0.386598 0.489636 0.925489
Si Si4 0.813842 0.980127 0.273846
Si Si5 0.261223 0.805129 0.956803
Si Si6 0.034382 0.851516 0.934634
Si Si7 0.277337 0.489169 0.667609
Si Si8 0.000000 0.000000 0.500000
O O1 0.743101 0.554965 0.854565
O O2 0.763779 0.843065 0.925601
O O3 0.851898 0.590772 0.076364
O O4 0.667998 0.650790 0.023919
O O5 0.838617 0.695966 0.725541
O O6 0.812228 0.002782 0.773205
O O7 0.986615 0.894914 0.796543
O O8 0.324290 0.649429 0.941745
O O9 0.367027 0.457374 0.786591
O O10 0.500000 0.500000 0.000000
O O11 0.756127 0.085574 0.160631
O O12 0.910420 0.051733 0.372101
O O13 0.147433 0.801742 0.958918
O O14 0.308877 0.878655 0.087982
O O15 0.983474 0.689143 0.958479
O O16 0.000000 0.000000 0.000000
#
# Coordination Sequence:
#
# PCOD9247168 Si02
#       8
#     4   4   4   4   4   4   4   2
#     4  10  21  44  72  95 141 192 241 305 378 448
#     4   9  19  40  66 101 146 192 250 292 364 454
#     4  11  28  48  73 105 140 187 256 328 396 461
#     4  10  22  38  64 102 143 199 242 297 371 441
#     4  12  25  44  72 107 153 194 252 313 386 457
#     4  11  23  42  69 109 155 204 256 308 376 470
#     4  10  22  45  72 101 138 191 243 313 381 462
#     4  10  24  38  58 102 152 198 258 294 358 450
#
# _framework density 22.759045
#
# number of rings (size 3 to 8) (size 9 to 14) (size 15 to 20)
#    0.000    1.600    2.667    0.800    5.600    1.067 
#    4.800    0.667    0.000    0.000    0.000    0.000 
#    0.000    0.000    0.000    0.000    0.000    0.000 
#
# Total GULP energy -167001.849295 kJ/mol
# GULP energy per Si atom -5566.728310 kJ/mol
# Density = 2.270724 g / cm^3
# Si number density = 22.759045 Si / 1000 Ang^3
#
#
#
# Elastic Constant Matrix: (Units=GPa)
#
#
# Indices 1 2 3 4 5 6 
#
# 1 64.6706 11.7864 45.4209 0.0000 12.1123 0.0000
# 2 11.7864 81.1969 29.1106 0.0000 -12.3889 0.0000
# 3 45.4209 29.1106 169.1480 0.0000 -12.4193 0.0000
# 4 0.0000 0.0000 0.0000 25.8672 0.0000 -7.5305
# 5 12.1123 -12.3889 -12.4193 0.0000 39.3626 0.0000
# 6 0.0000 0.0000 0.0000 -7.5305 0.0000 25.9429
#
#
#
# Elastic Compliance Matrix: (Units=1/GPa)
#
#
# Indices 1 2 3 4 5 6 
#
# 1 0.022037 -0.002426 -0.006198 0.000000 -0.009500 0.000000
# 2 -0.002426 0.013881 -0.001394 0.000000 0.004676 0.000000
# 3 -0.006198 -0.001394 0.008112 0.000000 0.004028 0.000000
# 4 0.000000 0.000000 0.000000 0.042227 0.000000 0.012257
# 5 -0.009500 0.004676 0.004028 0.000000 0.031071 0.000000
# 6 0.000000 0.000000 0.000000 0.012257 0.000000 0.042104
#
#
# Mechanical properties :
#
#
# Convention : Reuss Voigt Hill
#
# Bulk Modulus (GPa) = 41.67693 54.18348 47.93020
# Shear Modulus (GPa) = 26.67139 33.48104 30.07622
#
# Velocity S-wave (km/s) = 3.42702 3.83967 3.63920
# Velocity P-wave (km/s) = 5.83192 6.59670 6.22607
#
# Compressibility (1/GPa) = 0.02399409
#
# Stress axis : x y z
#
# Youngs Moduli (GPa) = 45.37754 72.03990 123.27658
#
# Poissons Ratio (x) = 0.17480 0.76401
# Poissons Ratio (y) = 0.11011 0.17186
# Poissons Ratio (z) = 0.28123 0.10043
#
# Static dielectric constant tensor:
#      x y z
#    x 1.078180 0.000000 0.421430 
#    y 0.000000 1.836550 0.000000 
#    z 0.421430 0.000000 1.689850 
# 
# From -- ./inp_files/31628.got.cif
#   From: 2010.05.17/outbox.cif.g08.bks.cpg/sg14_16_cif.got.tgz:31628.got - 2010.06.03 17:49:19.
