data_PCOD9247970
_publ_section_title
;
Structure prediction by ZEFSAII (Michael W. Deem and Ramdas Pophale) SiO2 
 PCOD9247970
Probable space group: P 21/C
;
_chemical_formula_sum "Si O2"
_cell_formula_units_Z 28
_cell_length_a 9.814726
_cell_length_b 17.192463
_cell_length_c 16.331852
_cell_angle_alpha 90.000000
_cell_angle_beta 158.498739
_cell_angle_gamma 90.000000
_cell_volume 1010.069856
_symmetry_space_group_name_H-M "P 21/C"
_symmetry_group_IT_number 14
_symmetry_cell_setting 'monoclinic'
loop_
_space_group_symop_operation_xyz
x,y,z
-x,1/2+y,1/2-z
-x,-y,-z
x,1/2-y,1/2+z
loop_
_atom_site_type_symbol
_atom_site_label
_atom_site_fract_x
_atom_site_fract_y
_atom_site_fract_z
Si Si1 0.909418 0.334634 0.883672
Si Si2 0.000000 0.000000 0.000000
Si Si3 0.868697 0.919140 0.279868
Si Si4 0.226182 0.170589 0.112052
Si Si5 0.201362 0.344482 0.863093
Si Si6 0.000000 0.000000 0.500000
Si Si7 0.936059 0.501122 0.653143
Si Si8 0.475539 0.742913 0.569181
O O1 0.486761 0.348082 0.678535
O O2 0.031982 0.339051 0.858212
O O3 0.110138 0.410703 0.034567
O O4 0.996879 0.247964 0.962582
O O5 0.009845 0.095351 0.021592
O O6 0.041590 0.981111 0.120944
O O7 0.756170 0.830377 0.227957
O O8 0.162339 0.961871 0.503856
O O9 0.936753 0.933384 0.222684
O O10 0.498958 0.971541 0.095738
O O11 0.471593 0.199470 0.325982
O O12 0.193737 0.433316 0.833679
O O13 0.908725 0.303110 0.638835
O O14 0.543488 0.291436 0.027157
#
# Coordination Sequence:
#
# PCOD9247970 Si02
#       8
#     4   2   4   4   4   2   4   4
#     4  12  27  45  74 109 144 190 241 300 366 437
#     4  12  26  42  68 102 144 186 240 300 356 430
#     4  10  22  40  69  93 134 186 238 288 354 440
#     4  12  27  46  71 107 146 192 242 303 368 429
#     4  11  23  44  68  99 136 183 239 291 358 432
#     4  12  22  42  70 104 140 182 242 292 350 434
#     4  10  22  42  65  95 132 188 236 288 361 431
#     4  11  23  43  68  98 136 184 237 294 354 429
#
# _framework density 27.720855
#
# number of rings (size 3 to 8) (size 9 to 14) (size 15 to 20)
#    0.000    0.857    4.286    2.571    8.000    1.143 
#    0.000    0.000    0.000    6.000    0.000    0.000 
#    0.000    0.000    0.000    0.000    0.000    0.000 
#
# Total GULP energy -155908.715434 kJ/mol
# GULP energy per Si atom -5568.168408 kJ/mol
# Density = 2.765776 g / cm^3
# Si number density = 27.720855 Si / 1000 Ang^3
#
#
#
# Elastic Constant Matrix: (Units=GPa)
#
#
# Indices 1 2 3 4 5 6 
#
# 1 145.9017 15.8703 27.9363 0.0000 -33.6944 0.0000
# 2 15.8703 204.1652 44.1463 0.0000 -8.0892 0.0000
# 3 27.9363 44.1463 -13.7977 0.0000 1.0558 0.0000
# 4 0.0000 0.0000 0.0000 23.6132 0.0000 -16.0586
# 5 -33.6944 -8.0892 1.0558 0.0000 51.4649 0.0000
# 6 0.0000 0.0000 0.0000 -16.0586 0.0000 47.6307
#
#
#
# Elastic Compliance Matrix: (Units=1/GPa)
#
#
# Indices 1 2 3 4 5 6 
#
# 1 0.006546 -0.001942 0.007332 0.000000 0.003830 0.000000
# 2 -0.001942 0.003475 0.007119 0.000000 -0.000872 0.000000
# 3 0.007332 0.007119 -0.034346 0.000000 0.006624 0.000000
# 4 0.000000 0.000000 0.000000 0.054948 0.000000 0.018526
# 5 0.003830 -0.000872 0.006624 0.000000 0.021665 0.000000
# 6 0.000000 0.000000 0.000000 0.018526 0.000000 0.027241
#
#
# Mechanical properties :
#
#
# Convention : Reuss Voigt Hill
#
# Bulk Modulus (GPa) = 1446.00379 56.90833 751.45606
# Shear Modulus (GPa) = 91.33731 41.09618 66.21674
#
# Velocity S-wave (km/s) = 5.74634 3.85450 4.89273
# Velocity P-wave (km/s) = 23.80735 6.35478 17.42374
#
# Compressibility (1/GPa) = 0.00069156
#
# Stress axis : x y z
#
# Youngs Moduli (GPa) = 152.76822 287.76289 -29.11519
#
# Poissons Ratio (x) = 0.55895 0.21346
# Poissons Ratio (y) = 0.29674 0.20728
# Poissons Ratio (z) = -1.12005 -2.04863
#
# Static dielectric constant tensor:
#      x y z
#    x 2.272630 0.000000 0.061860 
#    y 0.000000 2.063330 0.000000 
#    z 0.061860 0.000000 2.528120 
# 
# From -- ./inp_files/41421.got.cif
#   From: 2010.05.17/outbox.cif.g08.bks.cpg/sg14_21_cif.got.tgz:41421.got - 2010.06.03 17:49:19.
