data_PCOD9247608
_publ_section_title
;
Structure prediction by ZEFSAII (Michael W. Deem and Ramdas Pophale) SiO2 
 PCOD9247608
Probable space group: P 21/C
;
_chemical_formula_sum "Si O2"
_cell_formula_units_Z 28
_cell_length_a 25.466041
_cell_length_b 5.606794
_cell_length_c 14.259862
_cell_angle_alpha 90.000000
_cell_angle_beta 30.791016
_cell_angle_gamma 90.000000
_cell_volume 1042.277638
_symmetry_space_group_name_H-M "P 21/C"
_symmetry_group_IT_number 14
_symmetry_cell_setting 'monoclinic'
loop_
_space_group_symop_operation_xyz
x,y,z
-x,1/2+y,1/2-z
-x,-y,-z
x,1/2-y,1/2+z
loop_
_atom_site_type_symbol
_atom_site_label
_atom_site_fract_x
_atom_site_fract_y
_atom_site_fract_z
Si Si1 0.619148 0.301440 0.098728
Si Si2 0.309483 0.291355 0.276102
Si Si3 0.839153 0.334449 0.527824
Si Si4 0.190565 0.414388 0.790207
Si Si5 0.801802 0.930530 0.381112
Si Si6 0.465815 0.302149 0.183395
Si Si7 0.002434 0.669205 0.373683
O O1 0.580405 0.304845 0.050004
O O2 0.581246 0.051980 0.202986
O O3 0.573783 0.547155 0.213869
O O4 0.738171 0.352043 0.934490
O O5 0.260176 0.550497 0.366598
O O6 0.279055 0.223761 0.217483
O O7 0.240173 0.121972 0.450397
O O8 0.424841 0.286690 0.138955
O O9 0.918886 0.245206 0.328220
O O10 0.906398 0.534783 0.475674
O O11 0.805906 0.157648 0.659053
O O12 0.216767 0.310999 0.648439
O O13 0.064755 0.382432 0.982833
O O14 0.920653 0.997856 0.189081
#
# Coordination Sequence:
#
# PCOD9247608 Si02
#       7
#     4   4   4   4   4   4   4
#     4   9  19  37  61  96 122 157 213 253 303 383
#     4  10  22  39  61  88 117 164 198 253 317 367
#     4  11  20  38  59  79 119 156 207 251 301 373
#     4  11  24  39  57  89 121 158 210 255 301 375
#     4  11  22  40  61  89 121 160 205 254 314 367
#     4   9  18  36  66  91 122 164 204 252 314 372
#     4  11  20  37  57  83 115 162 200 250 308 362
#
# _framework density 26.864241
#
# number of rings (size 3 to 8) (size 9 to 14) (size 15 to 20)
#    0.000    1.714    2.857    2.143    2.000    0.571 
#   15.429    0.714    0.000    0.857    0.000    0.000 
#    0.000    0.000    0.000    0.000    0.000    0.000 
#
# Total GULP energy -156239.678474 kJ/mol
# GULP energy per Si atom -5579.988517 kJ/mol
# Density = 2.680310 g / cm^3
# Si number density = 26.864241 Si / 1000 Ang^3
#
#
#
# Elastic Constant Matrix: (Units=GPa)
#
#
# Indices 1 2 3 4 5 6 
#
# 1 108.4403 0.5461 14.1100 0.0000 -18.8216 0.0000
# 2 0.5461 65.5944 11.1678 0.0000 -2.4902 0.0000
# 3 14.1100 11.1678 53.4681 0.0000 -1.3724 0.0000
# 4 0.0000 0.0000 0.0000 22.5379 0.0000 -10.7116
# 5 -18.8216 -2.4902 -1.3724 0.0000 20.9953 0.0000
# 6 0.0000 0.0000 0.0000 -10.7116 0.0000 27.4171
#
#
#
# Elastic Compliance Matrix: (Units=1/GPa)
#
#
# Indices 1 2 3 4 5 6 
#
# 1 0.011343 0.000781 -0.002898 0.000000 0.010072 0.000000
# 2 0.000781 0.015919 -0.003471 0.000000 0.002362 0.000000
# 3 -0.002898 -0.003471 0.020149 0.000000 -0.001693 0.000000
# 4 0.000000 0.000000 0.000000 0.054487 0.000000 0.021287
# 5 0.010072 0.002362 -0.001693 0.000000 0.056828 0.000000
# 6 0.000000 0.000000 0.000000 0.021287 0.000000 0.044790
#
#
# Mechanical properties :
#
#
# Convention : Reuss Voigt Hill
#
# Bulk Modulus (GPa) = 27.59643 31.01675 29.30659
# Shear Modulus (GPa) = 22.04876 27.63532 24.84204
#
# Velocity S-wave (km/s) = 2.86798 3.21082 3.04423
# Velocity P-wave (km/s) = 4.61106 5.03156 4.82590
#
# Compressibility (1/GPa) = 0.03623657
#
# Stress axis : x y z
#
# Youngs Moduli (GPa) = 88.16058 62.81701 49.63031
#
# Poissons Ratio (x) = -0.04908 0.14383
# Poissons Ratio (y) = -0.06888 0.17225
# Poissons Ratio (z) = 0.25549 0.21801
#
# Static dielectric constant tensor:
#      x y z
#    x 2.271830 0.000000 0.146560 
#    y 0.000000 2.553090 0.000000 
#    z 0.146560 0.000000 2.184510 
# 
# From -- ./inp_files/62132.got.cif
#   From: 2010.05.17/outbox.cif.g08.bks.cpg/sg14_32_cif.got.tgz:62132.got - 2010.06.03 17:49:19.
