data_PCOD9247770
_publ_section_title
;
Structure prediction by ZEFSAII (Michael W. Deem and Ramdas Pophale) SiO2 
 PCOD9247770
Probable space group: P 21/C
;
_chemical_formula_sum "Si O2"
_cell_formula_units_Z 20
_cell_length_a 8.791740
_cell_length_b 6.728529
_cell_length_c 23.698006
_cell_angle_alpha 90.000000
_cell_angle_beta 147.512204
_cell_angle_gamma 90.000000
_cell_volume 752.970664
_symmetry_space_group_name_H-M "P 21/C"
_symmetry_group_IT_number 14
_symmetry_cell_setting 'monoclinic'
loop_
_space_group_symop_operation_xyz
x,y,z
-x,1/2+y,1/2-z
-x,-y,-z
x,1/2-y,1/2+z
loop_
_atom_site_type_symbol
_atom_site_label
_atom_site_fract_x
_atom_site_fract_y
_atom_site_fract_z
Si Si1 0.881104 0.803429 0.839267
Si Si2 0.277445 0.021404 0.804805
Si Si3 0.223114 0.454222 0.001444
Si Si4 0.669235 0.274957 0.874095
Si Si5 0.872455 0.692734 0.626434
O O1 0.891751 0.697436 0.780945
O O2 0.544591 0.798031 0.745506
O O3 0.057991 0.654704 0.932134
O O4 0.994263 0.022370 0.870306
O O5 0.588842 0.064160 0.876565
O O6 0.285617 0.077288 0.872805
O O7 0.115174 0.826842 0.732702
O O8 0.309148 0.335766 0.972034
O O9 0.986216 0.319103 0.956790
O O10 0.426043 0.546383 0.112095
#
# Coordination Sequence:
#
# PCOD9247770 Si02
#       5
#     4   4   4   4   4
#     4   9  21  37  63  84 121 159 195 245 306 346
#     4   9  19  36  60  85 120 155 201 245 299 349
#     4  10  22  40  60  89 123 154 208 244 298 364
#     4   9  21  42  58  89 124 154 199 257 293 356
#     4  11  19  37  63  88 118 162 202 249 296 362
#
# _framework density 26.561458999999999
#
# number of rings (size 3 to 8) (size 9 to 14) (size 15 to 20)
#    1.200    1.200    2.000    0.000    2.800    0.800 
#    3.600    3.000    0.000    0.000    0.000    0.000 
#    0.000    0.000    0.000    0.000    0.000    0.000 
#
# Total GULP energy -111672.746739 kJ/mol
# GULP energy per Si atom -5583.637337 kJ/mol
# Density = 2.650100 g / cm^3
# Si number density = 26.561459 Si / 1000 Ang^3
#
#
#
# Elastic Constant Matrix: (Units=GPa)
#
#
# Indices 1 2 3 4 5 6 
#
# 1 74.2420 39.6888 20.0191 0.0000 -15.6836 0.0000
# 2 39.6888 135.0952 48.3083 0.0000 0.7975 0.0000
# 3 20.0191 48.3083 49.3735 0.0000 -3.6615 0.0000
# 4 0.0000 0.0000 0.0000 51.0460 0.0000 -2.0949
# 5 -15.6836 0.7975 -3.6615 0.0000 34.4967 0.0000
# 6 0.0000 0.0000 0.0000 -2.0949 0.0000 24.8916
#
#
#
# Elastic Compliance Matrix: (Units=1/GPa)
#
#
# Indices 1 2 3 4 5 6 
#
# 1 0.018272 -0.004589 -0.002313 0.000000 0.008168 0.000000
# 2 -0.004589 0.012612 -0.010740 0.000000 -0.003518 0.000000
# 3 -0.002313 -0.010740 0.031891 0.000000 0.002582 0.000000
# 4 0.000000 0.000000 0.000000 0.019658 0.000000 0.001654
# 5 0.008168 -0.003518 0.002582 0.000000 0.033057 0.000000
# 6 0.000000 0.000000 0.000000 0.001654 0.000000 0.040313
#
#
# Mechanical properties :
#
#
# Convention : Reuss Voigt Hill
#
# Bulk Modulus (GPa) = 36.37508 52.74925 44.56217
# Shear Modulus (GPa) = 24.96890 32.13317 28.55103
#
# Velocity S-wave (km/s) = 3.06934 3.48194 3.28213
# Velocity P-wave (km/s) = 5.12694 6.00564 5.58360
#
# Compressibility (1/GPa) = 0.02749135
#
# Stress axis : x y z
#
# Youngs Moduli (GPa) = 54.72913 79.29250 31.35702
#
# Poissons Ratio (x) = 0.36389 0.07252
# Poissons Ratio (y) = 0.25116 0.33676
# Poissons Ratio (z) = 0.12657 0.85157
#
# Static dielectric constant tensor:
#      x y z
#    x 2.170900 0.000000 0.009710 
#    y 0.000000 2.024280 0.000000 
#    z 0.009710 0.000000 2.083340 
# 
# From -- ./inp_files/79840.got.cif
#   From: 2010.05.17/outbox.cif.g08.bks.cpg/sg14_40_cif.got.tgz:79840.got - 2010.06.03 17:49:19.
