data_PCOD9247066
_publ_section_title
;
Structure prediction by ZEFSAII (Michael W. Deem and Ramdas Pophale) SiO2 
 PCOD9247066
Probable space group: P 21/C
;
_chemical_formula_sum "Si O2"
_cell_formula_units_Z 28
_cell_length_a 21.780572
_cell_length_b 9.284730
_cell_length_c 9.482681
_cell_angle_alpha 90.000000
_cell_angle_beta 45.219824
_cell_angle_gamma 90.000000
_cell_volume 1361.176879
_symmetry_space_group_name_H-M "P 21/C"
_symmetry_group_IT_number 14
_symmetry_cell_setting 'monoclinic'
loop_
_space_group_symop_operation_xyz
x,y,z
-x,1/2+y,1/2-z
-x,-y,-z
x,1/2-y,1/2+z
loop_
_atom_site_type_symbol
_atom_site_label
_atom_site_fract_x
_atom_site_fract_y
_atom_site_fract_z
Si Si1 0.584158 0.590985 0.405259
Si Si2 0.945652 0.066528 0.960301
Si Si3 0.162840 0.352413 0.869531
Si Si4 0.252845 0.592084 0.175079
Si Si5 0.947409 0.662748 0.233041
Si Si6 0.656097 0.806782 0.490609
Si Si7 0.262498 0.614020 0.826004
O O1 0.500000 0.500000 0.500000
O O2 0.583934 0.717403 0.521941
O O3 0.626287 0.665378 0.198668
O O4 0.650598 0.471090 0.353087
O O5 0.969812 0.233976 0.915543
O O6 0.968573 0.984000 0.779602
O O7 0.845144 0.038863 0.148226
O O8 0.000000 0.000000 0.000000
O O9 0.099293 0.362387 0.839404
O O10 0.253138 0.279800 0.670885
O O11 0.186973 0.506766 0.896758
O O12 0.118404 0.254109 0.060996
O O13 0.261207 0.732782 0.255287
O O14 0.319891 0.465874 0.105540
O O15 0.262181 0.628060 0.995074
#
# Coordination Sequence:
#
# PCOD9247066 Si02
#       7
#     4   4   4   4   4   4   4
#     4  10  23  43  69 105 131 167 213 265 328 394
#     4  12  26  42  60  94 129 170 228 280 338 382
#     4  11  22  43  65  93 122 181 221 268 326 402
#     4  11  24  42  63  93 129 176 222 270 323 396
#     4  12  25  40  66  89 131 170 226 280 340 373
#     4  10  21  43  70  92 134 175 215 258 324 398
#     4  10  25  40  67  95 131 166 225 267 322 397
#
# _framework density 20.570433000000001
#
# number of rings (size 3 to 8) (size 9 to 14) (size 15 to 20)
#    0.000    1.143    2.857    3.429    6.000    4.000 
#    0.000    1.429    0.000    0.000    0.000    0.000 
#    0.000    0.000    0.000    0.000    0.000    0.000 
#
# Total GULP energy -156552.555787 kJ/mol
# GULP energy per Si atom -5591.162707 kJ/mol
# Density = 2.052361 g / cm^3
# Si number density = 20.570433 Si / 1000 Ang^3
#
#
#
# Elastic Constant Matrix: (Units=GPa)
#
#
# Indices 1 2 3 4 5 6 
#
# 1 96.8838 49.8679 5.4590 0.0000 8.3023 0.0000
# 2 49.8679 110.0823 4.3214 0.0000 9.0772 0.0000
# 3 5.4590 4.3214 26.8777 0.0000 7.8235 0.0000
# 4 0.0000 0.0000 0.0000 32.7462 0.0000 -0.7232
# 5 8.3023 9.0772 7.8235 0.0000 20.0410 0.0000
# 6 0.0000 0.0000 0.0000 -0.7232 0.0000 44.6398
#
#
#
# Elastic Compliance Matrix: (Units=1/GPa)
#
#
# Indices 1 2 3 4 5 6 
#
# 1 0.013655 -0.005933 -0.001078 0.000000 -0.002549 0.000000
# 2 -0.005933 0.012017 0.000160 0.000000 -0.003047 0.000000
# 3 -0.001078 0.000160 0.042070 0.000000 -0.016049 0.000000
# 4 0.000000 0.000000 0.000000 0.030549 0.000000 0.000495
# 5 -0.002549 -0.003047 -0.016049 0.000000 0.058599 0.000000
# 6 0.000000 0.000000 0.000000 0.000495 0.000000 0.022410
#
#
# Mechanical properties :
#
#
# Convention : Reuss Voigt Hill
#
# Bulk Modulus (GPa) = 18.50470 39.23782 28.87126
# Shear Modulus (GPa) = 23.69514 31.09845 27.39679
#
# Velocity S-wave (km/s) = 3.39765 3.89241 3.65342
# Velocity P-wave (km/s) = 4.94038 6.27036 5.64468
#
# Compressibility (1/GPa) = 0.05404033
#
# Stress axis : x y z
#
# Youngs Moduli (GPa) = 73.23495 83.21631 23.76982
#
# Poissons Ratio (x) = 0.49374 0.02561
# Poissons Ratio (y) = 0.43452 -0.00380
# Poissons Ratio (z) = 0.07891 -0.01331
#
# Static dielectric constant tensor:
#      x y z
#    x 1.717890 0.000000 -0.025190 
#    y 0.000000 1.735200 0.000000 
#    z -0.025190 0.000000 1.746150 
# 
# From -- ./inp_files/17603.got.cif
#   From: 2010.05.17/outbox.cif.g08.bks.cpg/sg14_9_cif.got.tgz:17603.got - 2010.06.03 17:49:19.
