data_PCOD9247466
_publ_section_title
;
Structure prediction by ZEFSAII (Michael W. Deem and Ramdas Pophale) SiO2 
 PCOD9247466
Probable space group: P 21/C
;
_chemical_formula_sum "Si O2"
_cell_formula_units_Z 28
_cell_length_a 15.508402
_cell_length_b 7.761138
_cell_length_c 13.826366
_cell_angle_alpha 90.000000
_cell_angle_beta 138.432372
_cell_angle_gamma 90.000000
_cell_volume 1104.189949
_symmetry_space_group_name_H-M "P 21/C"
_symmetry_group_IT_number 14
_symmetry_cell_setting 'monoclinic'
loop_
_space_group_symop_operation_xyz
x,y,z
-x,1/2+y,1/2-z
-x,-y,-z
x,1/2-y,1/2+z
loop_
_atom_site_type_symbol
_atom_site_label
_atom_site_fract_x
_atom_site_fract_y
_atom_site_fract_z
Si Si1 0.269982 0.956389 0.606459
Si Si2 0.154328 0.305648 0.168142
Si Si3 0.257509 0.573150 0.547766
Si Si4 0.528192 0.449252 0.413100
Si Si5 0.415444 0.089825 0.346286
Si Si6 0.993395 0.839824 0.121009
Si Si7 0.873854 0.637762 0.170560
O O1 0.221557 0.772625 0.529731
O O2 0.194953 0.028161 0.639050
O O3 0.420106 0.951694 0.760730
O O4 0.246032 0.094843 0.500589
O O5 0.284008 0.185802 0.271915
O O6 0.123598 0.297985 0.254659
O O7 0.030977 0.223997 0.007745
O O8 0.328746 0.526304 0.507694
O O9 0.365023 0.536720 0.721365
O O10 0.137333 0.449444 0.467474
O O11 0.500000 0.500000 0.500000
O O12 0.500178 0.246786 0.376921
O O13 0.500000 0.000000 0.500000
O O14 0.986860 0.677042 0.187247
O O15 0.105034 0.970372 0.244437
#
# Coordination Sequence:
#
# PCOD9247466 Si02
#       7
#     4   4   4   4   4   4   4
#     4  10  23  42  64 100 128 171 225 260 337 382
#     4   9  22  40  66  92 129 170 214 272 315 393
#     4  11  23  41  64  93 135 169 214 274 317 392
#     4  11  24  40  65  94 132 171 218 262 322 390
#     4  10  22  38  60  95 127 169 215 258 323 382
#     4  10  23  42  63  97 125 171 218 261 337 379
#     4  11  22  43  69  90 134 168 218 273 321 391
#
# _framework density 25.357955
#
# number of rings (size 3 to 8) (size 9 to 14) (size 15 to 20)
#    0.000    1.714    0.000    3.857    8.000    0.000 
#    0.000    7.857    0.000    0.000    0.000    0.000 
#    0.000    0.000    0.000    0.000    0.000    0.000 
#
# Total GULP energy -156678.037395 kJ/mol
# GULP energy per Si atom -5595.644193 kJ/mol
# Density = 2.530024 g / cm^3
# Si number density = 25.357955 Si / 1000 Ang^3
#
#
#
# Elastic Constant Matrix: (Units=GPa)
#
#
# Indices 1 2 3 4 5 6 
#
# 1 77.2505 10.2628 26.0200 0.0000 -19.1486 0.0000
# 2 10.2628 101.1744 24.8594 0.0000 -6.5033 0.0000
# 3 26.0200 24.8594 121.2811 0.0000 -20.2300 0.0000
# 4 0.0000 0.0000 0.0000 47.9369 0.0000 -0.0233
# 5 -19.1486 -6.5033 -20.2300 0.0000 35.6629 0.0000
# 6 0.0000 0.0000 0.0000 -0.0233 0.0000 19.3565
#
#
#
# Elastic Compliance Matrix: (Units=1/GPa)
#
#
# Indices 1 2 3 4 5 6 
#
# 1 0.015451 -0.000620 -0.002013 0.000000 0.007041 0.000000
# 2 -0.000620 0.010452 -0.001929 0.000000 0.000478 0.000000
# 3 -0.002013 -0.001929 0.009757 0.000000 0.004102 0.000000
# 4 0.000000 0.000000 0.000000 0.020861 0.000000 0.000025
# 5 0.007041 0.000478 0.004102 0.000000 0.034235 0.000000
# 6 0.000000 0.000000 0.000000 0.000025 0.000000 0.051662
#
#
# Mechanical properties :
#
#
# Convention : Reuss Voigt Hill
#
# Bulk Modulus (GPa) = 37.68801 46.88783 42.28792
# Shear Modulus (GPa) = 31.17455 36.49552 33.83503
#
# Velocity S-wave (km/s) = 3.51005 3.79781 3.65677
# Velocity P-wave (km/s) = 5.59660 6.14505 5.87723
#
# Compressibility (1/GPa) = 0.02653364
#
# Stress axis : x y z
#
# Youngs Moduli (GPa) = 64.72214 95.67854 102.49120
#
# Poissons Ratio (x) = 0.05932 0.20635
# Poissons Ratio (y) = 0.04013 0.19775
# Poissons Ratio (z) = 0.13031 0.18461
#
# Static dielectric constant tensor:
#      x y z
#    x 2.036370 0.000000 0.004010 
#    y 0.000000 2.024140 0.000000 
#    z 0.004010 0.000000 1.985710 
# 
# From -- ./inp_files/48597.got.cif
#   From: 2010.05.17/outbox.cif.g08.bks.cpg/sg14_25_cif.got.tgz:48597.got - 2010.06.03 17:49:19.
