data_PCOD9247743
_publ_section_title
;
Structure prediction by ZEFSAII (Michael W. Deem and Ramdas Pophale) SiO2 
 PCOD9247743
Probable space group: P 21/C
;
_chemical_formula_sum "Si O2"
_cell_formula_units_Z 28
_cell_length_a 11.700897
_cell_length_b 7.423260
_cell_length_c 16.694723
_cell_angle_alpha 90.000000
_cell_angle_beta 45.358048
_cell_angle_gamma 90.000000
_cell_volume 1031.751515
_symmetry_space_group_name_H-M "P 21/C"
_symmetry_group_IT_number 14
_symmetry_cell_setting 'monoclinic'
loop_
_space_group_symop_operation_xyz
x,y,z
-x,1/2+y,1/2-z
-x,-y,-z
x,1/2-y,1/2+z
loop_
_atom_site_type_symbol
_atom_site_label
_atom_site_fract_x
_atom_site_fract_y
_atom_site_fract_z
Si Si1 0.034450 0.499208 0.219546
Si Si2 0.386662 0.524777 0.244430
Si Si3 0.554799 0.032974 0.096312
Si Si4 0.101323 0.664807 0.578935
Si Si5 0.770257 0.101468 0.737603
Si Si6 0.685513 0.855439 0.507103
Si Si7 0.138352 0.214357 0.415717
O O1 0.028685 0.673465 0.166479
O O2 0.898217 0.376423 0.244233
O O3 0.977783 0.506579 0.338738
O O4 0.213801 0.425589 0.117468
O O5 0.455798 0.537717 0.301067
O O6 0.301080 0.710701 0.259459
O O7 0.541396 0.516028 0.109619
O O8 0.266813 0.355437 0.312482
O O9 0.371740 0.030138 0.158997
O O10 0.610652 0.840389 0.034485
O O11 0.708055 0.158512 0.006366
O O12 0.031514 0.695736 0.524967
O O13 0.846579 0.982389 0.630107
O O14 0.810178 0.819528 0.518740
#
# Coordination Sequence:
#
# PCOD9247743 Si02
#       7
#     4   4   4   4   4   4   4
#     4  11  26  43  65  92 133 172 217 266 319 390
#     4  10  22  39  69  96 133 167 204 278 324 378
#     4  10  22  40  66  96 130 166 214 266 326 377
#     4  11  26  42  65  92 130 177 213 269 322 382
#     4  10  23  40  65  97 129 171 213 268 318 391
#     4  10  22  40  67 100 128 163 216 266 322 391
#     4  10  23  40  66 102 128 164 219 266 322 391
#
# _framework density 27.138317000000001
#
# number of rings (size 3 to 8) (size 9 to 14) (size 15 to 20)
#    0.000    1.714    1.429    0.857   10.000    2.857 
#    0.000    2.143    0.000    0.000    0.000    0.000 
#    0.000    0.000    0.000    0.000    0.000    0.000 
#
# Total GULP energy -156671.905884 kJ/mol
# GULP energy per Si atom -5595.425210 kJ/mol
# Density = 2.707655 g / cm^3
# Si number density = 27.138317 Si / 1000 Ang^3
#
#
#
# Elastic Constant Matrix: (Units=GPa)
#
#
# Indices 1 2 3 4 5 6 
#
# 1 41.0238 24.4018 26.0021 0.0000 -11.1008 0.0000
# 2 24.4018 87.3322 17.2915 0.0000 -13.5663 0.0000
# 3 26.0021 17.2915 149.0846 0.0000 -25.7564 0.0000
# 4 0.0000 0.0000 0.0000 50.8577 0.0000 -8.0030
# 5 -11.1008 -13.5663 -25.7564 0.0000 27.3104 0.0000
# 6 0.0000 0.0000 0.0000 -8.0030 0.0000 31.2321
#
#
#
# Elastic Compliance Matrix: (Units=1/GPa)
#
#
# Indices 1 2 3 4 5 6 
#
# 1 0.032893 -0.007495 -0.003824 0.000000 0.006040 0.000000
# 2 -0.007495 0.014141 0.000423 0.000000 0.004377 0.000000
# 3 -0.003824 0.000423 0.008474 0.000000 0.006648 0.000000
# 4 0.000000 0.000000 0.000000 0.020489 0.000000 0.005250
# 5 0.006040 0.004377 0.006648 0.000000 0.047515 0.000000
# 6 0.000000 0.000000 0.000000 0.005250 0.000000 0.033364
#
#
# Mechanical properties :
#
#
# Convention : Reuss Voigt Hill
#
# Bulk Modulus (GPa) = 29.65976 45.87014 37.76495
# Shear Modulus (GPa) = 26.32890 35.86304 31.09597
#
# Velocity S-wave (km/s) = 3.11814 3.63918 3.38869
# Velocity P-wave (km/s) = 4.89046 5.88194 5.40896
#
# Compressibility (1/GPa) = 0.03371571
#
# Stress axis : x y z
#
# Youngs Moduli (GPa) = 30.40193 70.71668 118.00890
#
# Poissons Ratio (x) = 0.53004 0.45127
# Poissons Ratio (y) = 0.22787 -0.04996
# Poissons Ratio (z) = 0.11626 -0.02994
#
# Static dielectric constant tensor:
#      x y z
#    x 2.133980 0.000000 -0.022250 
#    y 0.000000 2.177450 0.000000 
#    z -0.022250 0.000000 2.147510 
# 
# From -- ./inp_files/67097.got.cif
#   From: 2010.05.17/outbox.cif.g08.bks.cpg/sg14_34_cif.got.tgz:67097.got - 2010.06.03 17:49:19.
