data_PCOD9247576
_publ_section_title
;
Structure prediction by ZEFSAII (Michael W. Deem and Ramdas Pophale) SiO2 
 PCOD9247576
Probable space group: P 21/C
;
_chemical_formula_sum "Si O2"
_cell_formula_units_Z 20
_cell_length_a 14.267177
_cell_length_b 4.747635
_cell_length_c 11.096620
_cell_angle_alpha 90.000000
_cell_angle_beta 93.046612
_cell_angle_gamma 90.000000
_cell_volume 750.571089
_symmetry_space_group_name_H-M "P 21/C"
_symmetry_group_IT_number 14
_symmetry_cell_setting 'monoclinic'
loop_
_space_group_symop_operation_xyz
x,y,z
-x,1/2+y,1/2-z
-x,-y,-z
x,1/2-y,1/2+z
loop_
_atom_site_type_symbol
_atom_site_label
_atom_site_fract_x
_atom_site_fract_y
_atom_site_fract_z
Si Si1 0.014670 0.758014 0.172799
Si Si2 0.264853 0.961392 0.450183
Si Si3 0.851499 0.951382 0.987775
Si Si4 0.621555 0.785405 0.222981
Si Si5 0.418462 0.712899 0.624245
O O1 0.110043 0.888259 0.126826
O O2 0.016761 0.436780 0.212763
O O3 0.936739 0.809049 0.065786
O O4 0.192926 0.702868 0.434986
O O5 0.290531 0.148286 0.336499
O O6 0.220774 0.196509 0.536767
O O7 0.357894 0.812894 0.508514
O O8 0.622648 0.105769 0.265954
O O9 0.529934 0.745227 0.131319
O O10 0.597580 0.608673 0.341154
#
# Coordination Sequence:
#
# PCOD9247576 Si02
#       5
#     4   4   4   4   4
#     4  11  24  45  66  84 120 159 188 241 304 354
#     4  12  23  39  62  90 124 152 194 253 293 336
#     4  11  26  40  61  96 116 148 205 240 290 369
#     4  10  22  39  59  86 121 162 202 238 288 348
#     4  10  22  39  59  86 121 162 202 238 288 348
#
# _framework density 26.646380000000001
#
# number of rings (size 3 to 8) (size 9 to 14) (size 15 to 20)
#    0.000    1.200    0.000    5.400    0.000   12.800 
#    0.000    8.000    0.000    0.000    0.000    0.000 
#    0.000    0.000    0.000    0.000    0.000    0.000 
#
# Total GULP energy -112151.440552 kJ/mol
# GULP energy per Si atom -5607.572028 kJ/mol
# Density = 2.658573 g / cm^3
# Si number density = 26.646380 Si / 1000 Ang^3
#
#
#
# Elastic Constant Matrix: (Units=GPa)
#
#
# Indices 1 2 3 4 5 6 
#
# 1 45.2717 22.4120 5.1792 0.0000 -1.7000 0.0000
# 2 22.4120 103.4589 -5.2584 0.0000 -10.7103 0.0000
# 3 5.1792 -5.2584 55.5526 0.0000 -6.6670 0.0000
# 4 0.0000 0.0000 0.0000 42.8637 0.0000 -6.3237
# 5 -1.7000 -10.7103 -6.6670 0.0000 35.8995 0.0000
# 6 0.0000 0.0000 0.0000 -6.3237 0.0000 10.4748
#
#
#
# Elastic Compliance Matrix: (Units=1/GPa)
#
#
# Indices 1 2 3 4 5 6 
#
# 1 0.025232 -0.005731 -0.003024 0.000000 -0.001077 0.000000
# 2 -0.005731 0.011373 0.002031 0.000000 0.003499 0.000000
# 3 -0.003024 0.002031 0.018953 0.000000 0.003982 0.000000
# 4 0.000000 0.000000 0.000000 0.025611 0.000000 0.015461
# 5 -0.001077 0.003499 0.003982 0.000000 0.029588 0.000000
# 6 0.000000 0.000000 0.000000 0.015461 0.000000 0.104801
#
#
# Mechanical properties :
#
#
# Convention : Reuss Voigt Hill
#
# Bulk Modulus (GPa) = 23.74822 27.66099 25.70461
# Shear Modulus (GPa) = 20.57261 29.97765 25.27513
#
# Velocity S-wave (km/s) = 2.78161 3.35777 3.08318
# Velocity P-wave (km/s) = 4.38728 5.04342 4.72675
#
# Compressibility (1/GPa) = 0.04210841
#
# Stress axis : x y z
#
# Youngs Moduli (GPa) = 39.63298 87.93102 52.76203
#
# Poissons Ratio (x) = 0.50393 0.15955
# Poissons Ratio (y) = 0.22714 -0.10714
# Poissons Ratio (z) = 0.11985 -0.17856
#
# Static dielectric constant tensor:
#      x y z
#    x 2.074940 0.000000 -0.023950 
#    y 0.000000 1.963950 0.000000 
#    z -0.023950 0.000000 2.084750 
# 
# From -- ./inp_files/2459.got.cif
#   From: 2010.05.17/outbox.cif.g08.bks.cpg/sg14_2_cif.got.tgz:2459.got - 2010.06.03 17:49:19.
