data_PCOD9247704
_publ_section_title
;
Structure prediction by ZEFSAII (Michael W. Deem and Ramdas Pophale) SiO2 
 PCOD9247704
Probable space group: P 21/C
;
_chemical_formula_sum "Si O2"
_cell_formula_units_Z 28
_cell_length_a 11.889515
_cell_length_b 12.301392
_cell_length_c 9.692552
_cell_angle_alpha 90.000000
_cell_angle_beta 55.472166
_cell_angle_gamma 90.000000
_cell_volume 1167.898701
_symmetry_space_group_name_H-M "P 21/C"
_symmetry_group_IT_number 14
_symmetry_cell_setting 'monoclinic'
loop_
_space_group_symop_operation_xyz
x,y,z
-x,1/2+y,1/2-z
-x,-y,-z
x,1/2-y,1/2+z
loop_
_atom_site_type_symbol
_atom_site_label
_atom_site_fract_x
_atom_site_fract_y
_atom_site_fract_z
Si Si1 0.547291 0.000350 0.780088
Si Si2 0.767753 0.015371 0.411202
Si Si3 0.721284 0.413720 0.653043
Si Si4 0.343826 0.275626 0.718922
Si Si5 0.083908 0.192458 0.567143
Si Si6 0.911287 0.273716 0.926949
Si Si7 0.512789 0.266123 0.357428
O O1 0.616996 0.002300 0.580375
O O2 0.566008 0.113243 0.845222
O O3 0.387562 0.974357 0.868699
O O4 0.630582 0.905160 0.796872
O O5 0.773749 0.011568 0.241264
O O6 0.816695 0.133494 0.428458
O O7 0.862381 0.923203 0.414884
O O8 0.836031 0.342893 0.496220
O O9 0.629194 0.321673 0.792595
O O10 0.380892 0.237411 0.541149
O O11 0.464040 0.233000 0.733748
O O12 0.203687 0.252828 0.892718
O O13 0.035234 0.259805 0.733200
O O14 0.960857 0.187475 0.542875
#
# Coordination Sequence:
#
# PCOD9247704 Si02
#       7
#     4   4   4   4   4   4   4
#     4  10  22  39  66 103 134 169 221 282 350 410
#     4  11  23  47  69 101 138 182 229 282 346 401
#     4  11  24  41  73 104 133 181 220 285 351 406
#     4  10  23  40  63  98 128 178 222 276 338 397
#     4  11  26  45  69  95 139 187 234 278 332 403
#     4  12  24  47  69  99 140 183 233 280 338 407
#     4  11  21  41  68  98 139 167 221 286 346 410
#
# _framework density 23.974682999999999
#
# number of rings (size 3 to 8) (size 9 to 14) (size 15 to 20)
#    0.000    1.143    2.857    3.000    2.000    4.000 
#   10.286    0.000    0.000    0.000    0.000    0.000 
#    0.000    0.000    0.000    0.000    0.000    0.000 
#
# Total GULP energy -156658.749717 kJ/mol
# GULP energy per Si atom -5594.955347 kJ/mol
# Density = 2.392012 g / cm^3
# Si number density = 23.974683 Si / 1000 Ang^3
#
#
#
# Elastic Constant Matrix: (Units=GPa)
#
#
# Indices 1 2 3 4 5 6 
#
# 1 65.5178 4.1555 5.1452 0.0000 11.2140 0.0000
# 2 4.1555 64.8219 26.1885 0.0000 -3.0838 0.0000
# 3 5.1452 26.1885 103.1168 0.0000 -0.8019 0.0000
# 4 0.0000 0.0000 0.0000 32.3723 0.0000 -2.0262
# 5 11.2140 -3.0838 -0.8019 0.0000 38.6684 0.0000
# 6 0.0000 0.0000 0.0000 -2.0262 0.0000 25.8460
#
#
#
# Elastic Compliance Matrix: (Units=1/GPa)
#
#
# Indices 1 2 3 4 5 6 
#
# 1 0.016194 -0.001030 -0.000584 0.000000 -0.004791 0.000000
# 2 -0.001030 0.017320 -0.004335 0.000000 0.001590 0.000000
# 3 -0.000584 -0.004335 0.010828 0.000000 0.000048 0.000000
# 4 0.000000 0.000000 0.000000 0.031043 0.000000 0.002434
# 5 -0.004791 0.001590 0.000048 0.000000 0.027378 0.000000
# 6 0.000000 0.000000 0.000000 0.002434 0.000000 0.038881
#
#
# Mechanical properties :
#
#
# Convention : Reuss Voigt Hill
#
# Bulk Modulus (GPa) = 30.82179 33.82609 32.32394
# Shear Modulus (GPa) = 30.42155 32.57519 31.49837
#
# Velocity S-wave (km/s) = 3.56603 3.69010 3.62860
# Velocity P-wave (km/s) = 5.46254 5.68291 5.57381
#
# Compressibility (1/GPa) = 0.03244458
#
# Stress axis : x y z
#
# Youngs Moduli (GPa) = 61.75061 57.73701 92.35162
#
# Poissons Ratio (x) = 0.05948 0.05390
# Poissons Ratio (y) = 0.06362 0.40034
# Poissons Ratio (z) = 0.03604 0.25029
#
# Static dielectric constant tensor:
#      x y z
#    x 1.928030 0.000000 -0.013460 
#    y 0.000000 1.964830 0.000000 
#    z -0.013460 0.000000 1.940350 
# 
# From -- ./inp_files/13227.got.cif
#   From: 2010.05.17/outbox.cif.g08.bks.cpg/sg14_7_cif.got.tgz:13227.got - 2010.06.03 17:49:19.
