data_PCOD9247543
_publ_section_title
;
Structure prediction by ZEFSAII (Michael W. Deem and Ramdas Pophale) SiO2 
 PCOD9247543
Probable space group: P 21/C
;
_chemical_formula_sum "Si O2"
_cell_formula_units_Z 20
_cell_length_a 5.629510
_cell_length_b 8.710003
_cell_length_c 18.844663
_cell_angle_alpha 90.000000
_cell_angle_beta 74.464927
_cell_angle_gamma 90.000000
_cell_volume 890.254089
_symmetry_space_group_name_H-M "P 21/C"
_symmetry_group_IT_number 14
_symmetry_cell_setting 'monoclinic'
loop_
_space_group_symop_operation_xyz
x,y,z
-x,1/2+y,1/2-z
-x,-y,-z
x,1/2-y,1/2+z
loop_
_atom_site_type_symbol
_atom_site_label
_atom_site_fract_x
_atom_site_fract_y
_atom_site_fract_z
Si Si1 0.557527 0.345031 0.951453
Si Si2 0.771699 0.475249 0.265625
Si Si3 0.007992 0.314116 0.005647
Si Si4 0.029125 0.788555 0.830337
Si Si5 0.468499 0.826993 0.702336
O O1 0.288953 0.264844 0.965912
O O2 0.628854 0.384240 0.865246
O O3 0.783369 0.261549 0.972922
O O4 0.500000 0.500000 0.000000
O O5 0.830903 0.583884 0.326402
O O6 0.550227 0.356723 0.298929
O O7 0.714395 0.585892 0.203763
O O8 0.985496 0.358452 0.221814
O O9 0.963047 0.264922 0.090113
O O10 0.000000 0.500000 0.000000
O O11 0.286819 0.858765 0.782722
#
# Coordination Sequence:
#
# PCOD9247543 Si02
#       5
#     4   4   4   4   4
#     4  10  22  38  67  95 137 183 238 282 349 431
#     4  10  24  39  70  98 146 173 252 287 361 413
#     4  10  22  39  66  96 135 184 237 283 351 430
#     4  10  25  41  70 102 137 187 238 298 347 433
#     4  10  25  41  69 104 135 188 237 296 348 431
#
# _framework density 22.465495000000001
#
# number of rings (size 3 to 8) (size 9 to 14) (size 15 to 20)
#    1.200    0.800    0.000    2.400   14.000    0.000 
#    0.000    2.000    0.000    0.000    0.000    0.000 
#    0.000    0.000    0.000    0.000    0.000    0.000 
#
# Total GULP energy -111345.385357 kJ/mol
# GULP energy per Si atom -5567.269268 kJ/mol
# Density = 2.241436 g / cm^3
# Si number density = 22.465495 Si / 1000 Ang^3
#
#
#
# Elastic Constant Matrix: (Units=GPa)
#
#
# Indices 1 2 3 4 5 6 
#
# 1 117.8410 28.4568 7.4831 0.0000 6.3365 0.0000
# 2 28.4568 93.5492 4.7084 0.0000 4.9531 0.0000
# 3 7.4831 4.7084 20.6675 0.0000 -16.3120 0.0000
# 4 0.0000 0.0000 0.0000 32.7525 0.0000 14.0166
# 5 6.3365 4.9531 -16.3120 0.0000 26.4433 0.0000
# 6 0.0000 0.0000 0.0000 14.0166 0.0000 23.3199
#
#
#
# Elastic Compliance Matrix: (Units=1/GPa)
#
#
# Indices 1 2 3 4 5 6 
#
# 1 0.010004 -0.002178 -0.009151 0.000000 -0.007634 0.000000
# 2 -0.002178 0.011977 -0.006428 0.000000 -0.005687 0.000000
# 3 -0.009151 -0.006428 0.108828 0.000000 0.070529 0.000000
# 4 0.000000 0.000000 0.000000 0.041105 0.000000 -0.024707
# 5 -0.007634 -0.005687 0.070529 0.000000 0.084218 0.000000
# 6 0.000000 0.000000 0.000000 -0.024707 0.000000 0.057732
#
#
# Mechanical properties :
#
#
# Convention : Reuss Voigt Hill
#
# Bulk Modulus (GPa) = 10.49380 34.81714 22.65547
# Shear Modulus (GPa) = 13.11840 29.26375 21.19108
#
# Velocity S-wave (km/s) = 2.41910 3.61308 3.07461
# Velocity P-wave (km/s) = 3.53326 5.73912 4.76558
#
# Compressibility (1/GPa) = 0.09529433
#
# Stress axis : x y z
#
# Youngs Moduli (GPa) = 99.96373 83.49492 9.18877
#
# Poissons Ratio (x) = 0.18187 0.08409
# Poissons Ratio (y) = 0.21774 0.05907
# Poissons Ratio (z) = 0.91477 0.53671
#
# Static dielectric constant tensor:
#      x y z
#    x 1.962260 0.000000 -0.029660 
#    y 0.000000 1.836430 0.000000 
#    z -0.029660 0.000000 1.823600 
# 
# From -- ./inp_files/52632.got.cif
#   From: 2010.05.17/outbox.cif.g08.bks.cpg/sg14_27_cif.got.tgz:52632.got - 2010.06.03 17:49:19.
