data_PCOD9247205
_publ_section_title
;
Structure prediction by ZEFSAII (Michael W. Deem and Ramdas Pophale) SiO2 
 PCOD9247205
Probable space group: P 21/C
;
_chemical_formula_sum "Si O2"
_cell_formula_units_Z 32
_cell_length_a 15.284807
_cell_length_b 11.189064
_cell_length_c 7.715104
_cell_angle_alpha 90.000000
_cell_angle_beta 92.482346
_cell_angle_gamma 90.000000
_cell_volume 1318.219631
_symmetry_space_group_name_H-M "P 21/C"
_symmetry_group_IT_number 14
_symmetry_cell_setting 'monoclinic'
loop_
_space_group_symop_operation_xyz
x,y,z
-x,1/2+y,1/2-z
-x,-y,-z
x,1/2-y,1/2+z
loop_
_atom_site_type_symbol
_atom_site_label
_atom_site_fract_x
_atom_site_fract_y
_atom_site_fract_z
Si Si1 0.683206 0.928660 0.829702
Si Si2 0.552412 0.187522 0.410418
Si Si3 0.726662 0.389225 0.035984
Si Si4 0.095816 0.851412 0.251363
Si Si5 0.665066 0.029693 0.190834
Si Si6 0.980542 0.687566 0.045528
Si Si7 0.427339 0.309908 0.190913
Si Si8 0.880100 0.898998 0.857789
O O1 0.611604 0.823674 0.832311
O O2 0.778450 0.869614 0.865579
O O3 0.691917 0.999194 0.648541
O O4 0.675343 0.023294 0.986888
O O5 0.643471 0.199961 0.521926
O O6 0.509077 0.304973 0.329306
O O7 0.473794 0.141352 0.523380
O O8 0.580177 0.100431 0.256203
O O9 0.812870 0.343736 0.138058
O O10 0.738147 0.423707 0.833868
O O11 0.065345 0.729469 0.160702
O O12 0.016721 0.877869 0.379467
O O13 0.106358 0.959487 0.116150
O O14 0.647875 0.892904 0.243863
O O15 0.912610 0.622341 0.163605
O O16 0.935318 0.810856 0.980659
#
# Coordination Sequence:
#
# PCOD9247205 Si02
#       8
#     4   4   4   4   4   4   4   4
#     4  11  24  41  70  97 135 181 224 275 343 397
#     4  10  25  41  63  95 136 171 225 283 324 401
#     4   9  24  46  63  97 137 175 227 277 330 407
#     4  10  21  45  67  98 141 181 222 285 344 404
#     4  10  24  44  65  97 131 182 216 287 332 396
#     4  10  22  41  71 102 137 178 229 277 344 423
#     4  12  22  41  68  97 131 178 226 276 338 396
#     4  10  23  42  65 107 137 176 228 283 344 411
#
# _framework density 24.275167
#
# number of rings (size 3 to 8) (size 9 to 14) (size 15 to 20)
#    0.750    1.000    1.250    1.875    3.500    3.500 
#   15.750    0.000    0.000    0.000    0.000    0.000 
#    0.000    0.000    0.000    0.000    0.000    0.000 
#
# Total GULP energy -178669.838263 kJ/mol
# GULP energy per Si atom -5583.432446 kJ/mol
# Density = 2.421992 g / cm^3
# Si number density = 24.275167 Si / 1000 Ang^3
#
#
#
# Elastic Constant Matrix: (Units=GPa)
#
#
# Indices 1 2 3 4 5 6 
#
# 1 123.3861 27.7626 23.1361 0.0000 14.2297 0.0000
# 2 27.7626 41.7475 3.3021 0.0000 3.7631 0.0000
# 3 23.1361 3.3021 45.9754 0.0000 0.3206 0.0000
# 4 0.0000 0.0000 0.0000 26.1759 0.0000 -7.5073
# 5 14.2297 3.7631 0.3206 0.0000 39.5946 0.0000
# 6 0.0000 0.0000 0.0000 -7.5073 0.0000 27.7061
#
#
#
# Elastic Compliance Matrix: (Units=1/GPa)
#
#
# Indices 1 2 3 4 5 6 
#
# 1 0.010889 -0.006554 -0.004986 0.000000 -0.003250 0.000000
# 2 -0.006554 0.028242 0.001272 0.000000 -0.000339 0.000000
# 3 -0.004986 0.001272 0.024158 0.000000 0.001476 0.000000
# 4 0.000000 0.000000 0.000000 0.041422 0.000000 0.011224
# 5 -0.003250 -0.000339 0.001476 0.000000 0.026444 0.000000
# 6 0.000000 0.000000 0.000000 0.011224 0.000000 0.039134
#
#
# Mechanical properties :
#
#
# Convention : Reuss Voigt Hill
#
# Bulk Modulus (GPa) = 23.39016 35.50118 29.44567
# Shear Modulus (GPa) = 24.38098 29.15585 26.76841
#
# Velocity S-wave (km/s) = 3.17260 3.46939 3.32431
# Velocity P-wave (km/s) = 4.80384 5.54122 5.18565
#
# Compressibility (1/GPa) = 0.04275302
#
# Stress axis : x y z
#
# Youngs Moduli (GPa) = 91.83446 35.40822 41.39351
#
# Poissons Ratio (x) = 0.23207 0.20640
# Poissons Ratio (y) = 0.60189 -0.05266
# Poissons Ratio (z) = 0.45792 -0.04504
#
# Static dielectric constant tensor:
#      x y z
#    x 1.905210 0.000000 0.012440 
#    y 0.000000 1.949630 0.000000 
#    z 0.012440 0.000000 2.011560 
# 
# From -- ./inp_files/15810.got.cif
#   From: 2010.05.17/outbox.cif.g08.bks.cpg/sg14_8_cif.got.tgz:15810.got - 2010.06.03 17:49:19.
