data_PCOD9247277
_publ_section_title
;
Structure prediction by ZEFSAII (Michael W. Deem and Ramdas Pophale) SiO2 
 PCOD9247277
Probable space group: P 21/C
;
_chemical_formula_sum "Si O2"
_cell_formula_units_Z 22
_cell_length_a 13.116831
_cell_length_b 4.813694
_cell_length_c 18.442007
_cell_angle_alpha 90.000000
_cell_angle_beta 53.993501
_cell_angle_gamma 90.000000
_cell_volume 941.970787
_symmetry_space_group_name_H-M "P 21/C"
_symmetry_group_IT_number 14
_symmetry_cell_setting 'monoclinic'
loop_
_space_group_symop_operation_xyz
x,y,z
-x,1/2+y,1/2-z
-x,-y,-z
x,1/2-y,1/2+z
loop_
_atom_site_type_symbol
_atom_site_label
_atom_site_fract_x
_atom_site_fract_y
_atom_site_fract_z
Si Si1 0.343759 0.373146 0.355438
Si Si2 0.697967 0.030718 0.967213
Si Si3 0.355498 0.878276 0.258707
Si Si4 0.689916 0.842580 0.335454
Si Si5 0.500000 0.500000 0.000000
Si Si6 0.084099 0.815293 0.711281
O O1 0.287753 0.455257 0.455537
O O2 0.310788 0.063247 0.346455
O O3 0.493797 0.404493 0.301734
O O4 0.313168 0.570237 0.298994
O O5 0.586464 0.243036 0.998136
O O6 0.827010 0.162394 0.883759
O O7 0.663742 0.756378 0.932430
O O8 0.309137 0.062497 0.210312
O O9 0.569632 0.042693 0.387003
O O10 0.818650 0.010567 0.280465
O O11 0.006539 0.562139 0.779103
#
# Coordination Sequence:
#
# PCOD9247277 Si02
#       6
#     4   4   4   4   2   4
#     4  10  23  37  57  90 136 171 197 242 314 390
#     4  11  23  38  67  93 130 166 213 269 309 382
#     4  10  23  37  57  90 136 171 197 242 314 390
#     4  11  23  38  67  93 130 166 213 269 309 382
#     4  10  22  32  60 102 128 152 214 254 320 366
#     4  11  24  43  64  95 118 161 220 278 320 357
#
# _framework density 23.355288000000002
#
# number of rings (size 3 to 8) (size 9 to 14) (size 15 to 20)
#    0.000    1.455    3.636    0.545   10.182    0.000 
#    0.000    0.000    0.000    6.545    0.000    0.000 
#    0.000    0.000    0.000    0.000    0.000    0.000 
#
# Total GULP energy -122611.170007 kJ/mol
# GULP energy per Si atom -5573.235000 kJ/mol
# Density = 2.330213 g / cm^3
# Si number density = 23.355288 Si / 1000 Ang^3
#
#
#
# Elastic Constant Matrix: (Units=GPa)
#
#
# Indices 1 2 3 4 5 6 
#
# 1 49.3688 12.8961 29.2932 0.0000 -5.4349 0.0000
# 2 12.8961 97.6008 -17.3751 0.0000 -15.1673 0.0000
# 3 29.2932 -17.3751 43.8409 0.0000 -1.8601 0.0000
# 4 0.0000 0.0000 0.0000 20.1585 0.0000 2.4649
# 5 -5.4349 -15.1673 -1.8601 0.0000 34.1431 0.0000
# 6 0.0000 0.0000 0.0000 2.4649 0.0000 41.7829
#
#
#
# Elastic Compliance Matrix: (Units=1/GPa)
#
#
# Indices 1 2 3 4 5 6 
#
# 1 0.043149 -0.011681 -0.033466 0.000000 -0.000144 0.000000
# 2 -0.011681 0.015169 0.014056 0.000000 0.005645 0.000000
# 3 -0.033466 0.014056 0.050899 0.000000 0.003690 0.000000
# 4 0.000000 0.000000 0.000000 0.049967 0.000000 -0.002948
# 5 -0.000144 0.005645 0.003690 0.000000 0.031974 0.000000
# 6 0.000000 0.000000 0.000000 -0.002948 0.000000 0.024107
#
#
# Mechanical properties :
#
#
# Convention : Reuss Voigt Hill
#
# Bulk Modulus (GPa) = 21.26157 26.71544 23.98850
# Shear Modulus (GPa) = 17.05753 30.28330 23.67042
#
# Velocity S-wave (km/s) = 2.70543 3.60479 3.18699
# Velocity P-wave (km/s) = 4.34539 5.36559 4.88221
#
# Compressibility (1/GPa) = 0.04703322
#
# Stress axis : x y z
#
# Youngs Moduli (GPa) = 23.17564 65.92459 19.64692
#
# Poissons Ratio (x) = 0.77009 0.65751
# Poissons Ratio (y) = 0.27072 -0.27617
# Poissons Ratio (z) = 0.77561 -0.92666
#
# Static dielectric constant tensor:
#      x y z
#    x 1.687230 0.000000 0.276050 
#    y 0.000000 1.643430 0.000000 
#    z 0.276050 0.000000 1.819970 
# 
# From -- ./inp_files/51025.got.cif
#   From: 2010.05.17/outbox.cif.g08.bks.cpg/sg14_26_cif.got.tgz:51025.got - 2010.06.03 17:49:19.
