data_PCOD9247486
_publ_section_title
;
Structure prediction by ZEFSAII (Michael W. Deem and Ramdas Pophale) SiO2 
 PCOD9247486
Probable space group: P 21/C
;
_chemical_formula_sum "Si O2"
_cell_formula_units_Z 22
_cell_length_a 4.853795
_cell_length_b 8.141841
_cell_length_c 23.489248
_cell_angle_alpha 90.000000
_cell_angle_beta 107.178115
_cell_angle_gamma 90.000000
_cell_volume 886.858670
_symmetry_space_group_name_H-M "P 21/C"
_symmetry_group_IT_number 14
_symmetry_cell_setting 'monoclinic'
loop_
_space_group_symop_operation_xyz
x,y,z
-x,1/2+y,1/2-z
-x,-y,-z
x,1/2-y,1/2+z
loop_
_atom_site_type_symbol
_atom_site_label
_atom_site_fract_x
_atom_site_fract_y
_atom_site_fract_z
Si Si1 0.150456 0.029242 0.407866
Si Si2 0.906106 0.386137 0.414411
Si Si3 0.655290 0.297661 0.995752
Si Si4 0.684928 0.979889 0.788027
Si Si5 0.082291 0.384116 0.220248
Si Si6 0.500000 0.500000 0.500000
O O1 0.968595 0.195342 0.403396
O O2 0.476375 0.086194 0.443040
O O3 0.108614 0.893976 0.454846
O O4 0.100753 0.951124 0.344002
O O5 0.205700 0.477577 0.438628
O O6 0.739466 0.370038 0.465237
O O7 0.710448 0.468455 0.355102
O O8 0.438498 0.195401 0.021868
O O9 0.362170 0.002644 0.746355
O O10 0.889263 0.102098 0.764618
O O11 0.804291 0.798239 0.784566
#
# Coordination Sequence:
#
# PCOD9247486 Si02
#       6
#     4   4   4   4   4   2
#     4  10  23  42  68 100 138 182 239 294 366 426
#     4  11  23  42  69 100 141 185 240 296 363 429
#     4  10  22  42  67 101 140 181 236 295 364 425
#     4  12  28  48  76 104 148 192 246 304 363 436
#     4  12  27  50  72 109 141 197 245 300 365 438
#     4  10  22  38  62  98 134 180 226 296 344 432
#
# _framework density 24.806660999999998
#
# number of rings (size 3 to 8) (size 9 to 14) (size 15 to 20)
#    0.000    1.091    0.000    5.455   10.182    0.000 
#    6.545    0.000    0.000    0.000    0.000    0.000 
#    0.000    0.000    0.000    0.000    0.000    0.000 
#
# Total GULP energy -122838.057608 kJ/mol
# GULP energy per Si atom -5583.548073 kJ/mol
# Density = 2.475020 g / cm^3
# Si number density = 24.806661 Si / 1000 Ang^3
#
#
#
# Elastic Constant Matrix: (Units=GPa)
#
#
# Indices 1 2 3 4 5 6 
#
# 1 67.3337 3.4732 24.6367 0.0000 -3.3883 0.0000
# 2 3.4732 125.3541 59.2148 0.0000 5.6191 0.0000
# 3 24.6367 59.2148 140.0936 0.0000 8.3411 0.0000
# 4 0.0000 0.0000 0.0000 25.2706 0.0000 -0.0383
# 5 -3.3883 5.6191 8.3411 0.0000 39.2748 0.0000
# 6 0.0000 0.0000 0.0000 -0.0383 0.0000 38.7971
#
#
#
# Elastic Compliance Matrix: (Units=1/GPa)
#
#
# Indices 1 2 3 4 5 6 
#
# 1 0.016143 0.001076 -0.003410 0.000000 0.001963 0.000000
# 2 0.001076 0.010051 -0.004413 0.000000 -0.000408 0.000000
# 3 -0.003410 -0.004413 0.009706 0.000000 -0.001724 0.000000
# 4 0.000000 0.000000 0.000000 0.039572 0.000000 0.000039
# 5 0.001963 -0.000408 -0.001724 0.000000 0.026056 0.000000
# 6 0.000000 0.000000 0.000000 0.000039 0.000000 0.025775
#
#
# Mechanical properties :
#
#
# Convention : Reuss Voigt Hill
#
# Bulk Modulus (GPa) = 44.63598 56.38121 50.50860
# Shear Modulus (GPa) = 33.72353 37.03228 35.37790
#
# Velocity S-wave (km/s) = 3.69108 3.86792 3.78053
# Velocity P-wave (km/s) = 6.01648 6.53646 6.28185
#
# Compressibility (1/GPa) = 0.02240345
#
# Stress axis : x y z
#
# Youngs Moduli (GPa) = 61.94820 99.49738 103.03133
#
# Poissons Ratio (x) = -0.10703 0.35138
# Poissons Ratio (y) = -0.06664 0.45468
# Poissons Ratio (z) = 0.21127 0.43909
#
# Static dielectric constant tensor:
#      x y z
#    x 2.151650 0.000000 -0.112520 
#    y 0.000000 2.094160 0.000000 
#    z -0.112520 0.000000 1.973130 
# 
# From -- ./inp_files/63065.got.cif
#   From: 2010.05.17/outbox.cif.g08.bks.cpg/sg14_32_cif.got.tgz:63065.got - 2010.06.03 17:49:19.
