data_PCOD9247153
_publ_section_title
;
Structure prediction by ZEFSAII (Michael W. Deem and Ramdas Pophale) SiO2 
 PCOD9247153
Probable space group: P 21/C
;
_chemical_formula_sum "Si O2"
_cell_formula_units_Z 20
_cell_length_a 9.424513
_cell_length_b 11.381372
_cell_length_c 10.414280
_cell_angle_alpha 90.000000
_cell_angle_beta 46.989160
_cell_angle_gamma 90.000000
_cell_volume 816.833639
_symmetry_space_group_name_H-M "P 21/C"
_symmetry_group_IT_number 14
_symmetry_cell_setting 'monoclinic'
loop_
_space_group_symop_operation_xyz
x,y,z
-x,1/2+y,1/2-z
-x,-y,-z
x,1/2-y,1/2+z
loop_
_atom_site_type_symbol
_atom_site_label
_atom_site_fract_x
_atom_site_fract_y
_atom_site_fract_z
Si Si1 0.269051 0.003900 0.113180
Si Si2 0.568279 0.677015 0.668953
Si Si3 0.850329 0.857721 0.569224
Si Si4 0.323013 0.968595 0.516158
Si Si5 0.785093 0.255333 0.280126
O O1 0.157899 0.052910 0.307052
O O2 0.213820 0.868330 0.124747
O O3 0.266733 0.099235 0.002162
O O4 0.500000 0.000000 0.000000
O O5 0.674480 0.766559 0.697583
O O6 0.427030 0.591010 0.831037
O O7 0.426200 0.742708 0.657318
O O8 0.048973 0.788025 0.424792
O O9 0.793727 0.922721 0.470689
O O10 0.194101 0.869100 0.664165
O O11 0.500000 0.000000 0.500000
#
# Coordination Sequence:
#
# PCOD9247153 Si02
#       5
#     4   4   4   4   4
#     4  10  21  44  69  98 132 192 233 278 356 416
#     4  11  24  45  72  98 142 182 239 290 352 422
#     4  12  25  43  73 105 139 186 238 293 351 429
#     4  12  26  46  70 104 145 184 233 297 355 414
#     4  11  25  42  69 102 138 186 234 288 357 417
#
# _framework density 24.484791000000001
#
# number of rings (size 3 to 8) (size 9 to 14) (size 15 to 20)
#    0.000    0.800    6.000    3.000    2.800    0.000 
#    0.000    1.000    0.000    0.000    0.000    0.000 
#    0.000    0.000    0.000    0.000    0.000    0.000 
#
# Total GULP energy -111942.617747 kJ/mol
# GULP energy per Si atom -5597.130887 kJ/mol
# Density = 2.442906 g / cm^3
# Si number density = 24.484791 Si / 1000 Ang^3
#
#
#
# Elastic Constant Matrix: (Units=GPa)
#
#
# Indices 1 2 3 4 5 6 
#
# 1 67.1539 16.0607 13.1065 0.0000 -10.9389 0.0000
# 2 16.0607 57.1391 14.2243 0.0000 -9.5662 0.0000
# 3 13.1065 14.2243 111.9336 0.0000 -16.9510 0.0000
# 4 0.0000 0.0000 0.0000 46.0075 0.0000 3.2018
# 5 -10.9389 -9.5662 -16.9510 0.0000 34.0763 0.0000
# 6 0.0000 0.0000 0.0000 3.2018 0.0000 29.2519
#
#
#
# Elastic Compliance Matrix: (Units=1/GPa)
#
#
# Indices 1 2 3 4 5 6 
#
# 1 0.016596 -0.003806 -0.000881 0.000000 0.003821 0.000000
# 2 -0.003806 0.019534 -0.001505 0.000000 0.003514 0.000000
# 3 -0.000881 -0.001505 0.009865 0.000000 0.004202 0.000000
# 4 0.000000 0.000000 0.000000 0.021902 0.000000 -0.002397
# 5 0.003821 0.003514 0.004202 0.000000 0.033649 0.000000
# 6 0.000000 0.000000 0.000000 -0.002397 0.000000 0.034448
#
#
# Mechanical properties :
#
#
# Convention : Reuss Voigt Hill
#
# Bulk Modulus (GPa) = 29.75195 35.88997 32.82096
# Shear Modulus (GPa) = 31.33229 34.72284 33.02756
#
# Velocity S-wave (km/s) = 3.58112 3.76990 3.67672
# Velocity P-wave (km/s) = 5.41080 5.79995 5.60875
#
# Compressibility (1/GPa) = 0.03361124
#
# Stress axis : x y z
#
# Youngs Moduli (GPa) = 60.25669 51.19365 101.37315
#
# Poissons Ratio (x) = 0.19483 0.08931
# Poissons Ratio (y) = 0.22932 0.15253
# Poissons Ratio (z) = 0.05308 0.07703
#
# Static dielectric constant tensor:
#      x y z
#    x 1.982480 0.000000 0.016050 
#    y 0.000000 1.966370 0.000000 
#    z 0.016050 0.000000 1.950150 
# 
# From -- ./inp_files/23730.got.cif
#   From: 2010.05.17/outbox.cif.g08.bks.cpg/sg14_12_cif.got.tgz:23730.got - 2010.06.03 17:49:19.
