data_PCOD9247590
_publ_section_title
;
Structure prediction by ZEFSAII (Michael W. Deem and Ramdas Pophale) SiO2 
 PCOD9247590
Probable space group: P 21/C
;
_chemical_formula_sum "Si O2"
_cell_formula_units_Z 28
_cell_length_a 15.992266
_cell_length_b 6.643213
_cell_length_c 13.737936
_cell_angle_alpha 90.000000
_cell_angle_beta 66.137696
_cell_angle_gamma 90.000000
_cell_volume 1334.759513
_symmetry_space_group_name_H-M "P 21/C"
_symmetry_group_IT_number 14
_symmetry_cell_setting 'monoclinic'
loop_
_space_group_symop_operation_xyz
x,y,z
-x,1/2+y,1/2-z
-x,-y,-z
x,1/2-y,1/2+z
loop_
_atom_site_type_symbol
_atom_site_label
_atom_site_fract_x
_atom_site_fract_y
_atom_site_fract_z
Si Si1 0.584725 0.780028 0.295812
Si Si2 0.717340 0.978790 0.600461
Si Si3 0.129050 0.513943 0.629470
Si Si4 0.617048 0.373226 0.638811
Si Si5 0.682780 0.681309 0.447148
Si Si6 0.981637 0.124122 0.354378
Si Si7 0.096229 0.222985 0.475571
O O1 0.638242 0.618998 0.203757
O O2 0.477101 0.743647 0.335857
O O3 0.620654 0.745794 0.387073
O O4 0.609396 0.997975 0.240913
O O5 0.699332 0.214823 0.604084
O O6 0.710386 0.876103 0.497549
O O7 0.814080 0.904248 0.595875
O O8 0.225257 0.437923 0.626624
O O9 0.047284 0.425017 0.733829
O O10 0.125030 0.418094 0.523036
O O11 0.107741 0.750808 0.634224
O O12 0.631583 0.531860 0.545344
O O13 0.036472 0.257694 0.408070
O O14 0.956722 0.921206 0.423528
#
# Coordination Sequence:
#
# PCOD9247590 Si02
#       7
#     4   4   4   4   4   4   4
#     4  11  22  41  63  92 124 164 210 259 314 372
#     4  10  22  41  61  91 126 159 208 258 310 374
#     4  11  21  40  60  90 125 155 207 251 307 369
#     4  11  22  41  64  90 125 166 206 260 313 373
#     4  10  24  39  63  91 125 163 206 263 310 371
#     4  11  21  37  63  88 119 165 198 250 308 366
#     4  10  22  39  60  88 122 158 205 250 306 367
#
# _framework density 20.977561999999999
#
# number of rings (size 3 to 8) (size 9 to 14) (size 15 to 20)
#    0.000    1.429    2.857    2.571    0.000    1.714 
#    0.000    5.714    0.000    0.000    0.000    0.000 
#    0.000    0.000    0.000    0.000    0.000    0.000 
#
# Total GULP energy -156518.715734 kJ/mol
# GULP energy per Si atom -5589.954133 kJ/mol
# Density = 2.092982 g / cm^3
# Si number density = 20.977562 Si / 1000 Ang^3
#
#
#
# Elastic Constant Matrix: (Units=GPa)
#
#
# Indices 1 2 3 4 5 6 
#
# 1 46.6948 10.1293 3.3531 0.0000 -12.6475 0.0000
# 2 10.1293 64.0520 22.8311 0.0000 5.0359 0.0000
# 3 3.3531 22.8311 52.4062 0.0000 -12.6418 0.0000
# 4 0.0000 0.0000 0.0000 23.7435 0.0000 -13.6155
# 5 -12.6475 5.0359 -12.6418 0.0000 28.3995 0.0000
# 6 0.0000 0.0000 0.0000 -13.6155 0.0000 25.6975
#
#
#
# Elastic Compliance Matrix: (Units=1/GPa)
#
#
# Indices 1 2 3 4 5 6 
#
# 1 0.026856 -0.007342 0.005242 0.000000 0.015595 0.000000
# 2 -0.007342 0.022120 -0.012213 0.000000 -0.012629 0.000000
# 3 0.005242 -0.012213 0.028178 0.000000 0.017044 0.000000
# 4 0.000000 0.000000 0.000000 0.060498 0.000000 0.032054
# 5 0.015595 -0.012629 0.017044 0.000000 0.051983 0.000000
# 6 0.000000 0.000000 0.000000 0.032054 0.000000 0.055898
#
#
# Mechanical properties :
#
#
# Convention : Reuss Voigt Hill
#
# Bulk Modulus (GPa) = 20.60642 26.19778 23.40210
# Shear Modulus (GPa) = 17.22151 24.02407 20.62279
#
# Velocity S-wave (km/s) = 2.86833 3.38779 3.13882
# Velocity P-wave (km/s) = 4.56225 5.27432 4.93116
#
# Compressibility (1/GPa) = 0.04852855
#
# Stress axis : x y z
#
# Youngs Moduli (GPa) = 37.23572 45.20880 35.48817
#
# Poissons Ratio (x) = 0.33191 -0.18604
# Poissons Ratio (y) = 0.27338 0.43342
# Poissons Ratio (z) = -0.19520 0.55214
#
# Static dielectric constant tensor:
#      x y z
#    x 1.750810 0.000000 -0.022550 
#    y 0.000000 1.767970 0.000000 
#    z -0.022550 0.000000 1.733440 
# 
# From -- ./inp_files/48085.got.cif
#   From: 2010.05.17/outbox.cif.g08.bks.cpg/sg14_25_cif.got.tgz:48085.got - 2010.06.03 17:49:19.
