data_PCOD9247188
_publ_section_title
;
Structure prediction by ZEFSAII (Michael W. Deem and Ramdas Pophale) SiO2 
 PCOD9247188
Probable space group: P 21/C
;
_chemical_formula_sum "Si O2"
_cell_formula_units_Z 28
_cell_length_a 9.342253
_cell_length_b 11.039841
_cell_length_c 13.717699
_cell_angle_alpha 90.000000
_cell_angle_beta 45.909194
_cell_angle_gamma 90.000000
_cell_volume 1016.164610
_symmetry_space_group_name_H-M "P 21/C"
_symmetry_group_IT_number 14
_symmetry_cell_setting 'monoclinic'
loop_
_space_group_symop_operation_xyz
x,y,z
-x,1/2+y,1/2-z
-x,-y,-z
x,1/2-y,1/2+z
loop_
_atom_site_type_symbol
_atom_site_label
_atom_site_fract_x
_atom_site_fract_y
_atom_site_fract_z
Si Si1 0.868319 0.415626 0.677298
Si Si2 0.363970 0.552249 0.681860
Si Si3 0.993816 0.198067 0.314956
Si Si4 0.474259 0.289633 0.832900
Si Si5 0.357463 0.166179 0.688744
Si Si6 0.225891 0.560231 0.536655
Si Si7 0.740442 0.465481 0.043608
O O1 0.690771 0.349492 0.703225
O O2 0.764552 0.540892 0.757587
O O3 0.908465 0.329390 0.749682
O O4 0.090753 0.461126 0.543946
O O5 0.472431 0.682751 0.617920
O O6 0.227364 0.533936 0.652595
O O7 0.543232 0.455158 0.598201
O O8 0.278541 0.556340 0.831654
O O9 0.222120 0.238325 0.197045
O O10 0.947532 0.083642 0.405846
O O11 0.880370 0.310689 0.419665
O O12 0.374160 0.224215 0.788527
O O13 0.330748 0.396695 0.938701
O O14 0.579780 0.119768 0.562913
#
# Coordination Sequence:
#
# PCOD9247188 Si02
#       7
#     4   4   4   4   4   4   4
#     4  10  22  45  68 104 140 184 241 286 353 420
#     4  10  22  44  68 104 138 190 233 293 358 413
#     4  11  23  45  71 103 143 184 234 297 351 415
#     4  10  21  45  63 102 143 180 232 287 354 413
#     4   9  23  43  65 101 143 184 230 290 346 415
#     4  10  23  43  71 102 140 185 238 293 353 415
#     4  10  24  42  70 100 142 184 239 288 351 422
#
# _framework density 27.554592
#
# number of rings (size 3 to 8) (size 9 to 14) (size 15 to 20)
#    0.000    2.000    1.429    0.000    6.000    4.000 
#   15.429    6.429    0.000    0.000    0.000    0.000 
#    0.000    0.000    0.000    0.000    0.000    0.000 
#
# Total GULP energy -156817.151330 kJ/mol
# GULP energy per Si atom -5600.612548 kJ/mol
# Density = 2.749188 g / cm^3
# Si number density = 27.554592 Si / 1000 Ang^3
#
#
#
# Elastic Constant Matrix: (Units=GPa)
#
#
# Indices 1 2 3 4 5 6 
#
# 1 156.6515 47.3884 24.4754 0.0000 -3.3222 0.0000
# 2 47.3884 144.5165 28.1604 0.0000 -15.6580 0.0000
# 3 24.4754 28.1604 58.9800 0.0000 -0.7748 0.0000
# 4 0.0000 0.0000 0.0000 48.6993 0.0000 -14.3078
# 5 -3.3222 -15.6580 -0.7748 0.0000 30.9443 0.0000
# 6 0.0000 0.0000 0.0000 -14.3078 0.0000 60.4212
#
#
#
# Elastic Compliance Matrix: (Units=1/GPa)
#
#
# Indices 1 2 3 4 5 6 
#
# 1 0.007314 -0.002026 -0.002072 0.000000 -0.000292 0.000000
# 2 -0.002026 0.008658 -0.003239 0.000000 0.004082 0.000000
# 3 -0.002072 -0.003239 0.019343 0.000000 -0.001377 0.000000
# 4 0.000000 0.000000 0.000000 0.022070 0.000000 0.005226
# 5 -0.000292 0.004082 -0.001377 0.000000 0.034316 0.000000
# 6 0.000000 0.000000 0.000000 0.005226 0.000000 0.017788
#
#
# Mechanical properties :
#
#
# Convention : Reuss Voigt Hill
#
# Bulk Modulus (GPa) = 48.44806 62.24405 55.34605
# Shear Modulus (GPa) = 38.15569 45.35456 41.75513
#
# Velocity S-wave (km/s) = 3.72523 4.06148 3.89699
# Velocity P-wave (km/s) = 6.01032 6.68076 6.35439
#
# Compressibility (1/GPa) = 0.02064066
#
# Stress axis : x y z
#
# Youngs Moduli (GPa) = 136.72326 115.50639 51.69839
#
# Poissons Ratio (x) = 0.23405 0.10709
# Poissons Ratio (y) = 0.27705 0.16746
# Poissons Ratio (z) = 0.28323 0.37414
#
# Static dielectric constant tensor:
#      x y z
#    x 2.124640 0.000000 -0.024390 
#    y 0.000000 2.150640 0.000000 
#    z -0.024390 0.000000 2.121730 
# 
# From -- ./inp_files/40094.got.cif
#   From: 2010.05.17/outbox.cif.g08.bks.cpg/sg14_21_cif.got.tgz:40094.got - 2010.06.03 17:49:19.
