data_PCOD9247944
_publ_section_title
;
Structure prediction by ZEFSAII (Michael W. Deem and Ramdas Pophale) SiO2 
 PCOD9247944
Probable space group: P 21/C
;
_chemical_formula_sum "Si O2"
_cell_formula_units_Z 20
_cell_length_a 14.224564
_cell_length_b 8.191500
_cell_length_c 23.574297
_cell_angle_alpha 90.000000
_cell_angle_beta 162.791499
_cell_angle_gamma 90.000000
_cell_volume 812.666586
_symmetry_space_group_name_H-M "P 21/C"
_symmetry_group_IT_number 14
_symmetry_cell_setting 'monoclinic'
loop_
_space_group_symop_operation_xyz
x,y,z
-x,1/2+y,1/2-z
-x,-y,-z
x,1/2-y,1/2+z
loop_
_atom_site_type_symbol
_atom_site_label
_atom_site_fract_x
_atom_site_fract_y
_atom_site_fract_z
Si Si1 0.000303 0.026926 0.249832
Si Si2 0.324720 0.715001 0.002275
Si Si3 0.204412 0.737273 0.144908
Si Si4 0.318041 0.910983 0.325812
Si Si5 0.505652 0.600446 0.717465
O O1 0.028732 0.910195 0.320790
O O2 0.331588 0.128930 0.447785
O O3 0.072864 0.919125 0.235683
O O4 0.717989 0.144273 0.069578
O O5 0.621824 0.595581 0.162504
O O6 0.345566 0.795587 0.075229
O O7 0.441596 0.585520 0.270544
O O8 0.311619 0.878522 0.163476
O O9 0.225189 0.796528 0.221137
O O10 0.854980 0.674270 0.929067
#
# Coordination Sequence:
#
# PCOD9247944 Si02
#       5
#     4   4   4   4   4
#     4   9  22  42  61 101 125 180 222 275 347 395
#     4  10  22  40  67  94 132 176 226 278 338 411
#     4  11  26  47  69 104 138 181 230 287 340 417
#     4   9  22  43  66  93 136 178 223 281 343 402
#     4  11  27  44  71 104 137 184 231 280 351 402
#
# _framework density 24.610340000000001
#
# number of rings (size 3 to 8) (size 9 to 14) (size 15 to 20)
#    1.200    0.800    0.000    1.200    8.400    1.600 
#    3.600    2.000    0.000    0.000    0.000    0.000 
#    0.000    0.000    0.000    0.000    0.000    0.000 
#
# Total GULP energy -111806.814228 kJ/mol
# GULP energy per Si atom -5590.340711 kJ/mol
# Density = 2.455433 g / cm^3
# Si number density = 24.610340 Si / 1000 Ang^3
#
#
#
# Elastic Constant Matrix: (Units=GPa)
#
#
# Indices 1 2 3 4 5 6 
#
# 1 71.2943 35.4979 15.5518 0.0000 -10.7457 0.0000
# 2 35.4979 85.9274 5.0094 0.0000 -0.6602 0.0000
# 3 15.5518 5.0094 -36.8291 0.0000 18.8739 0.0000
# 4 0.0000 0.0000 0.0000 41.7291 0.0000 -12.9838
# 5 -10.7457 -0.6602 18.8739 0.0000 33.7103 0.0000
# 6 0.0000 0.0000 0.0000 -12.9838 0.0000 44.4728
#
#
#
# Elastic Compliance Matrix: (Units=1/GPa)
#
#
# Indices 1 2 3 4 5 6 
#
# 1 0.016333 -0.007123 0.006624 0.000000 0.001358 0.000000
# 2 -0.007123 0.014664 -0.001577 0.000000 -0.001100 0.000000
# 3 0.006624 -0.001577 -0.018263 0.000000 0.012306 0.000000
# 4 0.000000 0.000000 0.000000 0.026358 0.000000 0.007695
# 5 0.001358 -0.001100 0.012306 0.000000 0.023186 0.000000
# 6 0.000000 0.000000 0.000000 0.007695 0.000000 0.024732
#
#
# Mechanical properties :
#
#
# Convention : Reuss Voigt Hill
#
# Bulk Modulus (GPa) = 116.54029 25.83451 71.18740
# Shear Modulus (GPa) = 53.17866 28.27134 40.72500
#
# Velocity S-wave (km/s) = 4.65351 3.39301 4.07233
# Velocity P-wave (km/s) = 8.73674 5.08628 7.14845
#
# Compressibility (1/GPa) = 0.00858072
#
# Stress axis : x y z
#
# Youngs Moduli (GPa) = 61.22669 68.19496 -54.75439
#
# Poissons Ratio (x) = 0.48575 0.36269
# Poissons Ratio (y) = 0.43612 -0.08636
# Poissons Ratio (z) = -0.40556 0.10756
#
# Static dielectric constant tensor:
#      x y z
#    x 1.896730 0.000000 0.026160 
#    y 0.000000 2.015570 0.000000 
#    z 0.026160 0.000000 1.958220 
# 
# From -- ./inp_files/73676.got.cif
#   From: 2010.05.17/outbox.cif.g08.bks.cpg/sg14_37_cif.got.tgz:73676.got - 2010.06.03 17:49:19.
