data_PCOD9247336
_publ_section_title
;
Structure prediction by ZEFSAII (Michael W. Deem and Ramdas Pophale) SiO2 
 PCOD9247336
Probable space group: P 21/C
;
_chemical_formula_sum "Si O2"
_cell_formula_units_Z 20
_cell_length_a 9.837757
_cell_length_b 5.372501
_cell_length_c 18.681576
_cell_angle_alpha 90.000000
_cell_angle_beta 123.454400
_cell_angle_gamma 90.000000
_cell_volume 823.799027
_symmetry_space_group_name_H-M "P 21/C"
_symmetry_group_IT_number 14
_symmetry_cell_setting 'monoclinic'
loop_
_space_group_symop_operation_xyz
x,y,z
-x,1/2+y,1/2-z
-x,-y,-z
x,1/2-y,1/2+z
loop_
_atom_site_type_symbol
_atom_site_label
_atom_site_fract_x
_atom_site_fract_y
_atom_site_fract_z
Si Si1 0.741097 0.935839 0.533843
Si Si2 0.094355 0.778539 0.292413
Si Si3 0.665458 0.827752 0.886306
Si Si4 0.653447 0.433973 0.243432
Si Si5 0.445313 0.208017 0.900066
O O1 0.794442 0.812581 0.474172
O O2 0.683461 0.722282 0.573194
O O3 0.848313 0.122155 0.612973
O O4 0.582779 0.091288 0.462757
O O5 0.242237 0.757869 0.278230
O O6 0.007407 0.513521 0.267782
O O7 0.534795 0.652986 0.807045
O O8 0.724729 0.016677 0.842530
O O9 0.547674 0.970739 0.907731
O O10 0.646625 0.686344 0.195562
#
# Coordination Sequence:
#
# PCOD9247336 Si02
#       5
#     4   4   4   4   4
#     4   9  21  36  60  92 116 168 211 258 320 372
#     4  11  27  46  65  86 129 183 225 253 301 389
#     4  11  19  35  65  96 130 148 202 281 334 371
#     4  10  22  36  62 100 125 166 204 263 333 376
#     4   9  18  35  59  92 126 151 200 268 326 381
#
# _framework density 24.277764999999999
#
# number of rings (size 3 to 8) (size 9 to 14) (size 15 to 20)
#    0.000    2.000    2.000    1.800    8.400    0.000 
#    0.000    2.000    0.000    0.000    0.000    0.000 
#    0.000    0.000    0.000    0.000    0.000    0.000 
#
# Total GULP energy -111594.551214 kJ/mol
# GULP energy per Si atom -5579.727561 kJ/mol
# Density = 2.422251 g / cm^3
# Si number density = 24.277765 Si / 1000 Ang^3
#
#
#
# Elastic Constant Matrix: (Units=GPa)
#
#
# Indices 1 2 3 4 5 6 
#
# 1 28.4335 7.0210 23.8378 0.0000 -5.3229 0.0000
# 2 7.0210 59.6037 24.7320 0.0000 -7.1857 0.0000
# 3 23.8378 24.7320 120.1171 0.0000 -24.0033 0.0000
# 4 0.0000 0.0000 0.0000 32.8119 0.0000 20.4048
# 5 -5.3229 -7.1857 -24.0033 0.0000 22.2144 0.0000
# 6 0.0000 0.0000 0.0000 20.4048 0.0000 8.2583
#
#
#
# Elastic Compliance Matrix: (Units=1/GPa)
#
#
# Indices 1 2 3 4 5 6 
#
# 1 0.042359 -0.001594 -0.007847 0.000000 0.001155 0.000000
# 2 -0.001594 0.018503 -0.003027 0.000000 0.002332 0.000000
# 3 -0.007847 -0.003027 0.012670 0.000000 0.010831 0.000000
# 4 0.000000 0.000000 0.000000 -0.056803 0.000000 0.140350
# 5 0.001155 0.002332 0.010831 0.000000 0.057750 0.000000
# 6 0.000000 0.000000 0.000000 0.140350 0.000000 -0.225689
#
#
# Mechanical properties :
#
#
# Convention : Reuss Voigt Hill
#
# Bulk Modulus (GPa) = 20.57872 35.48176 28.03024
# Shear Modulus (GPa) = -45.42358 22.82783 -11.29788
#
# Velocity S-wave (km/s) = -4.33019 3.06972 -2.15956
# Velocity P-wave (km/s) = 4.06276 5.21641 2.31354
#
# Compressibility (1/GPa) = 0.04859389
#
# Stress axis : x y z
#
# Youngs Moduli (GPa) = 23.60798 54.04658 78.92513
#
# Poissons Ratio (x) = 0.08616 0.61934
# Poissons Ratio (y) = 0.03764 0.23893
# Poissons Ratio (z) = 0.18526 0.16361
#
# Static dielectric constant tensor:
#      x y z
#    x 1.986240 0.000000 -0.010700 
#    y 0.000000 1.967740 0.000000 
#    z -0.010700 0.000000 1.972700 
# 
# From -- ./inp_files/56450.got.cif
#   From: 2010.05.17/outbox.cif.g08.bks.cpg/sg14_29_cif.got.tgz:56450.got - 2010.06.03 17:49:19.
