data_PCOD9247602
_publ_section_title
;
Structure prediction by ZEFSAII (Michael W. Deem and Ramdas Pophale) SiO2 
 PCOD9247602
Probable space group: P 21/C
;
_chemical_formula_sum "Si O2"
_cell_formula_units_Z 24
_cell_length_a 19.089372
_cell_length_b 7.192185
_cell_length_c 23.847230
_cell_angle_alpha 90.000000
_cell_angle_beta 164.245273
_cell_angle_gamma 90.000000
_cell_volume 888.980064
_symmetry_space_group_name_H-M "P 21/C"
_symmetry_group_IT_number 14
_symmetry_cell_setting 'monoclinic'
loop_
_space_group_symop_operation_xyz
x,y,z
-x,1/2+y,1/2-z
-x,-y,-z
x,1/2-y,1/2+z
loop_
_atom_site_type_symbol
_atom_site_label
_atom_site_fract_x
_atom_site_fract_y
_atom_site_fract_z
Si Si1 0.002074 0.151926 0.146510
Si Si2 0.216682 0.301412 0.707647
Si Si3 0.952136 0.289677 0.809526
Si Si4 0.501489 0.239962 0.186827
Si Si5 0.336088 0.650318 0.518181
Si Si6 0.226539 0.766239 0.209097
O O1 0.751976 0.179951 0.912049
O O2 0.885004 0.236038 0.113076
O O3 0.229976 0.242859 0.284388
O O4 0.074462 0.937504 0.217415
O O5 0.161468 0.519655 0.670470
O O6 0.983650 0.197721 0.497709
O O7 0.442147 0.278785 0.836327
O O8 0.801396 0.400338 0.645844
O O9 0.832847 0.332560 0.778376
O O10 0.254312 0.316532 0.029764
O O11 0.518847 0.279169 0.133028
O O12 0.461826 0.016820 0.150676
#
# Coordination Sequence:
#
# PCOD9247602 Si02
#       6
#     4   4   4   4   4   4
#     4   9  21  41  62  87 127 177 217 251 312 397
#     4   9  19  38  62  87 121 172 219 252 308 393
#     4  10  22  39  60  94 133 166 203 261 334 388
#     4  10  22  41  64  92 124 167 222 267 305 372
#     4  11  23  38  62  97 130 159 208 277 327 363
#     4   9  19  37  62  87 121 173 219 252 308 393
#
# _framework density 26.997229999999998
#
# number of rings (size 3 to 8) (size 9 to 14) (size 15 to 20)
#    0.000    2.333    0.000    2.000    0.000   12.667 
#    0.000    6.667    0.000    0.000    0.000    0.000 
#    0.000    0.000    0.000    0.000    0.000    0.000 
#
# Total GULP energy -133776.024786 kJ/mol
# GULP energy per Si atom -5574.001033 kJ/mol
# Density = 2.693578 g / cm^3
# Si number density = 26.997230 Si / 1000 Ang^3
#
#
#
# Elastic Constant Matrix: (Units=GPa)
#
#
# Indices 1 2 3 4 5 6 
#
# 1 268.2399 3.5624 4.8019 0.0000 24.5128 0.0000
# 2 3.5624 114.9324 7.6305 0.0000 -9.2066 0.0000
# 3 4.8019 7.6305 31.0308 0.0000 2.0706 0.0000
# 4 0.0000 0.0000 0.0000 21.9309 0.0000 7.3309
# 5 24.5128 -9.2066 2.0706 0.0000 38.8104 0.0000
# 6 0.0000 0.0000 0.0000 7.3309 0.0000 31.2282
#
#
#
# Elastic Compliance Matrix: (Units=1/GPa)
#
#
# Indices 1 2 3 4 5 6 
#
# 1 0.003973 -0.000304 -0.000369 0.000000 -0.002562 0.000000
# 2 -0.000304 0.009064 -0.002346 0.000000 0.002467 0.000000
# 3 -0.000369 -0.002346 0.032999 0.000000 -0.002084 0.000000
# 4 0.000000 0.000000 0.000000 0.049481 0.000000 -0.011616
# 5 -0.002562 0.002467 -0.002084 0.000000 0.028081 0.000000
# 6 0.000000 0.000000 0.000000 -0.011616 0.000000 0.034749
#
#
# Mechanical properties :
#
#
# Convention : Reuss Voigt Hill
#
# Bulk Modulus (GPa) = 25.00196 49.57696 37.28946
# Shear Modulus (GPa) = 28.13467 44.94114 36.53790
#
# Velocity S-wave (km/s) = 3.23171 4.08445 3.68284
# Velocity P-wave (km/s) = 4.81729 6.37552 5.65038
#
# Compressibility (1/GPa) = 0.03999687
#
# Stress axis : x y z
#
# Youngs Moduli (GPa) = 251.71577 110.33151 30.30380
#
# Poissons Ratio (x) = 0.03352 0.01119
# Poissons Ratio (y) = 0.07648 0.07110
# Poissons Ratio (z) = 0.09291 0.25888
#
# Static dielectric constant tensor:
#      x y z
#    x 2.205570 0.000000 0.113350 
#    y 0.000000 2.145220 0.000000 
#    z 0.113350 0.000000 2.271790 
# 
# From -- ./inp_files/74198.got.cif
#   From: 2010.05.17/outbox.cif.g08.bks.cpg/sg14_38_cif.got.tgz:74198.got - 2010.06.03 17:49:19.
