data_PCOD9247775
_publ_section_title
;
Structure prediction by ZEFSAII (Michael W. Deem and Ramdas Pophale) SiO2 
 PCOD9247775
Probable space group: P 21/C
;
_chemical_formula_sum "Si O2"
_cell_formula_units_Z 32
_cell_length_a 10.887186
_cell_length_b 14.080508
_cell_length_c 17.007851
_cell_angle_alpha 90.000000
_cell_angle_beta 34.088838
_cell_angle_gamma 90.000000
_cell_volume 1461.307861
_symmetry_space_group_name_H-M "P 21/C"
_symmetry_group_IT_number 14
_symmetry_cell_setting 'monoclinic'
loop_
_space_group_symop_operation_xyz
x,y,z
-x,1/2+y,1/2-z
-x,-y,-z
x,1/2-y,1/2+z
loop_
_atom_site_type_symbol
_atom_site_label
_atom_site_fract_x
_atom_site_fract_y
_atom_site_fract_z
Si Si1 0.117215 0.406267 0.193852
Si Si2 0.196052 0.617455 0.087572
Si Si3 0.304369 0.396680 0.663859
Si Si4 0.536299 0.304102 0.910744
Si Si5 0.828353 0.893479 0.143282
Si Si6 0.303463 0.910072 0.822007
Si Si7 0.515120 0.252978 0.658675
Si Si8 0.645889 0.097347 0.856850
O O1 0.202777 0.505964 0.109439
O O2 0.129364 0.408785 0.283930
O O3 0.866330 0.394060 0.295386
O O4 0.287605 0.326348 0.071551
O O5 0.303105 0.672826 0.102719
O O6 0.941472 0.637591 0.210985
O O7 0.323683 0.665501 0.946701
O O8 0.458894 0.313848 0.611601
O O9 0.312417 0.496172 0.707695
O O10 0.410062 0.419768 0.523862
O O11 0.604483 0.379550 0.809950
O O12 0.599485 0.199856 0.844174
O O13 0.709659 0.794236 0.195704
O O14 0.675851 0.976554 0.188697
O O15 0.047642 0.895481 0.976361
O O16 0.410629 0.835704 0.823801
#
# Coordination Sequence:
#
# PCOD9247775 Si02
#       8
#     4   4   4   4   4   4   4   4
#     4  11  22  43  72  98 128 169 236 275 321 386
#     4  11  22  39  71  97 126 170 227 280 316 393
#     4  10  22  40  60  98 130 168 219 270 335 382
#     4  12  23  40  68 102 128 171 227 274 321 392
#     4  11  23  44  67  94 132 175 216 274 327 395
#     4  11  27  42  62 101 138 171 215 268 341 390
#     4  12  23  42  68  94 130 183 217 263 335 401
#     4  10  23  37  61  99 135 166 210 284 331 377
#
# _framework density 21.898192000000002
#
# number of rings (size 3 to 8) (size 9 to 14) (size 15 to 20)
#    0.000    1.000    3.750    2.625    3.500    2.000 
#    0.000    0.000    0.000    5.250    0.000    0.000 
#    0.000    0.000    0.000    0.000    0.000    0.000 
#
# Total GULP energy -178282.990053 kJ/mol
# GULP energy per Si atom -5571.343439 kJ/mol
# Density = 2.184835 g / cm^3
# Si number density = 21.898192 Si / 1000 Ang^3
#
#
#
# Elastic Constant Matrix: (Units=GPa)
#
#
# Indices 1 2 3 4 5 6 
#
# 1 28.6873 24.5014 21.0005 0.0000 0.1608 0.0000
# 2 24.5014 125.2824 18.6366 0.0000 -8.7970 0.0000
# 3 21.0005 18.6366 99.0331 0.0000 -10.6015 0.0000
# 4 0.0000 0.0000 0.0000 -69.6279 0.0000 -61.0652
# 5 0.1608 -8.7970 -10.6015 0.0000 27.3360 0.0000
# 6 0.0000 0.0000 0.0000 -61.0652 0.0000 -7.9088
#
#
#
# Elastic Compliance Matrix: (Units=1/GPa)
#
#
# Indices 1 2 3 4 5 6 
#
# 1 0.049318 -0.008702 -0.009548 0.000000 -0.006793 0.000000
# 2 -0.008702 0.009868 0.000348 0.000000 0.003362 0.000000
# 3 -0.009548 0.000348 0.012598 0.000000 0.005054 0.000000
# 4 0.000000 0.000000 0.000000 0.002488 0.000000 -0.019213
# 5 -0.006793 0.003362 0.005054 0.000000 0.039664 0.000000
# 6 0.000000 0.000000 0.000000 -0.019213 0.000000 0.021907
#
#
# Mechanical properties :
#
#
# Convention : Reuss Voigt Hill
#
# Bulk Modulus (GPa) = 27.79240 42.36440 35.07840
# Shear Modulus (GPa) = 27.22708 2.55083 14.88895
#
# Velocity S-wave (km/s) = 3.52994 1.08046 2.61035
# Velocity P-wave (km/s) = 5.41601 4.57653 5.01387
#
# Compressibility (1/GPa) = 0.03598106
#
# Stress axis : x y z
#
# Youngs Moduli (GPa) = 20.27639 101.33713 79.37869
#
# Poissons Ratio (x) = 0.88182 0.75790
# Poissons Ratio (y) = 0.17644 -0.02764
# Poissons Ratio (z) = 0.19360 -0.03528
#
# Static dielectric constant tensor:
#      x y z
#    x -1.600460 0.000000 -2.118230 
#    y 0.000000 1.918450 0.000000 
#    z -2.118230 0.000000 0.433470 
# 
# From -- ./inp_files/57982.got.cif
#   From: 2010.05.17/outbox.cif.g08.bks.cpg/sg14_29_cif.got.tgz:57982.got - 2010.06.03 17:49:19.
