data_PCOD9247455
_publ_section_title
;
Structure prediction by ZEFSAII (Michael W. Deem and Ramdas Pophale) SiO2 
 PCOD9247455
Probable space group: P 21/C
;
_chemical_formula_sum "Si O2"
_cell_formula_units_Z 28
_cell_length_a 9.429582
_cell_length_b 16.781256
_cell_length_c 11.713799
_cell_angle_alpha 90.000000
_cell_angle_beta 140.250168
_cell_angle_gamma 90.000000
_cell_volume 1185.256274
_symmetry_space_group_name_H-M "P 21/C"
_symmetry_group_IT_number 14
_symmetry_cell_setting 'monoclinic'
loop_
_space_group_symop_operation_xyz
x,y,z
-x,1/2+y,1/2-z
-x,-y,-z
x,1/2-y,1/2+z
loop_
_atom_site_type_symbol
_atom_site_label
_atom_site_fract_x
_atom_site_fract_y
_atom_site_fract_z
Si Si1 0.570198 0.849732 0.980018
Si Si2 0.070198 0.349732 0.480018
Si Si3 0.181871 0.077190 0.287991
Si Si4 0.250000 0.303342 1.000000
Si Si5 0.318129 0.077190 0.712009
Si Si6 0.791036 0.101133 0.400488
Si Si7 0.291036 0.898867 0.400488
O O1 0.332194 0.851157 0.773847
O O2 0.750000 0.884597 0.000000
O O3 0.647015 0.757512 0.029256
O O4 0.583752 0.897844 0.105559
O O5 0.083752 0.397844 0.605559
O O6 0.147015 0.257512 0.529256
O O7 0.832194 0.351157 0.273847
O O8 0.096211 0.137210 0.332007
O O9 0.447382 0.091168 0.448325
O O10 0.169023 0.985493 0.316792
O O11 0.403789 0.362790 0.167993
O O12 0.052618 0.091168 0.551675
O O13 0.330977 0.985493 0.683207
O O14 0.750000 0.136545 0.500000
#
# Coordination Sequence:
#
# PCOD9247455 Si02
#       7
#     4   4   4   4   4   4   4
#     4  10  22  38  60  87 122 159 194 251 299 353
#     4  10  22  38  60  87 122 159 194 251 299 353
#     4  11  22  40  62  89 123 158 204 247 296 365
#     4  10  22  40  64  90 126 158 196 254 308 350
#     4  11  22  40  62  89 123 158 204 247 296 365
#     4  11  21  39  63  89 121 161 203 244 302 356
#     4  11  21  39  63  89 121 161 203 244 302 356
#
# _framework density 23.623581999999999
#
# number of rings (size 3 to 8) (size 9 to 14) (size 15 to 20)
#    0.857    0.571    4.286    1.714    0.000    1.143 
#    0.000    4.286    0.000    0.000    0.000    0.000 
#    0.000    0.000    0.000    0.000    0.000    0.000 
#
# Total GULP energy -156312.855075 kJ/mol
# GULP energy per Si atom -5582.601967 kJ/mol
# Density = 2.356981 g / cm^3
# Si number density = 23.623582 Si / 1000 Ang^3
#
#
#
# Elastic Constant Matrix: (Units=GPa)
#
#
# Indices 1 2 3 4 5 6 
#
# 1 54.3901 -20.2735 23.4491 0.0000 -6.4720 0.0000
# 2 -20.2735 73.8057 11.5837 0.0000 -2.7419 0.0000
# 3 23.4491 11.5837 140.7233 0.0000 -26.5495 0.0000
# 4 0.0000 0.0000 0.0000 -20.1061 0.0000 2.7526
# 5 -6.4720 -2.7419 -26.5495 0.0000 46.5061 0.0000
# 6 0.0000 0.0000 0.0000 2.7526 0.0000 12.9860
#
#
#
# Elastic Compliance Matrix: (Units=1/GPa)
#
#
# Indices 1 2 3 4 5 6 
#
# 1 0.022937 0.007000 -0.004167 0.000000 0.001226 0.000000
# 2 0.007000 0.015864 -0.002367 0.000000 0.000558 0.000000
# 3 -0.004167 -0.002367 0.008808 0.000000 0.004309 0.000000
# 4 0.000000 0.000000 0.000000 -0.048334 0.000000 0.010245
# 5 0.001226 0.000558 0.004309 0.000000 0.024166 0.000000
# 6 0.000000 0.000000 0.000000 0.010245 0.000000 0.074835
#
#
# Mechanical properties :
#
#
# Convention : Reuss Voigt Hill
#
# Bulk Modulus (GPa) = 20.60068 33.15973 26.88021
# Shear Modulus (GPa) = 44.04300 24.82118 34.43209
#
# Velocity S-wave (km/s) = 4.32251 3.24496 3.82190
# Velocity P-wave (km/s) = 5.80099 5.30159 5.55690
#
# Compressibility (1/GPa) = 0.04854208
#
# Stress axis : x y z
#
# Youngs Moduli (GPa) = 43.59698 63.03509 113.52902
#
# Poissons Ratio (x) = -0.44126 0.47308
# Poissons Ratio (y) = -0.30519 0.26872
# Poissons Ratio (z) = 0.18167 0.14920
#
# Static dielectric constant tensor:
#      x y z
#    x 1.946570 0.000000 -0.009470 
#    y 0.000000 1.929350 0.000000 
#    z -0.009470 0.000000 1.844480 
# 
# From -- ./inp_files/30324.got.cif
#   From: 2010.05.17/outbox.cif.g08.bks.cpg/sg14_16_cif.got.tgz:30324.got - 2010.06.03 17:49:19.
