data_PCOD9247811
_publ_section_title
;
Structure prediction by ZEFSAII (Michael W. Deem and Ramdas Pophale) SiO2 
 PCOD9247811
Probable space group: P 21/C
;
_chemical_formula_sum "Si O2"
_cell_formula_units_Z 28
_cell_length_a 7.540721
_cell_length_b 13.776657
_cell_length_c 13.487037
_cell_angle_alpha 90.000000
_cell_angle_beta 66.008481
_cell_angle_gamma 90.000000
_cell_volume 1280.065066
_symmetry_space_group_name_H-M "P 21/C"
_symmetry_group_IT_number 14
_symmetry_cell_setting 'monoclinic'
loop_
_space_group_symop_operation_xyz
x,y,z
-x,1/2+y,1/2-z
-x,-y,-z
x,1/2-y,1/2+z
loop_
_atom_site_type_symbol
_atom_site_label
_atom_site_fract_x
_atom_site_fract_y
_atom_site_fract_z
Si Si1 0.063937 0.390752 0.477148
Si Si2 0.843212 0.922655 0.257057
Si Si3 0.453221 0.109052 0.974885
Si Si4 0.631488 0.679758 0.982609
Si Si5 0.761616 0.155946 0.747289
Si Si6 0.764151 0.133065 0.339666
Si Si7 0.056301 0.688207 0.993930
O O1 0.175093 0.380284 0.347852
O O2 0.221588 0.383509 0.525966
O O3 0.910793 0.304696 0.512234
O O4 0.000000 0.500000 0.500000
O O5 0.702159 0.870629 0.366545
O O6 0.062220 0.899029 0.239592
O O7 0.817503 0.037598 0.267239
O O8 0.479378 0.217182 0.015687
O O9 0.567080 0.119587 0.844499
O O10 0.500000 0.000000 0.000000
O O11 0.460235 0.622891 0.076518
O O12 0.829940 0.681062 0.006342
O O13 0.784138 0.269443 0.770695
O O14 0.802285 0.143753 0.621577
O O15 0.895804 0.144636 0.409360
#
# Coordination Sequence:
#
# PCOD9247811 Si02
#       7
#     4   4   4   4   4   4   4
#     4  11  22  39  64  91 126 163 216 258 318 377
#     4  11  22  40  63  93 122 167 213 262 319 378
#     4  10  22  41  62  94 127 165 209 267 313 382
#     4   9  23  41  62  93 127 158 221 255 313 388
#     4  10  22  40  62  93 120 162 217 250 321 385
#     4  11  22  42  65  86 134 166 203 272 319 374
#     4  10  22  42  65  89 126 169 207 266 319 377
#
# _framework density 21.873887
#
# number of rings (size 3 to 8) (size 9 to 14) (size 15 to 20)
#    0.000    1.714    1.429    2.143    4.000    4.571 
#    2.571    0.000    0.000    0.000    0.000    0.000 
#    0.000    0.000    0.000    0.000    0.000    0.000 
#
# Total GULP energy -156052.677310 kJ/mol
# GULP energy per Si atom -5573.309904 kJ/mol
# Density = 2.182410 g / cm^3
# Si number density = 21.873887 Si / 1000 Ang^3
#
#
#
# Elastic Constant Matrix: (Units=GPa)
#
#
# Indices 1 2 3 4 5 6 
#
# 1 55.9272 -5.2702 1.8104 0.0000 -12.6833 0.0000
# 2 -5.2702 38.0232 -5.7017 0.0000 -8.7797 0.0000
# 3 1.8104 -5.7017 50.1608 0.0000 -2.3762 0.0000
# 4 0.0000 0.0000 0.0000 27.2649 0.0000 0.7197
# 5 -12.6833 -8.7797 -2.3762 0.0000 28.2932 0.0000
# 6 0.0000 0.0000 0.0000 0.7197 0.0000 20.5156
#
#
#
# Elastic Compliance Matrix: (Units=1/GPa)
#
#
# Indices 1 2 3 4 5 6 
#
# 1 0.020911 0.005527 0.000400 0.000000 0.011122 0.000000
# 2 0.005527 0.030472 0.003845 0.000000 0.012256 0.000000
# 3 0.000400 0.003845 0.020505 0.000000 0.003095 0.000000
# 4 0.000000 0.000000 0.000000 0.036711 0.000000 -0.001288
# 5 0.011122 0.012256 0.003095 0.000000 0.044393 0.000000
# 6 0.000000 0.000000 0.000000 -0.001288 0.000000 0.048789
#
#
# Mechanical properties :
#
#
# Convention : Reuss Voigt Hill
#
# Bulk Modulus (GPa) = 10.93716 13.97646 12.45681
# Shear Modulus (GPa) = 23.50570 25.43294 24.46932
#
# Velocity S-wave (km/s) = 3.28167 3.41355 3.34826
# Velocity P-wave (km/s) = 4.40114 4.68400 4.54477
#
# Compressibility (1/GPa) = 0.09143145
#
# Stress axis : x y z
#
# Youngs Moduli (GPa) = 47.82272 32.81673 48.76843
#
# Poissons Ratio (x) = -0.18136 -0.01953
# Poissons Ratio (y) = -0.26429 -0.18751
# Poissons Ratio (z) = -0.01915 -0.12618
#
# Static dielectric constant tensor:
#      x y z
#    x 1.852140 0.000000 0.029610 
#    y 0.000000 1.536450 0.000000 
#    z 0.029610 0.000000 1.820240 
# 
# From -- ./inp_files/25132.got.cif
#   From: 2010.05.17/outbox.cif.g08.bks.cpg/sg14_13_cif.got.tgz:25132.got - 2010.06.03 17:49:19.
