data_PCOD9247069
_publ_section_title
;
Structure prediction by ZEFSAII (Michael W. Deem and Ramdas Pophale) SiO2 
 PCOD9247069
Probable space group: P 21/C
;
_chemical_formula_sum "Si O2"
_cell_formula_units_Z 20
_cell_length_a 10.144458
_cell_length_b 9.164410
_cell_length_c 15.788525
_cell_angle_alpha 90.000000
_cell_angle_beta 30.570841
_cell_angle_gamma 90.000000
_cell_volume 746.541736
_symmetry_space_group_name_H-M "P 21/C"
_symmetry_group_IT_number 14
_symmetry_cell_setting 'monoclinic'
loop_
_space_group_symop_operation_xyz
x,y,z
-x,1/2+y,1/2-z
-x,-y,-z
x,1/2-y,1/2+z
loop_
_atom_site_type_symbol
_atom_site_label
_atom_site_fract_x
_atom_site_fract_y
_atom_site_fract_z
Si Si1 0.776635 0.102998 0.162147
Si Si2 0.646163 0.440198 0.001822
Si Si3 0.077647 0.337546 0.931533
Si Si4 0.104166 0.287566 0.095522
Si Si5 0.424533 0.159425 0.073452
O O1 0.816047 0.239549 0.075726
O O2 0.859020 0.189804 0.203483
O O3 0.545481 0.995115 0.316528
O O4 0.000000 0.000000 0.000000
O O5 0.900228 0.541559 0.874908
O O6 0.655378 0.267739 0.978473
O O7 0.500000 0.500000 0.000000
O O8 0.232546 0.283484 0.930049
O O9 0.240680 0.332589 0.757209
O O10 0.000000 0.500000 0.000000
O O11 0.272581 0.219484 0.075766
O O12 0.500000 0.000000 0.000000
#
# Coordination Sequence:
#
# PCOD9247069 Si02
#       5
#     4   4   4   4   4
#     4  10  21  46  67  99 142 183 240 293 362 431
#     4  10  21  43  70  97 140 181 236 297 348 438
#     4  10  24  44  64  99 145 181 240 292 358 434
#     4   9  24  44  69  98 139 190 237 289 378 412
#     4  11  24  42  69 107 141 184 245 298 359 445
#
# _framework density 26.790196000000002
#
# number of rings (size 3 to 8) (size 9 to 14) (size 15 to 20)
#    1.200    0.800    2.000    0.000    5.600    6.400 
#    3.600    0.000    0.000    0.000    0.000    0.000 
#    0.000    0.000    0.000    0.000    0.000    0.000 
#
# Total GULP energy -111400.116589 kJ/mol
# GULP energy per Si atom -5570.005829 kJ/mol
# Density = 2.672922 g / cm^3
# Si number density = 26.790196 Si / 1000 Ang^3
#
#
#
# Elastic Constant Matrix: (Units=GPa)
#
#
# Indices 1 2 3 4 5 6 
#
# 1 118.4983 30.8409 41.9458 0.0000 53.3294 0.0000
# 2 30.8409 216.6543 46.6630 0.0000 -0.7435 0.0000
# 3 41.9458 46.6630 165.1795 0.0000 29.6268 0.0000
# 4 0.0000 0.0000 0.0000 41.7480 0.0000 -0.1924
# 5 53.3294 -0.7435 29.6268 0.0000 44.7620 0.0000
# 6 0.0000 0.0000 0.0000 -0.1924 0.0000 58.5305
#
#
#
# Elastic Compliance Matrix: (Units=1/GPa)
#
#
# Indices 1 2 3 4 5 6 
#
# 1 0.019875 -0.002919 0.000038 0.000000 -0.023752 0.000000
# 2 -0.002919 0.005395 -0.001614 0.000000 0.004636 0.000000
# 3 0.000038 -0.001614 0.007391 0.000000 -0.004964 0.000000
# 4 0.000000 0.000000 0.000000 0.023954 0.000000 0.000079
# 5 -0.023752 0.004636 -0.004964 0.000000 0.054001 0.000000
# 6 0.000000 0.000000 0.000000 0.000079 0.000000 0.017085
#
#
# Mechanical properties :
#
#
# Convention : Reuss Voigt Hill
#
# Bulk Modulus (GPa) = 42.24822 82.13683 62.19252
# Shear Modulus (GPa) = 34.58280 54.40026 44.49153
#
# Velocity S-wave (km/s) = 3.59677 4.51111 4.07964
# Velocity P-wave (km/s) = 5.74920 7.60653 6.74213
#
# Compressibility (1/GPa) = 0.02366964
#
# Stress axis : x y z
#
# Youngs Moduli (GPa) = 50.31505 185.36626 135.30514
#
# Poissons Ratio (x) = 0.54105 -0.00511
# Poissons Ratio (y) = 0.14686 0.21841
# Poissons Ratio (z) = -0.00190 0.29922
#
# Static dielectric constant tensor:
#      x y z
#    x 2.109500 0.000000 -0.084140 
#    y 0.000000 2.223850 0.000000 
#    z -0.084140 0.000000 2.256860 
# 
# From -- ./inp_files/58712.got.cif
#   From: 2010.05.17/outbox.cif.g08.bks.cpg/sg14_30_cif.got.tgz:58712.got - 2010.06.03 17:49:19.
