data_PCOD9247509
_publ_section_title
;
Structure prediction by ZEFSAII (Michael W. Deem and Ramdas Pophale) SiO2 
 PCOD9247509
Probable space group: P 21/C
;
_chemical_formula_sum "Si O2"
_cell_formula_units_Z 20
_cell_length_a 13.149700
_cell_length_b 8.395524
_cell_length_c 22.273021
_cell_angle_alpha 90.000000
_cell_angle_beta 163.375110
_cell_angle_gamma 90.000000
_cell_volume 703.505815
_symmetry_space_group_name_H-M "P 21/C"
_symmetry_group_IT_number 14
_symmetry_cell_setting 'monoclinic'
loop_
_space_group_symop_operation_xyz
x,y,z
-x,1/2+y,1/2-z
-x,-y,-z
x,1/2-y,1/2+z
loop_
_atom_site_type_symbol
_atom_site_label
_atom_site_fract_x
_atom_site_fract_y
_atom_site_fract_z
Si Si1 0.956277 0.583656 0.353129
Si Si2 0.928069 0.428307 0.089026
Si Si3 0.389389 0.743546 0.319698
Si Si4 0.847512 0.556169 0.659777
Si Si5 0.596585 0.443829 0.784298
O O1 0.846628 0.768028 0.298312
O O2 0.046015 0.562095 0.333110
O O3 0.305587 0.562093 0.592676
O O4 0.756552 0.417763 0.253273
O O5 0.132055 0.593998 0.191028
O O6 0.868311 0.419012 0.126866
O O7 0.597419 0.419014 0.855980
O O8 0.725340 0.711032 0.552909
O O9 0.464387 0.711044 0.291964
O O10 0.500000 0.500000 0.500000
O O11 0.000000 0.500000 0.000000
#
# Coordination Sequence:
#
# PCOD9247509 Si02
#       5
#     4   4   4   4   4
#     4  11  23  39  66  93 120 167 210 241 312 371
#     4  10  22  38  64  91 122 167 199 254 304 362
#     4   9  21  43  62  88 130 160 201 257 304 365
#     4   9  21  42  60  89 130 159 197 263 304 349
#     4   9  21  42  60  89 130 159 197 263 304 349
#
# _framework density 28.429048000000002
#
# number of rings (size 3 to 8) (size 9 to 14) (size 15 to 20)
#    0.000    2.400    0.000    1.200   11.200    1.600 
#    0.000   16.000    0.000    0.000    0.000    0.000 
#    0.000    0.000    0.000    0.000    0.000    0.000 
#
# Total GULP energy -111915.199679 kJ/mol
# GULP energy per Si atom -5595.759984 kJ/mol
# Density = 2.836434 g / cm^3
# Si number density = 28.429048 Si / 1000 Ang^3
#
#
#
# Elastic Constant Matrix: (Units=GPa)
#
#
# Indices 1 2 3 4 5 6 
#
# 1 158.5921 73.6545 65.6511 0.0000 -69.6785 0.0000
# 2 73.6545 267.2694 73.7479 0.0000 1.3716 0.0000
# 3 65.6511 73.7479 153.7046 0.0000 -68.5881 0.0000
# 4 0.0000 0.0000 0.0000 52.1169 0.0000 6.9501
# 5 -69.6785 1.3716 -68.5881 0.0000 74.8602 0.0000
# 6 0.0000 0.0000 0.0000 6.9501 0.0000 51.8455
#
#
#
# Elastic Compliance Matrix: (Units=1/GPa)
#
#
# Indices 1 2 3 4 5 6 
#
# 1 0.014829 -0.005304 0.004082 0.000000 0.017640 0.000000
# 2 -0.005304 0.006767 -0.005480 0.000000 -0.010082 0.000000
# 3 0.004082 -0.005480 0.015448 0.000000 0.018054 0.000000
# 4 0.000000 0.000000 0.000000 0.019537 0.000000 -0.002619
# 5 0.017640 -0.010082 0.018054 0.000000 0.046503 0.000000
# 6 0.000000 0.000000 0.000000 -0.002619 0.000000 0.019639
#
#
# Mechanical properties :
#
#
# Convention : Reuss Voigt Hill
#
# Bulk Modulus (GPa) = 42.29925 111.74147 77.02036
# Shear Modulus (GPa) = 34.72070 60.19871 47.45970
#
# Velocity S-wave (km/s) = 3.49852 4.60663 4.09027
# Velocity P-wave (km/s) = 5.58844 8.22712 7.03264
#
# Compressibility (1/GPa) = 0.02364108
#
# Stress axis : x y z
#
# Youngs Moduli (GPa) = 67.43594 147.77558 64.73338
#
# Poissons Ratio (x) = 0.78374 -0.26427
# Poissons Ratio (y) = 0.35765 0.35476
# Poissons Ratio (z) = -0.27530 0.80985
#
# Static dielectric constant tensor:
#      x y z
#    x 2.537660 0.000000 0.288360 
#    y 0.000000 2.121730 0.000000 
#    z 0.288360 0.000000 2.547670 
# 
# From -- ./inp_files/73784.got.cif
#   From: 2010.05.17/outbox.cif.g08.bks.cpg/sg14_37_cif.got.tgz:73784.got - 2010.06.03 17:49:19.
