data_PCOD9247312
_publ_section_title
;
Structure prediction by ZEFSAII (Michael W. Deem and Ramdas Pophale) SiO2 
 PCOD9247312
Probable space group: P 21/C
;
_chemical_formula_sum "Si O2"
_cell_formula_units_Z 24
_cell_length_a 15.773970
_cell_length_b 8.590488
_cell_length_c 20.325579
_cell_angle_alpha 90.000000
_cell_angle_beta 161.780803
_cell_angle_gamma 90.000000
_cell_volume 861.121903
_symmetry_space_group_name_H-M "P 21/C"
_symmetry_group_IT_number 14
_symmetry_cell_setting 'monoclinic'
loop_
_space_group_symop_operation_xyz
x,y,z
-x,1/2+y,1/2-z
-x,-y,-z
x,1/2-y,1/2+z
loop_
_atom_site_type_symbol
_atom_site_label
_atom_site_fract_x
_atom_site_fract_y
_atom_site_fract_z
Si Si1 0.229954 0.346250 0.099198
Si Si2 0.205198 0.481632 0.589521
Si Si3 0.166372 0.679918 0.066637
Si Si4 0.248900 0.306459 0.362729
Si Si5 0.049633 0.632382 0.250718
Si Si6 0.287810 0.635135 0.854127
O O1 0.341630 0.521385 0.190942
O O2 0.376273 0.178430 0.216435
O O3 0.095006 0.357027 0.927325
O O4 0.002754 0.331210 0.989922
O O5 0.991550 0.440920 0.375125
O O6 0.000000 0.500000 0.500000
O O7 0.323478 0.655502 0.674003
O O8 0.937325 0.686941 0.840159
O O9 0.204195 0.470449 0.365647
O O10 0.559111 0.273247 0.573401
O O11 0.150402 0.168849 0.337868
O O12 0.247943 0.781989 0.394161
O O13 0.500000 0.500000 0.000000
#
# Coordination Sequence:
#
# PCOD9247312 Si02
#       6
#     4   4   4   4   4   4
#     4   8  17  31  52  80 109 148 198 227 291 359
#     4   9  17  31  54  82 106 150 187 232 291 353
#     4   9  16  31  53  81 108 150 189 240 288 355
#     4  11  21  35  58  86 123 152 199 252 305 359
#     4  10  22  36  56  87 119 158 193 253 309 359
#     4  11  20  35  57  88 118 151 200 245 296 364
#
# _framework density 27.870619000000001
#
# number of rings (size 3 to 8) (size 9 to 14) (size 15 to 20)
#    0.000    2.333    1.667    1.500    2.333    0.000 
#    0.000    0.000    0.000    6.000   69.333    0.000 
#    0.000    0.000    0.000    0.000    0.000    0.000 
#
# Total GULP energy -134132.627957 kJ/mol
# GULP energy per Si atom -5588.859498 kJ/mol
# Density = 2.780718 g / cm^3
# Si number density = 27.870619 Si / 1000 Ang^3
#
#
#
# Elastic Constant Matrix: (Units=GPa)
#
#
# Indices 1 2 3 4 5 6 
#
# 1 132.9962 23.0219 54.5445 0.0000 -11.8090 0.0000
# 2 23.0219 259.0355 35.2823 0.0000 7.2740 0.0000
# 3 54.5445 35.2823 105.5126 0.0000 -16.5412 0.0000
# 4 0.0000 0.0000 0.0000 14.2722 0.0000 16.7567
# 5 -11.8090 7.2740 -16.5412 0.0000 50.8894 0.0000
# 6 0.0000 0.0000 0.0000 16.7567 0.0000 53.4214
#
#
#
# Elastic Compliance Matrix: (Units=1/GPa)
#
#
# Indices 1 2 3 4 5 6 
#
# 1 0.009574 -0.000222 -0.004765 0.000000 0.000705 0.000000
# 2 -0.000222 0.004106 -0.001431 0.000000 -0.001104 0.000000
# 3 -0.004765 -0.001431 0.012937 0.000000 0.003304 0.000000
# 4 0.000000 0.000000 0.000000 0.110912 0.000000 -0.034790
# 5 0.000705 -0.001104 0.003304 0.000000 0.021046 0.000000
# 6 0.000000 0.000000 0.000000 -0.034790 0.000000 0.029632
#
#
# Mechanical properties :
#
#
# Convention : Reuss Voigt Hill
#
# Bulk Modulus (GPa) = 72.55954 80.36018 76.45986
# Shear Modulus (GPa) = 24.31469 49.36297 36.83883
#
# Velocity S-wave (km/s) = 2.95687 4.21307 3.63957
# Velocity P-wave (km/s) = 6.14397 7.25000 6.71978
#
# Compressibility (1/GPa) = 0.01378179
#
# Stress axis : x y z
#
# Youngs Moduli (GPa) = 104.44903 243.53736 77.29592
#
# Poissons Ratio (x) = 0.05399 0.36829
# Poissons Ratio (y) = 0.02316 0.11065
# Poissons Ratio (z) = 0.49767 0.34862
#
# Static dielectric constant tensor:
#      x y z
#    x 2.103340 0.000000 -0.051240 
#    y 0.000000 2.360050 0.000000 
#    z -0.051240 0.000000 2.144100 
# 
# From -- ./inp_files/52271.got.cif
#   From: 2010.05.17/outbox.cif.g08.bks.cpg/sg14_27_cif.got.tgz:52271.got - 2010.06.03 17:49:19.
