data_PCOD9247653
_publ_section_title
;
Structure prediction by ZEFSAII (Michael W. Deem and Ramdas Pophale) SiO2 
 PCOD9247653
Probable space group: P 21/C
;
_chemical_formula_sum "Si O2"
_cell_formula_units_Z 32
_cell_length_a 12.929349
_cell_length_b 13.910384
_cell_length_c 11.267285
_cell_angle_alpha 90.000000
_cell_angle_beta 127.482465
_cell_angle_gamma 90.000000
_cell_volume 1608.065251
_symmetry_space_group_name_H-M "P 21/C"
_symmetry_group_IT_number 14
_symmetry_cell_setting 'monoclinic'
loop_
_space_group_symop_operation_xyz
x,y,z
-x,1/2+y,1/2-z
-x,-y,-z
x,1/2-y,1/2+z
loop_
_atom_site_type_symbol
_atom_site_label
_atom_site_fract_x
_atom_site_fract_y
_atom_site_fract_z
Si Si1 0.949348 0.150879 0.533001
Si Si2 0.792538 0.475298 0.302401
Si Si3 0.074424 0.963881 0.731730
Si Si4 0.649605 0.181061 0.328274
Si Si5 0.987230 0.863926 0.918786
Si Si6 0.398249 0.978706 0.533560
Si Si7 0.628753 0.437507 0.575998
Si Si8 0.440873 0.614827 0.721653
O O1 0.947326 0.106170 0.397882
O O2 0.803354 0.186415 0.465072
O O3 0.029997 0.249812 0.597057
O O4 0.001291 0.063936 0.651315
O O5 0.898913 0.394240 0.409051
O O6 0.671397 0.454002 0.303759
O O7 0.860454 0.577260 0.370754
O O8 0.738540 0.475177 0.130553
O O9 0.028520 0.910431 0.820083
O O10 0.229872 0.983928 0.849800
O O11 0.581924 0.122145 0.386790
O O12 0.644962 0.116544 0.209285
O O13 0.581999 0.279839 0.244680
O O14 0.500000 0.000000 0.500000
O O15 0.424814 0.063090 0.648058
O O16 0.500000 0.500000 0.500000
O O17 0.592380 0.372161 0.438810
#
# Coordination Sequence:
#
# PCOD9247653 Si02
#       8
#     4   4   4   4   4   4   4   4
#     4  10  22  40  65  95 127 167 214 263 327 380
#     4  10  22  39  63  94 126 159 210 265 321 374
#     4  10  22  40  63  94 132 161 216 267 311 389
#     4  11  22  39  68  90 120 173 213 260 321 386
#     4  11  21  40  67  95 125 169 209 265 324 384
#     4  10  23  40  61  91 130 163 212 268 312 378
#     4  11  22  41  64  87 127 167 208 257 318 375
#     4  11  22  42  62  95 127 163 217 264 314 386
#
# _framework density 19.899688999999999
#
# number of rings (size 3 to 8) (size 9 to 14) (size 15 to 20)
#    0.000    1.500    3.750    0.750    3.500    3.000 
#    2.250    0.000    0.000    0.000    0.000    0.000 
#    0.000    0.000    0.000    0.000    0.000    0.000 
#
# Total GULP energy -178393.785933 kJ/mol
# GULP energy per Si atom -5574.805810 kJ/mol
# Density = 1.985440 g / cm^3
# Si number density = 19.899689 Si / 1000 Ang^3
#
#
#
# Elastic Constant Matrix: (Units=GPa)
#
#
# Indices 1 2 3 4 5 6 
#
# 1 49.4175 28.7583 8.3543 0.0000 -5.2947 0.0000
# 2 28.7583 123.2422 26.2186 0.0000 5.6749 0.0000
# 3 8.3543 26.2186 101.7939 0.0000 3.5274 0.0000
# 4 0.0000 0.0000 0.0000 15.9631 0.0000 2.6887
# 5 -5.2947 5.6749 3.5274 0.0000 11.8367 0.0000
# 6 0.0000 0.0000 0.0000 2.6887 0.0000 21.0237
#
#
#
# Elastic Compliance Matrix: (Units=1/GPa)
#
#
# Indices 1 2 3 4 5 6 
#
# 1 0.025780 -0.006499 -0.000959 0.000000 0.014934 0.000000
# 2 -0.006499 0.010368 -0.001884 0.000000 -0.007317 0.000000
# 3 -0.000959 -0.001884 0.010479 0.000000 -0.002649 0.000000
# 4 0.000000 0.000000 0.000000 0.064024 0.000000 -0.008188
# 5 0.014934 -0.007317 -0.002649 0.000000 0.095460 0.000000
# 6 0.000000 0.000000 0.000000 -0.008188 0.000000 0.048613
#
#
# Mechanical properties :
#
#
# Convention : Reuss Voigt Hill
#
# Bulk Modulus (GPa) = 35.78634 44.56844 40.17739
# Shear Modulus (GPa) = 17.68512 23.83951 20.76231
#
# Velocity S-wave (km/s) = 2.98436 3.46495 3.23359
# Velocity P-wave (km/s) = 5.46787 6.20105 5.84596
#
# Compressibility (1/GPa) = 0.02794362
#
# Stress axis : x y z
#
# Youngs Moduli (GPa) = 38.78943 96.44741 95.42493
#
# Poissons Ratio (x) = 0.62684 0.09154
# Poissons Ratio (y) = 0.25211 0.17974
# Poissons Ratio (z) = 0.03721 0.18167
#
# Static dielectric constant tensor:
#      x y z
#    x 1.765990 0.000000 0.030290 
#    y 0.000000 1.766840 0.000000 
#    z 0.030290 0.000000 1.709990 
# 
# From -- ./inp_files/32399.got.cif
#   From: 2010.05.17/outbox.cif.g08.bks.cpg/sg14_17_cif.got.tgz:32399.got - 2010.06.03 17:49:19.
