data_PCOD9247638
_publ_section_title
;
Structure prediction by ZEFSAII (Michael W. Deem and Ramdas Pophale) SiO2 
 PCOD9247638
Probable space group: P 21/C
;
_chemical_formula_sum "Si O2"
_cell_formula_units_Z 28
_cell_length_a 6.891416
_cell_length_b 11.083154
_cell_length_c 19.257337
_cell_angle_alpha 90.000000
_cell_angle_beta 124.098308
_cell_angle_gamma 90.000000
_cell_volume 1217.975998
_symmetry_space_group_name_H-M "P 21/C"
_symmetry_group_IT_number 14
_symmetry_cell_setting 'monoclinic'
loop_
_space_group_symop_operation_xyz
x,y,z
-x,1/2+y,1/2-z
-x,-y,-z
x,1/2-y,1/2+z
loop_
_atom_site_type_symbol
_atom_site_label
_atom_site_fract_x
_atom_site_fract_y
_atom_site_fract_z
Si Si1 0.414441 0.023213 0.560729
Si Si2 0.291164 0.643330 0.648632
Si Si3 0.610152 0.379767 0.554711
Si Si4 0.564978 0.257638 0.173529
Si Si5 0.142892 0.130993 0.144617
Si Si6 0.159746 0.212654 0.445483
Si Si7 0.341669 0.304440 0.834012
O O1 0.581849 0.119102 0.633467
O O2 0.174435 0.093417 0.495652
O O3 0.500000 0.000000 0.500000
O O4 0.449474 0.901014 0.610052
O O5 0.334340 0.711131 0.731013
O O6 0.244934 0.502063 0.649174
O O7 0.518842 0.678598 0.648900
O O8 0.048958 0.701010 0.574441
O O9 0.500000 0.500000 0.500000
O O10 0.653808 0.356177 0.646238
O O11 0.410896 0.280129 0.501621
O O12 0.867634 0.363658 0.575085
O O13 0.292210 0.226619 0.131300
O O14 0.204979 0.161712 0.236880
O O15 0.165999 0.188226 0.363851
#
# Coordination Sequence:
#
# PCOD9247638 Si02
#       7
#     4   4   4   4   4   4   4
#     4   9  19  41  65  86 126 164 205 260 307 372
#     4  11  22  39  64  93 125 164 207 258 314 377
#     4  11  23  40  61  92 125 163 202 258 322 367
#     4  10  23  41  62  92 125 164 213 257 313 376
#     4  11  23  40  65  92 127 163 206 265 313 377
#     4  10  22  39  62  93 122 162 209 255 315 376
#     4  10  22  41  64  89 122 166 213 253 309 372
#
# _framework density 22.988959999999999
#
# number of rings (size 3 to 8) (size 9 to 14) (size 15 to 20)
#    0.000    1.714    2.857    0.857    2.000    3.429 
#    0.000    5.714    0.000    0.000    0.000    0.000 
#    0.000    0.000    0.000    0.000    0.000    0.000 
#
# Total GULP energy -156193.371751 kJ/mol
# GULP energy per Si atom -5578.334705 kJ/mol
# Density = 2.293664 g / cm^3
# Si number density = 22.988960 Si / 1000 Ang^3
#
#
#
# Elastic Constant Matrix: (Units=GPa)
#
#
# Indices 1 2 3 4 5 6 
#
# 1 74.8384 23.9061 32.9289 0.0000 13.7596 0.0000
# 2 23.9061 65.6912 19.1163 0.0000 6.1473 0.0000
# 3 32.9289 19.1163 74.8078 0.0000 0.7266 0.0000
# 4 0.0000 0.0000 0.0000 40.6906 0.0000 -3.1451
# 5 13.7596 6.1473 0.7266 0.0000 42.1200 0.0000
# 6 0.0000 0.0000 0.0000 -3.1451 0.0000 32.7461
#
#
#
# Elastic Compliance Matrix: (Units=1/GPa)
#
#
# Indices 1 2 3 4 5 6 
#
# 1 0.018877 -0.004278 -0.007163 0.000000 -0.005419 0.000000
# 2 -0.004278 0.017647 -0.002615 0.000000 -0.001133 0.000000
# 3 -0.007163 -0.002615 0.017166 0.000000 0.002426 0.000000
# 4 0.000000 0.000000 0.000000 0.024760 0.000000 0.002378
# 5 -0.005419 -0.001133 0.002426 0.000000 0.025635 0.000000
# 6 0.000000 0.000000 0.000000 0.002378 0.000000 0.030766
#
#
# Mechanical properties :
#
#
# Convention : Reuss Voigt Hill
#
# Bulk Modulus (GPa) = 39.09968 40.80444 39.95206
# Shear Modulus (GPa) = 29.15644 32.40375 30.78009
#
# Velocity S-wave (km/s) = 3.56516 3.75845 3.66308
# Velocity P-wave (km/s) = 5.83027 6.05167 5.94200
#
# Compressibility (1/GPa) = 0.02557566
#
# Stress axis : x y z
#
# Youngs Moduli (GPa) = 52.97507 56.66803 58.25628
#
# Poissons Ratio (x) = 0.24242 0.41731
# Poissons Ratio (y) = 0.22662 0.15236
# Poissons Ratio (z) = 0.37948 0.14821
#
# Static dielectric constant tensor:
#      x y z
#    x 1.882400 0.000000 -0.043890 
#    y 0.000000 1.870710 0.000000 
#    z -0.043890 0.000000 1.944340 
# 
# From -- ./inp_files/63602.got.cif
#   From: 2010.05.17/outbox.cif.g08.bks.cpg/sg14_32_cif.got.tgz:63602.got - 2010.06.03 17:49:19.
