data_PCOD9247313
_publ_section_title
;
Structure prediction by ZEFSAII (Michael W. Deem and Ramdas Pophale) SiO2 
 PCOD9247313
Probable space group: P 21/C
;
_chemical_formula_sum "Si O2"
_cell_formula_units_Z 24
_cell_length_a 15.984005
_cell_length_b 5.084785
_cell_length_c 19.652929
_cell_angle_alpha 90.000000
_cell_angle_beta 146.558362
_cell_angle_gamma 90.000000
_cell_volume 880.249699
_symmetry_space_group_name_H-M "P 21/C"
_symmetry_group_IT_number 14
_symmetry_cell_setting 'monoclinic'
loop_
_space_group_symop_operation_xyz
x,y,z
-x,1/2+y,1/2-z
-x,-y,-z
x,1/2-y,1/2+z
loop_
_atom_site_type_symbol
_atom_site_label
_atom_site_fract_x
_atom_site_fract_y
_atom_site_fract_z
Si Si1 0.304112 0.356253 0.231958
Si Si2 0.908390 0.553525 0.508243
Si Si3 0.583567 0.176618 0.501719
Si Si4 0.035329 0.066450 0.659049
Si Si5 0.750593 0.677971 0.584823
Si Si6 0.519503 0.817926 0.809806
O O1 0.178176 0.370682 0.205559
O O2 0.372925 0.641778 0.260361
O O3 0.454442 0.208768 0.358132
O O4 0.232242 0.211342 0.118739
O O5 0.000000 0.500000 0.500000
O O6 0.908382 0.276126 0.547939
O O7 0.990472 0.768602 0.611869
O O8 0.721736 0.987349 0.575536
O O9 0.500000 0.000000 0.500000
O O10 0.646132 0.468395 0.556845
O O11 0.087914 0.113487 0.772084
O O12 0.674311 0.641013 0.458647
O O13 0.506433 0.551847 0.760511
#
# Coordination Sequence:
#
# PCOD9247313 Si02
#       6
#     4   4   4   4   4   4
#     4  10  22  38  63  87 127 159 194 250 299 364
#     4  10  22  36  56  92 126 160 189 233 307 378
#     4  11  21  33  56  90 122 152 190 238 315 367
#     4  11  22  37  61  93 126 150 195 243 314 372
#     4  11  23  38  60  89 124 153 197 257 305 359
#     4  11  25  42  60  88 119 164 211 249 298 353
#
# _framework density 27.264994000000002
#
# number of rings (size 3 to 8) (size 9 to 14) (size 15 to 20)
#    0.000    1.333    1.667    5.500    4.667    6.667 
#    0.000    0.000    0.000    4.000    0.000    0.000 
#    0.000    0.000    0.000    0.000    0.000    0.000 
#
# Total GULP energy -134325.819636 kJ/mol
# GULP energy per Si atom -5596.909151 kJ/mol
# Density = 2.720294 g / cm^3
# Si number density = 27.264994 Si / 1000 Ang^3
#
#
#
# Elastic Constant Matrix: (Units=GPa)
#
#
# Indices 1 2 3 4 5 6 
#
# 1 57.2301 16.7974 28.3998 0.0000 0.1071 0.0000
# 2 16.7974 139.9957 22.7756 0.0000 -0.0349 0.0000
# 3 28.3998 22.7756 161.1293 0.0000 -20.0245 0.0000
# 4 0.0000 0.0000 0.0000 55.3723 0.0000 -0.6746
# 5 0.1071 -0.0349 -20.0245 0.0000 35.2077 0.0000
# 6 0.0000 0.0000 0.0000 -0.6746 0.0000 42.8628
#
#
#
# Elastic Compliance Matrix: (Units=1/GPa)
#
#
# Indices 1 2 3 4 5 6 
#
# 1 0.019731 -0.001802 -0.003476 0.000000 -0.002039 0.000000
# 2 -0.001802 0.007489 -0.000795 0.000000 -0.000440 0.000000
# 3 -0.003476 -0.000795 0.007460 0.000000 0.004253 0.000000
# 4 0.000000 0.000000 0.000000 0.018063 0.000000 0.000284
# 5 -0.002039 -0.000440 0.004253 0.000000 0.030827 0.000000
# 6 0.000000 0.000000 0.000000 0.000284 0.000000 0.023335
#
#
# Mechanical properties :
#
#
# Convention : Reuss Voigt Hill
#
# Bulk Modulus (GPa) = 44.38267 54.92230 49.65249
# Shear Modulus (GPa) = 39.50580 46.04739 42.77659
#
# Velocity S-wave (km/s) = 3.81065 4.11406 3.96526
# Velocity P-wave (km/s) = 5.97285 6.53873 6.26218
#
# Compressibility (1/GPa) = 0.02253132
#
# Stress axis : x y z
#
# Youngs Moduli (GPa) = 50.68106 133.53565 134.05095
#
# Poissons Ratio (x) = 0.24068 0.46601
# Poissons Ratio (y) = 0.09135 0.10663
# Poissons Ratio (z) = 0.17618 0.10622
#
# Static dielectric constant tensor:
#      x y z
#    x 2.389390 0.000000 -0.035140 
#    y 0.000000 2.551600 0.000000 
#    z -0.035140 0.000000 2.143110 
# 
# From -- ./inp_files/69613.got.cif
#   From: 2010.05.17/outbox.cif.g08.bks.cpg/sg14_35_cif.got.tgz:69613.got - 2010.06.03 17:49:19.
