data_PCOD9247304
_publ_section_title
;
Structure prediction by ZEFSAII (Michael W. Deem and Ramdas Pophale) SiO2 
 PCOD9247304
Probable space group: P 21/C
;
_chemical_formula_sum "Si O2"
_cell_formula_units_Z 28
_cell_length_a 23.735104
_cell_length_b 10.845720
_cell_length_c 8.786370
_cell_angle_alpha 90.000000
_cell_angle_beta 140.146148
_cell_angle_gamma 90.000000
_cell_volume 1449.448808
_symmetry_space_group_name_H-M "P 21/C"
_symmetry_group_IT_number 14
_symmetry_cell_setting 'monoclinic'
loop_
_space_group_symop_operation_xyz
x,y,z
-x,1/2+y,1/2-z
-x,-y,-z
x,1/2-y,1/2+z
loop_
_atom_site_type_symbol
_atom_site_label
_atom_site_fract_x
_atom_site_fract_y
_atom_site_fract_z
Si Si1 0.016180 0.259958 0.819910
Si Si2 0.926365 0.401796 0.878491
Si Si3 0.087620 0.079812 0.206914
Si Si4 0.442009 0.889564 0.811105
Si Si5 0.252956 0.629357 0.409941
Si Si6 0.443183 0.884903 0.446615
Si Si7 0.751114 0.107492 0.459688
O O1 0.072321 0.356193 0.837975
O O2 0.937066 0.317914 0.752763
O O3 0.964282 0.171187 0.599761
O O4 0.080391 0.185857 0.064901
O O5 0.829934 0.451900 0.711108
O O6 0.000000 0.500000 0.000000
O O7 0.173274 0.995094 0.369708
O O8 0.000000 0.000000 0.000000
O O9 0.448207 0.883361 0.640542
O O10 0.465648 0.753025 0.928149
O O11 0.342234 0.920534 0.655386
O O12 0.500000 0.000000 0.000000
O O13 0.342921 0.597159 0.681045
O O14 0.264922 0.628343 0.253662
O O15 0.223018 0.764885 0.404729
O O16 0.500000 0.000000 0.500000
#
# Coordination Sequence:
#
# PCOD9247304 Si02
#       7
#     4   4   4   4   4   4   4
#     4  10  22  36  53  81 117 156 201 246 295 354
#     4  11  21  35  55  80 114 153 192 239 289 341
#     4  11  22  38  58  82 119 161 204 255 307 361
#     4  11  23  43  67  95 126 161 206 258 314 383
#     4  11  21  36  60  90 117 152 204 249 297 365
#     4  11  23  42  68  96 126 161 202 259 320 377
#     4  11  22  38  61  88 118 156 199 250 302 361
#
# _framework density 19.317688
#
# number of rings (size 3 to 8) (size 9 to 14) (size 15 to 20)
#    0.000    1.143    0.000   10.286    0.000    3.429 
#    0.000    7.143    0.000    0.000    0.000    0.000 
#    0.000    0.000    0.000    0.000    0.000    0.000 
#
# Total GULP energy -156379.212634 kJ/mol
# GULP energy per Si atom -5584.971880 kJ/mol
# Density = 1.927372 g / cm^3
# Si number density = 19.317688 Si / 1000 Ang^3
#
#
#
# Elastic Constant Matrix: (Units=GPa)
#
#
# Indices 1 2 3 4 5 6 
#
# 1 169.7053 80.6884 79.3397 0.0000 -15.4691 0.0000
# 2 80.6884 102.8802 68.7010 0.0000 4.4329 0.0000
# 3 79.3397 68.7010 101.2070 0.0000 -4.2013 0.0000
# 4 0.0000 0.0000 0.0000 10.0535 0.0000 31.5911
# 5 -15.4691 4.4329 -4.2013 0.0000 44.8764 0.0000
# 6 0.0000 0.0000 0.0000 31.5911 0.0000 8.7331
#
#
#
# Elastic Compliance Matrix: (Units=1/GPa)
#
#
# Indices 1 2 3 4 5 6 
#
# 1 0.011222 -0.005873 -0.004644 0.000000 0.004014 0.000000
# 2 -0.005873 0.021237 -0.010022 0.000000 -0.005061 0.000000
# 3 -0.004644 -0.010022 0.020378 0.000000 0.001297 0.000000
# 4 0.000000 0.000000 0.000000 -0.009595 0.000000 0.034708
# 5 0.004014 -0.005061 0.001297 0.000000 0.024288 0.000000
# 6 0.000000 0.000000 0.000000 0.034708 0.000000 -0.011045
#
#
# Mechanical properties :
#
#
# Convention : Reuss Voigt Hill
#
# Bulk Modulus (GPa) = 85.04036 92.36119 88.70077
# Shear Modulus (GPa) = 49.26992 22.40349 35.83670
#
# Velocity S-wave (km/s) = 5.05573 3.40919 4.31179
# Velocity P-wave (km/s) = 8.84297 7.96318 8.41458
#
# Compressibility (1/GPa) = 0.01175912
#
# Stress axis : x y z
#
# Youngs Moduli (GPa) = 89.11070 47.08845 49.07281
#
# Poissons Ratio (x) = 0.27656 0.22789
# Poissons Ratio (y) = 0.52337 0.49179
# Poissons Ratio (z) = 0.41382 0.47190
#
# Static dielectric constant tensor:
#      x y z
#    x 1.697120 0.000000 0.008720 
#    y 0.000000 1.728520 0.000000 
#    z 0.008720 0.000000 1.697140 
# 
# From -- ./inp_files/18972.got.cif
#   From: 2010.05.17/outbox.cif.g08.bks.cpg/sg14_10_cif.got.tgz:18972.got - 2010.06.03 17:49:19.
