data_PCOD9247718
_publ_section_title
;
Structure prediction by ZEFSAII (Michael W. Deem and Ramdas Pophale) SiO2 
 PCOD9247718
Probable space group: P 21/C
;
_chemical_formula_sum "Si O2"
_cell_formula_units_Z 28
_cell_length_a 9.027473
_cell_length_b 9.456093
_cell_length_c 14.254406
_cell_angle_alpha 90.000000
_cell_angle_beta 112.301637
_cell_angle_gamma 90.000000
_cell_volume 1125.802358
_symmetry_space_group_name_H-M "P 21/C"
_symmetry_group_IT_number 14
_symmetry_cell_setting 'monoclinic'
loop_
_space_group_symop_operation_xyz
x,y,z
-x,1/2+y,1/2-z
-x,-y,-z
x,1/2-y,1/2+z
loop_
_atom_site_type_symbol
_atom_site_label
_atom_site_fract_x
_atom_site_fract_y
_atom_site_fract_z
Si Si1 0.385375 0.857157 0.818647
Si Si2 0.076801 0.723379 0.461870
Si Si3 0.323926 0.184339 0.350100
Si Si4 0.850537 0.390121 0.210886
Si Si5 0.712596 0.746942 0.883216
Si Si6 0.169872 0.050811 0.900528
Si Si7 0.659891 0.073048 0.401435
O O1 0.298720 0.704607 0.790874
O O2 0.569751 0.841832 0.889718
O O3 0.276448 0.954401 0.855798
O O4 0.387071 0.922585 0.717489
O O5 0.152240 0.567324 0.477539
O O6 0.184388 0.831036 0.546593
O O7 0.893826 0.710143 0.447999
O O8 0.078045 0.800670 0.359455
O O9 0.220733 0.041456 0.333739
O O10 0.308895 0.240612 0.237102
O O11 0.254146 0.299485 0.403553
O O12 0.508386 0.143417 0.416580
O O13 0.989885 0.420433 0.318676
O O14 0.691157 0.591521 0.921950
#
# Coordination Sequence:
#
# PCOD9247718 Si02
#       7
#     4   4   4   4   4   4   4
#     4  10  22  39  67  89 121 165 214 248 304 384
#     4  11  24  39  67  93 128 156 212 266 316 362
#     4  11  21  38  67  88 125 164 214 255 304 380
#     4  11  20  41  67  91 116 171 217 249 299 387
#     4  11  20  39  63  93 121 165 211 252 307 383
#     4  11  21  41  65  93 119 170 213 253 304 380
#     4  11  23  39  63  99 125 159 205 271 318 360
#
# _framework density 24.871148999999999
#
# number of rings (size 3 to 8) (size 9 to 14) (size 15 to 20)
#    0.000    1.143    5.714    1.286    0.000    1.143 
#    0.000    0.714    3.143    0.000    0.000    0.000 
#    0.000    0.000    0.000    0.000    0.000    0.000 
#
# Total GULP energy -156712.582712 kJ/mol
# GULP energy per Si atom -5596.877954 kJ/mol
# Density = 2.481454 g / cm^3
# Si number density = 24.871149 Si / 1000 Ang^3
#
#
#
# Elastic Constant Matrix: (Units=GPa)
#
#
# Indices 1 2 3 4 5 6 
#
# 1 102.9528 34.5569 11.7394 0.0000 29.6593 0.0000
# 2 34.5569 185.4187 23.7474 0.0000 13.3715 0.0000
# 3 11.7394 23.7474 61.8789 0.0000 23.7657 0.0000
# 4 0.0000 0.0000 0.0000 55.0517 0.0000 14.3341
# 5 29.6593 13.3715 23.7657 0.0000 37.8996 0.0000
# 6 0.0000 0.0000 0.0000 14.3341 0.0000 46.1219
#
#
#
# Elastic Compliance Matrix: (Units=1/GPa)
#
#
# Indices 1 2 3 4 5 6 
#
# 1 0.013370 -0.002004 0.002608 0.000000 -0.011391 0.000000
# 2 -0.002004 0.005993 -0.002252 0.000000 0.000867 0.000000
# 3 0.002608 -0.002252 0.022405 0.000000 -0.015295 0.000000
# 4 0.000000 0.000000 0.000000 0.019764 0.000000 -0.006142
# 5 -0.011391 0.000867 -0.015295 0.000000 0.044586 0.000000
# 6 0.000000 0.000000 0.000000 -0.006142 0.000000 0.023591
#
#
# Mechanical properties :
#
#
# Convention : Reuss Voigt Hill
#
# Bulk Modulus (GPa) = 25.99449 54.48197 40.23823
# Shear Modulus (GPa) = 34.28658 46.49509 40.39083
#
# Velocity S-wave (km/s) = 3.71694 4.32839 4.03426
# Velocity P-wave (km/s) = 5.37542 6.85078 6.15745
#
# Compressibility (1/GPa) = 0.03846969
#
# Stress axis : x y z
#
# Youngs Moduli (GPa) = 74.79256 166.86879 44.63333
#
# Poissons Ratio (x) = 0.33446 -0.11639
# Poissons Ratio (y) = 0.14991 0.10053
# Poissons Ratio (z) = -0.19504 0.37586
#
# Static dielectric constant tensor:
#      x y z
#    x 1.975500 0.000000 -0.066290 
#    y 0.000000 1.932510 0.000000 
#    z -0.066290 0.000000 2.044210 
# 
# From -- ./inp_files/65024.got.cif
#   From: 2010.05.17/outbox.cif.g08.bks.cpg/sg14_33_cif.got.tgz:65024.got - 2010.06.03 17:49:19.
