data_PCOD9247858
_publ_section_title
;
Structure prediction by ZEFSAII (Michael W. Deem and Ramdas Pophale) SiO2 
 PCOD9247858
Probable space group: P 21/C
;
_chemical_formula_sum "Si O2"
_cell_formula_units_Z 24
_cell_length_a 7.900920
_cell_length_b 11.482929
_cell_length_c 23.611098
_cell_angle_alpha 90.000000
_cell_angle_beta 35.065417
_cell_angle_gamma 90.000000
_cell_volume 1230.679935
_symmetry_space_group_name_H-M "P 21/C"
_symmetry_group_IT_number 14
_symmetry_cell_setting 'monoclinic'
loop_
_space_group_symop_operation_xyz
x,y,z
-x,1/2+y,1/2-z
-x,-y,-z
x,1/2-y,1/2+z
loop_
_atom_site_type_symbol
_atom_site_label
_atom_site_fract_x
_atom_site_fract_y
_atom_site_fract_z
Si Si1 0.762852 0.939279 0.961547
Si Si2 0.688753 0.838828 0.734466
Si Si3 0.325819 0.940015 0.179075
Si Si4 0.835697 0.010321 0.603193
Si Si5 0.843588 0.583673 0.715717
Si Si6 0.883025 0.274373 0.165308
O O1 0.857323 0.819563 0.905027
O O2 0.627180 0.920343 0.060978
O O3 0.031078 0.028996 0.877189
O O4 0.500000 0.000000 0.000000
O O5 0.845766 0.723412 0.714224
O O6 0.378602 0.792702 0.795497
O O7 0.651007 0.942709 0.789889
O O8 0.855976 0.895363 0.635611
O O9 0.241652 0.831636 0.243007
O O10 0.056227 0.955004 0.208483
O O11 0.490142 0.038995 0.687737
O O12 0.966620 0.115999 0.603840
O O13 0.000000 0.000000 0.500000
#
# Coordination Sequence:
#
# PCOD9247858 Si02
#       6
#     4   4   4   4   4   4
#     4  10  22  40  65  96 123 162 212 254 320 372
#     4  10  22  41  61  91 126 164 209 256 312 368
#     4  10  24  41  65  90 127 168 203 263 320 363
#     4  10  22  41  61  91 124 168 205 258 314 366
#     4  10  22  40  64  91 126 164 209 264 300 384
#     4  10  22  41  62  91 127 158 211 258 307 376
#
# _framework density 19.501415999999999
#
# number of rings (size 3 to 8) (size 9 to 14) (size 15 to 20)
#    0.000    2.000    1.667    0.000    7.000    3.333 
#    6.000    1.667    0.000    0.000    0.000    0.000 
#    0.000    0.000    0.000    0.000    0.000    0.000 
#
# Total GULP energy -133855.577256 kJ/mol
# GULP energy per Si atom -5577.315719 kJ/mol
# Density = 1.945703 g / cm^3
# Si number density = 19.501416 Si / 1000 Ang^3
#
#
#
# Elastic Constant Matrix: (Units=GPa)
#
#
# Indices 1 2 3 4 5 6 
#
# 1 64.1427 24.8600 31.8837 0.0000 10.0885 0.0000
# 2 24.8600 93.2029 66.4458 0.0000 12.4849 0.0000
# 3 31.8837 66.4458 169.0403 0.0000 25.0191 0.0000
# 4 0.0000 0.0000 0.0000 13.4229 0.0000 0.7402
# 5 10.0885 12.4849 25.0191 0.0000 31.1890 0.0000
# 6 0.0000 0.0000 0.0000 0.7402 0.0000 32.2333
#
#
#
# Elastic Compliance Matrix: (Units=1/GPa)
#
#
# Indices 1 2 3 4 5 6 
#
# 1 0.018184 -0.003213 -0.001687 0.000000 -0.003242 0.000000
# 2 -0.003213 0.015531 -0.005370 0.000000 -0.000870 0.000000
# 3 -0.001687 -0.005370 0.009016 0.000000 -0.004537 0.000000
# 4 0.000000 0.000000 0.000000 0.074594 0.000000 -0.001713
# 5 -0.003242 -0.000870 -0.004537 0.000000 0.037100 0.000000
# 6 0.000000 0.000000 0.000000 -0.001713 0.000000 0.031063
#
#
# Mechanical properties :
#
#
# Convention : Reuss Voigt Hill
#
# Bulk Modulus (GPa) = 45.06293 63.64054 54.35174
# Shear Modulus (GPa) = 23.42728 28.91546 26.17137
#
# Velocity S-wave (km/s) = 3.46975 3.85481 3.66734
# Velocity P-wave (km/s) = 6.26178 7.24689 6.77227
#
# Compressibility (1/GPa) = 0.02219119
#
# Stress axis : x y z
#
# Youngs Moduli (GPa) = 54.99309 64.38575 110.90925
#
# Poissons Ratio (x) = 0.20689 0.18708
# Poissons Ratio (y) = 0.17671 0.59560
# Poissons Ratio (z) = 0.09276 0.34576
#
# Static dielectric constant tensor:
#      x y z
#    x 1.698750 0.000000 -0.006140 
#    y 0.000000 1.699370 0.000000 
#    z -0.006140 0.000000 1.707650 
# 
# From -- ./inp_files/24084.got.cif
#   From: 2010.05.17/outbox.cif.g08.bks.cpg/sg14_13_cif.got.tgz:24084.got - 2010.06.03 17:49:19.
