data_PCOD9247140
_publ_section_title
;
Structure prediction by ZEFSAII (Michael W. Deem and Ramdas Pophale) SiO2 
 PCOD9247140
Probable space group: P 21/C
;
_chemical_formula_sum "Si O2"
_cell_formula_units_Z 18
_cell_length_a 20.898221
_cell_length_b 4.834241
_cell_length_c 10.160541
_cell_angle_alpha 90.000000
_cell_angle_beta 144.500636
_cell_angle_gamma 90.000000
_cell_volume 596.076123
_symmetry_space_group_name_H-M "P 21/C"
_symmetry_group_IT_number 14
_symmetry_cell_setting 'monoclinic'
loop_
_space_group_symop_operation_xyz
x,y,z
-x,1/2+y,1/2-z
-x,-y,-z
x,1/2-y,1/2+z
loop_
_atom_site_type_symbol
_atom_site_label
_atom_site_fract_x
_atom_site_fract_y
_atom_site_fract_z
Si Si1 0.245460 0.980078 0.602076
Si Si2 0.215915 0.207854 0.304964
Si Si3 0.983294 0.251193 0.804833
Si Si4 0.500000 0.000000 0.000000
Si Si5 0.454025 0.498832 0.157257
O O1 0.232657 0.250580 0.487106
O O2 0.232679 0.042311 0.733156
O O3 0.143726 0.804065 0.376758
O O4 0.368753 0.908094 0.783330
O O5 0.319312 0.007739 0.433418
O O6 0.086964 0.145703 0.063048
O O7 0.999847 0.571877 0.800587
O O8 0.510582 0.777168 0.873416
O O9 0.514854 0.751482 0.168850
#
# Coordination Sequence:
#
# PCOD9247140 Si02
#       5
#     4   4   4   2   4
#     4  10  21  44  68 105 139 186 233 287 350 414
#     4  10  22  43  71 101 140 183 232 288 345 413
#     4  10  23  43  73 104 141 182 234 288 347 414
#     4  10  22  42  68 100 138 184 226 286 340 420
#     4  11  24  42  66  96 137 173 229 276 343 404
#
# _framework density 30.197482999999998
#
# number of rings (size 3 to 8) (size 9 to 14) (size 15 to 20)
#    0.000    1.778    2.222    0.667    3.111    0.889 
#    0.000   32.222    0.000    0.000    0.000    0.000 
#    0.000    0.000    0.000    0.000    0.000    0.000 
#
# Total GULP energy -100257.880878 kJ/mol
# GULP energy per Si atom -5569.882271 kJ/mol
# Density = 3.012875 g / cm^3
# Si number density = 30.197483 Si / 1000 Ang^3
#
#
#
# Elastic Constant Matrix: (Units=GPa)
#
#
# Indices 1 2 3 4 5 6 
#
# 1 147.1386 53.1330 89.4044 0.0000 39.5207 0.0000
# 2 53.1330 199.8587 47.9613 0.0000 18.4057 0.0000
# 3 89.4044 47.9613 251.8326 0.0000 63.8349 0.0000
# 4 0.0000 0.0000 0.0000 24.2883 0.0000 9.1642
# 5 39.5207 18.4057 63.8349 0.0000 97.2073 0.0000
# 6 0.0000 0.0000 0.0000 9.1642 0.0000 33.8536
#
#
#
# Elastic Compliance Matrix: (Units=1/GPa)
#
#
# Indices 1 2 3 4 5 6 
#
# 1 0.009477 -0.001734 -0.002568 0.000000 -0.001838 0.000000
# 2 -0.001734 0.005574 -0.000428 0.000000 -0.000069 0.000000
# 3 -0.002568 -0.000428 0.005613 0.000000 -0.002561 0.000000
# 4 0.000000 0.000000 0.000000 0.045856 0.000000 -0.012413
# 5 -0.001838 -0.000069 -0.002561 0.000000 0.012729 0.000000
# 6 0.000000 0.000000 0.000000 -0.012413 0.000000 0.032899
#
#
# Mechanical properties :
#
#
# Convention : Reuss Voigt Hill
#
# Bulk Modulus (GPa) = 89.26437 108.86969 99.06703
# Shear Modulus (GPa) = 39.89048 58.29192 49.09120
#
# Velocity S-wave (km/s) = 3.63848 4.39835 4.03634
# Velocity P-wave (km/s) = 6.87574 7.86923 7.38920
#
# Compressibility (1/GPa) = 0.01120268
#
# Stress axis : x y z
#
# Youngs Moduli (GPa) = 105.52319 179.41559 178.14451
#
# Poissons Ratio (x) = 0.31107 0.45752
# Poissons Ratio (y) = 0.18296 0.07633
# Poissons Ratio (z) = 0.27101 0.07687
#
# Static dielectric constant tensor:
#      x y z
#    x 2.520470 0.000000 -0.316210 
#    y 0.000000 2.451940 0.000000 
#    z -0.316210 0.000000 2.425920 
# 
# From -- ./inp_files/27296.got.cif
#   From: 2010.05.17/outbox.cif.g08.bks.cpg/sg14_14_cif.got.tgz:27296.got - 2010.06.03 17:49:19.
