data_PCOD9247436
_publ_section_title
;
Structure prediction by ZEFSAII (Michael W. Deem and Ramdas Pophale) SiO2 
 PCOD9247436
Probable space group: P 21/C
;
_chemical_formula_sum "Si O2"
_cell_formula_units_Z 32
_cell_length_a 12.298298
_cell_length_b 9.228561
_cell_length_c 19.290369
_cell_angle_alpha 90.000000
_cell_angle_beta 45.409623
_cell_angle_gamma 90.000000
_cell_volume 1559.147967
_symmetry_space_group_name_H-M "P 21/C"
_symmetry_group_IT_number 14
_symmetry_cell_setting 'monoclinic'
loop_
_space_group_symop_operation_xyz
x,y,z
-x,1/2+y,1/2-z
-x,-y,-z
x,1/2-y,1/2+z
loop_
_atom_site_type_symbol
_atom_site_label
_atom_site_fract_x
_atom_site_fract_y
_atom_site_fract_z
Si Si1 0.954383 0.861589 0.567247
Si Si2 0.118893 0.686418 0.262448
Si Si3 0.390098 0.453719 0.134039
Si Si4 0.299932 0.113534 0.538720
Si Si5 0.116824 0.873964 0.926373
Si Si6 0.343006 0.223583 0.377859
Si Si7 0.565376 0.523951 0.736428
Si Si8 0.032612 0.011246 0.291160
O O1 0.814125 0.778447 0.593491
O O2 0.094497 0.752779 0.492362
O O3 0.000000 0.000000 0.500000
O O4 0.914418 0.901549 0.664134
O O5 0.277380 0.595171 0.181507
O O6 0.085085 0.673769 0.360320
O O7 0.997400 0.605780 0.265235
O O8 0.120908 0.857628 0.242567
O O9 0.330090 0.341976 0.104075
O O10 0.386594 0.398864 0.213316
O O11 0.561745 0.502648 0.039524
O O12 0.308392 0.228275 0.474369
O O13 0.137302 0.038446 0.609452
O O14 0.289549 0.930074 0.850799
O O15 0.000000 0.000000 0.000000
O O16 0.457608 0.352023 0.308505
O O17 0.424821 0.076045 0.318279
#
# Coordination Sequence:
#
# PCOD9247436 Si02
#       8
#     4   4   4   4   4   4   4   4
#     4  12  23  38  61  88 119 159 201 247 295 363
#     4  10  22  38  57  87 115 154 196 247 298 355
#     4   8  18  35  59  81 111 148 194 235 297 353
#     4   9  17  35  59  80 107 147 192 238 287 353
#     4  11  22  40  62  88 122 156 202 249 303 352
#     4  11  22  37  58  88 118 155 199 244 303 351
#     4  10  23  37  60  87 121 157 195 249 297 359
#     4  11  23  37  61  87 118 155 199 246 298 359
#
# _framework density 20.52403
#
# number of rings (size 3 to 8) (size 9 to 14) (size 15 to 20)
#    0.000    1.750    3.750    0.000    3.500    2.000 
#    0.000    0.000    0.000    1.500    0.000    0.000 
#    0.000    0.000    0.000    0.000    0.000    0.000 
#
# Total GULP energy -178371.349990 kJ/mol
# GULP energy per Si atom -5574.104687 kJ/mol
# Density = 2.047732 g / cm^3
# Si number density = 20.524030 Si / 1000 Ang^3
#
#
#
# Elastic Constant Matrix: (Units=GPa)
#
#
# Indices 1 2 3 4 5 6 
#
# 1 42.3621 -2.6244 8.3201 0.0000 11.6549 0.0000
# 2 -2.6244 49.2296 7.0132 0.0000 23.0199 0.0000
# 3 8.3201 7.0132 57.1747 0.0000 5.7320 0.0000
# 4 0.0000 0.0000 0.0000 30.9189 0.0000 6.5359
# 5 11.6549 23.0199 5.7320 0.0000 32.7066 0.0000
# 6 0.0000 0.0000 0.0000 6.5359 0.0000 17.1579
#
#
#
# Elastic Compliance Matrix: (Units=1/GPa)
#
#
# Indices 1 2 3 4 5 6 
#
# 1 0.029658 0.010070 -0.003849 0.000000 -0.016981 0.000000
# 2 0.010070 0.033842 -0.002920 0.000000 -0.026896 0.000000
# 3 -0.003849 -0.002920 0.018388 0.000000 0.000204 0.000000
# 4 0.000000 0.000000 0.000000 0.035175 0.000000 -0.013399
# 5 -0.016981 -0.026896 0.000204 0.000000 0.055521 0.000000
# 6 0.000000 0.000000 0.000000 -0.013399 0.000000 0.063386
#
#
# Mechanical properties :
#
#
# Convention : Reuss Voigt Hill
#
# Bulk Modulus (GPa) = 11.30062 19.35380 15.32721
# Shear Modulus (GPa) = 19.31512 25.22719 22.27116
#
# Velocity S-wave (km/s) = 3.07106 3.50973 3.29770
# Velocity P-wave (km/s) = 4.25361 5.08671 4.68870
#
# Compressibility (1/GPa) = 0.08849069
#
# Stress axis : x y z
#
# Youngs Moduli (GPa) = 33.71800 29.54872 54.38328
#
# Poissons Ratio (x) = -0.29755 0.20929
# Poissons Ratio (y) = -0.33954 0.15881
# Poissons Ratio (z) = 0.12976 0.08629
#
# Static dielectric constant tensor:
#      x y z
#    x 1.786450 0.000000 0.022930 
#    y 0.000000 1.763130 0.000000 
#    z 0.022930 0.000000 1.741800 
# 
# From -- ./inp_files/68211.got.cif
#   From: 2010.05.17/outbox.cif.g08.bks.cpg/sg14_35_cif.got.tgz:68211.got - 2010.06.03 17:49:19.
