data_PCOD9247315
_publ_section_title
;
Structure prediction by ZEFSAII (Michael W. Deem and Ramdas Pophale) SiO2 
 PCOD9247315
Probable space group: P 21/C
;
_chemical_formula_sum "Si O2"
_cell_formula_units_Z 32
_cell_length_a 5.696568
_cell_length_b 8.821626
_cell_length_c 25.527592
_cell_angle_alpha 90.000000
_cell_angle_beta 92.298236
_cell_angle_gamma 90.000000
_cell_volume 1281.806010
_symmetry_space_group_name_H-M "P 21/C"
_symmetry_group_IT_number 14
_symmetry_cell_setting 'monoclinic'
loop_
_space_group_symop_operation_xyz
x,y,z
-x,1/2+y,1/2-z
-x,-y,-z
x,1/2-y,1/2+z
loop_
_atom_site_type_symbol
_atom_site_label
_atom_site_fract_x
_atom_site_fract_y
_atom_site_fract_z
Si Si1 0.992660 0.682556 0.509977
Si Si2 0.494669 0.820196 0.012424
Si Si3 0.669252 0.486220 0.242495
Si Si4 0.946860 0.810872 0.392452
Si Si5 0.966125 0.760311 0.224379
Si Si6 0.451354 0.692041 0.392586
Si Si7 0.689070 0.422158 0.841682
Si Si8 0.413109 0.123404 0.846335
O O1 0.750247 0.721896 0.536978
O O2 0.974876 0.765503 0.453732
O O3 0.000000 0.500000 0.500000
O O4 0.245981 0.718961 0.536070
O O5 0.477588 0.753392 0.953049
O O6 0.500000 0.000000 0.000000
O O7 0.761103 0.658915 0.246936
O O8 0.503276 0.476591 0.190552
O O9 0.536122 0.438918 0.294107
O O10 0.896507 0.379509 0.239706
O O11 0.711064 0.722655 0.371517
O O12 0.862324 0.982403 0.380189
O O13 0.200642 0.760868 0.371736
O O14 0.852321 0.844397 0.173611
O O15 0.157643 0.646765 0.203677
O O16 0.423850 0.511029 0.387674
O O17 0.541573 0.279522 0.862038
#
# Coordination Sequence:
#
# PCOD9247315 Si02
#       8
#     4   4   4   4   4   4   4   4
#     4   8  14  28  50  79 113 140 175 227 285 337
#     4   8  14  28  50  79 113 140 175 227 285 337
#     4  10  22  40  56  78 102 148 198 240 298 348
#     4  10  22  36  57  90 115 146 195 243 291 348
#     4  10  22  40  58  74 106 150 196 244 298 350
#     4  10  22  36  57  90 115 146 195 243 291 348
#     4  10  23  40  55  79 114 152 196 247 304 352
#     4  10  23  40  55  79 114 152 196 247 304 352
#
# _framework density 24.964774999999999
#
# number of rings (size 3 to 8) (size 9 to 14) (size 15 to 20)
#    0.000    2.500    0.000    0.750    7.000    5.000 
#    2.250    0.000    0.000    0.000    0.000   28.000 
#    0.000    0.000    0.000    0.000    0.000    0.000 
#
# Total GULP energy -178622.614797 kJ/mol
# GULP energy per Si atom -5581.956712 kJ/mol
# Density = 2.490795 g / cm^3
# Si number density = 24.964775 Si / 1000 Ang^3
#
#
#
# Elastic Constant Matrix: (Units=GPa)
#
#
# Indices 1 2 3 4 5 6 
#
# 1 231.9278 45.0221 31.7559 0.0000 21.4541 0.0000
# 2 45.0221 69.3365 22.0667 0.0000 13.6818 0.0000
# 3 31.7559 22.0667 70.9161 0.0000 18.8331 0.0000
# 4 0.0000 0.0000 0.0000 32.8626 0.0000 12.2045
# 5 21.4541 13.6818 18.8331 0.0000 28.2112 0.0000
# 6 0.0000 0.0000 0.0000 12.2045 0.0000 46.1223
#
#
#
# Elastic Compliance Matrix: (Units=1/GPa)
#
#
# Indices 1 2 3 4 5 6 
#
# 1 0.005139 -0.002641 -0.000950 0.000000 -0.001993 0.000000
# 2 -0.002641 0.018070 -0.003216 0.000000 -0.004608 0.000000
# 3 -0.000950 -0.003216 0.018137 0.000000 -0.009825 0.000000
# 4 0.000000 0.000000 0.000000 0.033746 0.000000 -0.008930
# 5 -0.001993 -0.004608 -0.009825 0.000000 0.045756 0.000000
# 6 0.000000 0.000000 0.000000 -0.008930 0.000000 0.024044
#
#
# Mechanical properties :
#
#
# Convention : Reuss Voigt Hill
#
# Bulk Modulus (GPa) = 36.06140 63.31887 49.69014
# Shear Modulus (GPa) = 29.80603 39.66160 34.73382
#
# Velocity S-wave (km/s) = 3.45907 3.99018 3.73408
# Velocity P-wave (km/s) = 5.51632 6.82986 6.20793
#
# Compressibility (1/GPa) = 0.02773048
#
# Stress axis : x y z
#
# Youngs Moduli (GPa) = 194.59712 55.33942 55.13676
#
# Poissons Ratio (x) = 0.14616 0.05238
# Poissons Ratio (y) = 0.51397 0.17734
# Poissons Ratio (z) = 0.18488 0.17800
#
# Static dielectric constant tensor:
#      x y z
#    x 1.993750 0.000000 -0.012980 
#    y 0.000000 1.979810 0.000000 
#    z -0.012980 0.000000 1.944910 
# 
# From -- ./inp_files/78699.got.cif
#   From: 2010.05.17/outbox.cif.g08.bks.cpg/sg14_40_cif.got.tgz:78699.got - 2010.06.03 17:49:19.
