data_PCOD9247248
_publ_section_title
;
Structure prediction by ZEFSAII (Michael W. Deem and Ramdas Pophale) SiO2 
 PCOD9247248
Probable space group: P 21/C
;
_chemical_formula_sum "Si O2"
_cell_formula_units_Z 28
_cell_length_a 12.099961
_cell_length_b 7.772385
_cell_length_c 13.939316
_cell_angle_alpha 90.000000
_cell_angle_beta 65.585771
_cell_angle_gamma 90.000000
_cell_volume 1193.708655
_symmetry_space_group_name_H-M "P 21/C"
_symmetry_group_IT_number 14
_symmetry_cell_setting 'monoclinic'
loop_
_space_group_symop_operation_xyz
x,y,z
-x,1/2+y,1/2-z
-x,-y,-z
x,1/2-y,1/2+z
loop_
_atom_site_type_symbol
_atom_site_label
_atom_site_fract_x
_atom_site_fract_y
_atom_site_fract_z
Si Si1 0.506965 0.162150 0.928086
Si Si2 0.411382 0.495458 0.800152
Si Si3 0.664208 0.418869 0.814448
Si Si4 0.774473 0.722795 0.253647
Si Si5 0.239682 0.127974 0.035874
Si Si6 0.965558 0.797410 0.025383
Si Si7 0.232092 0.723313 0.414790
O O1 0.617417 0.290375 0.913276
O O2 0.540107 0.091449 0.812035
O O3 0.368230 0.224956 0.978325
O O4 0.500000 0.000000 0.000000
O O5 0.533090 0.449544 0.811981
O O6 0.326066 0.348307 0.784717
O O7 0.330241 0.627451 0.889439
O O8 0.725578 0.598470 0.814749
O O9 0.749930 0.335398 0.702709
O O10 0.786545 0.600987 0.341934
O O11 0.894631 0.758152 0.148982
O O12 0.130017 0.231670 0.025891
O O13 0.250572 0.947325 0.973255
O O14 0.095667 0.707480 0.975703
O O15 0.000000 0.000000 0.000000
#
# Coordination Sequence:
#
# PCOD9247248 Si02
#       7
#     4   4   4   4   4   4   4
#     4  11  22  41  63  99 142 174 225 290 338 418
#     4  11  22  40  70 102 132 178 232 277 359 421
#     4  11  22  40  72  98 136 186 222 282 364 410
#     4  12  23  41  73 105 133 184 241 285 339 428
#     4  11  22  42  68  99 142 182 231 293 340 410
#     4  10  21  46  69  92 142 184 225 285 356 405
#     4  10  22  44  72  93 136 189 220 286 354 417
#
# _framework density 23.456309999999998
#
# number of rings (size 3 to 8) (size 9 to 14) (size 15 to 20)
#    0.000    1.143    5.714    2.571    0.000    1.143 
#    5.143    1.429    0.000    0.000    0.000    0.000 
#    0.000    0.000    0.000    0.000    0.000    0.000 
#
# Total GULP energy -156498.150215 kJ/mol
# GULP energy per Si atom -5589.219651 kJ/mol
# Density = 2.340292 g / cm^3
# Si number density = 23.456310 Si / 1000 Ang^3
#
#
#
# Elastic Constant Matrix: (Units=GPa)
#
#
# Indices 1 2 3 4 5 6 
#
# 1 62.8262 1.4802 74.5420 0.0000 -31.1792 0.0000
# 2 1.4802 60.9507 39.9620 0.0000 -10.2865 0.0000
# 3 74.5420 39.9620 159.7347 0.0000 -26.8671 0.0000
# 4 0.0000 0.0000 0.0000 49.2701 0.0000 -4.6993
# 5 -31.1792 -10.2865 -26.8671 0.0000 49.5039 0.0000
# 6 0.0000 0.0000 0.0000 -4.6993 0.0000 22.4464
#
#
#
# Elastic Compliance Matrix: (Units=1/GPa)
#
#
# Indices 1 2 3 4 5 6 
#
# 1 0.074327 0.027351 -0.035983 0.000000 0.032968 0.000000
# 2 0.027351 0.029800 -0.017915 0.000000 0.013696 0.000000
# 3 -0.035983 -0.017915 0.025416 0.000000 -0.012592 0.000000
# 4 0.000000 0.000000 0.000000 0.020710 0.000000 0.004336
# 5 0.032968 0.013696 -0.012592 0.000000 0.036977 0.000000
# 6 0.000000 0.000000 0.000000 0.004336 0.000000 0.045458
#
#
# Mechanical properties :
#
#
# Convention : Reuss Voigt Hill
#
# Bulk Modulus (GPa) = 13.08076 57.27555 35.17816
# Shear Modulus (GPa) = 16.06351 35.41257 25.73804
#
# Velocity S-wave (km/s) = 2.61976 3.88973 3.31611
# Velocity P-wave (km/s) = 3.83922 6.68164 5.44903
#
# Compressibility (1/GPa) = 0.07644813
#
# Stress axis : x y z
#
# Youngs Moduli (GPa) = 13.45414 33.55725 39.34497
#
# Poissons Ratio (x) = -0.91781 1.41574
# Poissons Ratio (y) = -0.36798 0.70487
# Poissons Ratio (z) = 0.48412 0.60118
#
# Static dielectric constant tensor:
#      x y z
#    x 1.928830 0.000000 0.030550 
#    y 0.000000 2.093880 0.000000 
#    z 0.030550 0.000000 1.893130 
# 
# From -- ./inp_files/43285.got.cif
#   From: 2010.05.17/outbox.cif.g08.bks.cpg/sg14_22_cif.got.tgz:43285.got - 2010.06.03 17:49:19.
