data_PCOD9247448
_publ_section_title
;
Structure prediction by ZEFSAII (Michael W. Deem and Ramdas Pophale) SiO2 
 PCOD9247448
Probable space group: P 21/C
;
_chemical_formula_sum "Si O2"
_cell_formula_units_Z 32
_cell_length_a 12.247558
_cell_length_b 12.714468
_cell_length_c 17.511536
_cell_angle_alpha 90.000000
_cell_angle_beta 143.669558
_cell_angle_gamma 90.000000
_cell_volume 1615.538314
_symmetry_space_group_name_H-M "P 21/C"
_symmetry_group_IT_number 14
_symmetry_cell_setting 'monoclinic'
loop_
_space_group_symop_operation_xyz
x,y,z
-x,1/2+y,1/2-z
-x,-y,-z
x,1/2-y,1/2+z
loop_
_atom_site_type_symbol
_atom_site_label
_atom_site_fract_x
_atom_site_fract_y
_atom_site_fract_z
Si Si1 0.842403 0.953750 0.040073
Si Si2 0.822982 0.412539 0.749697
Si Si3 0.370970 0.718896 0.149764
Si Si4 0.937894 0.271833 0.420219
Si Si5 0.427932 0.979045 0.759982
Si Si6 0.729059 0.799306 0.298510
Si Si7 0.856330 0.176228 0.108385
Si Si8 0.147807 0.138998 0.787719
O O1 0.799141 0.894759 0.096551
O O2 0.977321 0.877001 0.068718
O O3 0.928049 0.068678 0.108224
O O4 0.648714 0.978145 0.888829
O O5 0.938894 0.324677 0.860477
O O6 0.644049 0.434651 0.699579
O O7 0.771975 0.365206 0.639502
O O8 0.914506 0.527128 0.785805
O O9 0.269087 0.778835 0.162287
O O10 0.336625 0.597027 0.146323
O O11 0.589285 0.722196 0.261788
O O12 0.290561 0.770521 0.029297
O O13 0.065981 0.234777 0.563099
O O14 0.335487 0.091433 0.701393
O O15 0.712735 0.815226 0.198088
O O16 0.000758 0.267358 0.209467
#
# Coordination Sequence:
#
# PCOD9247448 Si02
#       8
#     4   4   4   4   4   4   4   4
#     4  11  22  39  62  85 123 153 198 246 299 357
#     4   9  22  37  62  84 120 152 202 245 292 349
#     4  11  23  37  58  87 123 155 196 241 298 356
#     4  11  22  40  60  86 122 160 191 247 299 357
#     4  10  22  38  59  90 116 159 198 248 295 345
#     4  11  22  39  60  88 120 154 206 243 297 346
#     4  11  21  38  58  90 117 155 196 246 295 354
#     4  10  22  38  61  87 116 156 199 249 293 345
#
# _framework density 19.807639000000002
#
# number of rings (size 3 to 8) (size 9 to 14) (size 15 to 20)
#    0.000    1.500    5.000    0.000    3.500    3.500 
#    2.250    0.000    0.000    0.000    0.000    8.750 
#    0.000    0.000    0.000    0.000    0.000    0.000 
#
# Total GULP energy -178204.015513 kJ/mol
# GULP energy per Si atom -5568.875485 kJ/mol
# Density = 1.976256 g / cm^3
# Si number density = 19.807639 Si / 1000 Ang^3
#
#
#
# Elastic Constant Matrix: (Units=GPa)
#
#
# Indices 1 2 3 4 5 6 
#
# 1 44.2529 5.4086 4.2306 0.0000 -9.2049 0.0000
# 2 5.4086 77.7438 15.1181 0.0000 -8.3815 0.0000
# 3 4.2306 15.1181 32.4015 0.0000 -8.4238 0.0000
# 4 0.0000 0.0000 0.0000 27.9750 0.0000 -8.1255
# 5 -9.2049 -8.3815 -8.4238 0.0000 24.5424 0.0000
# 6 0.0000 0.0000 0.0000 -8.1255 0.0000 28.9311
#
#
#
# Elastic Compliance Matrix: (Units=1/GPa)
#
#
# Indices 1 2 3 4 5 6 
#
# 1 0.024562 -0.000641 -0.000626 0.000000 0.008778 0.000000
# 2 -0.000641 0.014343 -0.005926 0.000000 0.002624 0.000000
# 3 -0.000626 -0.005926 0.036368 0.000000 0.010224 0.000000
# 4 0.000000 0.000000 0.000000 0.038921 0.000000 0.010931
# 5 0.008778 0.002624 0.010224 0.000000 0.048443 0.000000
# 6 0.000000 0.000000 0.000000 0.010931 0.000000 0.037635
#
#
# Mechanical properties :
#
#
# Convention : Reuss Voigt Hill
#
# Bulk Modulus (GPa) = 16.42404 22.65698 19.54051
# Shear Modulus (GPa) = 21.28091 24.93244 23.10667
#
# Velocity S-wave (km/s) = 3.28133 3.55171 3.41919
# Velocity P-wave (km/s) = 4.76087 5.31816 5.04721
#
# Compressibility (1/GPa) = 0.06088636
#
# Stress axis : x y z
#
# Youngs Moduli (GPa) = 40.71412 69.72223 27.49695
#
# Poissons Ratio (x) = 0.04467 0.01721
# Poissons Ratio (y) = 0.02608 0.16296
# Poissons Ratio (z) = 0.02548 0.41320
#
# Static dielectric constant tensor:
#      x y z
#    x 1.744330 0.000000 -0.000090 
#    y 0.000000 1.714160 0.000000 
#    z -0.000090 0.000000 1.690530 
# 
# From -- ./inp_files/57721.got.cif
#   From: 2010.05.17/outbox.cif.g08.bks.cpg/sg14_29_cif.got.tgz:57721.got - 2010.06.03 17:49:19.
