data_PCOD9247409
_publ_section_title
;
Structure prediction by ZEFSAII (Michael W. Deem and Ramdas Pophale) SiO2 
 PCOD9247409
Probable space group: P 21/C
;
_chemical_formula_sum "Si O2"
_cell_formula_units_Z 30
_cell_length_a 9.673121
_cell_length_b 17.326087
_cell_length_c 7.426645
_cell_angle_alpha 90.000000
_cell_angle_beta 85.066791
_cell_angle_gamma 90.000000
_cell_volume 1240.075129
_symmetry_space_group_name_H-M "P 21/C"
_symmetry_group_IT_number 14
_symmetry_cell_setting 'monoclinic'
loop_
_space_group_symop_operation_xyz
x,y,z
-x,1/2+y,1/2-z
-x,-y,-z
x,1/2-y,1/2+z
loop_
_atom_site_type_symbol
_atom_site_label
_atom_site_fract_x
_atom_site_fract_y
_atom_site_fract_z
Si Si1 0.635798 0.605994 0.818364
Si Si2 0.276114 0.020547 0.321331
Si Si3 0.351868 0.650060 0.952900
Si Si4 0.984129 0.066163 0.209995
Si Si5 0.500000 0.000000 0.000000
Si Si6 0.671160 0.439590 0.697406
Si Si7 0.077263 0.347192 0.362205
Si Si8 0.060077 0.805554 0.486620
O O1 0.504035 0.660812 0.856749
O O2 0.590943 0.525342 0.716830
O O3 0.761835 0.645130 0.702380
O O4 0.684303 0.573269 0.008163
O O5 0.114387 0.026419 0.289051
O O6 0.301830 0.933383 0.383995
O O7 0.373774 0.044066 0.144507
O O8 0.367142 0.626331 0.160874
O O9 0.224959 0.708649 0.943242
O O10 0.827904 0.034694 0.213560
O O11 0.958549 0.141590 0.336451
O O12 0.027918 0.087506 0.003961
O O13 0.611493 0.076166 0.010475
O O14 0.031594 0.269221 0.467134
O O15 0.996207 0.347675 0.183407
#
# Coordination Sequence:
#
# PCOD9247409 Si02
#       8
#     4   4   4   4   2   4   4   4
#     4  11  21  42  67  96 135 179 215 280 340 408
#     4  11  22  38  64 104 142 173 215 269 349 411
#     4  10  22  43  65  96 140 175 212 280 348 404
#     4  11  25  41  67 103 134 176 230 279 329 414
#     4  12  20  34  58  96 148 170 200 266 322 422
#     4  10  22  37  64 101 140 170 217 264 343 410
#     4  12  25  45  71  91 130 180 233 284 331 392
#     4  11  25  46  69  92 129 180 231 285 329 391
#
# _framework density 24.192083
#
# number of rings (size 3 to 8) (size 9 to 14) (size 15 to 20)
#    0.000    1.067    5.333    1.600    3.733    2.667 
#    0.000    1.333    2.933    0.000    0.000    0.000 
#    0.000    0.000    0.000    0.000    0.000    0.000 
#
# Total GULP energy -167373.744959 kJ/mol
# GULP energy per Si atom -5579.124832 kJ/mol
# Density = 2.413702 g / cm^3
# Si number density = 24.192083 Si / 1000 Ang^3
#
#
#
# Elastic Constant Matrix: (Units=GPa)
#
#
# Indices 1 2 3 4 5 6 
#
# 1 190.5112 19.4025 45.6024 0.0000 -14.7019 0.0000
# 2 19.4025 36.4681 8.5226 0.0000 -7.1642 0.0000
# 3 45.6024 8.5226 124.1718 0.0000 -11.4339 0.0000
# 4 0.0000 0.0000 0.0000 10.7261 0.0000 -15.7652
# 5 -14.7019 -7.1642 -11.4339 0.0000 43.1355 0.0000
# 6 0.0000 0.0000 0.0000 -15.7652 0.0000 16.5126
#
#
#
# Elastic Compliance Matrix: (Units=1/GPa)
#
#
# Indices 1 2 3 4 5 6 
#
# 1 0.006062 -0.002549 -0.001948 0.000000 0.001126 0.000000
# 2 -0.002549 0.029712 -0.000747 0.000000 0.003868 0.000000
# 3 -0.001948 -0.000747 0.008966 0.000000 0.001589 0.000000
# 4 0.000000 0.000000 0.000000 -0.231183 0.000000 -0.220720
# 5 0.001126 0.003868 0.001589 0.000000 0.024630 0.000000
# 6 0.000000 0.000000 0.000000 -0.220720 0.000000 -0.150171
#
#
# Mechanical properties :
#
#
# Convention : Reuss Voigt Hill
#
# Bulk Modulus (GPa) = 29.19449 55.35623 42.27536
# Shear Modulus (GPa) = -17.23664 32.58309 7.67323
#
# Velocity S-wave (km/s) = -2.67215 3.67393 1.78288
# Velocity P-wave (km/s) = 1.60421 6.39755 4.66380
#
# Compressibility (1/GPa) = 0.03425304
#
# Stress axis : x y z
#
# Youngs Moduli (GPa) = 164.97003 33.65677 111.53043
#
# Poissons Ratio (x) = 0.08578 0.21721
# Poissons Ratio (y) = 0.42045 0.08333
# Poissons Ratio (z) = 0.32128 0.02515
#
# Static dielectric constant tensor:
#      x y z
#    x 2.033920 0.000000 0.104910 
#    y 0.000000 1.967710 0.000000 
#    z 0.104910 0.000000 2.182510 
# 
# From -- ./inp_files/10193.got.cif
#   From: 2010.05.17/outbox.cif.g08.bks.cpg/sg14_6_cif.got.tgz:10193.got - 2010.06.03 17:49:19.
