data_PCOD9247547
_publ_section_title
;
Structure prediction by ZEFSAII (Michael W. Deem and Ramdas Pophale) SiO2 
 PCOD9247547
Probable space group: P 21/C
;
_chemical_formula_sum "Si O2"
_cell_formula_units_Z 32
_cell_length_a 15.910361
_cell_length_b 12.092942
_cell_length_c 21.548170
_cell_angle_alpha 90.000000
_cell_angle_beta 157.547292
_cell_angle_gamma 90.000000
_cell_volume 1583.418190
_symmetry_space_group_name_H-M "P 21/C"
_symmetry_group_IT_number 14
_symmetry_cell_setting 'monoclinic'
loop_
_space_group_symop_operation_xyz
x,y,z
-x,1/2+y,1/2-z
-x,-y,-z
x,1/2-y,1/2+z
loop_
_atom_site_type_symbol
_atom_site_label
_atom_site_fract_x
_atom_site_fract_y
_atom_site_fract_z
Si Si1 0.270466 0.364102 0.328845
Si Si2 0.547178 0.645338 0.095213
Si Si3 0.832068 0.054594 0.748069
Si Si4 0.616205 0.419078 0.667137
Si Si5 0.406728 0.131599 0.231381
Si Si6 0.833659 0.252081 0.498062
Si Si7 0.064945 0.779717 0.075226
Si Si8 0.699390 0.016853 0.947204
O O1 0.393479 0.273465 0.370265
O O2 0.414429 0.366620 0.489824
O O3 0.279340 0.485129 0.304491
O O4 0.021867 0.319273 0.160264
O O5 0.737807 0.568268 0.195496
O O6 0.527678 0.612946 0.153148
O O7 0.331213 0.617724 0.908903
O O8 0.840199 0.118737 0.819318
O O9 0.073792 0.047355 0.883714
O O10 0.798836 0.328942 0.811104
O O11 0.499035 0.479190 0.644996
O O12 0.613402 0.182589 0.337387
O O13 0.346941 0.019589 0.155134
O O14 0.195354 0.213307 0.086705
O O15 0.915607 0.289994 0.485827
O O16 0.757441 0.354923 0.487610
#
# Coordination Sequence:
#
# PCOD9247547 Si02
#       8
#     4   4   4   4   4   4   4   4
#     4  11  24  44  66  93 133 180 217 270 335 396
#     4  11  20  41  64  95 124 169 223 266 332 385
#     4  10  22  38  68  92 127 169 217 280 323 382
#     4  11  25  45  66  95 138 177 218 273 336 403
#     4  11  24  39  65  99 129 171 218 272 333 394
#     4  12  24  42  67  96 131 172 222 273 328 396
#     4  11  22  43  66  95 136 171 213 273 334 396
#     4  11  23  42  63  98 130 168 225 277 326 391
#
# _framework density 20.209444000000001
#
# number of rings (size 3 to 8) (size 9 to 14) (size 15 to 20)
#    0.000    1.000    5.000    1.500    1.750    3.500 
#    0.000    0.000    2.750    0.000    0.000    0.000 
#    0.000    0.000    0.000    0.000    0.000    0.000 
#
# Total GULP energy -178695.847947 kJ/mol
# GULP energy per Si atom -5584.245248 kJ/mol
# Density = 2.016345 g / cm^3
# Si number density = 20.209444 Si / 1000 Ang^3
#
#
#
# Elastic Constant Matrix: (Units=GPa)
#
#
# Indices 1 2 3 4 5 6 
#
# 1 41.5488 -3.1006 23.4625 0.0000 -5.1965 0.0000
# 2 -3.1006 66.4294 29.2087 0.0000 4.4451 0.0000
# 3 23.4625 29.2087 107.3652 0.0000 -5.6037 0.0000
# 4 0.0000 0.0000 0.0000 25.8757 0.0000 -1.2402
# 5 -5.1965 4.4451 -5.6037 0.0000 31.7193 0.0000
# 6 0.0000 0.0000 0.0000 -1.2402 0.0000 23.3589
#
#
#
# Elastic Compliance Matrix: (Units=1/GPa)
#
#
# Indices 1 2 3 4 5 6 
#
# 1 0.028909 0.004400 -0.007368 0.000000 0.002818 0.000000
# 2 0.004400 0.018107 -0.006038 0.000000 -0.002883 0.000000
# 3 -0.007368 -0.006038 0.012665 0.000000 0.001877 0.000000
# 4 0.000000 0.000000 0.000000 0.038745 0.000000 0.002057
# 5 0.002818 -0.002883 0.001877 0.000000 0.032724 0.000000
# 6 0.000000 0.000000 0.000000 0.002057 0.000000 0.042919
#
#
# Mechanical properties :
#
#
# Convention : Reuss Voigt Hill
#
# Bulk Modulus (GPa) = 23.99804 34.94274 29.47039
# Shear Modulus (GPa) = 24.27544 27.24230 25.75887
#
# Velocity S-wave (km/s) = 3.46958 3.67549 3.57402
# Velocity P-wave (km/s) = 5.28688 5.94476 5.62545
#
# Compressibility (1/GPa) = 0.04167006
#
# Stress axis : x y z
#
# Youngs Moduli (GPa) = 34.59091 55.22798 78.96012
#
# Poissons Ratio (x) = -0.24302 0.58174
# Poissons Ratio (y) = -0.15221 0.47676
# Poissons Ratio (z) = 0.25485 0.33347
#
# Static dielectric constant tensor:
#      x y z
#    x 1.704790 0.000000 0.011030 
#    y 0.000000 1.708600 0.000000 
#    z 0.011030 0.000000 1.734370 
# 
# From -- ./inp_files/40335.got.cif
#   From: 2010.05.17/outbox.cif.g08.bks.cpg/sg14_21_cif.got.tgz:40335.got - 2010.06.03 17:49:19.
