data_PCOD9247387
_publ_section_title
;
Structure prediction by ZEFSAII (Michael W. Deem and Ramdas Pophale) SiO2 
 PCOD9247387
Probable space group: P 21/C
;
_chemical_formula_sum "Si O2"
_cell_formula_units_Z 20
_cell_length_a 12.704079
_cell_length_b 11.534227
_cell_length_c 7.194717
_cell_angle_alpha 90.000000
_cell_angle_beta 57.943216
_cell_angle_gamma 90.000000
_cell_volume 893.504264
_symmetry_space_group_name_H-M "P 21/C"
_symmetry_group_IT_number 14
_symmetry_cell_setting 'monoclinic'
loop_
_space_group_symop_operation_xyz
x,y,z
-x,1/2+y,1/2-z
-x,-y,-z
x,1/2-y,1/2+z
loop_
_atom_site_type_symbol
_atom_site_label
_atom_site_fract_x
_atom_site_fract_y
_atom_site_fract_z
Si Si1 0.046333 0.391085 0.337243
Si Si2 0.263870 0.831579 0.541246
Si Si3 0.907256 0.161719 0.616023
Si Si4 0.683339 0.948541 0.329102
Si Si5 0.509104 0.049087 0.786367
O O1 0.194427 0.380720 0.225275
O O2 0.000000 0.500000 0.500000
O O3 0.984752 0.273222 0.473177
O O4 0.994654 0.405071 0.176193
O O5 0.209042 0.711026 0.655702
O O6 0.161524 0.888389 0.499675
O O7 0.396448 0.842049 0.317724
O O8 0.276101 0.915863 0.706700
O O9 0.619102 0.919759 0.195263
O O10 0.578262 0.953347 0.589229
O O11 0.500000 0.000000 0.000000
#
# Coordination Sequence:
#
# PCOD9247387 Si02
#       5
#     4   4   4   4   4
#     4  11  21  40  62  88 131 161 201 273 309 372
#     4   9  19  37  57  91 118 157 212 256 293 386
#     4  10  22  37  60  95 122 165 216 244 320 384
#     4   9  20  38  61  86 120 157 203 254 317 362
#     4   9  19  37  62  90 111 162 215 248 315 372
#
# _framework density 22.383778
#
# number of rings (size 3 to 8) (size 9 to 14) (size 15 to 20)
#    1.200    1.200    2.000    0.000    2.800    0.800 
#    7.200    2.000    0.000    0.000    0.000    0.000 
#    0.000    0.000    0.000    0.000    0.000    0.000 
#
# Total GULP energy -111468.139718 kJ/mol
# GULP energy per Si atom -5573.406986 kJ/mol
# Density = 2.233283 g / cm^3
# Si number density = 22.383778 Si / 1000 Ang^3
#
#
#
# Elastic Constant Matrix: (Units=GPa)
#
#
# Indices 1 2 3 4 5 6 
#
# 1 208.7527 23.6053 41.6923 0.0000 2.8865 0.0000
# 2 23.6053 21.3585 3.1948 0.0000 -4.5381 0.0000
# 3 41.6923 3.1948 70.8017 0.0000 6.2865 0.0000
# 4 0.0000 0.0000 0.0000 19.4990 0.0000 -3.7730
# 5 2.8865 -4.5381 6.2865 0.0000 35.0219 0.0000
# 6 0.0000 0.0000 0.0000 -3.7730 0.0000 38.5579
#
#
#
# Elastic Compliance Matrix: (Units=1/GPa)
#
#
# Indices 1 2 3 4 5 6 
#
# 1 0.006194 -0.006517 -0.003285 0.000000 -0.000765 0.000000
# 2 -0.006517 0.055543 0.000655 0.000000 0.007617 0.000000
# 3 -0.003285 0.000655 0.016257 0.000000 -0.002562 0.000000
# 4 0.000000 0.000000 0.000000 0.052274 0.000000 0.005115
# 5 -0.000765 0.007617 -0.002562 0.000000 0.030064 0.000000
# 6 0.000000 0.000000 0.000000 0.005115 0.000000 0.026436
#
#
# Mechanical properties :
#
#
# Convention : Reuss Voigt Hill
#
# Bulk Modulus (GPa) = 16.75079 48.65531 32.70305
# Shear Modulus (GPa) = 22.22611 34.11047 28.16829
#
# Velocity S-wave (km/s) = 3.15454 3.90794 3.55128
# Velocity P-wave (km/s) = 4.55718 6.49205 5.60868
#
# Compressibility (1/GPa) = 0.05969869
#
# Stress axis : x y z
#
# Youngs Moduli (GPa) = 161.44643 18.00421 61.51364
#
# Poissons Ratio (x) = 0.11733 0.20210
# Poissons Ratio (y) = 1.05211 -0.04029
# Poissons Ratio (z) = 0.53042 -0.01179
#
# Static dielectric constant tensor:
#      x y z
#    x 1.861850 0.000000 -0.008990 
#    y 0.000000 1.858460 0.000000 
#    z -0.008990 0.000000 1.880480 
# 
# From -- ./inp_files/12172.got.cif
#   From: 2010.05.17/outbox.cif.g08.bks.cpg/sg14_7_cif.got.tgz:12172.got - 2010.06.03 17:49:19.
