data_PCOD9247458
_publ_section_title
;
Structure prediction by ZEFSAII (Michael W. Deem and Ramdas Pophale) SiO2 
 PCOD9247458
Probable space group: P 21/C
;
_chemical_formula_sum "Si O2"
_cell_formula_units_Z 30
_cell_length_a 12.573184
_cell_length_b 14.495377
_cell_length_c 8.723809
_cell_angle_alpha 90.000000
_cell_angle_beta 91.043433
_cell_angle_gamma 90.000000
_cell_volume 1589.677083
_symmetry_space_group_name_H-M "P 21/C"
_symmetry_group_IT_number 14
_symmetry_cell_setting 'monoclinic'
loop_
_space_group_symop_operation_xyz
x,y,z
-x,1/2+y,1/2-z
-x,-y,-z
x,1/2-y,1/2+z
loop_
_atom_site_type_symbol
_atom_site_label
_atom_site_fract_x
_atom_site_fract_y
_atom_site_fract_z
Si Si1 0.414931 0.132247 0.032775
Si Si2 0.826822 0.453202 0.758731
Si Si3 0.146666 0.632115 0.667858
Si Si4 0.000000 0.000000 0.000000
Si Si5 0.924079 0.312188 0.002193
Si Si6 0.701803 0.771660 0.697209
Si Si7 0.345755 0.579065 0.484574
Si Si8 0.829686 0.645194 0.928782
O O1 0.361872 0.195060 0.900489
O O2 0.541878 0.130147 0.020810
O O3 0.375846 0.173761 0.192338
O O4 0.371508 0.028305 0.016723
O O5 0.878705 0.375934 0.866459
O O6 0.718959 0.417850 0.676556
O O7 0.811171 0.544475 0.859496
O O8 0.903994 0.480238 0.620666
O O9 0.077606 0.540008 0.641792
O O10 0.090074 0.707442 0.555028
O O11 0.266185 0.617552 0.611952
O O12 0.136893 0.667862 0.840801
O O13 0.047043 0.336062 0.034216
O O14 0.788934 0.719472 0.803324
O O15 0.761596 0.837365 0.579383
#
# Coordination Sequence:
#
# PCOD9247458 Si02
#       8
#     4   4   4   2   4   4   4   4
#     4  10  22  44  64  94 117 168 207 271 311 364
#     4  11  23  41  62  92 131 165 208 256 310 382
#     4  11  24  40  63  91 126 171 205 257 312 380
#     4  10  22  38  60  88 126 166 200 252 308 370
#     4  12  25  41  61  96 130 168 209 249 316 382
#     4  10  23  39  68  88 125 159 218 255 315 359
#     4  10  23  42  67  88 131 160 211 259 322 366
#     4  11  22  39  61  96 125 165 203 263 297 384
#
# _framework density 18.871758
#
# number of rings (size 3 to 8) (size 9 to 14) (size 15 to 20)
#    0.000    1.333    2.667    2.800    1.867    4.267 
#    0.000    2.000    0.000    0.000    0.000    0.000 
#    0.000    0.000    0.000    0.000    0.000    0.000 
#
# Total GULP energy -167176.745376 kJ/mol
# GULP energy per Si atom -5572.558179 kJ/mol
# Density = 1.882881 g / cm^3
# Si number density = 18.871758 Si / 1000 Ang^3
#
#
#
# Elastic Constant Matrix: (Units=GPa)
#
#
# Indices 1 2 3 4 5 6 
#
# 1 108.2055 11.1030 37.2277 0.0000 5.9844 0.0000
# 2 11.1030 15.4415 1.3523 0.0000 -4.3094 0.0000
# 3 37.2277 1.3523 84.4465 0.0000 -1.9660 0.0000
# 4 0.0000 0.0000 0.0000 5.1786 0.0000 14.2921
# 5 5.9844 -4.3094 -1.9660 0.0000 17.2971 0.0000
# 6 0.0000 0.0000 0.0000 14.2921 0.0000 6.5706
#
#
#
# Elastic Compliance Matrix: (Units=1/GPa)
#
#
# Indices 1 2 3 4 5 6 
#
# 1 0.012707 -0.010801 -0.005609 0.000000 -0.007725 0.000000
# 2 -0.010801 0.078824 0.004054 0.000000 0.023836 0.000000
# 3 -0.005609 0.004054 0.014356 0.000000 0.004582 0.000000
# 4 0.000000 0.000000 0.000000 -0.038596 0.000000 0.083954
# 5 -0.007725 0.023836 0.004582 0.000000 0.066945 0.000000
# 6 0.000000 0.000000 0.000000 0.083954 0.000000 -0.030420
#
#
# Mechanical properties :
#
#
# Convention : Reuss Voigt Hill
#
# Bulk Modulus (GPa) = 12.31889 34.16216 23.24052
# Shear Modulus (GPa) = 32.13653 16.36996 24.25324
#
# Velocity S-wave (km/s) = 4.13109 2.94841 3.58880
# Velocity P-wave (km/s) = 5.41261 5.45274 5.43271
#
# Compressibility (1/GPa) = 0.08117615
#
# Stress axis : x y z
#
# Youngs Moduli (GPa) = 78.69771 12.68643 69.65682
#
# Poissons Ratio (x) = 0.13703 0.39068
# Poissons Ratio (y) = 0.85004 -0.28241
# Poissons Ratio (z) = 0.44138 -0.05144
#
# Static dielectric constant tensor:
#      x y z
#    x 1.621690 0.000000 0.005710 
#    y 0.000000 1.669720 0.000000 
#    z 0.005710 0.000000 1.637790 
# 
# From -- ./inp_files/13098.got.cif
#   From: 2010.05.17/outbox.cif.g08.bks.cpg/sg14_7_cif.got.tgz:13098.got - 2010.06.03 17:49:19.
