data_PCOD9247089
_publ_section_title
;
Structure prediction by ZEFSAII (Michael W. Deem and Ramdas Pophale) SiO2 
 PCOD9247089
Probable space group: P 21/C
;
_chemical_formula_sum "Si O2"
_cell_formula_units_Z 28
_cell_length_a 20.574278
_cell_length_b 9.682843
_cell_length_c 8.958003
_cell_angle_alpha 90.000000
_cell_angle_beta 50.171818
_cell_angle_gamma 90.000000
_cell_volume 1370.509814
_symmetry_space_group_name_H-M "P 21/C"
_symmetry_group_IT_number 14
_symmetry_cell_setting 'monoclinic'
loop_
_space_group_symop_operation_xyz
x,y,z
-x,1/2+y,1/2-z
-x,-y,-z
x,1/2-y,1/2+z
loop_
_atom_site_type_symbol
_atom_site_label
_atom_site_fract_x
_atom_site_fract_y
_atom_site_fract_z
Si Si1 0.605346 0.171345 0.709475
Si Si2 0.694005 0.830313 0.202529
Si Si3 0.735045 0.574858 0.971914
Si Si4 0.084718 0.571236 0.322462
Si Si5 0.855309 0.298946 0.044982
Si Si6 0.502359 0.851195 0.414845
Si Si7 0.747237 0.113552 0.968445
O O1 0.532673 0.130809 0.699563
O O2 0.662904 0.297668 0.564924
O O3 0.670606 0.043596 0.624885
O O4 0.558689 0.238018 0.919219
O O5 0.698302 0.863127 0.371583
O O6 0.598343 0.803198 0.289679
O O7 0.744700 0.695243 0.078611
O O8 0.726824 0.965893 0.067922
O O9 0.826549 0.511461 0.797645
O O10 0.095893 0.701585 0.413441
O O11 0.000000 0.500000 0.500000
O O12 0.083213 0.616672 0.152476
O O13 0.797068 0.390799 0.239183
O O14 0.798786 0.203280 0.017009
O O15 0.500000 0.000000 0.500000
#
# Coordination Sequence:
#
# PCOD9247089 Si02
#       7
#     4   4   4   4   4   4   4
#     4  12  23  43  69  92 132 180 232 269 332 402
#     4  12  26  43  63 101 142 172 228 283 339 391
#     4  12  26  43  67  96 135 182 217 281 344 407
#     4  11  25  46  71 105 135 167 231 281 338 409
#     4  10  21  43  74  99 126 183 226 268 333 411
#     4  12  25  42  64  99 132 175 230 288 319 385
#     4  11  20  42  72  94 129 182 234 260 325 417
#
# _framework density 20.430354999999999
#
# number of rings (size 3 to 8) (size 9 to 14) (size 15 to 20)
#    0.000    0.571    7.143    1.714    2.000    1.714 
#    0.000    1.429    0.000    0.000    0.000    0.000 
#    0.000    0.000    0.000    0.000    0.000    0.000 
#
# Total GULP energy -156514.822791 kJ/mol
# GULP energy per Si atom -5589.815100 kJ/mol
# Density = 2.038385 g / cm^3
# Si number density = 20.430355 Si / 1000 Ang^3
#
#
#
# Elastic Constant Matrix: (Units=GPa)
#
#
# Indices 1 2 3 4 5 6 
#
# 1 26.9340 6.0356 15.8582 0.0000 5.9416 0.0000
# 2 6.0356 95.1892 47.3797 0.0000 5.5199 0.0000
# 3 15.8582 47.3797 129.9193 0.0000 0.1024 0.0000
# 4 0.0000 0.0000 0.0000 60.1117 0.0000 -11.4198
# 5 5.9416 5.5199 0.1024 0.0000 34.0700 0.0000
# 6 0.0000 0.0000 0.0000 -11.4198 0.0000 34.1911
#
#
#
# Elastic Compliance Matrix: (Units=1/GPa)
#
#
# Indices 1 2 3 4 5 6 
#
# 1 0.041736 0.000380 -0.005227 0.000000 -0.007324 0.000000
# 2 0.000380 0.012986 -0.004780 0.000000 -0.002156 0.000000
# 3 -0.005227 -0.004780 0.010077 0.000000 0.001656 0.000000
# 4 0.000000 0.000000 0.000000 0.017763 0.000000 0.005933
# 5 -0.007324 -0.002156 0.001656 0.000000 0.030973 0.000000
# 6 0.000000 0.000000 0.000000 0.005933 0.000000 0.031229
#
#
# Mechanical properties :
#
#
# Convention : Reuss Voigt Hill
#
# Bulk Modulus (GPa) = 21.95675 43.39884 32.67780
# Shear Modulus (GPa) = 27.90179 37.85916 32.88048
#
# Velocity S-wave (km/s) = 3.69955 4.30942 4.01608
# Velocity P-wave (km/s) = 5.38696 6.78601 6.12655
#
# Compressibility (1/GPa) = 0.04554408
#
# Stress axis : x y z
#
# Youngs Moduli (GPa) = 23.96006 77.00770 99.23411
#
# Poissons Ratio (x) = -0.02928 0.51873
# Poissons Ratio (y) = -0.00911 0.47438
# Poissons Ratio (z) = 0.12525 0.36813
#
# Static dielectric constant tensor:
#      x y z
#    x 1.733040 0.000000 -0.001240 
#    y 0.000000 1.738500 0.000000 
#    z -0.001240 0.000000 1.784370 
# 
# From -- ./inp_files/18705.got.cif
#   From: 2010.05.17/outbox.cif.g08.bks.cpg/sg14_10_cif.got.tgz:18705.got - 2010.06.03 17:49:19.
