data_PCOD9247104
_publ_section_title
;
Structure prediction by ZEFSAII (Michael W. Deem and Ramdas Pophale) SiO2 
 PCOD9247104
Probable space group: P 21/C
;
_chemical_formula_sum "Si O2"
_cell_formula_units_Z 20
_cell_length_a 6.484787
_cell_length_b 10.651287
_cell_length_c 13.524230
_cell_angle_alpha 90.000000
_cell_angle_beta 114.434349
_cell_angle_gamma 90.000000
_cell_volume 850.471366
_symmetry_space_group_name_H-M "P 21/C"
_symmetry_group_IT_number 14
_symmetry_cell_setting 'monoclinic'
loop_
_space_group_symop_operation_xyz
x,y,z
-x,1/2+y,1/2-z
-x,-y,-z
x,1/2-y,1/2+z
loop_
_atom_site_type_symbol
_atom_site_label
_atom_site_fract_x
_atom_site_fract_y
_atom_site_fract_z
Si Si1 0.938791 0.107661 0.712717
Si Si2 0.521504 0.926332 0.650369
Si Si3 0.584673 0.178917 0.168999
Si Si4 0.302391 0.308941 0.429782
Si Si5 0.201177 0.366149 0.069849
O O1 0.812871 0.242599 0.699161
O O2 0.022933 0.101039 0.617122
O O3 0.149668 0.105568 0.830088
O O4 0.759980 0.998997 0.701377
O O5 0.419637 0.913667 0.740327
O O6 0.557756 0.792932 0.605912
O O7 0.341821 0.014894 0.559587
O O8 0.476398 0.132438 0.044097
O O9 0.395286 0.283005 0.161643
O O10 0.134129 0.223211 0.465674
#
# Coordination Sequence:
#
# PCOD9247104 Si02
#       5
#     4   4   4   4   4
#     4  11  23  41  66  93 128 169 206 261 314 367
#     4  11  22  42  65  94 130 162 211 262 306 376
#     4   9  23  41  60  93 130 157 211 264 299 370
#     4  10  21  44  64  92 130 163 210 259 315 369
#     4   9  22  40  62  95 118 170 210 249 312 373
#
# _framework density 23.516370999999999
#
# number of rings (size 3 to 8) (size 9 to 14) (size 15 to 20)
#    1.200    0.800    2.000    0.600    2.800    3.200 
#    0.000    1.000    0.000    0.000    0.000    0.000 
#    0.000    0.000    0.000    0.000    0.000    0.000 
#
# Total GULP energy -111687.723530 kJ/mol
# GULP energy per Si atom -5584.386177 kJ/mol
# Density = 2.346285 g / cm^3
# Si number density = 23.516371 Si / 1000 Ang^3
#
#
#
# Elastic Constant Matrix: (Units=GPa)
#
#
# Indices 1 2 3 4 5 6 
#
# 1 81.7443 19.7407 13.2874 0.0000 -20.9686 0.0000
# 2 19.7407 30.8813 3.9620 0.0000 -5.8784 0.0000
# 3 13.2874 3.9620 94.1035 0.0000 -8.0995 0.0000
# 4 0.0000 0.0000 0.0000 34.1520 0.0000 3.2026
# 5 -20.9686 -5.8784 -8.0995 0.0000 33.4322 0.0000
# 6 0.0000 0.0000 0.0000 3.2026 0.0000 44.1749
#
#
#
# Elastic Compliance Matrix: (Units=1/GPa)
#
#
# Indices 1 2 3 4 5 6 
#
# 1 0.016821 -0.008941 -0.001252 0.000000 0.008675 0.000000
# 2 -0.008941 0.038334 -0.000259 0.000000 0.001070 0.000000
# 3 -0.001252 -0.000259 0.010972 0.000000 0.001827 0.000000
# 4 0.000000 0.000000 0.000000 0.029481 0.000000 -0.002137
# 5 0.008675 0.001070 0.001827 0.000000 0.035983 0.000000
# 6 0.000000 0.000000 0.000000 -0.002137 0.000000 0.022792
#
#
# Mechanical properties :
#
#
# Convention : Reuss Voigt Hill
#
# Bulk Modulus (GPa) = 22.11297 31.18992 26.65144
# Shear Modulus (GPa) = 26.26566 33.66775 29.96671
#
# Velocity S-wave (km/s) = 3.34565 3.78785 3.57359
# Velocity P-wave (km/s) = 4.93438 5.69406 5.32777
#
# Compressibility (1/GPa) = 0.04522233
#
# Stress axis : x y z
#
# Youngs Moduli (GPa) = 59.44888 26.08619 91.14457
#
# Poissons Ratio (x) = 0.23323 0.11412
# Poissons Ratio (y) = 0.53153 0.02365
# Poissons Ratio (z) = 0.07443 0.00677
#
# Static dielectric constant tensor:
#      x y z
#    x 1.855460 0.000000 -0.010640 
#    y 0.000000 1.911130 0.000000 
#    z -0.010640 0.000000 1.878820 
# 
# From -- ./inp_files/28443.got.cif
#   From: 2010.05.17/outbox.cif.g08.bks.cpg/sg14_15_cif.got.tgz:28443.got - 2010.06.03 17:49:19.
