data_PCOD9247421
_publ_section_title
;
Structure prediction by ZEFSAII (Michael W. Deem and Ramdas Pophale) SiO2 
 PCOD9247421
Probable space group: P 21/C
;
_chemical_formula_sum "Si O2"
_cell_formula_units_Z 20
_cell_length_a 7.320089
_cell_length_b 7.350449
_cell_length_c 20.971002
_cell_angle_alpha 90.000000
_cell_angle_beta 42.592689
_cell_angle_gamma 90.000000
_cell_volume 763.656821
_symmetry_space_group_name_H-M "P 21/C"
_symmetry_group_IT_number 14
_symmetry_cell_setting 'monoclinic'
loop_
_space_group_symop_operation_xyz
x,y,z
-x,1/2+y,1/2-z
-x,-y,-z
x,1/2-y,1/2+z
loop_
_atom_site_type_symbol
_atom_site_label
_atom_site_fract_x
_atom_site_fract_y
_atom_site_fract_z
Si Si1 0.301138 0.432865 0.243750
Si Si2 0.148217 0.016939 0.619669
Si Si3 0.398797 0.232581 0.964790
Si Si4 0.820716 0.815209 0.607330
Si Si5 0.768036 0.922158 0.823181
O O1 0.248789 0.346227 0.326361
O O2 0.575021 0.543092 0.174009
O O3 0.875673 0.472790 0.230493
O O4 0.306507 0.270793 0.189397
O O5 0.356539 0.881281 0.601570
O O6 0.960679 0.448962 0.705482
O O7 0.079448 0.911741 0.571322
O O8 0.275205 0.206285 0.564064
O O9 0.176964 0.254296 0.966276
O O10 0.533751 0.038437 0.916805
#
# Coordination Sequence:
#
# PCOD9247421 Si02
#       5
#     4   4   4   4   4
#     4  11  22  37  67  96 129 174 216 262 325 383
#     4  10  22  37  66  94 126 172 219 251 327 389
#     4  11  21  40  66  92 130 170 217 262 318 388
#     4  11  20  38  62  97 125 167 219 265 313 382
#     4  11  20  42  63  93 129 170 210 264 318 380
#
# _framework density 26.189776999999999
#
# number of rings (size 3 to 8) (size 9 to 14) (size 15 to 20)
#    0.000    1.200    6.000    3.000    0.000    0.000 
#    0.000    2.000    0.000    0.000    0.000    0.000 
#    0.000    0.000    0.000    0.000    0.000    0.000 
#
# Total GULP energy -111977.163706 kJ/mol
# GULP energy per Si atom -5598.858185 kJ/mol
# Density = 2.613017 g / cm^3
# Si number density = 26.189777 Si / 1000 Ang^3
#
#
#
# Elastic Constant Matrix: (Units=GPa)
#
#
# Indices 1 2 3 4 5 6 
#
# 1 144.2453 21.5205 1.0830 0.0000 23.3973 0.0000
# 2 21.5205 100.9803 6.0383 0.0000 -1.7398 0.0000
# 3 1.0830 6.0383 45.4662 0.0000 7.2116 0.0000
# 4 0.0000 0.0000 0.0000 44.0197 0.0000 -7.6010
# 5 23.3973 -1.7398 7.2116 0.0000 35.1897 0.0000
# 6 0.0000 0.0000 0.0000 -7.6010 0.0000 51.8910
#
#
#
# Elastic Compliance Matrix: (Units=1/GPa)
#
#
# Indices 1 2 3 4 5 6 
#
# 1 0.008131 -0.001888 0.000961 0.000000 -0.005697 0.000000
# 2 -0.001888 0.010442 -0.001677 0.000000 0.002116 0.000000
# 3 0.000961 -0.001677 0.023058 0.000000 -0.005447 0.000000
# 4 0.000000 0.000000 0.000000 0.023307 0.000000 0.003414
# 5 -0.005697 0.002116 -0.005447 0.000000 0.033426 0.000000
# 6 0.000000 0.000000 0.000000 0.003414 0.000000 0.019771
#
#
# Mechanical properties :
#
#
# Convention : Reuss Voigt Hill
#
# Bulk Modulus (GPa) = 27.45649 38.66391 33.06020
# Shear Modulus (GPa) = 36.90414 43.69008 40.29711
#
# Velocity S-wave (km/s) = 3.75788 4.08880 3.92683
# Velocity P-wave (km/s) = 5.41621 6.08984 5.76287
#
# Compressibility (1/GPa) = 0.03642126
#
# Stress axis : x y z
#
# Youngs Moduli (GPa) = 122.98318 95.76583 43.36839
#
# Poissons Ratio (x) = 0.18085 -0.04166
# Poissons Ratio (y) = 0.23225 0.07275
# Poissons Ratio (z) = -0.11815 0.16064
#
# Static dielectric constant tensor:
#      x y z
#    x 2.023270 0.000000 0.096970 
#    y 0.000000 2.090340 0.000000 
#    z 0.096970 0.000000 2.129420 
# 
# From -- ./inp_files/71704.got.cif
#   From: 2010.05.17/outbox.cif.g08.bks.cpg/sg14_36_cif.got.tgz:71704.got - 2010.06.03 17:49:19.
