data_PCOD9247823
_publ_section_title
;
Structure prediction by ZEFSAII (Michael W. Deem and Ramdas Pophale) SiO2 
 PCOD9247823
Probable space group: P 21/C
;
_chemical_formula_sum "Si O2"
_cell_formula_units_Z 24
_cell_length_a 21.805646
_cell_length_b 8.571525
_cell_length_c 10.434369
_cell_angle_alpha 90.000000
_cell_angle_beta 147.139986
_cell_angle_gamma 90.000000
_cell_volume 1058.190152
_symmetry_space_group_name_H-M "P 21/C"
_symmetry_group_IT_number 14
_symmetry_cell_setting 'monoclinic'
loop_
_space_group_symop_operation_xyz
x,y,z
-x,1/2+y,1/2-z
-x,-y,-z
x,1/2-y,1/2+z
loop_
_atom_site_type_symbol
_atom_site_label
_atom_site_fract_x
_atom_site_fract_y
_atom_site_fract_z
Si Si1 0.088635 0.296073 0.246237
Si Si2 0.361764 0.545964 0.038272
Si Si3 0.740736 0.258617 0.953614
Si Si4 0.974812 0.147535 0.279705
Si Si5 0.483937 0.776454 0.094293
Si Si6 0.324160 0.421889 0.687954
O O1 0.049750 0.466141 0.232762
O O2 0.224106 0.299662 0.488798
O O3 0.036032 0.173386 0.252572
O O4 0.046542 0.287736 0.026428
O O5 0.255300 0.617918 0.925019
O O6 0.444807 0.691718 0.155543
O O7 0.435851 0.421187 0.242535
O O8 0.327933 0.472486 0.842922
O O9 0.633236 0.312486 0.681851
O O10 0.709327 0.082270 0.943768
O O11 0.855206 0.238063 0.076131
O O12 0.558074 0.649842 0.148387
#
# Coordination Sequence:
#
# PCOD9247823 Si02
#       6
#     4   4   4   4   4   4
#     4  10  24  44  65  96 127 172 214 271 317 385
#     4  11  22  38  64  92 127 165 206 260 327 381
#     4  10  22  40  63  90 122 166 211 262 314 381
#     4  10  24  44  67  94 129 167 220 265 325 377
#     4  11  22  39  61  96 125 163 206 260 319 384
#     4  10  23  41  60  91 129 161 213 264 318 378
#
# _framework density 22.680233999999999
#
# number of rings (size 3 to 8) (size 9 to 14) (size 15 to 20)
#    0.000    1.667    0.000    4.500    9.333    2.000 
#    3.000    0.000    0.000    0.000    0.000    0.000 
#    0.000    0.000    0.000    0.000    0.000    0.000 
#
# Total GULP energy -134233.794379 kJ/mol
# GULP energy per Si atom -5593.074766 kJ/mol
# Density = 2.262861 g / cm^3
# Si number density = 22.680234 Si / 1000 Ang^3
#
#
#
# Elastic Constant Matrix: (Units=GPa)
#
#
# Indices 1 2 3 4 5 6 
#
# 1 30.8882 3.8276 7.9554 0.0000 0.7134 0.0000
# 2 3.8276 33.9822 1.9202 0.0000 -2.6283 0.0000
# 3 7.9554 1.9202 84.6336 0.0000 14.5986 0.0000
# 4 0.0000 0.0000 0.0000 21.7167 0.0000 -5.4499
# 5 0.7134 -2.6283 14.5986 0.0000 22.9199 0.0000
# 6 0.0000 0.0000 0.0000 -5.4499 0.0000 45.1300
#
#
#
# Elastic Compliance Matrix: (Units=1/GPa)
#
#
# Indices 1 2 3 4 5 6 
#
# 1 0.033622 -0.003563 -0.003178 0.000000 0.000569 0.000000
# 2 -0.003563 0.030220 -0.001087 0.000000 0.004269 0.000000
# 3 -0.003178 -0.001087 0.013642 0.000000 -0.008715 0.000000
# 4 0.000000 0.000000 0.000000 0.047487 0.000000 0.005735
# 5 0.000569 0.004269 -0.008715 0.000000 0.049653 0.000000
# 6 0.000000 0.000000 0.000000 0.005735 0.000000 0.022851
#
#
# Mechanical properties :
#
#
# Convention : Reuss Voigt Hill
#
# Bulk Modulus (GPa) = 16.17393 19.65672 17.91532
# Shear Modulus (GPa) = 21.39131 27.00671 24.19901
#
# Velocity S-wave (km/s) = 3.07444 3.45448 3.26999
# Velocity P-wave (km/s) = 4.44406 4.95953 4.70886
#
# Compressibility (1/GPa) = 0.06182788
#
# Stress axis : x y z
#
# Youngs Moduli (GPa) = 29.74274 33.09059 73.30151
#
# Poissons Ratio (x) = 0.11791 0.23293
# Poissons Ratio (y) = 0.10598 0.07968
# Poissons Ratio (z) = 0.09451 0.03597
#
# Static dielectric constant tensor:
#      x y z
#    x 1.862470 0.000000 -0.033870 
#    y 0.000000 1.868550 0.000000 
#    z -0.033870 0.000000 1.835180 
# 
# From -- ./inp_files/28188.got.cif
#   From: 2010.05.17/outbox.cif.g08.bks.cpg/sg14_15_cif.got.tgz:28188.got - 2010.06.03 17:49:19.
