data_PCOD9247249
_publ_section_title
;
Structure prediction by ZEFSAII (Michael W. Deem and Ramdas Pophale) SiO2 
 PCOD9247249
Probable space group: P 21/C
;
_chemical_formula_sum "Si O2"
_cell_formula_units_Z 32
_cell_length_a 18.276866
_cell_length_b 14.344094
_cell_length_c 10.724090
_cell_angle_alpha 90.000000
_cell_angle_beta 150.998656
_cell_angle_gamma 90.000000
_cell_volume 1363.091179
_symmetry_space_group_name_H-M "P 21/C"
_symmetry_group_IT_number 14
_symmetry_cell_setting 'monoclinic'
loop_
_space_group_symop_operation_xyz
x,y,z
-x,1/2+y,1/2-z
-x,-y,-z
x,1/2-y,1/2+z
loop_
_atom_site_type_symbol
_atom_site_label
_atom_site_fract_x
_atom_site_fract_y
_atom_site_fract_z
Si Si1 0.736162 0.520592 0.034769
Si Si2 0.113474 0.843823 0.922849
Si Si3 0.593462 0.877870 0.089607
Si Si4 0.333641 0.498931 0.796555
Si Si5 0.876622 0.978190 0.423537
Si Si6 0.795317 0.703850 0.434019
Si Si7 0.065201 0.200039 0.121511
Si Si8 0.767785 0.361260 0.933748
O O1 0.628952 0.560692 0.766131
O O2 0.834354 0.434394 0.132613
O O3 0.656348 0.490378 0.040237
O O4 0.839483 0.606516 0.222956
O O5 0.969078 0.905124 0.653813
O O6 0.087132 0.822792 0.031055
O O7 0.177985 0.743921 0.973733
O O8 0.244907 0.917283 0.103053
O O9 0.711514 0.925713 0.165920
O O10 0.656587 0.773994 0.206663
O O11 0.412836 0.868648 0.809444
O O12 0.251274 0.402662 0.641476
O O13 0.500000 0.500000 0.000000
O O14 0.825115 0.081342 0.397163
O O15 0.000000 0.000000 0.500000
O O16 0.904391 0.724928 0.477048
O O17 0.865316 0.726808 0.673589
#
# Coordination Sequence:
#
# PCOD9247249 Si02
#       8
#     4   4   4   4   4   4   4   4
#     4   9  20  44  67  90 133 187 226 281 364 421
#     4  12  26  42  67 106 137 179 250 283 366 420
#     4  10  21  46  70 104 134 191 236 277 368 433
#     4  11  26  43  62 100 141 182 232 300 354 424
#     4  11  25  44  71 104 139 184 240 302 344 425
#     4  10  22  41  71  93 142 179 230 287 362 408
#     4  10  22  41  64 103 129 183 230 293 344 429
#     4  11  24  42  71  98 142 186 227 300 356 436
#
# _framework density 23.476051999999999
#
# number of rings (size 3 to 8) (size 9 to 14) (size 15 to 20)
#    0.000    1.500    3.750    2.250    3.500    7.000 
#    0.000    3.750    0.000    0.000    0.000    0.000 
#    0.000    0.000    0.000    0.000    0.000    0.000 
#
# Total GULP energy -178341.498249 kJ/mol
# GULP energy per Si atom -5573.171820 kJ/mol
# Density = 2.342262 g / cm^3
# Si number density = 23.476052 Si / 1000 Ang^3
#
#
#
# Elastic Constant Matrix: (Units=GPa)
#
#
# Indices 1 2 3 4 5 6 
#
# 1 113.5493 38.3564 32.0179 0.0000 28.6694 0.0000
# 2 38.3564 192.3280 57.5378 0.0000 3.1903 0.0000
# 3 32.0179 57.5378 106.7382 0.0000 31.9509 0.0000
# 4 0.0000 0.0000 0.0000 7.8012 0.0000 12.2609
# 5 28.6694 3.1903 31.9509 0.0000 28.9963 0.0000
# 6 0.0000 0.0000 0.0000 12.2609 0.0000 36.7478
#
#
#
# Elastic Compliance Matrix: (Units=1/GPa)
#
#
# Indices 1 2 3 4 5 6 
#
# 1 0.012961 -0.002990 0.002181 0.000000 -0.014889 0.000000
# 2 -0.002990 0.007305 -0.005499 0.000000 0.008212 0.000000
# 3 0.002181 -0.005499 0.018120 0.000000 -0.021517 0.000000
# 4 0.000000 0.000000 0.000000 0.269521 0.000000 -0.089926
# 5 -0.014889 0.008212 -0.021517 0.000000 0.072015 0.000000
# 6 0.000000 0.000000 0.000000 -0.089926 0.000000 0.057216
#
#
# Mechanical properties :
#
#
# Convention : Reuss Voigt Hill
#
# Bulk Modulus (GPa) = 38.80602 74.27108 56.53855
# Shear Modulus (GPa) = 10.90884 33.68927 22.29906
#
# Velocity S-wave (km/s) = 2.15798 3.79231 3.08533
# Velocity P-wave (km/s) = 4.77233 7.13310 6.06862
#
# Compressibility (1/GPa) = 0.02576920
#
# Stress axis : x y z
#
# Youngs Moduli (GPa) = 77.15319 136.89876 55.18862
#
# Poissons Ratio (x) = 0.40938 -0.12037
# Poissons Ratio (y) = 0.23072 0.30347
# Poissons Ratio (z) = -0.16827 0.75278
#
# Static dielectric constant tensor:
#      x y z
#    x 6.959650 0.000000 -2.252370 
#    y 0.000000 1.918060 0.000000 
#    z -2.252370 0.000000 2.919050 
# 
# From -- ./inp_files/34244.got.cif
#   From: 2010.05.17/outbox.cif.g08.bks.cpg/sg14_18_cif.got.tgz:34244.got - 2010.06.03 17:49:19.
