data_PCOD9247326
_publ_section_title
;
Structure prediction by ZEFSAII (Michael W. Deem and Ramdas Pophale) SiO2 
 PCOD9247326
Probable space group: P 21/C
;
_chemical_formula_sum "Si O2"
_cell_formula_units_Z 16
_cell_length_a 10.027532
_cell_length_b 13.067870
_cell_length_c 8.432188
_cell_angle_alpha 90.000000
_cell_angle_beta 31.752085
_cell_angle_gamma 90.000000
_cell_volume 581.469603
_symmetry_space_group_name_H-M "P 21/C"
_symmetry_group_IT_number 14
_symmetry_cell_setting 'monoclinic'
loop_
_space_group_symop_operation_xyz
x,y,z
-x,1/2+y,1/2-z
-x,-y,-z
x,1/2-y,1/2+z
loop_
_atom_site_type_symbol
_atom_site_label
_atom_site_fract_x
_atom_site_fract_y
_atom_site_fract_z
Si Si1 0.327564 0.617224 0.577111
Si Si2 0.812414 0.230542 0.523506
Si Si3 0.750967 0.523408 0.642531
Si Si4 0.306619 0.262271 0.208225
O O1 0.228928 0.616460 0.860028
O O2 0.203204 0.724062 0.636094
O O3 0.261062 0.533840 0.514632
O O4 0.623127 0.649777 0.295250
O O5 0.075298 0.267590 0.324451
O O6 0.559124 0.284089 0.849620
O O7 0.733109 0.645263 0.629964
O O8 0.000000 0.500000 0.500000
O O9 0.500000 0.500000 0.000000
#
# Coordination Sequence:
#
# PCOD9247326 Si02
#       4
#     4   4   4   4
#     4  10  23  38  63  88 124 157 203 247 306 353
#     4  10  22  36  60  84 124 156 196 246 302 354
#     4  12  21  37  64  92 117 157 214 248 286 363
#     4  10  22  37  58  91 120 152 200 252 302 341
#
# _framework density 27.516486
#
# number of rings (size 3 to 8) (size 9 to 14) (size 15 to 20)
#    1.500    0.000    5.000    0.000    7.000    0.000 
#    0.000    1.250    0.000    3.000    0.000    0.000 
#    0.000    0.000    0.000    0.000    0.000    0.000 
#
# Total GULP energy -89190.821227 kJ/mol
# GULP energy per Si atom -5574.426327 kJ/mol
# Density = 2.745386 g / cm^3
# Si number density = 27.516486 Si / 1000 Ang^3
#
#
#
# Elastic Constant Matrix: (Units=GPa)
#
#
# Indices 1 2 3 4 5 6 
#
# 1 98.2053 3.4845 52.8348 0.0000 -26.4840 0.0000
# 2 3.4845 73.5328 23.4160 0.0000 5.0581 0.0000
# 3 52.8348 23.4160 124.5923 0.0000 -34.0489 0.0000
# 4 0.0000 0.0000 0.0000 22.7195 0.0000 8.9657
# 5 -26.4840 5.0581 -34.0489 0.0000 51.7702 0.0000
# 6 0.0000 0.0000 0.0000 8.9657 0.0000 60.5553
#
#
#
# Elastic Compliance Matrix: (Units=1/GPa)
#
#
# Indices 1 2 3 4 5 6 
#
# 1 0.013845 0.000670 -0.004973 0.000000 0.003746 0.000000
# 2 0.000670 0.015175 -0.004203 0.000000 -0.003904 0.000000
# 3 -0.004973 -0.004203 0.012608 0.000000 0.006159 0.000000
# 4 0.000000 0.000000 0.000000 0.046746 0.000000 -0.006921
# 5 0.003746 -0.003904 0.006159 0.000000 0.025665 0.000000
# 6 0.000000 0.000000 0.000000 -0.006921 0.000000 0.017539
#
#
# Mechanical properties :
#
#
# Convention : Reuss Voigt Hill
#
# Bulk Modulus (GPa) = 40.62541 50.64455 45.63498
# Shear Modulus (GPa) = 31.88887 41.44868 36.66877
#
# Velocity S-wave (km/s) = 3.40796 3.88535 3.65445
# Velocity P-wave (km/s) = 5.50287 6.21072 5.86748
#
# Compressibility (1/GPa) = 0.02461514
#
# Stress axis : x y z
#
# Youngs Moduli (GPa) = 72.22887 65.89974 79.31402
#
# Poissons Ratio (x) = -0.04415 0.39444
# Poissons Ratio (y) = -0.04839 0.33335
# Poissons Ratio (z) = 0.35921 0.27697
#
# Static dielectric constant tensor:
#      x y z
#    x 2.165750 0.000000 0.049540 
#    y 0.000000 2.299850 0.000000 
#    z 0.049540 0.000000 2.200990 
# 
# From -- ./inp_files/5188.got.cif
#   From: 2010.05.17/outbox.cif.g08.bks.cpg/sg14_3_cif.got.tgz:5188.got - 2010.06.03 17:49:19.
