data_PCOD9247624
_publ_section_title
;
Structure prediction by ZEFSAII (Michael W. Deem and Ramdas Pophale) SiO2 
 PCOD9247624
Probable space group: P 21/C
;
_chemical_formula_sum "Si O2"
_cell_formula_units_Z 28
_cell_length_a 8.985011
_cell_length_b 8.944135
_cell_length_c 17.140041
_cell_angle_alpha 90.000000
_cell_angle_beta 73.964782
_cell_angle_gamma 90.000000
_cell_volume 1323.834874
_symmetry_space_group_name_H-M "P 21/C"
_symmetry_group_IT_number 14
_symmetry_cell_setting 'monoclinic'
loop_
_space_group_symop_operation_xyz
x,y,z
-x,1/2+y,1/2-z
-x,-y,-z
x,1/2-y,1/2+z
loop_
_atom_site_type_symbol
_atom_site_label
_atom_site_fract_x
_atom_site_fract_y
_atom_site_fract_z
Si Si1 0.015578 0.940860 0.134309
Si Si2 0.754098 0.803262 0.076179
Si Si3 0.295959 0.783467 0.295819
Si Si4 0.944097 0.337002 0.777723
Si Si5 0.503423 0.991650 0.814742
Si Si6 0.667468 0.949858 0.941734
Si Si7 0.919828 0.994473 0.595508
O O1 0.974068 0.811679 0.202661
O O2 0.893117 0.913676 0.083636
O O3 0.190797 0.931763 0.077023
O O4 0.004220 0.087957 0.189367
O O5 0.600081 0.874344 0.134871
O O6 0.797131 0.641047 0.101627
O O7 0.729333 0.815818 0.986824
O O8 0.223252 0.725512 0.224550
O O9 0.405130 0.926352 0.266635
O O10 0.389527 0.643450 0.313556
O O11 0.161420 0.850197 0.369915
O O12 0.968581 0.446924 0.848155
O O13 0.629150 0.927588 0.857089
O O14 0.500000 0.000000 0.000000
O O15 0.000000 0.000000 0.500000
#
# Coordination Sequence:
#
# PCOD9247624 Si02
#       7
#     4   4   4   4   4   4   4
#     4  11  21  40  69  98 126 178 236 280 336 413
#     4  10  23  40  68  99 131 181 230 285 345 406
#     4  12  24  46  68 104 137 188 235 285 354 415
#     4  11  22  41  71  97 132 175 234 290 334 405
#     4  11  23  43  71  98 139 181 234 286 342 425
#     4  10  22  39  61  97 137 172 216 281 346 407
#     4  11  26  45  66 103 145 175 232 294 348 410
#
# _framework density 21.150673999999999
#
# number of rings (size 3 to 8) (size 9 to 14) (size 15 to 20)
#    0.000    1.143    4.286    1.286    2.000    5.714 
#    2.571    0.714    0.000    0.000    0.000    0.000 
#    0.000    0.000    0.000    0.000    0.000    0.000 
#
# Total GULP energy -156029.527407 kJ/mol
# GULP energy per Si atom -5572.483122 kJ/mol
# Density = 2.110253 g / cm^3
# Si number density = 21.150674 Si / 1000 Ang^3
#
#
#
# Elastic Constant Matrix: (Units=GPa)
#
#
# Indices 1 2 3 4 5 6 
#
# 1 88.5880 28.0572 20.4340 0.0000 7.2211 0.0000
# 2 28.0572 89.2313 36.8568 0.0000 -0.3639 0.0000
# 3 20.4340 36.8568 50.7541 0.0000 -7.9323 0.0000
# 4 0.0000 0.0000 0.0000 22.0853 0.0000 2.6875
# 5 7.2211 -0.3639 -7.9323 0.0000 36.3221 0.0000
# 6 0.0000 0.0000 0.0000 2.6875 0.0000 35.4993
#
#
#
# Elastic Compliance Matrix: (Units=1/GPa)
#
#
# Indices 1 2 3 4 5 6 
#
# 1 0.013319 -0.002510 -0.004097 0.000000 -0.003568 0.000000
# 2 -0.002510 0.016697 -0.011400 0.000000 -0.001823 0.000000
# 3 -0.004097 -0.011400 0.030791 0.000000 0.007425 0.000000
# 4 0.000000 0.000000 0.000000 0.045700 0.000000 -0.003460
# 5 -0.003568 -0.001823 0.007425 0.000000 0.029844 0.000000
# 6 0.000000 0.000000 0.000000 -0.003460 0.000000 0.028431
#
#
# Mechanical properties :
#
#
# Convention : Reuss Voigt Hill
#
# Bulk Modulus (GPa) = 40.33316 44.36326 42.34821
# Shear Modulus (GPa) = 23.91645 28.32970 26.12308
#
# Velocity S-wave (km/s) = 3.36633 3.66378 3.51820
# Velocity P-wave (km/s) = 5.84982 6.23844 6.04726
#
# Compressibility (1/GPa) = 0.02479349
#
# Stress axis : x y z
#
# Youngs Moduli (GPa) = 75.08010 59.89017 32.47707
#
# Poissons Ratio (x) = 0.15034 0.13306
# Poissons Ratio (y) = 0.18846 0.37022
# Poissons Ratio (z) = 0.30761 0.68272
#
# Static dielectric constant tensor:
#      x y z
#    x 1.809340 0.000000 -0.011940 
#    y 0.000000 1.783290 0.000000 
#    z -0.011940 0.000000 1.824750 
# 
# From -- ./inp_files/54801.got.cif
#   From: 2010.05.17/outbox.cif.g08.bks.cpg/sg14_28_cif.got.tgz:54801.got - 2010.06.03 17:49:19.
