data_PCOD9247884
_publ_section_title
;
Structure prediction by ZEFSAII (Michael W. Deem and Ramdas Pophale) SiO2 
 PCOD9247884
Probable space group: P 21/C
;
_chemical_formula_sum "Si O2"
_cell_formula_units_Z 16
_cell_length_a 8.915891
_cell_length_b 8.681719
_cell_length_c 13.998738
_cell_angle_alpha 90.000000
_cell_angle_beta 55.813337
_cell_angle_gamma 90.000000
_cell_volume 896.346376
_symmetry_space_group_name_H-M "P 21/C"
_symmetry_group_IT_number 14
_symmetry_cell_setting 'monoclinic'
loop_
_space_group_symop_operation_xyz
x,y,z
-x,1/2+y,1/2-z
-x,-y,-z
x,1/2-y,1/2+z
loop_
_atom_site_type_symbol
_atom_site_label
_atom_site_fract_x
_atom_site_fract_y
_atom_site_fract_z
Si Si1 0.411258 0.149394 0.984096
Si Si2 0.119187 0.332231 0.209286
Si Si3 0.243641 0.662276 0.192983
Si Si4 0.811437 0.544794 0.617276
O O1 0.568809 0.274716 0.913280
O O2 0.325562 0.102717 0.913313
O O3 0.251665 0.217419 0.106806
O O4 0.500000 0.000000 0.000000
O O5 0.171370 0.508561 0.165204
O O6 0.150486 0.331096 0.312523
O O7 0.913313 0.289206 0.259637
O O8 0.259506 0.601805 0.296415
O O9 0.000000 0.500000 0.500000
#
# Coordination Sequence:
#
# PCOD9247884 Si02
#       4
#     4   4   4   4
#     4  12  23  41  67  94 130 171 213 267 313 382
#     4  10  22  41  64  92 130 167 211 264 318 377
#     4  10  22  40  65  93 129 168 210 264 319 377
#     4  10  22  40  65  89 132 161 214 255 322 374
#
# _framework density 17.850242999999999
#
# number of rings (size 3 to 8) (size 9 to 14) (size 15 to 20)
#    1.500    0.000    2.500    3.750    3.500    0.000 
#    0.000    1.250    0.000    0.000    0.000    0.000 
#    0.000    0.000    0.000    0.000    0.000    0.000 
#
# Total GULP energy -89161.280056 kJ/mol
# GULP energy per Si atom -5572.580004 kJ/mol
# Density = 1.780961 g / cm^3
# Si number density = 17.850243 Si / 1000 Ang^3
#
#
#
# Elastic Constant Matrix: (Units=GPa)
#
#
# Indices 1 2 3 4 5 6 
#
# 1 95.0294 19.7474 27.8932 0.0000 11.3433 0.0000
# 2 19.7474 46.3583 0.9234 0.0000 16.6147 0.0000
# 3 27.8932 0.9234 80.9754 0.0000 12.5415 0.0000
# 4 0.0000 0.0000 0.0000 35.4946 0.0000 -0.9155
# 5 11.3433 16.6147 12.5415 0.0000 33.0275 0.0000
# 6 0.0000 0.0000 0.0000 -0.9155 0.0000 39.9686
#
#
#
# Elastic Compliance Matrix: (Units=1/GPa)
#
#
# Indices 1 2 3 4 5 6 
#
# 1 0.012941 -0.005403 -0.004387 0.000000 -0.000061 0.000000
# 2 -0.005403 0.028838 0.003710 0.000000 -0.014060 0.000000
# 3 -0.004387 0.003710 0.014741 0.000000 -0.005957 0.000000
# 4 0.000000 0.000000 0.000000 0.028190 0.000000 0.000646
# 5 -0.000061 -0.014060 -0.005957 0.000000 0.039634 0.000000
# 6 0.000000 0.000000 0.000000 0.000646 0.000000 0.025034
#
#
# Mechanical properties :
#
#
# Convention : Reuss Voigt Hill
#
# Bulk Modulus (GPa) = 22.54297 35.49903 29.02100
# Shear Modulus (GPa) = 28.35687 33.28474 30.82080
#
# Velocity S-wave (km/s) = 3.99005 4.32286 4.15978
# Velocity P-wave (km/s) = 5.82097 6.69675 6.27416
#
# Compressibility (1/GPa) = 0.04435973
#
# Stress axis : x y z
#
# Youngs Moduli (GPa) = 77.27564 34.67645 67.83877
#
# Poissons Ratio (x) = 0.18737 0.29758
# Poissons Ratio (y) = 0.41755 -0.25168
# Poissons Ratio (z) = 0.33898 -0.12865
#
# Static dielectric constant tensor:
#      x y z
#    x 1.577060 0.000000 0.011020 
#    y 0.000000 1.617950 0.000000 
#    z 0.011020 0.000000 1.596630 
# 
# From -- ./inp_files/22567.got.cif
#   From: 2010.05.17/outbox.cif.g08.bks.cpg/sg14_12_cif.got.tgz:22567.got - 2010.06.03 17:49:19.
