data_PCOD9247207
_publ_section_title
;
Structure prediction by ZEFSAII (Michael W. Deem and Ramdas Pophale) SiO2 
 PCOD9247207
Probable space group: P 21/C
;
_chemical_formula_sum "Si O2"
_cell_formula_units_Z 20
_cell_length_a 10.686180
_cell_length_b 12.903205
_cell_length_c 10.691843
_cell_angle_alpha 90.000000
_cell_angle_beta 34.085783
_cell_angle_gamma 90.000000
_cell_volume 826.221989
_symmetry_space_group_name_H-M "P 21/C"
_symmetry_group_IT_number 14
_symmetry_cell_setting 'monoclinic'
loop_
_space_group_symop_operation_xyz
x,y,z
-x,1/2+y,1/2-z
-x,-y,-z
x,1/2-y,1/2+z
loop_
_atom_site_type_symbol
_atom_site_label
_atom_site_fract_x
_atom_site_fract_y
_atom_site_fract_z
Si Si1 0.710172 0.271359 0.933397
Si Si2 0.646450 0.899498 0.852598
Si Si3 0.836284 0.683892 0.974811
Si Si4 0.351490 0.112142 0.868888
Si Si5 0.575835 0.083958 0.334376
O O1 0.529733 0.183717 0.052246
O O2 0.722749 0.336921 0.793592
O O3 0.930848 0.207608 0.784150
O O4 0.604709 0.348883 0.125724
O O5 0.723353 0.872083 0.927119
O O6 0.834597 0.898705 0.589928
O O7 0.500000 0.000000 0.000000
O O8 0.788332 0.796492 0.079359
O O9 0.635613 0.644065 0.051138
O O10 0.318495 0.994263 0.854565
O O11 0.500000 0.000000 0.500000
#
# Coordination Sequence:
#
# PCOD9247207 Si02
#       5
#     4   4   4   4   4
#     4  10  24  43  67  95 135 179 229 280 331 410
#     4  11  22  42  64  98 140 176 217 285 343 402
#     4  11  23  43  69  98 134 181 227 279 342 404
#     4  10  22  44  65  95 138 176 223 283 338 403
#     4  10  21  45  68  95 137 179 226 279 339 413
#
# _framework density 24.206572000000001
#
# number of rings (size 3 to 8) (size 9 to 14) (size 15 to 20)
#    0.000    1.600    4.000    0.000    0.000    3.200 
#    7.200    0.000    0.000    0.000    0.000    0.000 
#    0.000    0.000    0.000    0.000    0.000    0.000 
#
# Total GULP energy -111421.353350 kJ/mol
# GULP energy per Si atom -5571.067667 kJ/mol
# Density = 2.415148 g / cm^3
# Si number density = 24.206572 Si / 1000 Ang^3
#
#
#
# Elastic Constant Matrix: (Units=GPa)
#
#
# Indices 1 2 3 4 5 6 
#
# 1 82.1176 18.4347 24.1419 0.0000 12.5711 0.0000
# 2 18.4347 105.7781 -1.7030 0.0000 -5.0682 0.0000
# 3 24.1419 -1.7030 41.9583 0.0000 5.7822 0.0000
# 4 0.0000 0.0000 0.0000 20.0832 0.0000 6.9580
# 5 12.5711 -5.0682 5.7822 0.0000 27.3173 0.0000
# 6 0.0000 0.0000 0.0000 6.9580 0.0000 42.1032
#
#
#
# Elastic Compliance Matrix: (Units=1/GPa)
#
#
# Indices 1 2 3 4 5 6 
#
# 1 0.016459 -0.003313 -0.008731 0.000000 -0.006341 0.000000
# 2 -0.003313 0.010206 0.001905 0.000000 0.003015 0.000000
# 3 -0.008731 0.001905 0.029183 0.000000 -0.001806 0.000000
# 4 0.000000 0.000000 0.000000 0.052817 0.000000 -0.008729
# 5 -0.006341 0.003015 -0.001806 0.000000 0.040466 0.000000
# 6 0.000000 0.000000 0.000000 -0.008729 0.000000 0.025194
#
#
# Mechanical properties :
#
#
# Convention : Reuss Voigt Hill
#
# Bulk Modulus (GPa) = 28.11305 34.62235 31.36770
# Shear Modulus (GPa) = 24.21789 30.49943 27.35866
#
# Velocity S-wave (km/s) = 3.16645 3.55345 3.36552
# Velocity P-wave (km/s) = 5.00076 5.58300 5.29988
#
# Compressibility (1/GPa) = 0.03557067
#
# Stress axis : x y z
#
# Youngs Moduli (GPa) = 60.75788 97.97954 34.26676
#
# Poissons Ratio (x) = 0.32458 0.29917
# Poissons Ratio (y) = 0.20128 -0.06527
# Poissons Ratio (z) = 0.53046 -0.18664
#
# Static dielectric constant tensor:
#      x y z
#    x 2.039110 0.000000 0.104630 
#    y 0.000000 2.069980 0.000000 
#    z 0.104630 0.000000 2.132830 
# 
# From -- ./inp_files/29690.got.cif
#   From: 2010.05.17/outbox.cif.g08.bks.cpg/sg14_15_cif.got.tgz:29690.got - 2010.06.03 17:49:19.
