data_PCOD9247629
_publ_section_title
;
Structure prediction by ZEFSAII (Michael W. Deem and Ramdas Pophale) SiO2 
 PCOD9247629
Probable space group: P 21/C
;
_chemical_formula_sum "Si O2"
_cell_formula_units_Z 32
_cell_length_a 14.053281
_cell_length_b 8.894406
_cell_length_c 14.178584
_cell_angle_alpha 90.000000
_cell_angle_beta 58.435060
_cell_angle_gamma 90.000000
_cell_volume 1510.049904
_symmetry_space_group_name_H-M "P 21/C"
_symmetry_group_IT_number 14
_symmetry_cell_setting 'monoclinic'
loop_
_space_group_symop_operation_xyz
x,y,z
-x,1/2+y,1/2-z
-x,-y,-z
x,1/2-y,1/2+z
loop_
_atom_site_type_symbol
_atom_site_label
_atom_site_fract_x
_atom_site_fract_y
_atom_site_fract_z
Si Si1 0.738474 0.011020 0.514491
Si Si2 0.050079 0.615124 0.399835
Si Si3 0.018933 0.066859 0.591321
Si Si4 0.564788 0.918345 0.136268
Si Si5 0.897650 0.519435 0.331916
Si Si6 0.376576 0.342800 0.758923
Si Si7 0.303340 0.254349 0.592794
Si Si8 0.243639 0.843275 0.939545
O O1 0.870020 0.010294 0.430097
O O2 0.712122 0.911177 0.621067
O O3 0.689974 0.914484 0.452629
O O4 0.707245 0.182492 0.553814
O O5 0.168674 0.663546 0.382709
O O6 0.000000 0.500000 0.500000
O O7 0.970494 0.758492 0.435450
O O8 0.020945 0.545232 0.313455
O O9 0.000000 0.000000 0.500000
O O10 0.919475 0.044131 0.716807
O O11 0.557368 0.782333 0.214622
O O12 0.454607 0.018403 0.187946
O O13 0.661655 0.031595 0.120972
O O14 0.607002 0.849685 0.015230
O O15 0.816592 0.664968 0.364825
O O16 0.834775 0.404362 0.434445
O O17 0.326428 0.268410 0.691429
#
# Coordination Sequence:
#
# PCOD9247629 Si02
#       8
#     4   4   4   4   4   4   4   4
#     4  11  23  39  64  95 129 161 215 259 308 385
#     4  10  22  39  62  87 128 170 214 254 313 366
#     4  12  23  38  58  91 129 175 213 256 308 373
#     4  10  23  44  68  92 127 160 214 261 319 378
#     4  10  23  40  59  92 132 169 215 259 313 375
#     4  11  23  44  68  94 123 166 203 267 326 373
#     4  10  22  42  65  95 127 164 206 264 315 379
#     4  10  22  43  62  93 127 167 214 263 311 376
#
# _framework density 21.191352999999999
#
# number of rings (size 3 to 8) (size 9 to 14) (size 15 to 20)
#    0.000    1.500    2.500    1.875    3.500    1.000 
#    2.250    6.875    0.000    0.000    0.000    0.000 
#    0.000    0.000    0.000    0.000    0.000    0.000 
#
# Total GULP energy -178494.568759 kJ/mol
# GULP energy per Si atom -5577.955274 kJ/mol
# Density = 2.114312 g / cm^3
# Si number density = 21.191353 Si / 1000 Ang^3
#
#
#
# Elastic Constant Matrix: (Units=GPa)
#
#
# Indices 1 2 3 4 5 6 
#
# 1 35.3261 -6.8669 32.0796 0.0000 15.5816 0.0000
# 2 -6.8669 84.0547 12.0255 0.0000 8.9997 0.0000
# 3 32.0796 12.0255 98.2706 0.0000 18.5893 0.0000
# 4 0.0000 0.0000 0.0000 -4.5322 0.0000 0.9832
# 5 15.5816 8.9997 18.5893 0.0000 36.6791 0.0000
# 6 0.0000 0.0000 0.0000 0.9832 0.0000 29.3989
#
#
#
# Elastic Compliance Matrix: (Units=1/GPa)
#
#
# Indices 1 2 3 4 5 6 
#
# 1 0.049672 0.007780 -0.014173 0.000000 -0.015827 0.000000
# 2 0.007780 0.013531 -0.003254 0.000000 -0.004976 0.000000
# 3 -0.014173 -0.003254 0.015386 0.000000 -0.000978 0.000000
# 4 0.000000 0.000000 0.000000 -0.219052 0.000000 0.007326
# 5 -0.015827 -0.004976 -0.000978 0.000000 0.035704 0.000000
# 6 0.000000 0.000000 0.000000 0.007326 0.000000 0.033770
#
#
# Mechanical properties :
#
#
# Convention : Reuss Voigt Hill
#
# Bulk Modulus (GPa) = 16.86505 32.45865 24.66185
# Shear Modulus (GPa) = -156.58819 24.33668 -66.12575
#
# Velocity S-wave (km/s) = -8.60540 3.39252 -5.59212
# Velocity P-wave (km/s) = 9.52688 5.54038 5.48022
#
# Compressibility (1/GPa) = 0.05929424
#
# Stress axis : x y z
#
# Youngs Moduli (GPa) = 20.13225 73.90437 64.99421
#
# Poissons Ratio (x) = -0.57500 0.92117
# Poissons Ratio (y) = -0.15663 0.21152
# Poissons Ratio (z) = 0.28534 0.24051
#
# Static dielectric constant tensor:
#      x y z
#    x 1.809590 0.000000 0.029430 
#    y 0.000000 1.731900 0.000000 
#    z 0.029430 0.000000 1.771770 
# 
# From -- ./inp_files/46493.got.cif
#   From: 2010.05.17/outbox.cif.g08.bks.cpg/sg14_24_cif.got.tgz:46493.got - 2010.06.03 17:49:19.
