data_PCOD9247350
_publ_section_title
;
Structure prediction by ZEFSAII (Michael W. Deem and Ramdas Pophale) SiO2 
 PCOD9247350
Probable space group: P 21/C
;
_chemical_formula_sum "Si O2"
_cell_formula_units_Z 26
_cell_length_a 8.995028
_cell_length_b 13.538282
_cell_length_c 13.802459
_cell_angle_alpha 90.000000
_cell_angle_beta 41.872967
_cell_angle_gamma 90.000000
_cell_volume 1121.919372
_symmetry_space_group_name_H-M "P 21/C"
_symmetry_group_IT_number 14
_symmetry_cell_setting 'monoclinic'
loop_
_space_group_symop_operation_xyz
x,y,z
-x,1/2+y,1/2-z
-x,-y,-z
x,1/2-y,1/2+z
loop_
_atom_site_type_symbol
_atom_site_label
_atom_site_fract_x
_atom_site_fract_y
_atom_site_fract_z
Si Si1 0.109593 0.309174 0.350747
Si Si2 0.500000 0.500000 0.500000
Si Si3 0.457738 0.671345 0.725696
Si Si4 0.957757 0.510653 0.747754
Si Si5 0.930753 0.400394 0.943872
Si Si6 0.413552 0.035647 0.223513
Si Si7 0.237607 0.870429 0.814874
O O1 0.332940 0.302277 0.308473
O O2 0.130594 0.387718 0.254681
O O3 0.015622 0.204696 0.360533
O O4 0.927296 0.348775 0.516050
O O5 0.526677 0.592175 0.403388
O O6 0.778423 0.487200 0.365337
O O7 0.490615 0.573932 0.641390
O O8 0.358599 0.768800 0.725950
O O9 0.263821 0.627270 0.888060
O O10 0.896143 0.425085 0.702380
O O11 0.854483 0.477018 0.899702
O O12 0.162394 0.442429 0.874266
O O13 0.574783 0.057982 0.232670
#
# Coordination Sequence:
#
# PCOD9247350 Si02
#       7
#     4   2   4   4   4   4   4
#     4  11  21  40  65  87 123 168 205 263 312 366
#     4  10  22  36  66  94 116 160 206 268 306 354
#     4  11  23  40  66  88 130 170 205 254 322 375
#     4  11  22  39  64  93 125 160 215 257 312 370
#     4  10  25  39  59  94 130 162 205 257 317 379
#     4  11  20  42  64  89 127 163 210 259 313 368
#     4  11  22  40  64  96 118 165 217 258 306 383
#
# _framework density 23.174572999999999
#
# number of rings (size 3 to 8) (size 9 to 14) (size 15 to 20)
#    0.000    1.231    4.615    1.846    0.000    3.077 
#    0.000    1.538    0.000    0.000    0.000    0.000 
#    0.000    0.000    0.000    0.000    0.000    0.000 
#
# Total GULP energy -144862.802539 kJ/mol
# GULP energy per Si atom -5571.646252 kJ/mol
# Density = 2.312183 g / cm^3
# Si number density = 23.174573 Si / 1000 Ang^3
#
#
#
# Elastic Constant Matrix: (Units=GPa)
#
#
# Indices 1 2 3 4 5 6 
#
# 1 89.1948 8.1543 -5.6370 0.0000 -12.1008 0.0000
# 2 8.1543 99.2239 -21.0863 0.0000 -3.9912 0.0000
# 3 -5.6370 -21.0863 55.1801 0.0000 -6.8899 0.0000
# 4 0.0000 0.0000 0.0000 24.7737 0.0000 1.2663
# 5 -12.1008 -3.9912 -6.8899 0.0000 26.3030 0.0000
# 6 0.0000 0.0000 0.0000 1.2663 0.0000 26.1537
#
#
#
# Elastic Compliance Matrix: (Units=1/GPa)
#
#
# Indices 1 2 3 4 5 6 
#
# 1 0.012181 -0.000363 0.001859 0.000000 0.006036 0.000000
# 2 -0.000363 0.011191 0.004581 0.000000 0.002731 0.000000
# 3 0.001859 0.004581 0.020941 0.000000 0.007036 0.000000
# 4 0.000000 0.000000 0.000000 0.040465 0.000000 -0.001959
# 5 0.006036 0.002731 0.007036 0.000000 0.043053 0.000000
# 6 0.000000 0.000000 0.000000 -0.001959 0.000000 0.038330
#
#
# Mechanical properties :
#
#
# Convention : Reuss Voigt Hill
#
# Bulk Modulus (GPa) = 17.70952 22.94008 20.32480
# Shear Modulus (GPa) = 28.92996 32.92394 30.92695
#
# Velocity S-wave (km/s) = 3.53703 3.77330 3.65707
# Velocity P-wave (km/s) = 4.93347 5.37624 5.15961
#
# Compressibility (1/GPa) = 0.05646680
#
# Stress axis : x y z
#
# Youngs Moduli (GPa) = 82.09519 89.35497 47.75253
#
# Poissons Ratio (x) = 0.03245 -0.08878
# Poissons Ratio (y) = 0.02981 -0.21873
# Poissons Ratio (z) = -0.15264 -0.40929
#
# Static dielectric constant tensor:
#      x y z
#    x 1.584130 0.000000 -0.213530 
#    y 0.000000 1.762340 0.000000 
#    z -0.213530 0.000000 1.628890 
# 
# From -- ./inp_files/25112.got.cif
#   From: 2010.05.17/outbox.cif.g08.bks.cpg/sg14_13_cif.got.tgz:25112.got - 2010.06.03 17:49:19.
