data_PCOD9247295
_publ_section_title
;
Structure prediction by ZEFSAII (Michael W. Deem and Ramdas Pophale) SiO2 
 PCOD9247295
Probable space group: P 21/C
;
_chemical_formula_sum "Si O2"
_cell_formula_units_Z 24
_cell_length_a 9.166024
_cell_length_b 22.519509
_cell_length_c 4.857087
_cell_angle_alpha 90.000000
_cell_angle_beta 73.570194
_cell_angle_gamma 90.000000
_cell_volume 961.634428
_symmetry_space_group_name_H-M "P 21/C"
_symmetry_group_IT_number 14
_symmetry_cell_setting 'monoclinic'
loop_
_space_group_symop_operation_xyz
x,y,z
-x,1/2+y,1/2-z
-x,-y,-z
x,1/2-y,1/2+z
loop_
_atom_site_type_symbol
_atom_site_label
_atom_site_fract_x
_atom_site_fract_y
_atom_site_fract_z
Si Si1 0.949637 0.838596 0.484148
Si Si2 0.257288 0.058297 0.650696
Si Si3 0.352392 0.213944 0.213766
Si Si4 0.132368 0.869926 0.922525
Si Si5 0.230980 0.519152 0.672265
Si Si6 0.464281 0.603325 0.322173
O O1 0.836807 0.883971 0.385006
O O2 0.829681 0.793721 0.683949
O O3 0.069215 0.822640 0.179576
O O4 0.042568 0.866294 0.687724
O O5 0.242296 0.038388 0.971717
O O6 0.428088 0.071395 0.455800
O O7 0.200638 0.002915 0.493480
O O8 0.396679 0.232098 0.496339
O O9 0.434500 0.153444 0.087799
O O10 0.313104 0.866238 0.776207
O O11 0.118133 0.933395 0.091785
O O12 0.389160 0.555045 0.563597
#
# Coordination Sequence:
#
# PCOD9247295 Si02
#       6
#     4   4   4   4   4   4
#     4  11  23  41  60  90 126 160 198 254 297 355
#     4  11  21  37  61  89 128 170 207 230 287 362
#     4  11  25  46  70  88 111 156 211 254 309 368
#     4  10  23  38  61  89 133 153 196 246 306 345
#     4  10  22  35  63  91 125 166 203 237 295 354
#     4   9  24  41  62  91 126 159 201 258 294 353
#
# _framework density 24.957511
#
# number of rings (size 3 to 8) (size 9 to 14) (size 15 to 20)
#    1.000    0.667    0.000    4.000    0.000   12.000 
#    0.000    5.000    0.000    0.000    0.000    0.000 
#    0.000    0.000    0.000    0.000    0.000    0.000 
#
# Total GULP energy -134234.432194 kJ/mol
# GULP energy per Si atom -5593.101341 kJ/mol
# Density = 2.490071 g / cm^3
# Si number density = 24.957511 Si / 1000 Ang^3
#
#
#
# Elastic Constant Matrix: (Units=GPa)
#
#
# Indices 1 2 3 4 5 6 
#
# 1 68.1542 2.3244 28.4467 0.0000 9.6497 0.0000
# 2 2.3244 36.4600 1.6372 0.0000 10.5752 0.0000
# 3 28.4467 1.6372 82.2046 0.0000 12.6160 0.0000
# 4 0.0000 0.0000 0.0000 32.4374 0.0000 -5.0502
# 5 9.6497 10.5752 12.6160 0.0000 26.8225 0.0000
# 6 0.0000 0.0000 0.0000 -5.0502 0.0000 33.7460
#
#
#
# Elastic Compliance Matrix: (Units=1/GPa)
#
#
# Indices 1 2 3 4 5 6 
#
# 1 0.017488 0.000236 -0.005471 0.000000 -0.003811 0.000000
# 2 0.000236 0.031113 0.001287 0.000000 -0.012957 0.000000
# 3 -0.005471 0.001287 0.014883 0.000000 -0.005539 0.000000
# 4 0.000000 0.000000 0.000000 0.031564 0.000000 0.004724
# 5 -0.003811 -0.012957 -0.005539 0.000000 0.046367 0.000000
# 6 0.000000 0.000000 0.000000 0.004724 0.000000 0.030340
#
#
# Mechanical properties :
#
#
# Convention : Reuss Voigt Hill
#
# Bulk Modulus (GPa) = 17.98986 27.95951 22.97468
# Shear Modulus (GPa) = 25.22965 28.89519 27.06242
#
# Velocity S-wave (km/s) = 3.18292 3.40630 3.29650
# Velocity P-wave (km/s) = 4.55322 5.16698 4.86978
#
# Compressibility (1/GPa) = 0.05558687
#
# Stress axis : x y z
#
# Youngs Moduli (GPa) = 57.18251 32.14128 67.19249
#
# Poissons Ratio (x) = -0.00759 0.36764
# Poissons Ratio (y) = -0.01351 -0.08649
# Poissons Ratio (z) = 0.31287 -0.04137
#
# Static dielectric constant tensor:
#      x y z
#    x 2.011300 0.000000 -0.044000 
#    y 0.000000 2.048800 0.000000 
#    z -0.044000 0.000000 1.947040 
# 
# From -- ./inp_files/1800.got.cif
#   From: 2010.05.17/outbox.cif.g08.bks.cpg/sg14_1_cif.got.tgz:1800.got - 2010.06.03 17:49:19.
