data_PCOD9247170
_publ_section_title
;
Structure prediction by ZEFSAII (Michael W. Deem and Ramdas Pophale) SiO2 
 PCOD9247170
Probable space group: P 21/C
;
_chemical_formula_sum "Si O2"
_cell_formula_units_Z 20
_cell_length_a 5.105856
_cell_length_b 17.416350
_cell_length_c 9.091329
_cell_angle_alpha 90.000000
_cell_angle_beta 71.276980
_cell_angle_gamma 90.000000
_cell_volume 765.667798
_symmetry_space_group_name_H-M "P 21/C"
_symmetry_group_IT_number 14
_symmetry_cell_setting 'monoclinic'
loop_
_space_group_symop_operation_xyz
x,y,z
-x,1/2+y,1/2-z
-x,-y,-z
x,1/2-y,1/2+z
loop_
_atom_site_type_symbol
_atom_site_label
_atom_site_fract_x
_atom_site_fract_y
_atom_site_fract_z
Si Si1 0.706396 0.240455 0.254688
Si Si2 0.854286 0.530062 0.376404
Si Si3 0.741400 0.948134 0.394323
Si Si4 0.927371 0.811952 0.567819
Si Si5 0.524182 0.891204 0.134171
O O1 0.377096 0.218203 0.322111
O O2 0.696272 0.324461 0.332768
O O3 0.889278 0.257706 0.076148
O O4 0.872202 0.183003 0.328540
O O5 0.615640 0.473676 0.360484
O O6 0.726327 0.609351 0.457226
O O7 0.000000 0.500000 0.500000
O O8 0.067952 0.513051 0.211587
O O9 0.870470 0.890888 0.490650
O O10 0.652552 0.893211 0.273443
O O11 0.500000 0.000000 0.500000
#
# Coordination Sequence:
#
# PCOD9247170 Si02
#       5
#     4   4   4   4   4
#     4  12  26  50  75 105 152 199 260 312 372 460
#     4   9  20  40  70 102 137 190 241 291 377 447
#     4  11  24  45  71 109 154 186 247 325 388 445
#     4  12  27  49  75 109 149 206 248 316 381 449
#     4  10  21  44  72  98 142 196 246 305 373 449
#
# _framework density 26.120987
#
# number of rings (size 3 to 8) (size 9 to 14) (size 15 to 20)
#    0.000    1.200    2.000    3.600    2.800    2.400 
#   18.000    0.000    0.000    0.000    0.000    0.000 
#    0.000    0.000    0.000    0.000    0.000    0.000 
#
# Total GULP energy -111713.334660 kJ/mol
# GULP energy per Si atom -5585.666733 kJ/mol
# Density = 2.606153 g / cm^3
# Si number density = 26.120987 Si / 1000 Ang^3
#
#
#
# Elastic Constant Matrix: (Units=GPa)
#
#
# Indices 1 2 3 4 5 6 
#
# 1 120.7522 23.6799 61.8645 0.0000 -23.4882 0.0000
# 2 23.6799 81.6051 63.4651 0.0000 -3.5522 0.0000
# 3 61.8645 63.4651 138.5833 0.0000 -36.7505 0.0000
# 4 0.0000 0.0000 0.0000 45.4457 0.0000 -4.3686
# 5 -23.4882 -3.5522 -36.7505 0.0000 62.0983 0.0000
# 6 0.0000 0.0000 0.0000 -4.3686 0.0000 51.3837
#
#
#
# Elastic Compliance Matrix: (Units=1/GPa)
#
#
# Indices 1 2 3 4 5 6 
#
# 1 0.010868 0.000631 -0.004793 0.000000 0.001310 0.000000
# 2 0.000631 0.020373 -0.010959 0.000000 -0.005082 0.000000
# 3 -0.004793 -0.010959 0.016283 0.000000 0.007197 0.000000
# 4 0.000000 0.000000 0.000000 0.022186 0.000000 0.001886
# 5 0.001310 -0.005082 0.007197 0.000000 0.020567 0.000000
# 6 0.000000 0.000000 0.000000 0.001886 0.000000 0.019622
#
#
# Mechanical properties :
#
#
# Convention : Reuss Voigt Hill
#
# Bulk Modulus (GPa) = 57.86612 70.99550 64.43081
# Shear Modulus (GPa) = 34.26962 44.58094 39.42528
#
# Velocity S-wave (km/s) = 3.62602 4.13572 3.88923
# Velocity P-wave (km/s) = 6.30333 7.07418 6.69985
#
# Compressibility (1/GPa) = 0.01728127
#
# Stress axis : x y z
#
# Youngs Moduli (GPa) = 92.01156 49.08478 61.41439
#
# Poissons Ratio (x) = -0.03097 0.29437
# Poissons Ratio (y) = -0.05806 0.67305
# Poissons Ratio (z) = 0.44102 0.53793
#
# Static dielectric constant tensor:
#      x y z
#    x -38.165230 0.000000 22.375010 
#    y 0.000000 2.134550 0.000000 
#    z 22.375010 0.000000 -10.214100 
# 
# From -- ./inp_files/5695.got.cif
#   From: 2010.05.17/outbox.cif.g08.bks.cpg/sg14_3_cif.got.tgz:5695.got - 2010.06.03 17:49:19.
