data_PCOD9247341
_publ_section_title
;
Structure prediction by ZEFSAII (Michael W. Deem and Ramdas Pophale) SiO2 
 PCOD9247341
Probable space group: P 21/C
;
_chemical_formula_sum "Si O2"
_cell_formula_units_Z 20
_cell_length_a 9.170139
_cell_length_b 5.356707
_cell_length_c 18.389687
_cell_angle_alpha 90.000000
_cell_angle_beta 65.737986
_cell_angle_gamma 90.000000
_cell_volume 823.547444
_symmetry_space_group_name_H-M "P 21/C"
_symmetry_group_IT_number 14
_symmetry_cell_setting 'monoclinic'
loop_
_space_group_symop_operation_xyz
x,y,z
-x,1/2+y,1/2-z
-x,-y,-z
x,1/2-y,1/2+z
loop_
_atom_site_type_symbol
_atom_site_label
_atom_site_fract_x
_atom_site_fract_y
_atom_site_fract_z
Si Si1 0.654620 0.675481 0.311750
Si Si2 0.262936 0.030718 0.584531
Si Si3 0.655385 0.434695 0.170435
Si Si4 0.899973 0.249793 0.006747
Si Si5 0.434045 0.209496 0.928604
O O1 0.785124 0.827728 0.331239
O O2 0.716617 0.479031 0.239338
O O3 0.528060 0.842392 0.292326
O O4 0.534893 0.537109 0.393027
O O5 0.302104 0.247401 0.517473
O O6 0.169868 0.814866 0.559547
O O7 0.427607 0.904800 0.577603
O O8 0.761745 0.259858 0.096768
O O9 0.649418 0.692974 0.127062
O O10 0.000000 0.500000 0.000000
O O11 0.000000 0.000000 0.000000
#
# Coordination Sequence:
#
# PCOD9247341 Si02
#       5
#     4   4   4   4   4
#     4  11  19  35  67 100 139 159 217 307 374 417
#     4   9  21  36  62  98 124 179 226 284 347 413
#     4  10  22  36  64 107 132 176 223 293 373 421
#     4  11  27  46  69  94 138 197 249 279 329 430
#     4   9  18  35  59  98 134 161 212 289 356 422
#
# _framework density 24.285184000000001
#
# number of rings (size 3 to 8) (size 9 to 14) (size 15 to 20)
#    0.000    2.000    2.000    1.800    8.400    0.000 
#    0.000    0.000    4.400    0.000    0.000    0.000 
#    0.000    0.000    0.000    0.000    0.000    0.000 
#
# Total GULP energy -111505.236690 kJ/mol
# GULP energy per Si atom -5575.261835 kJ/mol
# Density = 2.422991 g / cm^3
# Si number density = 24.285184 Si / 1000 Ang^3
#
#
#
# Elastic Constant Matrix: (Units=GPa)
#
#
# Indices 1 2 3 4 5 6 
#
# 1 63.3987 39.0404 48.0631 0.0000 16.2943 0.0000
# 2 39.0404 123.7984 47.5673 0.0000 18.6474 0.0000
# 3 48.0631 47.5673 115.1916 0.0000 34.2720 0.0000
# 4 0.0000 0.0000 0.0000 25.0165 0.0000 4.1479
# 5 16.2943 18.6474 34.2720 0.0000 25.9300 0.0000
# 6 0.0000 0.0000 0.0000 4.1479 0.0000 54.1620
#
#
#
# Elastic Compliance Matrix: (Units=1/GPa)
#
#
# Indices 1 2 3 4 5 6 
#
# 1 0.025176 -0.004558 -0.008060 0.000000 -0.001889 0.000000
# 2 -0.004558 0.010546 -0.001729 0.000000 -0.002435 0.000000
# 3 -0.008060 -0.001729 0.017933 0.000000 -0.017395 0.000000
# 4 0.000000 0.000000 0.000000 0.040488 0.000000 -0.003101
# 5 -0.001889 -0.002435 -0.017395 0.000000 0.064495 0.000000
# 6 0.000000 0.000000 0.000000 -0.003101 0.000000 0.018701
#
#
# Mechanical properties :
#
#
# Convention : Reuss Voigt Hill
#
# Bulk Modulus (GPa) = 40.06094 63.52559 51.79326
# Shear Modulus (GPa) = 23.32608 32.20289 27.76449
#
# Velocity S-wave (km/s) = 3.10257 3.64542 3.38489
# Velocity P-wave (km/s) = 5.41908 6.62825 6.05393
#
# Compressibility (1/GPa) = 0.02496197
#
# Stress axis : x y z
#
# Youngs Moduli (GPa) = 39.72035 94.82301 55.76179
#
# Poissons Ratio (x) = 0.43218 0.44946
# Poissons Ratio (y) = 0.18103 0.09639
# Poissons Ratio (z) = 0.32016 0.16391
#
# Static dielectric constant tensor:
#      x y z
#    x 1.958500 0.000000 -0.010310 
#    y 0.000000 2.036020 0.000000 
#    z -0.010310 0.000000 2.063090 
# 
# From -- ./inp_files/53973.got.cif
#   From: 2010.05.17/outbox.cif.g08.bks.cpg/sg14_27_cif.got.tgz:53973.got - 2010.06.03 17:49:19.
