data_PCOD9247755
_publ_section_title
;
Structure prediction by ZEFSAII (Michael W. Deem and Ramdas Pophale) SiO2 
 PCOD9247755
Probable space group: P 21/C
;
_chemical_formula_sum "Si O2"
_cell_formula_units_Z 16
_cell_length_a 10.104420
_cell_length_b 5.136824
_cell_length_c 19.665017
_cell_angle_alpha 90.000000
_cell_angle_beta 38.141880
_cell_angle_gamma 90.000000
_cell_volume 630.398782
_symmetry_space_group_name_H-M "P 21/C"
_symmetry_group_IT_number 14
_symmetry_cell_setting 'monoclinic'
loop_
_space_group_symop_operation_xyz
x,y,z
-x,1/2+y,1/2-z
-x,-y,-z
x,1/2-y,1/2+z
loop_
_atom_site_type_symbol
_atom_site_label
_atom_site_fract_x
_atom_site_fract_y
_atom_site_fract_z
Si Si1 0.328588 0.202831 0.496781
Si Si2 0.705633 0.648991 0.832350
Si Si3 0.610071 0.850019 0.733226
Si Si4 0.944195 0.319267 0.411951
O O1 0.322736 0.247855 0.580369
O O2 0.200517 0.433880 0.512835
O O3 0.569718 0.117060 0.381204
O O4 0.194651 0.938690 0.538695
O O5 0.607326 0.841338 0.815933
O O6 0.944053 0.618967 0.706731
O O7 0.446706 0.630989 0.772418
O O8 0.852334 0.746154 0.622385
#
# Coordination Sequence:
#
# PCOD9247755 Si02
#       4
#     4   4   4   4
#     4  11  21  41  60 100 107 158 196 243 312 336
#     4   9  24  37  67  84 130 144 198 254 285 356
#     4  10  22  40  59  83 120 162 193 238 292 342
#     4  10  23  37  65  85 125 151 197 243 297 353
#
# _framework density 25.380761
#
# number of rings (size 3 to 8) (size 9 to 14) (size 15 to 20)
#    1.500    0.500    0.000    3.000    0.000   10.000 
#    0.000    7.500    0.000    0.000    0.000    0.000 
#    0.000    0.000    0.000    0.000    0.000    0.000 
#
# Total GULP energy -89481.934894 kJ/mol
# GULP energy per Si atom -5592.620931 kJ/mol
# Density = 2.532299 g / cm^3
# Si number density = 25.380761 Si / 1000 Ang^3
#
#
#
# Elastic Constant Matrix: (Units=GPa)
#
#
# Indices 1 2 3 4 5 6 
#
# 1 93.7636 30.7996 4.9417 0.0000 2.2193 0.0000
# 2 30.7996 154.0643 45.4821 0.0000 -22.3466 0.0000
# 3 4.9417 45.4821 58.0708 0.0000 -15.4660 0.0000
# 4 0.0000 0.0000 0.0000 25.9290 0.0000 -7.3175
# 5 2.2193 -22.3466 -15.4660 0.0000 33.1477 0.0000
# 6 0.0000 0.0000 0.0000 -7.3175 0.0000 17.0640
#
#
#
# Elastic Compliance Matrix: (Units=1/GPa)
#
#
# Indices 1 2 3 4 5 6 
#
# 1 0.011628 -0.002853 0.000600 0.000000 -0.002422 0.000000
# 2 -0.002853 0.009408 -0.006150 0.000000 0.003664 0.000000
# 3 0.000600 -0.006150 0.023833 0.000000 0.006934 0.000000
# 4 0.000000 0.000000 0.000000 0.043877 0.000000 0.018815
# 5 -0.002422 0.003664 0.006934 0.000000 0.036035 0.000000
# 6 0.000000 0.000000 0.000000 0.018815 0.000000 0.066671
#
#
# Mechanical properties :
#
#
# Convention : Reuss Voigt Hill
#
# Bulk Modulus (GPa) = 35.63433 52.03841 43.83637
# Shear Modulus (GPa) = 22.97657 30.20648 26.59152
#
# Velocity S-wave (km/s) = 3.01204 3.45357 3.24034
# Velocity P-wave (km/s) = 5.11536 6.03742 5.59542
#
# Compressibility (1/GPa) = 0.02806282
#
# Stress axis : x y z
#
# Youngs Moduli (GPa) = 85.99946 106.29020 41.95901
#
# Poissons Ratio (x) = 0.30325 -0.02517
# Poissons Ratio (y) = 0.24536 0.25805
# Poissons Ratio (z) = -0.05160 0.65369
#
# Static dielectric constant tensor:
#      x y z
#    x 2.010050 0.000000 0.019880 
#    y 0.000000 1.932710 0.000000 
#    z 0.019880 0.000000 2.075220 
# 
# From -- ./inp_files/46029.got.cif
#   From: 2010.05.17/outbox.cif.g08.bks.cpg/sg14_24_cif.got.tgz:46029.got - 2010.06.03 17:49:19.
