data_PCOD9247095
_publ_section_title
;
Structure prediction by ZEFSAII (Michael W. Deem and Ramdas Pophale) SiO2 
 PCOD9247095
Probable space group: P 21/C
;
_chemical_formula_sum "Si O2"
_cell_formula_units_Z 32
_cell_length_a 7.762894
_cell_length_b 13.909040
_cell_length_c 23.023879
_cell_angle_alpha 90.000000
_cell_angle_beta 146.660077
_cell_angle_gamma 90.000000
_cell_volume 1366.312472
_symmetry_space_group_name_H-M "P 21/C"
_symmetry_group_IT_number 14
_symmetry_cell_setting 'monoclinic'
loop_
_space_group_symop_operation_xyz
x,y,z
-x,1/2+y,1/2-z
-x,-y,-z
x,1/2-y,1/2+z
loop_
_atom_site_type_symbol
_atom_site_label
_atom_site_fract_x
_atom_site_fract_y
_atom_site_fract_z
Si Si1 0.236127 0.604229 0.114635
Si Si2 0.512713 0.586559 0.365970
Si Si3 0.683981 0.481806 0.304004
Si Si4 0.774634 0.643649 0.552970
Si Si5 0.104188 0.153879 0.368710
Si Si6 0.546132 0.126198 0.925843
Si Si7 0.342384 0.297885 0.261174
Si Si8 0.196543 0.683139 0.984046
O O1 0.459610 0.514037 0.189683
O O2 0.473833 0.696796 0.190354
O O3 0.116390 0.614401 0.015456
O O4 0.974932 0.601685 0.092116
O O5 0.675879 0.565510 0.350124
O O6 0.670996 0.656162 0.457411
O O7 0.551616 0.483163 0.408194
O O8 0.157719 0.615810 0.250047
O O9 0.564951 0.385133 0.302428
O O10 0.023031 0.451274 0.379935
O O11 0.951619 0.735611 0.628619
O O12 0.484456 0.632812 0.513969
O O13 0.458114 0.152180 0.443269
O O14 0.270053 0.173740 0.807864
O O15 0.798350 0.209743 0.985852
O O16 0.043842 0.308844 0.136203
#
# Coordination Sequence:
#
# PCOD9247095 Si02
#       8
#     4   4   4   4   4   4   4   4
#     4  10  22  41  63  90 129 167 214 264 319 381
#     4  10  22  40  63  89 130 163 207 269 320 377
#     4  10  22  39  62  94 128 160 214 264 318 381
#     4  11  21  37  64  96 120 163 212 261 323 380
#     4  10  23  42  59  96 130 163 213 265 317 385
#     4   9  22  39  61  95 126 160 217 261 315 379
#     4  10  21  44  62  89 134 165 207 272 319 375
#     4  10  23  40  67  92 129 175 213 255 328 378
#
# _framework density 23.420704000000001
#
# number of rings (size 3 to 8) (size 9 to 14) (size 15 to 20)
#    0.000    2.000    1.250    0.750    3.500    8.500 
#    2.250    5.625    0.000    0.000    0.000    0.000 
#    0.000    0.000    0.000    0.000    0.000    0.000 
#
# Total GULP energy -178437.049682 kJ/mol
# GULP energy per Si atom -5576.157803 kJ/mol
# Density = 2.336740 g / cm^3
# Si number density = 23.420704 Si / 1000 Ang^3
#
#
#
# Elastic Constant Matrix: (Units=GPa)
#
#
# Indices 1 2 3 4 5 6 
#
# 1 69.0747 0.5773 19.6627 0.0000 -10.3035 0.0000
# 2 0.5773 29.6638 15.0926 0.0000 -7.0345 0.0000
# 3 19.6627 15.0926 82.0800 0.0000 -32.6293 0.0000
# 4 0.0000 0.0000 0.0000 33.7567 0.0000 -4.8540
# 5 -10.3035 -7.0345 -32.6293 0.0000 24.3740 0.0000
# 6 0.0000 0.0000 0.0000 -4.8540 0.0000 28.0907
#
#
#
# Elastic Compliance Matrix: (Units=1/GPa)
#
#
# Indices 1 2 3 4 5 6 
#
# 1 0.015767 0.001921 -0.002694 0.000000 0.003613 0.000000
# 2 0.001921 0.037555 -0.005844 0.000000 0.003827 0.000000
# 3 -0.002694 -0.005844 0.027318 0.000000 0.033745 0.000000
# 4 0.000000 0.000000 0.000000 0.030379 0.000000 0.005249
# 5 0.003613 0.003827 0.033745 0.000000 0.088833 0.000000
# 6 0.000000 0.000000 0.000000 0.005249 0.000000 0.036506
#
#
# Mechanical properties :
#
#
# Convention : Reuss Voigt Hill
#
# Bulk Modulus (GPa) = 14.83587 27.94263 21.38925
# Shear Modulus (GPa) = 18.37830 26.94334 22.66082
#
# Velocity S-wave (km/s) = 2.80429 3.39544 3.11393
# Velocity P-wave (km/s) = 4.10289 5.22769 4.69906
#
# Compressibility (1/GPa) = 0.06740419
#
# Stress axis : x y z
#
# Youngs Moduli (GPa) = 63.42441 26.62777 36.60626
#
# Poissons Ratio (x) = -0.05114 0.09861
# Poissons Ratio (y) = -0.12181 0.21394
# Poissons Ratio (z) = 0.17086 0.15562
#
# Static dielectric constant tensor:
#      x y z
#    x 1.954000 0.000000 0.000350 
#    y 0.000000 1.924250 0.000000 
#    z 0.000350 0.000000 1.905990 
# 
# From -- ./inp_files/72489.got.cif
#   From: 2010.05.17/outbox.cif.g08.bks.cpg/sg14_37_cif.got.tgz:72489.got - 2010.06.03 17:49:19.
