data_PCOD9247648
_publ_section_title
;
Structure prediction by ZEFSAII (Michael W. Deem and Ramdas Pophale) SiO2 
 PCOD9247648
Probable space group: P 21/C
;
_chemical_formula_sum "Si O2"
_cell_formula_units_Z 32
_cell_length_a 13.545171
_cell_length_b 9.002569
_cell_length_c 12.716641
_cell_angle_alpha 90.000000
_cell_angle_beta 98.772446
_cell_angle_gamma 90.000000
_cell_volume 1532.544047
_symmetry_space_group_name_H-M "P 21/C"
_symmetry_group_IT_number 14
_symmetry_cell_setting 'monoclinic'
loop_
_space_group_symop_operation_xyz
x,y,z
-x,1/2+y,1/2-z
-x,-y,-z
x,1/2-y,1/2+z
loop_
_atom_site_type_symbol
_atom_site_label
_atom_site_fract_x
_atom_site_fract_y
_atom_site_fract_z
Si Si1 0.451914 0.512982 0.606200
Si Si2 0.728700 0.337491 0.341553
Si Si3 0.928434 0.516118 0.389065
Si Si4 0.922835 0.667838 0.950946
Si Si5 0.294188 0.021352 0.358398
Si Si6 0.410593 0.262401 0.244686
Si Si7 0.716996 0.499240 0.905056
Si Si8 0.944438 0.534528 0.161213
O O1 0.500000 0.500000 0.500000
O O2 0.336895 0.567044 0.586858
O O3 0.508750 0.641580 0.679675
O O4 0.455343 0.358326 0.670780
O O5 0.843194 0.391558 0.369698
O O6 0.688992 0.387720 0.220432
O O7 0.715081 0.164570 0.357622
O O8 0.880371 0.677289 0.403926
O O9 0.984927 0.533092 0.286386
O O10 0.000000 0.500000 0.500000
O O11 0.832224 0.551643 0.929676
O O12 0.011463 0.609078 0.891081
O O13 0.961687 0.664746 0.078097
O O14 0.345800 0.165013 0.316277
O O15 0.325560 0.995313 0.483053
O O16 0.174340 0.037618 0.341422
O O17 0.342801 0.380282 0.171609
#
# Coordination Sequence:
#
# PCOD9247648 Si02
#       8
#     4   4   4   4   4   4   4   4
#     4  11  24  44  68  94 132 165 217 262 325 382
#     4  10  24  44  61  96 130 167 215 265 318 391
#     4  11  25  41  65  93 130 169 222 267 318 384
#     4  10  22  39  63  90 128 173 216 263 322 383
#     4   9  21  42  64  90 135 166 210 266 322 378
#     4  11  23  42  68  99 124 171 214 267 319 392
#     4  11  22  41  68  93 132 169 212 262 328 374
#     4   9  21  39  62  87 130 167 215 263 323 375
#
# _framework density 20.880315
#
# number of rings (size 3 to 8) (size 9 to 14) (size 15 to 20)
#    0.000    1.750    0.000    3.750    7.000    5.000 
#    2.250    4.375    0.000    0.000    0.000    0.000 
#    0.000    0.000    0.000    0.000    0.000    0.000 
#
# Total GULP energy -178673.866269 kJ/mol
# GULP energy per Si atom -5583.558321 kJ/mol
# Density = 2.083279 g / cm^3
# Si number density = 20.880315 Si / 1000 Ang^3
#
#
#
# Elastic Constant Matrix: (Units=GPa)
#
#
# Indices 1 2 3 4 5 6 
#
# 1 71.0198 33.1654 42.7080 0.0000 -11.8117 0.0000
# 2 33.1654 159.4178 73.1036 0.0000 -9.9158 0.0000
# 3 42.7080 73.1036 151.8554 0.0000 -18.0235 0.0000
# 4 0.0000 0.0000 0.0000 16.1554 0.0000 4.9433
# 5 -11.8117 -9.9158 -18.0235 0.0000 31.5729 0.0000
# 6 0.0000 0.0000 0.0000 4.9433 0.0000 35.6865
#
#
#
# Elastic Compliance Matrix: (Units=1/GPa)
#
#
# Indices 1 2 3 4 5 6 
#
# 1 0.017781 -0.001764 -0.003677 0.000000 0.003999 0.000000
# 2 -0.001764 0.008228 -0.003472 0.000000 -0.000058 0.000000
# 3 -0.003677 -0.003472 0.009652 0.000000 0.003044 0.000000
# 4 0.000000 0.000000 0.000000 0.064639 0.000000 -0.008954
# 5 0.003999 -0.000058 0.003044 0.000000 0.034888 0.000000
# 6 0.000000 0.000000 0.000000 -0.008954 0.000000 0.029262
#
#
# Mechanical properties :
#
#
# Convention : Reuss Voigt Hill
#
# Bulk Modulus (GPa) = 56.06895 75.58299 65.82597
# Shear Modulus (GPa) = 26.56462 32.23736 29.40099
#
# Velocity S-wave (km/s) = 3.57071 3.93353 3.75650
# Velocity P-wave (km/s) = 6.62652 7.54367 7.09992
#
# Compressibility (1/GPa) = 0.01783518
#
# Stress axis : x y z
#
# Youngs Moduli (GPa) = 56.24120 121.53120 103.60719
#
# Poissons Ratio (x) = 0.21443 0.38092
# Poissons Ratio (y) = 0.09923 0.35970
# Poissons Ratio (z) = 0.20678 0.42193
#
# Static dielectric constant tensor:
#      x y z
#    x 1.764330 0.000000 0.004300 
#    y 0.000000 1.744320 0.000000 
#    z 0.004300 0.000000 1.783500 
# 
# From -- ./inp_files/31842.got.cif
#   From: 2010.05.17/outbox.cif.g08.bks.cpg/sg14_16_cif.got.tgz:31842.got - 2010.06.03 17:49:19.
