data_PCOD9247310
_publ_section_title
;
Structure prediction by ZEFSAII (Michael W. Deem and Ramdas Pophale) SiO2 
 PCOD9247310
Probable space group: P 21/C
;
_chemical_formula_sum "Si O2"
_cell_formula_units_Z 28
_cell_length_a 15.631525
_cell_length_b 9.608625
_cell_length_c 8.401092
_cell_angle_alpha 90.000000
_cell_angle_beta 72.700662
_cell_angle_gamma 90.000000
_cell_volume 1204.743181
_symmetry_space_group_name_H-M "P 21/C"
_symmetry_group_IT_number 14
_symmetry_cell_setting 'monoclinic'
loop_
_space_group_symop_operation_xyz
x,y,z
-x,1/2+y,1/2-z
-x,-y,-z
x,1/2-y,1/2+z
loop_
_atom_site_type_symbol
_atom_site_label
_atom_site_fract_x
_atom_site_fract_y
_atom_site_fract_z
Si Si1 0.954962 0.575991 0.676422
Si Si2 0.572170 0.535749 0.092381
Si Si3 0.916393 0.604832 0.208658
Si Si4 0.748902 0.907121 0.616456
Si Si5 0.506642 0.324397 0.386848
Si Si6 0.783748 0.910938 0.093749
Si Si7 0.648225 0.459190 0.462952
O O1 0.961250 0.743216 0.670003
O O2 0.849010 0.551068 0.703658
O O3 0.000000 0.500000 0.500000
O O4 0.010120 0.510475 0.790929
O O5 0.679381 0.554017 0.013407
O O6 0.552550 0.418986 0.230382
O O7 0.534783 0.686571 0.161686
O O8 0.500000 0.500000 0.000000
O O9 0.855406 0.577453 0.085977
O O10 0.848457 0.610959 0.400826
O O11 0.739243 0.740063 0.647220
O O12 0.711422 0.002431 0.780454
O O13 0.587964 0.322051 0.470502
O O14 0.422849 0.414177 0.494238
O O15 0.709799 0.024322 0.084706
#
# Coordination Sequence:
#
# PCOD9247310 Si02
#       7
#     4   4   4   4   4   4   4
#     4   9  18  34  55  83 111 142 180 225 276 327
#     4  11  24  36  58  81 116 148 195 231 278 331
#     4   9  18  33  59  83 110 143 182 227 274 330
#     4   9  18  34  54  82 107 147 187 226 268 332
#     4  10  22  36  55  83 110 151 188 236 281 321
#     4   9  16  32  59  83 108 145 190 219 271 337
#     4   9  18  33  58  76 114 141 189 232 275 314
#
# _framework density 23.24147
#
# number of rings (size 3 to 8) (size 9 to 14) (size 15 to 20)
#    0.000    2.571    1.429    0.000    6.000    0.000 
#    0.000    7.857    6.286    0.000    0.000    0.000 
#    0.000    0.000    0.000    0.000    0.000    0.000 
#
# Total GULP energy -155968.117559 kJ/mol
# GULP energy per Si atom -5570.289913 kJ/mol
# Density = 2.318857 g / cm^3
# Si number density = 23.241470 Si / 1000 Ang^3
#
#
#
# Elastic Constant Matrix: (Units=GPa)
#
#
# Indices 1 2 3 4 5 6 
#
# 1 211.4143 60.2650 29.4280 0.0000 42.3596 0.0000
# 2 60.2650 63.3701 20.8768 0.0000 -8.0278 0.0000
# 3 29.4280 20.8768 29.9949 0.0000 5.2452 0.0000
# 4 0.0000 0.0000 0.0000 24.1925 0.0000 3.6661
# 5 42.3596 -8.0278 5.2452 0.0000 40.3777 0.0000
# 6 0.0000 0.0000 0.0000 3.6661 0.0000 44.0132
#
#
#
# Elastic Compliance Matrix: (Units=1/GPa)
#
#
# Indices 1 2 3 4 5 6 
#
# 1 0.011038 -0.012355 0.000229 0.000000 -0.014066 0.000000
# 2 -0.012355 0.035863 -0.016733 0.000000 0.022265 0.000000
# 3 0.000229 -0.016733 0.046439 0.000000 -0.009600 0.000000
# 4 0.000000 0.000000 0.000000 0.041864 0.000000 -0.003487
# 5 -0.014066 0.022265 -0.009600 0.000000 0.045197 0.000000
# 6 0.000000 0.000000 0.000000 -0.003487 0.000000 0.023011
#
#
# Mechanical properties :
#
#
# Convention : Reuss Voigt Hill
#
# Bulk Modulus (GPa) = 28.07179 58.43542 43.25361
# Shear Modulus (GPa) = 18.31472 34.66397 26.48934
#
# Velocity S-wave (km/s) = 2.81021 3.86615 3.37967
# Velocity P-wave (km/s) = 4.75755 6.71765 5.82070
#
# Compressibility (1/GPa) = 0.03562295
#
# Stress axis : x y z
#
# Youngs Moduli (GPa) = 90.59289 27.88377 21.53348
#
# Poissons Ratio (x) = 0.34450 -0.00494
# Poissons Ratio (y) = 1.11927 0.36032
# Poissons Ratio (z) = -0.02077 0.46658
#
# Static dielectric constant tensor:
#      x y z
#    x 2.144240 0.000000 0.248640 
#    y 0.000000 1.935940 0.000000 
#    z 0.248640 0.000000 2.214890 
# 
# From -- ./inp_files/31342.got.cif
#   From: 2010.05.17/outbox.cif.g08.bks.cpg/sg14_16_cif.got.tgz:31342.got - 2010.06.03 17:49:19.
