data_PCOD9247550
_publ_section_title
;
Structure prediction by ZEFSAII (Michael W. Deem and Ramdas Pophale) SiO2 
 PCOD9247550
Probable space group: P 21/C
;
_chemical_formula_sum "Si O2"
_cell_formula_units_Z 22
_cell_length_a 12.278291
_cell_length_b 14.722455
_cell_length_c 12.423739
_cell_angle_alpha 90.000000
_cell_angle_beta 22.788981
_cell_angle_gamma 90.000000
_cell_volume 869.883125
_symmetry_space_group_name_H-M "P 21/C"
_symmetry_group_IT_number 14
_symmetry_cell_setting 'monoclinic'
loop_
_space_group_symop_operation_xyz
x,y,z
-x,1/2+y,1/2-z
-x,-y,-z
x,1/2-y,1/2+z
loop_
_atom_site_type_symbol
_atom_site_label
_atom_site_fract_x
_atom_site_fract_y
_atom_site_fract_z
Si Si1 0.718530 0.180136 0.326735
Si Si2 0.460891 0.877477 0.961110
Si Si3 0.697331 0.847877 0.108880
Si Si4 0.014259 0.504561 0.782043
Si Si5 0.602141 0.656377 0.092282
Si Si6 0.000000 0.500000 0.000000
O O1 0.627516 0.284592 0.405721
O O2 0.587156 0.138833 0.339005
O O3 0.051508 0.173762 0.035033
O O4 0.578349 0.142447 0.565172
O O5 0.445502 0.863881 0.846732
O O6 0.764793 0.910080 0.714704
O O7 0.206693 0.949718 0.206104
O O8 0.802266 0.938258 0.954976
O O9 0.688103 0.761717 0.035477
O O10 0.854677 0.583271 0.864374
O O11 0.823326 0.457584 0.046534
#
# Coordination Sequence:
#
# PCOD9247550 Si02
#       6
#     4   4   4   4   4   2
#     4  11  25  45  68  99 139 183 222 276 349 399
#     4  10  22  44  65  98 135 176 228 282 339 392
#     4  11  26  44  68 101 134 180 229 277 340 408
#     4  11  23  43  67  98 135 177 228 284 333 406
#     4  10  24  44  67  96 137 176 225 281 334 410
#     4  10  22  38  68  98 126 174 226 282 336 390
#
# _framework density 25.290751
#
# number of rings (size 3 to 8) (size 9 to 14) (size 15 to 20)
#    0.000    1.455    1.818    1.636    7.636    1.455 
#    3.273    0.000    0.000    0.000    0.000    0.000 
#    0.000    0.000    0.000    0.000    0.000    0.000 
#
# Total GULP energy -122859.802174 kJ/mol
# GULP energy per Si atom -5584.536462 kJ/mol
# Density = 2.523319 g / cm^3
# Si number density = 25.290751 Si / 1000 Ang^3
#
#
#
# Elastic Constant Matrix: (Units=GPa)
#
#
# Indices 1 2 3 4 5 6 
#
# 1 108.5692 6.3525 -10.6012 0.0000 -3.5817 0.0000
# 2 6.3525 61.9744 22.6954 0.0000 17.5405 0.0000
# 3 -10.6012 22.6954 77.6045 0.0000 -12.5323 0.0000
# 4 0.0000 0.0000 0.0000 35.5448 0.0000 2.9996
# 5 -3.5817 17.5405 -12.5323 0.0000 39.4066 0.0000
# 6 0.0000 0.0000 0.0000 2.9996 0.0000 36.5885
#
#
#
# Elastic Compliance Matrix: (Units=1/GPa)
#
#
# Indices 1 2 3 4 5 6 
#
# 1 0.009729 -0.002798 0.002626 0.000000 0.002965 0.000000
# 2 -0.002798 0.023895 -0.009623 0.000000 -0.013951 0.000000
# 3 0.002626 -0.009623 0.017698 0.000000 0.010151 0.000000
# 4 0.000000 0.000000 0.000000 0.028330 0.000000 -0.002323
# 5 0.002965 -0.013951 0.010151 0.000000 0.035084 0.000000
# 6 0.000000 0.000000 0.000000 -0.002323 0.000000 0.027521
#
#
# Mechanical properties :
#
#
# Convention : Reuss Voigt Hill
#
# Bulk Modulus (GPa) = 31.51447 31.67126 31.59286
# Shear Modulus (GPa) = 28.99827 37.62141 33.30984
#
# Velocity S-wave (km/s) = 3.38982 3.86107 3.63309
# Velocity P-wave (km/s) = 5.27343 5.69449 5.48800
#
# Compressibility (1/GPa) = 0.03173146
#
# Stress axis : x y z
#
# Youngs Moduli (GPa) = 102.78904 41.84964 56.50325
#
# Poissons Ratio (x) = 0.11710 -0.14838
# Poissons Ratio (y) = 0.28761 0.54374
# Poissons Ratio (z) = -0.26993 0.40273
#
# Static dielectric constant tensor:
#      x y z
#    x 2.017770 0.000000 0.002500 
#    y 0.000000 2.067930 0.000000 
#    z 0.002500 0.000000 2.018630 
# 
# From -- ./inp_files/20795.got.cif
#   From: 2010.05.17/outbox.cif.g08.bks.cpg/sg14_11_cif.got.tgz:20795.got - 2010.06.03 17:49:19.
