data_PCOD9247746
_publ_section_title
;
Structure prediction by ZEFSAII (Michael W. Deem and Ramdas Pophale) SiO2 
 PCOD9247746
Probable space group: P 21/C
;
_chemical_formula_sum "Si O2"
_cell_formula_units_Z 32
_cell_length_a 11.552815
_cell_length_b 17.009513
_cell_length_c 12.699199
_cell_angle_alpha 90.000000
_cell_angle_beta 146.462110
_cell_angle_gamma 90.000000
_cell_volume 1378.729685
_symmetry_space_group_name_H-M "P 21/C"
_symmetry_group_IT_number 14
_symmetry_cell_setting 'monoclinic'
loop_
_space_group_symop_operation_xyz
x,y,z
-x,1/2+y,1/2-z
-x,-y,-z
x,1/2-y,1/2+z
loop_
_atom_site_type_symbol
_atom_site_label
_atom_site_fract_x
_atom_site_fract_y
_atom_site_fract_z
Si Si1 0.905582 0.912509 0.935651
Si Si2 0.708335 0.848848 0.249846
Si Si3 0.828698 0.967280 0.520582
Si Si4 0.837017 0.831471 0.677133
Si Si5 0.279821 0.023570 0.888782
Si Si6 0.450918 0.786116 0.894300
Si Si7 0.997189 0.736983 0.602296
Si Si8 0.483054 0.414008 0.737217
O O1 0.956297 0.860168 0.871402
O O2 0.653588 0.908989 0.761094
O O3 0.978355 0.857253 0.088163
O O4 0.000000 0.000000 0.000000
O O5 0.740665 0.919452 0.354907
O O6 0.793515 0.889475 0.207201
O O7 0.820092 0.776762 0.392321
O O8 0.481306 0.828279 0.032018
O O9 0.770873 0.913835 0.574991
O O10 0.709227 0.049253 0.429797
O O11 0.080596 0.971285 0.708796
O O12 0.628990 0.780015 0.535176
O O13 0.968422 0.780419 0.692205
O O14 0.340512 0.027638 0.056610
O O15 0.500000 0.000000 0.000000
O O16 0.489326 0.839323 0.819356
O O17 0.217057 0.756964 0.717080
#
# Coordination Sequence:
#
# PCOD9247746 Si02
#       8
#     4   4   4   4   4   4   4   4
#     4  12  27  51  74 107 158 199 249 311 382 458
#     4  10  22  39  70 102 142 178 242 303 361 438
#     4  11  24  41  70 107 145 192 238 302 379 447
#     4  11  26  50  70 108 145 193 261 294 372 464
#     4  11  22  39  69 111 147 186 245 312 372 441
#     4  11  24  46  73 107 142 188 250 311 365 450
#     4  11  25  49  76 103 147 197 246 314 375 439
#     4  11  25  45  72 108 150 193 243 312 381 449
#
# _framework density 23.209771
#
# number of rings (size 3 to 8) (size 9 to 14) (size 15 to 20)
#    0.000    1.000    3.750    1.875    8.750    1.500 
#    6.750    0.000    0.000    0.000    0.000    0.000 
#    0.000    0.000    0.000    0.000    0.000    0.000 
#
# Total GULP energy -178490.004086 kJ/mol
# GULP energy per Si atom -5577.812628 kJ/mol
# Density = 2.315694 g / cm^3
# Si number density = 23.209771 Si / 1000 Ang^3
#
#
#
# Elastic Constant Matrix: (Units=GPa)
#
#
# Indices 1 2 3 4 5 6 
#
# 1 87.0360 38.3515 33.8250 0.0000 5.4747 0.0000
# 2 38.3515 116.9271 42.2842 0.0000 7.9068 0.0000
# 3 33.8250 42.2842 87.3319 0.0000 13.2351 0.0000
# 4 0.0000 0.0000 0.0000 26.0002 0.0000 5.8434
# 5 5.4747 7.9068 13.2351 0.0000 33.0063 0.0000
# 6 0.0000 0.0000 0.0000 5.8434 0.0000 31.2704
#
#
#
# Elastic Compliance Matrix: (Units=1/GPa)
#
#
# Indices 1 2 3 4 5 6 
#
# 1 0.014508 -0.003305 -0.004018 0.000000 -0.000003 0.000000
# 2 -0.003305 0.011128 -0.004032 0.000000 -0.000501 0.000000
# 3 -0.004018 -0.004032 0.015664 0.000000 -0.004648 0.000000
# 4 0.000000 0.000000 0.000000 0.040147 0.000000 -0.007502
# 5 -0.000003 -0.000501 -0.004648 0.000000 0.032282 0.000000
# 6 0.000000 0.000000 0.000000 -0.007502 0.000000 0.033381
#
#
# Mechanical properties :
#
#
# Convention : Reuss Voigt Hill
#
# Bulk Modulus (GPa) = 53.79603 57.80183 55.79893
# Shear Modulus (GPa) = 28.40633 29.84434 29.12534
#
# Velocity S-wave (km/s) = 3.50222 3.58977 3.54626
# Velocity P-wave (km/s) = 6.29146 6.49154 6.39228
#
# Compressibility (1/GPa) = 0.01858873
#
# Stress axis : x y z
#
# Youngs Moduli (GPa) = 68.92886 89.86035 63.84203
#
# Poissons Ratio (x) = 0.29700 0.25654
# Poissons Ratio (y) = 0.22782 0.25742
# Poissons Ratio (z) = 0.27698 0.36233
#
# Static dielectric constant tensor:
#      x y z
#    x 1.971120 0.000000 -0.067950 
#    y 0.000000 2.012720 0.000000 
#    z -0.067950 0.000000 1.886520 
# 
# From -- ./inp_files/45385.got.cif
#   From: 2010.05.17/outbox.cif.g08.bks.cpg/sg14_23_cif.got.tgz:45385.got - 2010.06.03 17:49:19.
