data_PCOD9247752
_publ_section_title
;
Structure prediction by ZEFSAII (Michael W. Deem and Ramdas Pophale) SiO2 
 PCOD9247752
Probable space group: P 21/C
;
_chemical_formula_sum "Si O2"
_cell_formula_units_Z 28
_cell_length_a 11.607429
_cell_length_b 16.790982
_cell_length_c 8.084715
_cell_angle_alpha 90.000000
_cell_angle_beta 142.812666
_cell_angle_gamma 90.000000
_cell_volume 952.396610
_symmetry_space_group_name_H-M "P 21/C"
_symmetry_group_IT_number 14
_symmetry_cell_setting 'monoclinic'
loop_
_space_group_symop_operation_xyz
x,y,z
-x,1/2+y,1/2-z
-x,-y,-z
x,1/2-y,1/2+z
loop_
_atom_site_type_symbol
_atom_site_label
_atom_site_fract_x
_atom_site_fract_y
_atom_site_fract_z
Si Si1 0.769721 0.859068 0.236977
Si Si2 0.872543 0.141667 0.964075
Si Si3 0.753970 0.051769 0.497021
Si Si4 0.204512 0.686552 0.199361
Si Si5 0.195487 0.496061 0.432647
Si Si6 0.311005 0.096204 0.389406
Si Si7 0.427943 0.232738 0.293037
O O1 0.742996 0.952192 0.164212
O O2 0.688351 0.812874 0.299207
O O3 0.674904 0.815006 0.970180
O O4 0.994794 0.844450 0.503992
O O5 0.093871 0.121989 0.181408
O O6 0.772470 0.105319 0.685143
O O7 0.858801 0.234743 0.977671
O O8 0.787769 0.089429 0.017526
O O9 0.696188 0.115724 0.292148
O O10 0.640078 0.971413 0.416982
O O11 0.970911 0.024794 0.702094
O O12 0.363570 0.731327 0.489018
O O13 0.296478 0.455524 0.704106
O O14 0.419595 0.174476 0.445974
#
# Coordination Sequence:
#
# PCOD9247752 Si02
#       7
#     4   4   4   4   4   4   4
#     4  10  22  40  58  85 123 149 190 248 289 342
#     4   9  15  31  56  81 111 144 190 240 289 337
#     4   8  16  30  54  81 111 147 187 239 293 332
#     4  11  22  33  59  87 116 151 188 241 294 345
#     4   7  14  30  56  81 105 147 187 239 295 327
#     4   8  14  33  54  78 113 144 186 246 289 326
#     4  11  23  37  60  90 115 154 198 236 294 350
#
# _framework density 29.399515000000001
#
# number of rings (size 3 to 8) (size 9 to 14) (size 15 to 20)
#    0.000    2.857    1.429    2.571    2.000    0.000 
#    2.571    2.143    0.000    3.429    0.000    0.000 
#    0.000    0.000    0.000    0.000    0.000    0.000 
#
# Total GULP energy -156882.668338 kJ/mol
# GULP energy per Si atom -5602.952441 kJ/mol
# Density = 2.933260 g / cm^3
# Si number density = 29.399515 Si / 1000 Ang^3
#
#
#
# Elastic Constant Matrix: (Units=GPa)
#
#
# Indices 1 2 3 4 5 6 
#
# 1 88.4696 10.0881 28.6829 0.0000 16.8816 0.0000
# 2 10.0881 179.8545 24.4576 0.0000 2.3162 0.0000
# 3 28.6829 24.4576 136.3426 0.0000 -3.9223 0.0000
# 4 0.0000 0.0000 0.0000 58.0803 0.0000 -4.6647
# 5 16.8816 2.3162 -3.9223 0.0000 40.3895 0.0000
# 6 0.0000 0.0000 0.0000 -4.6647 0.0000 60.5937
#
#
#
# Elastic Compliance Matrix: (Units=1/GPa)
#
#
# Indices 1 2 3 4 5 6 
#
# 1 0.013409 -0.000277 -0.002940 0.000000 -0.005874 0.000000
# 2 -0.000277 0.005712 -0.000975 0.000000 -0.000307 0.000000
# 3 -0.002940 -0.000975 0.008188 0.000000 0.002080 0.000000
# 4 0.000000 0.000000 0.000000 0.017325 0.000000 0.001334
# 5 -0.005874 -0.000307 0.002080 0.000000 0.027434 0.000000
# 6 0.000000 0.000000 0.000000 0.001334 0.000000 0.016606
#
#
# Mechanical properties :
#
#
# Convention : Reuss Voigt Hill
#
# Bulk Modulus (GPa) = 52.84129 59.01379 55.92754
# Shear Modulus (GPa) = 48.37177 54.57523 51.47350
#
# Velocity S-wave (km/s) = 4.06066 4.31319 4.18883
# Velocity P-wave (km/s) = 6.32438 6.70235 6.51611
#
# Compressibility (1/GPa) = 0.01892459
#
# Stress axis : x y z
#
# Youngs Moduli (GPa) = 74.57646 175.06571 122.13269
#
# Poissons Ratio (x) = 0.04843 0.35911
# Poissons Ratio (y) = 0.02063 0.11911
# Poissons Ratio (z) = 0.21928 0.17074
#
# Static dielectric constant tensor:
#      x y z
#    x 2.293940 0.000000 -0.065870 
#    y 0.000000 2.252940 0.000000 
#    z -0.065870 0.000000 2.284570 
# 
# From -- ./inp_files/30337.got.cif
#   From: 2010.05.17/outbox.cif.g08.bks.cpg/sg14_16_cif.got.tgz:30337.got - 2010.06.03 17:49:19.
