data_PCOD9247759
_publ_section_title
;
Structure prediction by ZEFSAII (Michael W. Deem and Ramdas Pophale) SiO2 
 PCOD9247759
Probable space group: P 21/C
;
_chemical_formula_sum "Si O2"
_cell_formula_units_Z 32
_cell_length_a 12.858625
_cell_length_b 12.597632
_cell_length_c 20.776950
_cell_angle_alpha 90.000000
_cell_angle_beta 153.918360
_cell_angle_gamma 90.000000
_cell_volume 1479.700039
_symmetry_space_group_name_H-M "P 21/C"
_symmetry_group_IT_number 14
_symmetry_cell_setting 'monoclinic'
loop_
_space_group_symop_operation_xyz
x,y,z
-x,1/2+y,1/2-z
-x,-y,-z
x,1/2-y,1/2+z
loop_
_atom_site_type_symbol
_atom_site_label
_atom_site_fract_x
_atom_site_fract_y
_atom_site_fract_z
Si Si1 0.744889 0.009544 0.445625
Si Si2 0.506937 0.665836 0.721995
Si Si3 0.106879 0.930573 0.909411
Si Si4 0.391006 0.165278 0.324682
Si Si5 0.654745 0.307562 0.573568
Si Si6 0.619125 0.868896 0.962091
Si Si7 0.221835 0.835841 0.643323
Si Si8 0.941936 0.809104 0.604266
O O1 0.624270 0.923564 0.331361
O O2 0.903232 0.936543 0.580330
O O3 0.559850 0.080291 0.382678
O O4 0.870087 0.089255 0.465034
O O5 0.292132 0.611764 0.564610
O O6 0.647929 0.736458 0.747125
O O7 0.387280 0.750722 0.702180
O O8 0.194625 0.877290 0.892178
O O9 0.848178 0.891883 0.785682
O O10 0.162930 0.054604 0.932853
O O11 0.525952 0.216892 0.460682
O O12 0.464817 0.371855 0.510816
O O13 0.845831 0.271360 0.732418
O O14 0.396202 0.894627 0.791628
O O15 0.708202 0.750233 0.996990
O O16 0.019302 0.783784 0.574147
#
# Coordination Sequence:
#
# PCOD9247759 Si02
#       8
#     4   4   4   4   4   4   4   4
#     4  11  22  42  64 100 134 171 220 267 330 403
#     4  10  22  40  64  98 138 163 218 275 323 398
#     4  11  23  42  69  95 124 183 214 269 339 387
#     4  10  25  43  68  96 135 174 222 277 323 391
#     4  10  24  47  61  93 134 171 226 271 329 386
#     4  11  22  39  65  95 126 170 223 279 320 391
#     4  10  22  40  59  96 136 171 213 266 329 397
#     4  11  24  39  68  92 132 180 215 273 329 381
#
# _framework density 21.626003999999998
#
# number of rings (size 3 to 8) (size 9 to 14) (size 15 to 20)
#    0.000    1.500    2.500    1.500    3.500    1.500 
#    2.250    1.875    0.000    0.000    0.000    0.000 
#    0.000    0.000    0.000    0.000    0.000    0.000 
#
# Total GULP energy -178657.229658 kJ/mol
# GULP energy per Si atom -5583.038427 kJ/mol
# Density = 2.157678 g / cm^3
# Si number density = 21.626004 Si / 1000 Ang^3
#
#
#
# Elastic Constant Matrix: (Units=GPa)
#
#
# Indices 1 2 3 4 5 6 
#
# 1 137.5746 46.1610 45.3199 0.0000 -0.3048 0.0000
# 2 46.1610 81.7554 34.3354 0.0000 -5.5187 0.0000
# 3 45.3199 34.3354 71.4623 0.0000 -6.8468 0.0000
# 4 0.0000 0.0000 0.0000 21.7247 0.0000 -3.6952
# 5 -0.3048 -5.5187 -6.8468 0.0000 25.9368 0.0000
# 6 0.0000 0.0000 0.0000 -3.6952 0.0000 27.7970
#
#
#
# Elastic Compliance Matrix: (Units=1/GPa)
#
#
# Indices 1 2 3 4 5 6 
#
# 1 0.010124 -0.003850 -0.004758 0.000000 -0.001956 0.000000
# 2 -0.003850 0.016834 -0.005446 0.000000 0.002099 0.000000
# 3 -0.004758 -0.005446 0.020017 0.000000 0.004070 0.000000
# 4 0.000000 0.000000 0.000000 0.047096 0.000000 0.006261
# 5 -0.001956 0.002099 0.004070 0.000000 0.040053 0.000000
# 6 0.000000 0.000000 0.000000 0.006261 0.000000 0.036807
#
#
# Mechanical properties :
#
#
# Convention : Reuss Voigt Hill
#
# Bulk Modulus (GPa) = 52.99962 60.26941 56.63452
# Shear Modulus (GPa) = 24.35144 26.09009 25.22077
#
# Velocity S-wave (km/s) = 3.35927 3.47713 3.41871
# Velocity P-wave (km/s) = 6.29340 6.63702 6.46749
#
# Compressibility (1/GPa) = 0.01886806
#
# Stress axis : x y z
#
# Youngs Moduli (GPa) = 98.77987 59.40343 49.95742
#
# Poissons Ratio (x) = 0.22869 0.23769
# Poissons Ratio (y) = 0.38029 0.27205
# Poissons Ratio (z) = 0.46998 0.32349
#
# Static dielectric constant tensor:
#      x y z
#    x 1.788030 0.000000 -0.020360 
#    y 0.000000 1.796610 0.000000 
#    z -0.020360 0.000000 1.823300 
# 
# From -- ./inp_files/67432.got.cif
#   From: 2010.05.17/outbox.cif.g08.bks.cpg/sg14_34_cif.got.tgz:67432.got - 2010.06.03 17:49:19.
