data_PCOD9247103
_publ_section_title
;
Structure prediction by ZEFSAII (Michael W. Deem and Ramdas Pophale) SiO2 
 PCOD9247103
Probable space group: P 21/C
;
_chemical_formula_sum "Si O2"
_cell_formula_units_Z 28
_cell_length_a 16.331966
_cell_length_b 12.137770
_cell_length_c 9.432817
_cell_angle_alpha 90.000000
_cell_angle_beta 140.365866
_cell_angle_gamma 90.000000
_cell_volume 1192.778348
_symmetry_space_group_name_H-M "P 21/C"
_symmetry_group_IT_number 14
_symmetry_cell_setting 'monoclinic'
loop_
_space_group_symop_operation_xyz
x,y,z
-x,1/2+y,1/2-z
-x,-y,-z
x,1/2-y,1/2+z
loop_
_atom_site_type_symbol
_atom_site_label
_atom_site_fract_x
_atom_site_fract_y
_atom_site_fract_z
Si Si1 0.256579 0.852565 0.124706
Si Si2 0.161499 0.218167 0.180970
Si Si3 0.686259 0.814939 0.367992
Si Si4 0.928105 0.163067 0.696287
Si Si5 0.404623 0.731415 0.548439
Si Si6 0.154666 0.448516 0.329113
Si Si7 0.725403 0.038628 0.283504
O O1 0.324989 0.828150 0.364993
O O2 0.124154 0.780823 0.933670
O O3 0.350241 0.801593 0.128823
O O4 0.230438 0.979024 0.047426
O O5 0.233678 0.233962 0.128541
O O6 0.230050 0.142425 0.386840
O O7 0.184902 0.333438 0.292353
O O8 0.014141 0.191040 0.948248
O O9 0.663775 0.923840 0.244525
O O10 0.557218 0.756691 0.249184
O O11 0.800659 0.090505 0.516389
O O12 0.024660 0.087591 0.733077
O O13 0.374113 0.626477 0.408016
O O14 0.174562 0.525788 0.216330
#
# Coordination Sequence:
#
# PCOD9247103 Si02
#       7
#     4   4   4   4   4   4   4
#     4  10  24  41  68  93 128 171 216 267 331 382
#     4  11  24  38  62  96 128 170 213 261 330 388
#     4  11  22  41  65  91 129 172 215 273 318 381
#     4  11  23  39  63  97 128 161 218 260 323 398
#     4  10  21  44  64  92 125 172 222 268 315 388
#     4  10  22  41  64  93 133 176 202 261 343 392
#     4   9  22  39  67  94 124 172 217 264 334 382
#
# _framework density 23.474603999999999
#
# number of rings (size 3 to 8) (size 9 to 14) (size 15 to 20)
#    0.000    1.714    1.429    1.714   10.000    0.571 
#    5.143    0.714    0.000    0.000    0.000    0.000 
#    0.000    0.000    0.000    0.000    0.000    0.000 
#
# Total GULP energy -155952.435514 kJ/mol
# GULP energy per Si atom -5569.729840 kJ/mol
# Density = 2.342118 g / cm^3
# Si number density = 23.474604 Si / 1000 Ang^3
#
#
#
# Elastic Constant Matrix: (Units=GPa)
#
#
# Indices 1 2 3 4 5 6 
#
# 1 604.0596 269.0824 504.0250 0.0000 202.9884 0.0000
# 2 269.0824 195.0122 257.1066 0.0000 113.1359 0.0000
# 3 504.0250 257.1066 523.1169 0.0000 188.6353 0.0000
# 4 0.0000 0.0000 0.0000 -166.9804 0.0000 -34.2561
# 5 202.9884 113.1359 188.6353 0.0000 109.3364 0.0000
# 6 0.0000 0.0000 0.0000 -34.2561 0.0000 25.1338
#
#
#
# Elastic Compliance Matrix: (Units=1/GPa)
#
#
# Indices 1 2 3 4 5 6 
#
# 1 0.009479 -0.001758 -0.006825 0.000000 -0.004003 0.000000
# 2 -0.001758 0.017405 -0.004084 0.000000 -0.007700 0.000000
# 3 -0.006825 -0.004084 0.011649 0.000000 -0.003201 0.000000
# 4 0.000000 0.000000 0.000000 -0.004680 0.000000 -0.006379
# 5 -0.004003 -0.007700 -0.003201 0.000000 0.030069 0.000000
# 6 0.000000 0.000000 0.000000 -0.006379 0.000000 0.031093
#
#
# Mechanical properties :
#
#
# Convention : Reuss Voigt Hill
#
# Bulk Modulus (GPa) = 75.76336 375.84630 225.80483
# Shear Modulus (GPa) = 40.08046 12.96293 26.52169
#
# Velocity S-wave (km/s) = 4.13655 2.35247 3.36490
# Velocity P-wave (km/s) = 7.42694 12.95508 10.55920
#
# Compressibility (1/GPa) = 0.01319899
#
# Stress axis : x y z
#
# Youngs Moduli (GPa) = 105.49799 57.45360 85.84414
#
# Poissons Ratio (x) = 0.10102 0.58590
# Poissons Ratio (y) = 0.18549 0.35056
# Poissons Ratio (z) = 0.72004 0.23463
#
# Static dielectric constant tensor:
#      x y z
#    x 1.915360 0.000000 -0.024850 
#    y 0.000000 1.920610 0.000000 
#    z -0.024850 0.000000 1.961880 
# 
# From -- ./inp_files/16449.got.cif
#   From: 2010.05.17/outbox.cif.g08.bks.cpg/sg14_9_cif.got.tgz:16449.got - 2010.06.03 17:49:19.
