data_PCOD9247837
_publ_section_title
;
Structure prediction by ZEFSAII (Michael W. Deem and Ramdas Pophale) SiO2 
 PCOD9247837
Probable space group: P 21/C
;
_chemical_formula_sum "Si O2"
_cell_formula_units_Z 32
_cell_length_a 9.186537
_cell_length_b 15.644844
_cell_length_c 11.663489
_cell_angle_alpha 90.000000
_cell_angle_beta 115.198051
_cell_angle_gamma 90.000000
_cell_volume 1516.785184
_symmetry_space_group_name_H-M "P 21/C"
_symmetry_group_IT_number 14
_symmetry_cell_setting 'monoclinic'
loop_
_space_group_symop_operation_xyz
x,y,z
-x,1/2+y,1/2-z
-x,-y,-z
x,1/2-y,1/2+z
loop_
_atom_site_type_symbol
_atom_site_label
_atom_site_fract_x
_atom_site_fract_y
_atom_site_fract_z
Si Si1 0.871154 0.526335 0.360238
Si Si2 0.343102 0.358750 0.551722
Si Si3 0.102302 0.836701 0.887663
Si Si4 0.682617 0.196133 0.253005
Si Si5 0.871394 0.707035 0.947054
Si Si6 0.698794 0.576416 0.718511
Si Si7 0.090647 0.930634 0.609120
Si Si8 0.342393 0.885849 0.166314
O O1 0.738748 0.582945 0.379614
O O2 0.775252 0.441860 0.291025
O O3 0.000000 0.500000 0.500000
O O4 0.973344 0.588611 0.313850
O O5 0.527267 0.345530 0.644208
O O6 0.252707 0.268300 0.530254
O O7 0.315817 0.399697 0.419093
O O8 0.183679 0.798622 0.802421
O O9 0.004784 0.768062 0.931450
O O10 0.243495 0.876429 0.014152
O O11 0.759893 0.133056 0.374240
O O12 0.639707 0.289477 0.283669
O O13 0.784219 0.652354 0.818698
O O14 0.950932 0.641332 0.062454
O O15 0.809194 0.492604 0.771319
O O16 0.516075 0.571418 0.705294
O O17 0.000000 0.000000 0.500000
#
# Coordination Sequence:
#
# PCOD9247837 Si02
#       8
#     4   4   4   4   4   4   4   4
#     4   9  22  39  59  90 136 159 211 278 317 375
#     4  11  23  40  69 100 128 173 227 270 326 390
#     4  10  22  40  63  94 127 171 221 265 321 388
#     4  12  23  40  70  95 131 174 221 269 325 396
#     4  10  22  43  62  96 135 171 217 272 327 391
#     4  11  23  39  69  97 132 172 219 273 332 392
#     4  10  24  42  60  93 134 172 211 264 330 394
#     4  11  21  41  63  98 135 168 215 275 330 381
#
# _framework density 21.097252000000001
#
# number of rings (size 3 to 8) (size 9 to 14) (size 15 to 20)
#    0.000    1.500    3.750    0.750    5.250    1.000 
#    2.250    0.000    0.000    0.750    0.000    0.000 
#    0.000    0.000    0.000    0.000    0.000    0.000 
#
# Total GULP energy -178401.955762 kJ/mol
# GULP energy per Si atom -5575.061118 kJ/mol
# Density = 2.104923 g / cm^3
# Si number density = 21.097252 Si / 1000 Ang^3
#
#
#
# Elastic Constant Matrix: (Units=GPa)
#
#
# Indices 1 2 3 4 5 6 
#
# 1 100.6903 32.4254 36.6728 0.0000 13.9565 0.0000
# 2 32.4254 113.4052 35.0554 0.0000 15.5895 0.0000
# 3 36.6728 35.0554 94.0887 0.0000 29.8942 0.0000
# 4 0.0000 0.0000 0.0000 36.4409 0.0000 15.2187
# 5 13.9565 15.5895 29.8942 0.0000 28.0580 0.0000
# 6 0.0000 0.0000 0.0000 15.2187 0.0000 36.0261
#
#
#
# Elastic Compliance Matrix: (Units=1/GPa)
#
#
# Indices 1 2 3 4 5 6 
#
# 1 0.012082 -0.002216 -0.003576 0.000000 -0.000969 0.000000
# 2 -0.002216 0.010479 -0.002329 0.000000 -0.002238 0.000000
# 3 -0.003576 -0.002329 0.018010 0.000000 -0.016116 0.000000
# 4 0.000000 0.000000 0.000000 0.033320 0.000000 -0.014076
# 5 -0.000969 -0.002238 -0.016116 0.000000 0.054537 0.000000
# 6 0.000000 0.000000 0.000000 -0.014076 0.000000 0.033704
#
#
# Mechanical properties :
#
#
# Convention : Reuss Voigt Hill
#
# Bulk Modulus (GPa) = 41.10309 57.38794 49.24552
# Shear Modulus (GPa) = 26.81202 33.70704 30.25953
#
# Velocity S-wave (km/s) = 3.56880 4.00146 3.79131
# Velocity P-wave (km/s) = 6.04208 6.97206 6.52366
#
# Compressibility (1/GPa) = 0.02432907
#
# Stress axis : x y z
#
# Youngs Moduli (GPa) = 82.77033 95.42601 55.52371
#
# Poissons Ratio (x) = 0.21146 0.19853
# Poissons Ratio (y) = 0.18342 0.12934
# Poissons Ratio (z) = 0.29596 0.22229
#
# Static dielectric constant tensor:
#      x y z
#    x 1.176950 0.000000 0.362190 
#    y 0.000000 1.790920 0.000000 
#    z 0.362190 0.000000 1.567440 
# 
# From -- ./inp_files/41232.got.cif
#   From: 2010.05.17/outbox.cif.g08.bks.cpg/sg14_21_cif.got.tgz:41232.got - 2010.06.03 17:49:19.
