data_PCOD9247483
_publ_section_title
;
Structure prediction by ZEFSAII (Michael W. Deem and Ramdas Pophale) SiO2 
 PCOD9247483
Probable space group: P 21/C
;
_chemical_formula_sum "Si O2"
_cell_formula_units_Z 30
_cell_length_a 14.316071
_cell_length_b 11.781683
_cell_length_c 9.336641
_cell_angle_alpha 90.000000
_cell_angle_beta 113.763618
_cell_angle_gamma 90.000000
_cell_volume 1441.269886
_symmetry_space_group_name_H-M "P 21/C"
_symmetry_group_IT_number 14
_symmetry_cell_setting 'monoclinic'
loop_
_space_group_symop_operation_xyz
x,y,z
-x,1/2+y,1/2-z
-x,-y,-z
x,1/2-y,1/2+z
loop_
_atom_site_type_symbol
_atom_site_label
_atom_site_fract_x
_atom_site_fract_y
_atom_site_fract_z
Si Si1 0.958904 0.872797 0.472507
Si Si2 0.141735 0.804479 0.029128
Si Si3 0.000000 0.500000 0.500000
Si Si4 0.236827 0.197215 0.795924
Si Si5 0.502641 0.633382 0.033354
Si Si6 0.733215 0.340290 0.112614
Si Si7 0.836628 0.931455 0.667367
Si Si8 0.371091 0.261869 0.634744
O O1 0.875216 0.854430 0.295909
O O2 0.893149 0.863675 0.576355
O O3 0.049826 0.781614 0.520547
O O4 0.000000 0.000000 0.500000
O O5 0.227156 0.825693 0.201671
O O6 0.198911 0.747560 0.933552
O O7 0.082712 0.920215 0.963402
O O8 0.079676 0.490854 0.682639
O O9 0.221160 0.333930 0.781658
O O10 0.309632 0.176962 0.703887
O O11 0.291164 0.172977 0.980575
O O12 0.562346 0.661714 0.217129
O O13 0.500000 0.500000 0.000000
O O14 0.386789 0.676802 0.974040
O O15 0.558872 0.695477 0.935811
O O16 0.762431 0.467024 0.075828
#
# Coordination Sequence:
#
# PCOD9247483 Si02
#       8
#     4   4   2   4   4   4   4   4
#     4  12  24  38  64  99 143 181 222 286 338 413
#     4  11  23  40  63  98 136 180 222 269 341 416
#     4  10  22  38  62  94 130 184 222 262 324 420
#     4  11  22  41  69  95 137 175 238 283 344 424
#     4  11  24  46  73  98 140 179 236 304 369 422
#     4  11  23  41  67  93 136 177 225 283 346 414
#     4  11  22  40  64  95 134 181 225 271 341 409
#     4  10  23  43  70 100 126 182 235 296 352 424
#
# _framework density 20.814978
#
# number of rings (size 3 to 8) (size 9 to 14) (size 15 to 20)
#    0.000    1.067    4.000    3.200    0.000    1.067 
#    0.000    5.333    0.000    0.000    0.000    0.000 
#    0.000    0.000    0.000    0.000    0.000    0.000 
#
# Total GULP energy -167067.265445 kJ/mol
# GULP energy per Si atom -5568.908848 kJ/mol
# Density = 2.076760 g / cm^3
# Si number density = 20.814978 Si / 1000 Ang^3
#
#
#
# Elastic Constant Matrix: (Units=GPa)
#
#
# Indices 1 2 3 4 5 6 
#
# 1 102.7987 21.6874 35.7873 0.0000 16.5867 0.0000
# 2 21.6874 49.3741 23.7037 0.0000 8.0884 0.0000
# 3 35.7873 23.7037 122.3385 0.0000 25.5795 0.0000
# 4 0.0000 0.0000 0.0000 19.4792 0.0000 -0.3768
# 5 16.5867 8.0884 25.5795 0.0000 46.4588 0.0000
# 6 0.0000 0.0000 0.0000 -0.3768 0.0000 19.4128
#
#
#
# Elastic Compliance Matrix: (Units=1/GPa)
#
#
# Indices 1 2 3 4 5 6 
#
# 1 0.011645 -0.003676 -0.002214 0.000000 -0.002299 0.000000
# 2 -0.003676 0.023611 -0.003293 0.000000 -0.000985 0.000000
# 3 -0.002214 -0.003293 0.010368 0.000000 -0.004345 0.000000
# 4 0.000000 0.000000 0.000000 0.051356 0.000000 0.000997
# 5 -0.002299 -0.000985 -0.004345 0.000000 0.024909 0.000000
# 6 0.000000 0.000000 0.000000 0.000997 0.000000 0.051532
#
#
# Mechanical properties :
#
#
# Convention : Reuss Voigt Hill
#
# Bulk Modulus (GPa) = 36.68646 48.54088 42.61367
# Shear Modulus (GPa) = 24.89155 29.95903 27.42529
#
# Velocity S-wave (km/s) = 3.46186 3.79793 3.63378
# Velocity P-wave (km/s) = 5.80022 6.52711 6.17437
#
# Compressibility (1/GPa) = 0.02725801
#
# Stress axis : x y z
#
# Youngs Moduli (GPa) = 85.87588 42.35400 96.44909
#
# Poissons Ratio (x) = 0.15568 0.21350
# Poissons Ratio (y) = 0.31565 0.31765
# Poissons Ratio (z) = 0.19009 0.13949
#
# Static dielectric constant tensor:
#      x y z
#    x 1.796400 0.000000 -0.024930 
#    y 0.000000 1.764460 0.000000 
#    z -0.024930 0.000000 1.764500 
# 
# From -- ./inp_files/15767.got.cif
#   From: 2010.05.17/outbox.cif.g08.bks.cpg/sg14_8_cif.got.tgz:15767.got - 2010.06.03 17:49:19.
