data_PCOD9247068
_publ_section_title
;
Structure prediction by ZEFSAII (Michael W. Deem and Ramdas Pophale) SiO2 
 PCOD9247068
Probable space group: P 21/C
;
_chemical_formula_sum "Si O2"
_cell_formula_units_Z 32
_cell_length_a 14.763178
_cell_length_b 7.887689
_cell_length_c 12.489108
_cell_angle_alpha 90.000000
_cell_angle_beta 64.444431
_cell_angle_gamma 90.000000
_cell_volume 1312.043243
_symmetry_space_group_name_H-M "P 21/C"
_symmetry_group_IT_number 14
_symmetry_cell_setting 'monoclinic'
loop_
_space_group_symop_operation_xyz
x,y,z
-x,1/2+y,1/2-z
-x,-y,-z
x,1/2-y,1/2+z
loop_
_atom_site_type_symbol
_atom_site_label
_atom_site_fract_x
_atom_site_fract_y
_atom_site_fract_z
Si Si1 0.445277 0.655871 0.838272
Si Si2 0.007414 0.266984 0.430130
Si Si3 0.698975 0.517476 0.242340
Si Si4 0.858084 0.932775 0.983896
Si Si5 0.345866 0.501445 0.293525
Si Si6 0.835249 0.455460 0.976036
Si Si7 0.685603 0.200622 0.400483
Si Si8 0.818601 0.757590 0.315239
O O1 0.390983 0.507976 0.796460
O O2 0.562758 0.628746 0.764526
O O3 0.397569 0.829978 0.818078
O O4 0.411321 0.652630 0.979222
O O5 0.075017 0.278428 0.501605
O O6 0.087888 0.324009 0.300412
O O7 0.918390 0.401698 0.488719
O O8 0.951288 0.096440 0.424080
O O9 0.678253 0.381443 0.346498
O O10 0.729860 0.692455 0.283827
O O11 0.792906 0.467033 0.118092
O O12 0.746189 0.938747 0.087597
O O13 0.854515 0.911014 0.859171
O O14 0.303062 0.567072 0.201878
O O15 0.776533 0.309322 0.938465
O O16 0.799290 0.614275 0.922223
#
# Coordination Sequence:
#
# PCOD9247068 Si02
#       8
#     4   4   4   4   4   4   4   4
#     4  10  23  42  69 101 137 182 233 289 351 420
#     4  11  24  43  65  94 131 179 232 286 347 414
#     4  10  23  44  66  97 139 180 228 288 351 417
#     4  11  25  44  66  95 136 180 226 285 351 413
#     4  11  23  43  68 100 141 182 232 290 350 418
#     4  11  24  40  66 100 134 177 234 289 342 413
#     4  10  21  43  70  95 132 182 227 283 351 414
#     4  12  24  39  64  96 133 176 226 283 343 407
#
# _framework density 24.389438999999999
#
# number of rings (size 3 to 8) (size 9 to 14) (size 15 to 20)
#    0.000    1.250    0.000    6.375    0.000   10.000 
#    0.000    8.125    0.000    0.000    0.000    0.000 
#    0.000    0.000    0.000    0.000    0.000    0.000 
#
# Total GULP energy -178969.746597 kJ/mol
# GULP energy per Si atom -5592.804581 kJ/mol
# Density = 2.433393 g / cm^3
# Si number density = 24.389439 Si / 1000 Ang^3
#
#
#
# Elastic Constant Matrix: (Units=GPa)
#
#
# Indices 1 2 3 4 5 6 
#
# 1 130.1315 26.3046 49.1047 0.0000 -23.0606 0.0000
# 2 26.3046 85.7198 28.0044 0.0000 -10.5157 0.0000
# 3 49.1047 28.0044 113.2309 0.0000 1.1344 0.0000
# 4 0.0000 0.0000 0.0000 37.9177 0.0000 6.8298
# 5 -23.0606 -10.5157 1.1344 0.0000 32.1494 0.0000
# 6 0.0000 0.0000 0.0000 6.8298 0.0000 48.6996
#
#
#
# Elastic Compliance Matrix: (Units=1/GPa)
#
#
# Indices 1 2 3 4 5 6 
#
# 1 0.010982 -0.000913 -0.004614 0.000000 0.007742 0.000000
# 2 -0.000913 0.013380 -0.002952 0.000000 0.003826 0.000000
# 3 -0.004614 -0.002952 0.011610 0.000000 -0.004685 0.000000
# 4 0.000000 0.000000 0.000000 0.027056 0.000000 -0.003794
# 5 0.007742 0.003826 -0.004685 0.000000 0.038075 0.000000
# 6 0.000000 0.000000 0.000000 -0.003794 0.000000 0.021066
#
#
# Mechanical properties :
#
#
# Convention : Reuss Voigt Hill
#
# Bulk Modulus (GPa) = 52.59343 59.54553 56.06948
# Shear Modulus (GPa) = 34.37278 38.79791 36.58535
#
# Velocity S-wave (km/s) = 3.75818 3.99277 3.87725
# Velocity P-wave (km/s) = 6.35946 6.76193 6.56378
#
# Compressibility (1/GPa) = 0.01901378
#
# Stress axis : x y z
#
# Youngs Moduli (GPa) = 91.05636 74.74065 86.13591
#
# Poissons Ratio (x) = 0.06823 0.39747
# Poissons Ratio (y) = 0.08312 0.25423
# Poissons Ratio (z) = 0.42017 0.22060
#
# Static dielectric constant tensor:
#      x y z
#    x 1.922100 0.000000 0.032530 
#    y 0.000000 2.075460 0.000000 
#    z 0.032530 0.000000 1.855910 
# 
# From -- ./inp_files/31794.got.cif
#   From: 2010.05.17/outbox.cif.g08.bks.cpg/sg14_16_cif.got.tgz:31794.got - 2010.06.03 17:49:19.
