data_PCOD9247641
_publ_section_title
;
Structure prediction by ZEFSAII (Michael W. Deem and Ramdas Pophale) SiO2 
 PCOD9247641
Probable space group: P 21/C
;
_chemical_formula_sum "Si O2"
_cell_formula_units_Z 28
_cell_length_a 6.713098
_cell_length_b 23.633041
_cell_length_c 8.795516
_cell_angle_alpha 90.000000
_cell_angle_beta 120.987528
_cell_angle_gamma 90.000000
_cell_volume 1196.261988
_symmetry_space_group_name_H-M "P 21/C"
_symmetry_group_IT_number 14
_symmetry_cell_setting 'monoclinic'
loop_
_space_group_symop_operation_xyz
x,y,z
-x,1/2+y,1/2-z
-x,-y,-z
x,1/2-y,1/2+z
loop_
_atom_site_type_symbol
_atom_site_label
_atom_site_fract_x
_atom_site_fract_y
_atom_site_fract_z
Si Si1 0.561485 0.949217 0.672833
Si Si2 0.545540 0.943409 0.193068
Si Si3 0.464799 0.634662 0.399069
Si Si4 0.027782 0.324463 0.364555
Si Si5 0.932782 0.428175 0.132233
Si Si6 0.967342 0.291741 0.692577
Si Si7 0.197118 0.380887 0.967551
O O1 0.522408 0.894710 0.763464
O O2 0.768861 0.929406 0.645562
O O3 0.314884 0.957641 0.487965
O O4 0.587521 0.003992 0.787783
O O5 0.816884 0.960499 0.258827
O O6 0.590299 0.893098 0.333647
O O7 0.423583 0.916577 0.000900
O O8 0.697631 0.665857 0.543762
O O9 0.258322 0.678237 0.327934
O O10 0.923341 0.383908 0.266620
O O11 0.980016 0.306940 0.519554
O O12 0.958474 0.274247 0.224280
O O13 0.982405 0.393837 0.994446
O O14 0.173240 0.321923 0.871237
#
# Coordination Sequence:
#
# PCOD9247641 Si02
#       7
#     4   4   4   4   4   4   4
#     4  12  20  40  67  91 131 172 200 259 312 359
#     4   9  22  41  61  95 131 164 212 253 305 373
#     4  11  24  43  65  93 127 164 209 264 305 374
#     4  11  26  44  65  91 124 162 209 263 314 374
#     4   9  22  39  62  93 124 164 208 253 304 372
#     4  12  25  44  66  91 124 164 210 259 321 371
#     4  10  22  39  62  96 126 159 214 252 300 385
#
# _framework density 23.406244000000001
#
# number of rings (size 3 to 8) (size 9 to 14) (size 15 to 20)
#    0.857    0.571    2.857    2.143    2.000    2.286 
#    0.000    0.714    0.000    0.000    0.000    0.000 
#    0.000    0.000    0.000    0.000    0.000    0.000 
#
# Total GULP energy -156362.337178 kJ/mol
# GULP energy per Si atom -5584.369185 kJ/mol
# Density = 2.335297 g / cm^3
# Si number density = 23.406244 Si / 1000 Ang^3
#
#
#
# Elastic Constant Matrix: (Units=GPa)
#
#
# Indices 1 2 3 4 5 6 
#
# 1 40.0657 3.3645 22.1046 0.0000 -10.8929 0.0000
# 2 3.3645 48.3567 15.5686 0.0000 -4.1730 0.0000
# 3 22.1046 15.5686 55.9476 0.0000 -18.2395 0.0000
# 4 0.0000 0.0000 0.0000 38.7710 0.0000 -1.7073
# 5 -10.8929 -4.1730 -18.2395 0.0000 31.9313 0.0000
# 6 0.0000 0.0000 0.0000 -1.7073 0.0000 22.2493
#
#
#
# Elastic Compliance Matrix: (Units=1/GPa)
#
#
# Indices 1 2 3 4 5 6 
#
# 1 0.032628 0.001972 -0.011953 0.000000 0.004561 0.000000
# 2 0.001972 0.022850 -0.007305 0.000000 -0.000514 0.000000
# 3 -0.011953 -0.007305 0.028249 0.000000 0.011104 0.000000
# 4 0.000000 0.000000 0.000000 0.025880 0.000000 0.001986
# 5 0.004561 -0.000514 0.011104 0.000000 0.039148 0.000000
# 6 0.000000 0.000000 0.000000 0.001986 0.000000 0.045098
#
#
# Mechanical properties :
#
#
# Convention : Reuss Voigt Hill
#
# Bulk Modulus (GPa) = 20.34404 25.16061 22.75232
# Shear Modulus (GPa) = 20.42395 25.47915 22.95155
#
# Velocity S-wave (km/s) = 2.95716 3.30292 3.13481
# Velocity P-wave (km/s) = 4.51335 5.03175 4.77958
#
# Compressibility (1/GPa) = 0.04915446
#
# Stress axis : x y z
#
# Youngs Moduli (GPa) = 30.64860 43.76365 35.39925
#
# Poissons Ratio (x) = -0.08629 0.42313
# Poissons Ratio (y) = -0.06043 0.25859
# Poissons Ratio (z) = 0.36634 0.31969
#
# Static dielectric constant tensor:
#      x y z
#    x 1.920550 0.000000 -0.001100 
#    y 0.000000 1.880000 0.000000 
#    z -0.001100 0.000000 1.933950 
# 
# From -- ./inp_files/10909.got.cif
#   From: 2010.05.17/outbox.cif.g08.bks.cpg/sg14_6_cif.got.tgz:10909.got - 2010.06.03 17:49:19.
