data_PCOD9247211
_publ_section_title
;
Structure prediction by ZEFSAII (Michael W. Deem and Ramdas Pophale) SiO2 
 PCOD9247211
Probable space group: P 21/C
;
_chemical_formula_sum "Si O2"
_cell_formula_units_Z 28
_cell_length_a 12.012832
_cell_length_b 14.050772
_cell_length_c 8.275456
_cell_angle_alpha 90.000000
_cell_angle_beta 56.540309
_cell_angle_gamma 90.000000
_cell_volume 1165.322656
_symmetry_space_group_name_H-M "P 21/C"
_symmetry_group_IT_number 14
_symmetry_cell_setting 'monoclinic'
loop_
_space_group_symop_operation_xyz
x,y,z
-x,1/2+y,1/2-z
-x,-y,-z
x,1/2-y,1/2+z
loop_
_atom_site_type_symbol
_atom_site_label
_atom_site_fract_x
_atom_site_fract_y
_atom_site_fract_z
Si Si1 0.116811 0.725523 0.872225
Si Si2 0.182306 0.617317 0.522834
Si Si3 0.263482 0.914836 0.464800
Si Si4 0.439709 0.598052 0.119991
Si Si5 0.695106 0.636723 0.092944
Si Si6 0.841446 0.786910 0.775371
Si Si7 0.022916 0.053445 0.153144
O O1 0.141698 0.706650 0.665650
O O2 0.125414 0.836958 0.903041
O O3 0.237615 0.662660 0.848067
O O4 0.972594 0.700077 0.058178
O O5 0.329054 0.587041 0.349862
O O6 0.111081 0.530436 0.665861
O O7 0.360158 0.869248 0.523303
O O8 0.115142 0.938464 0.644987
O O9 0.309630 0.021945 0.383339
O O10 0.556925 0.658217 0.108877
O O11 0.500000 0.500000 0.000000
O O12 0.724311 0.680037 0.246700
O O13 0.804813 0.684230 0.882126
O O14 0.880522 0.855491 0.896179
O O15 0.000000 0.000000 0.000000
#
# Coordination Sequence:
#
# PCOD9247211 Si02
#       7
#     4   4   4   4   4   4   4
#     4  11  24  40  70 103 135 175 233 302 358 417
#     4  12  24  42  68 103 140 182 235 293 362 419
#     4  10  21  45  69  99 138 180 235 293 354 418
#     4  10  24  45  67  95 135 189 232 281 341 427
#     4  11  25  43  66  95 144 182 235 282 348 436
#     4  11  25  42  67 106 139 186 235 298 370 428
#     4  11  23  40  72 102 134 175 232 300 371 414
#
# _framework density 24.027678999999999
#
# number of rings (size 3 to 8) (size 9 to 14) (size 15 to 20)
#    0.000    1.143    1.429    4.286    6.000    4.571 
#    0.000    7.857    0.000    0.000    0.000    0.000 
#    0.000    0.000    0.000    0.000    0.000    0.000 
#
# Total GULP energy -155987.254960 kJ/mol
# GULP energy per Si atom -5570.973391 kJ/mol
# Density = 2.397299 g / cm^3
# Si number density = 24.027679 Si / 1000 Ang^3
#
#
#
# Elastic Constant Matrix: (Units=GPa)
#
#
# Indices 1 2 3 4 5 6 
#
# 1 128.5907 3.0534 7.7392 0.0000 10.8534 0.0000
# 2 3.0534 74.7519 -3.0399 0.0000 7.1774 0.0000
# 3 7.7392 -3.0399 53.6092 0.0000 0.9834 0.0000
# 4 0.0000 0.0000 0.0000 30.1764 0.0000 6.0377
# 5 10.8534 7.1774 0.9834 0.0000 30.6172 0.0000
# 6 0.0000 0.0000 0.0000 6.0377 0.0000 31.5118
#
#
#
# Elastic Compliance Matrix: (Units=1/GPa)
#
#
# Indices 1 2 3 4 5 6 
#
# 1 0.008083 -0.000107 -0.001122 0.000000 -0.002804 0.000000
# 2 -0.000107 0.013725 0.000852 0.000000 -0.003207 0.000000
# 3 -0.001122 0.000852 0.018871 0.000000 -0.000408 0.000000
# 4 0.000000 0.000000 0.000000 0.034460 0.000000 -0.006603
# 5 -0.002804 -0.003207 -0.000408 0.000000 0.034420 0.000000
# 6 0.000000 0.000000 0.000000 -0.006603 0.000000 0.032999
#
#
# Mechanical properties :
#
#
# Convention : Reuss Voigt Hill
#
# Bulk Modulus (GPa) = 25.04514 30.27302 27.65908
# Shear Modulus (GPa) = 31.92464 35.07434 33.49949
#
# Velocity S-wave (km/s) = 3.64903 3.82481 3.73796
# Velocity P-wave (km/s) = 5.31037 5.66852 5.49237
#
# Compressibility (1/GPa) = 0.03992791
#
# Stress axis : x y z
#
# Youngs Moduli (GPa) = 123.71121 72.86222 52.99067
#
# Poissons Ratio (x) = 0.00776 0.05943
# Poissons Ratio (y) = 0.01318 -0.04517
# Poissons Ratio (z) = 0.13875 -0.06211
#
# Static dielectric constant tensor:
#      x y z
#    x 2.164860 0.000000 0.057550 
#    y 0.000000 1.999000 0.000000 
#    z 0.057550 0.000000 1.908550 
# 
# From -- ./inp_files/13249.got.cif
#   From: 2010.05.17/outbox.cif.g08.bks.cpg/sg14_7_cif.got.tgz:13249.got - 2010.06.03 17:49:19.
