data_PCOD9247081
_publ_section_title
;
Structure prediction by ZEFSAII (Michael W. Deem and Ramdas Pophale) SiO2 
 PCOD9247081
Probable space group: P 21/C
;
_chemical_formula_sum "Si O2"
_cell_formula_units_Z 24
_cell_length_a 5.262971
_cell_length_b 18.019468
_cell_length_c 11.354488
_cell_angle_alpha 90.000000
_cell_angle_beta 97.240977
_cell_angle_gamma 90.000000
_cell_volume 1068.225724
_symmetry_space_group_name_H-M "P 21/C"
_symmetry_group_IT_number 14
_symmetry_cell_setting 'monoclinic'
loop_
_space_group_symop_operation_xyz
x,y,z
-x,1/2+y,1/2-z
-x,-y,-z
x,1/2-y,1/2+z
loop_
_atom_site_type_symbol
_atom_site_label
_atom_site_fract_x
_atom_site_fract_y
_atom_site_fract_z
Si Si1 0.252952 0.412678 0.430761
Si Si2 0.301261 0.062504 0.386812
Si Si3 0.411460 0.936250 0.828377
Si Si4 0.265641 0.659723 0.670817
Si Si5 0.905537 0.328853 0.842191
Si Si6 0.750439 0.408945 0.074832
O O1 0.367756 0.412892 0.568373
O O2 0.264237 0.496355 0.381637
O O3 0.458604 0.363882 0.366393
O O4 0.964013 0.384452 0.406644
O O5 0.470079 0.035556 0.286745
O O6 0.461088 0.075265 0.514258
O O7 0.195117 0.142730 0.341261
O O8 0.124538 0.989925 0.393796
O O9 0.239915 0.868436 0.774103
O O10 0.186753 0.745424 0.654394
O O11 0.248177 0.637985 0.807030
O O12 0.859264 0.367471 0.966969
#
# Coordination Sequence:
#
# PCOD9247081 Si02
#       6
#     4   4   4   4   4   4
#     4  11  27  47  70 103 139 190 228 289 341 418
#     4  10  21  43  72 102 130 184 235 291 335 413
#     4  10  24  44  74  99 136 183 244 278 341 415
#     4  12  28  44  69 103 146 182 227 288 361 406
#     4  11  26  40  71 101 138 187 226 296 347 413
#     4  10  23  43  68  99 137 179 233 286 340 417
#
# _framework density 22.467161999999998
#
# number of rings (size 3 to 8) (size 9 to 14) (size 15 to 20)
#    0.000    1.333    1.667    1.500   11.667    1.333 
#    0.000    0.000    0.000    0.000    0.000    0.000 
#    0.000    0.000    0.000    0.000    0.000    0.000 
#
# Total GULP energy -134024.548071 kJ/mol
# GULP energy per Si atom -5584.356170 kJ/mol
# Density = 2.241603 g / cm^3
# Si number density = 22.467162 Si / 1000 Ang^3
#
#
#
# Elastic Constant Matrix: (Units=GPa)
#
#
# Indices 1 2 3 4 5 6 
#
# 1 34.0792 -5.9630 -5.0619 0.0000 2.3130 0.0000
# 2 -5.9630 93.6742 20.5835 0.0000 -2.5264 0.0000
# 3 -5.0619 20.5835 112.4580 0.0000 16.7684 0.0000
# 4 0.0000 0.0000 0.0000 33.6343 0.0000 8.8544
# 5 2.3130 -2.5264 16.7684 0.0000 20.9430 0.0000
# 6 0.0000 0.0000 0.0000 8.8544 0.0000 25.7848
#
#
#
# Elastic Compliance Matrix: (Units=1/GPa)
#
#
# Indices 1 2 3 4 5 6 
#
# 1 0.030166 0.001404 0.001785 0.000000 -0.004592 0.000000
# 2 0.001404 0.011402 -0.002505 0.000000 0.003226 0.000000
# 3 0.001785 -0.002505 0.010794 0.000000 -0.009142 0.000000
# 4 0.000000 0.000000 0.000000 0.032686 0.000000 -0.011224
# 5 -0.004592 0.003226 -0.009142 0.000000 0.055965 0.000000
# 6 0.000000 0.000000 0.000000 -0.011224 0.000000 0.042637
#
#
# Mechanical properties :
#
#
# Convention : Reuss Voigt Hill
#
# Bulk Modulus (GPa) = 18.61096 28.81430 23.71263
# Shear Modulus (GPa) = 24.97614 31.44927 28.21271
#
# Velocity S-wave (km/s) = 3.33779 3.74543 3.54747
# Velocity P-wave (km/s) = 4.81208 5.61759 5.23036
#
# Compressibility (1/GPa) = 0.05373177
#
# Stress axis : x y z
#
# Youngs Moduli (GPa) = 33.15000 87.70347 92.64263
#
# Poissons Ratio (x) = -0.12314 -0.16541
# Poissons Ratio (y) = -0.04655 0.23205
# Poissons Ratio (z) = -0.05919 0.21968
#
# Static dielectric constant tensor:
#      x y z
#    x 1.992000 0.000000 0.018580 
#    y 0.000000 1.873640 0.000000 
#    z 0.018580 0.000000 1.775310 
# 
# From -- ./inp_files/21185.got.cif
#   From: 2010.05.17/outbox.cif.g08.bks.cpg/sg14_11_cif.got.tgz:21185.got - 2010.06.03 17:49:19.
