data_PCOD9247342
_publ_section_title
;
Structure prediction by ZEFSAII (Michael W. Deem and Ramdas Pophale) SiO2 
 PCOD9247342
Probable space group: P 21/C
;
_chemical_formula_sum "Si O2"
_cell_formula_units_Z 30
_cell_length_a 8.344093
_cell_length_b 24.482808
_cell_length_c 13.832905
_cell_angle_alpha 90.000000
_cell_angle_beta 30.359405
_cell_angle_gamma 90.000000
_cell_volume 1428.263561
_symmetry_space_group_name_H-M "P 21/C"
_symmetry_group_IT_number 14
_symmetry_cell_setting 'monoclinic'
loop_
_space_group_symop_operation_xyz
x,y,z
-x,1/2+y,1/2-z
-x,-y,-z
x,1/2-y,1/2+z
loop_
_atom_site_type_symbol
_atom_site_label
_atom_site_fract_x
_atom_site_fract_y
_atom_site_fract_z
Si Si1 0.000000 0.500000 0.000000
Si Si2 0.750259 0.665905 0.818169
Si Si3 0.822183 0.673858 0.145430
Si Si4 0.279426 0.403821 0.979535
Si Si5 0.955133 0.039819 0.157098
Si Si6 0.281760 0.753435 0.495742
Si Si7 0.648069 0.567394 0.730825
Si Si8 0.071231 0.436171 0.817840
O O1 0.280515 0.469631 0.784143
O O2 0.067685 0.454040 0.053863
O O3 0.431633 0.702663 0.991912
O O4 0.709920 0.626602 0.745333
O O5 0.022914 0.711260 0.669832
O O6 0.809555 0.623845 0.873109
O O7 0.756044 0.642939 0.081861
O O8 0.551947 0.715580 0.313152
O O9 0.852192 0.627018 0.211719
O O10 0.137746 0.709505 0.985611
O O11 0.639168 0.424360 0.804283
O O12 0.041984 0.045200 0.224515
O O13 0.841388 0.978578 0.189537
O O14 0.222798 0.061673 0.944563
O O15 0.265219 0.554102 0.942876
#
# Coordination Sequence:
#
# PCOD9247342 Si02
#       8
#     2   4   4   4   4   4   4   4
#     4  10  22  36  64  88 130 166 208 258 330 388
#     4  11  22  41  66  90 128 171 219 268 331 377
#     4  10  22  39  62  86 123 160 208 266 322 369
#     4  11  21  38  63  93 124 166 208 264 324 395
#     4  11  22  37  66  95 127 168 215 252 326 395
#     4  10  22  42  61  87 122 168 217 276 315 386
#     4  11  21  37  64  94 125 167 210 261 314 392
#     4  11  20  42  61  90 127 170 202 268 316 384
#
# _framework density 21.004525999999998
#
# number of rings (size 3 to 8) (size 9 to 14) (size 15 to 20)
#    0.000    1.333    4.000    2.000    0.000    1.067 
#    4.800    6.000    0.000    0.000    0.000    0.000 
#    0.000    0.000    0.000    0.000    0.000    0.000 
#
# Total GULP energy -167105.652640 kJ/mol
# GULP energy per Si atom -5570.188421 kJ/mol
# Density = 2.095672 g / cm^3
# Si number density = 21.004526 Si / 1000 Ang^3
#
#
#
# Elastic Constant Matrix: (Units=GPa)
#
#
# Indices 1 2 3 4 5 6 
#
# 1 99.6936 52.7098 37.5551 0.0000 24.3188 0.0000
# 2 52.7098 134.9190 25.4095 0.0000 4.4412 0.0000
# 3 37.5551 25.4095 25.3965 0.0000 15.4146 0.0000
# 4 0.0000 0.0000 0.0000 21.2728 0.0000 2.5553
# 5 24.3188 4.4412 15.4146 0.0000 26.3038 0.0000
# 6 0.0000 0.0000 0.0000 2.5553 0.0000 31.2140
#
#
#
# Elastic Compliance Matrix: (Units=1/GPa)
#
#
# Indices 1 2 3 4 5 6 
#
# 1 0.024107 -0.003796 -0.029040 0.000000 -0.004628 0.000000
# 2 -0.003796 0.010365 -0.009040 0.000000 0.007058 0.000000
# 3 -0.029040 -0.009040 0.115071 0.000000 -0.039059 0.000000
# 4 0.000000 0.000000 0.000000 0.047475 0.000000 -0.003887
# 5 -0.004628 0.007058 -0.039059 0.000000 0.063994 0.000000
# 6 0.000000 0.000000 0.000000 -0.003887 0.000000 0.032355
#
#
# Mechanical properties :
#
#
# Convention : Reuss Voigt Hill
#
# Bulk Modulus (GPa) = 15.20013 54.59534 34.89773
# Shear Modulus (GPa) = 12.52973 25.38043 18.95508
#
# Velocity S-wave (km/s) = 2.44504 3.47988 3.00730
# Velocity P-wave (km/s) = 3.90170 6.49574 5.35807
#
# Compressibility (1/GPa) = 0.06578892
#
# Stress axis : x y z
#
# Youngs Moduli (GPa) = 41.48258 96.47592 8.69027
#
# Poissons Ratio (x) = 0.36625 0.25237
# Poissons Ratio (y) = 0.15748 0.07856
# Poissons Ratio (z) = 1.20466 0.87219
#
# Static dielectric constant tensor:
#      x y z
#    x 1.144250 0.000000 0.090820 
#    y 0.000000 1.304460 0.000000 
#    z 0.090820 0.000000 1.754680 
# 
# From -- ./inp_files/42188.got.cif
#   From: 2010.05.17/outbox.cif.g08.bks.cpg/sg14_22_cif.got.tgz:42188.got - 2010.06.03 17:49:19.
