data_PCOD9247019
_publ_section_title
;
Structure prediction by ZEFSAII (Michael W. Deem and Ramdas Pophale) SiO2 
 PCOD9247019
Probable space group: P 21/C
;
_chemical_formula_sum "Si O2"
_cell_formula_units_Z 28
_cell_length_a 12.407133
_cell_length_b 5.175177
_cell_length_c 20.341831
_cell_angle_alpha 90.000000
_cell_angle_beta 86.595590
_cell_angle_gamma 90.000000
_cell_volume 1303.825870
_symmetry_space_group_name_H-M "P 21/C"
_symmetry_group_IT_number 14
_symmetry_cell_setting 'monoclinic'
loop_
_space_group_symop_operation_xyz
x,y,z
-x,1/2+y,1/2-z
-x,-y,-z
x,1/2-y,1/2+z
loop_
_atom_site_type_symbol
_atom_site_label
_atom_site_fract_x
_atom_site_fract_y
_atom_site_fract_z
Si Si1 0.901660 0.313988 0.987619
Si Si2 0.702283 0.066918 0.570260
Si Si3 0.224828 0.226563 0.309093
Si Si4 0.560128 0.934504 0.065185
Si Si5 0.462273 0.036387 0.789305
Si Si6 0.947411 0.782120 0.280155
Si Si7 0.030208 0.001585 0.893716
O O1 0.791182 0.454205 0.009642
O O2 0.911767 0.091525 0.042367
O O3 0.000000 0.500000 0.000000
O O4 0.931279 0.186918 0.917499
O O5 0.652938 0.350060 0.568823
O O6 0.750297 0.008387 0.641444
O O7 0.611635 0.850006 0.562099
O O8 0.336142 0.381687 0.297686
O O9 0.171197 0.191904 0.239353
O O10 0.125916 0.369610 0.349133
O O11 0.496376 0.958553 0.136658
O O12 0.500000 0.000000 0.000000
O O13 0.519996 0.257928 0.744017
O O14 0.025016 0.576624 0.238962
O O15 0.977929 0.729074 0.354115
#
# Coordination Sequence:
#
# PCOD9247019 Si02
#       7
#     4   4   4   4   4   4   4
#     4  11  21  36  62  95 136 166 216 258 312 382
#     4  11  22  40  70  97 125 174 215 259 331 392
#     4  10  21  43  67  89 125 176 213 254 324 396
#     4  11  25  47  73  94 130 172 224 277 338 397
#     4  11  24  43  69  98 127 167 221 279 331 389
#     4  10  22  38  61  91 125 162 214 256 305 378
#     4  10  22  38  61  93 133 176 208 261 312 390
#
# _framework density 21.475261
#
# number of rings (size 3 to 8) (size 9 to 14) (size 15 to 20)
#    0.000    1.429    1.429    4.714    4.000    4.571 
#    2.571    1.429    3.143    0.000    0.000    0.000 
#    0.000    0.000    0.000    0.000    0.000    0.000 
#
# Total GULP energy -156297.550717 kJ/mol
# GULP energy per Si atom -5582.055383 kJ/mol
# Density = 2.142638 g / cm^3
# Si number density = 21.475261 Si / 1000 Ang^3
#
#
#
# Elastic Constant Matrix: (Units=GPa)
#
#
# Indices 1 2 3 4 5 6 
#
# 1 60.8939 -10.9740 26.3902 0.0000 13.0804 0.0000
# 2 -10.9740 41.8616 7.4278 0.0000 -4.6292 0.0000
# 3 26.3902 7.4278 90.2038 0.0000 -0.9545 0.0000
# 4 0.0000 0.0000 0.0000 38.1581 0.0000 -3.4951
# 5 13.0804 -4.6292 -0.9545 0.0000 35.4783 0.0000
# 6 0.0000 0.0000 0.0000 -3.4951 0.0000 31.8917
#
#
#
# Elastic Compliance Matrix: (Units=1/GPa)
#
#
# Indices 1 2 3 4 5 6 
#
# 1 0.022259 0.006258 -0.007108 0.000000 -0.007581 0.000000
# 2 0.006258 0.026350 -0.003990 0.000000 0.001024 0.000000
# 3 -0.007108 -0.003990 0.013520 0.000000 0.002464 0.000000
# 4 0.000000 0.000000 0.000000 0.026472 0.000000 0.002901
# 5 -0.007581 0.001024 0.002464 0.000000 0.031181 0.000000
# 6 0.000000 0.000000 0.000000 0.002901 0.000000 0.031674
#
#
# Mechanical properties :
#
#
# Convention : Reuss Voigt Hill
#
# Bulk Modulus (GPa) = 19.06594 26.51636 22.79115
# Shear Modulus (GPa) = 27.99270 32.44665 30.21967
#
# Velocity S-wave (km/s) = 3.61430 3.89123 3.75532
# Velocity P-wave (km/s) = 5.12981 5.70641 5.42577
#
# Compressibility (1/GPa) = 0.05244954
#
# Stress axis : x y z
#
# Youngs Moduli (GPa) = 44.92665 37.95091 73.96456
#
# Poissons Ratio (x) = -0.23749 0.52570
# Poissons Ratio (y) = -0.28114 0.29510
# Poissons Ratio (z) = 0.31932 0.15141
#
# Static dielectric constant tensor:
#      x y z
#    x 1.805750 0.000000 0.029700 
#    y 0.000000 1.823030 0.000000 
#    z 0.029700 0.000000 1.887930 
# 
# From -- ./inp_files/66462.got.cif
#   From: 2010.05.17/outbox.cif.g08.bks.cpg/sg14_34_cif.got.tgz:66462.got - 2010.06.03 17:49:19.
