data_PCOD9247079
_publ_section_title
;
Structure prediction by ZEFSAII (Michael W. Deem and Ramdas Pophale) SiO2 
 PCOD9247079
Probable space group: P 21/C
;
_chemical_formula_sum "Si O2"
_cell_formula_units_Z 30
_cell_length_a 9.714187
_cell_length_b 5.055280
_cell_length_c 27.998513
_cell_angle_alpha 90.000000
_cell_angle_beta 115.047285
_cell_angle_gamma 90.000000
_cell_volume 1245.647158
_symmetry_space_group_name_H-M "P 21/C"
_symmetry_group_IT_number 14
_symmetry_cell_setting 'monoclinic'
loop_
_space_group_symop_operation_xyz
x,y,z
-x,1/2+y,1/2-z
-x,-y,-z
x,1/2-y,1/2+z
loop_
_atom_site_type_symbol
_atom_site_label
_atom_site_fract_x
_atom_site_fract_y
_atom_site_fract_z
Si Si1 0.147477 0.109355 0.343166
Si Si2 0.500000 0.500000 0.000000
Si Si3 0.545648 0.145895 0.593361
Si Si4 0.982475 0.682854 0.375113
Si Si5 0.355882 0.527071 0.245926
Si Si6 0.636842 0.725149 0.342592
Si Si7 0.151289 0.025131 0.240262
Si Si8 0.281063 0.454462 0.438887
O O1 0.240846 0.351770 0.379471
O O2 0.294528 0.914515 0.359040
O O3 0.077247 0.091604 0.280414
O O4 0.036274 0.975016 0.365726
O O5 0.470044 0.590725 0.052793
O O6 0.657025 0.706210 0.023641
O O7 0.435954 0.260061 0.616113
O O8 0.600446 0.297847 0.551091
O O9 0.814175 0.657462 0.370907
O O10 0.965434 0.533149 0.321104
O O11 0.116746 0.572185 0.427859
O O12 0.520785 0.549646 0.294034
O O13 0.366261 0.493379 0.190083
O O14 0.252992 0.767464 0.248274
O O15 0.267628 0.266794 0.249626
#
# Coordination Sequence:
#
# PCOD9247079 Si02
#       8
#     4   2   4   4   4   4   4   4
#     4  10  22  39  60  94 128 180 224 271 329 398
#     4  10  22  44  74 100 118 168 236 308 350 412
#     4  10  21  43  71  97 124 169 231 284 348 406
#     4  10  25  36  59  94 137 174 217 276 342 405
#     4  11  24  41  62  96 141 190 238 265 328 414
#     4  11  22  42  63  97 138 185 224 278 336 420
#     4  11  24  41  63  94 141 192 233 276 322 411
#     4  10  22  43  68  95 131 168 226 292 348 415
#
# _framework density 24.083864999999999
#
# number of rings (size 3 to 8) (size 9 to 14) (size 15 to 20)
#    0.000    1.600    1.333    2.800    7.467    0.000 
#    9.600    0.667    0.000    8.000    0.000    0.000 
#    0.000    0.000    0.000    0.000    0.000    0.000 
#
# Total GULP energy -167052.382198 kJ/mol
# GULP energy per Si atom -5568.412740 kJ/mol
# Density = 2.402905 g / cm^3
# Si number density = 24.083865 Si / 1000 Ang^3
#
#
#
# Elastic Constant Matrix: (Units=GPa)
#
#
# Indices 1 2 3 4 5 6 
#
# 1 140.3211 12.8654 47.2015 0.0000 30.8805 0.0000
# 2 12.8654 93.8873 -4.7099 0.0000 15.6293 0.0000
# 3 47.2015 -4.7099 93.7775 0.0000 22.2119 0.0000
# 4 0.0000 0.0000 0.0000 30.4996 0.0000 6.7145
# 5 30.8805 15.6293 22.2119 0.0000 36.5883 0.0000
# 6 0.0000 0.0000 0.0000 6.7145 0.0000 20.9891
#
#
#
# Elastic Compliance Matrix: (Units=1/GPa)
#
#
# Indices 1 2 3 4 5 6 
#
# 1 0.009623 -0.000535 -0.003505 0.000000 -0.005766 0.000000
# 2 -0.000535 0.011836 0.002282 0.000000 -0.005990 0.000000
# 3 -0.003505 0.002282 0.014100 0.000000 -0.006577 0.000000
# 4 0.000000 0.000000 0.000000 0.035271 0.000000 -0.011284
# 5 -0.005766 -0.005990 -0.006577 0.000000 0.038749 0.000000
# 6 0.000000 0.000000 0.000000 -0.011284 0.000000 0.051253
#
#
# Mechanical properties :
#
#
# Convention : Reuss Voigt Hill
#
# Bulk Modulus (GPa) = 31.20599 48.74444 39.97522
# Shear Modulus (GPa) = 28.56660 35.79065 32.17863
#
# Velocity S-wave (km/s) = 3.44776 3.85916 3.65925
# Velocity P-wave (km/s) = 5.36980 6.33568 5.87263
#
# Compressibility (1/GPa) = 0.03204513
#
# Stress axis : x y z
#
# Youngs Moduli (GPa) = 103.91255 84.48781 70.92172
#
# Poissons Ratio (x) = 0.04517 0.24858
# Poissons Ratio (y) = 0.05556 -0.16187
# Poissons Ratio (z) = 0.36421 -0.19284
#
# Static dielectric constant tensor:
#      x y z
#    x 1.978530 0.000000 0.104900 
#    y 0.000000 2.631420 0.000000 
#    z 0.104900 0.000000 2.292390 
# 
# From -- ./inp_files/79152.got.cif
#   From: 2010.05.17/outbox.cif.g08.bks.cpg/sg14_40_cif.got.tgz:79152.got - 2010.06.03 17:49:19.
