data_PCOD9247364
_publ_section_title
;
Structure prediction by ZEFSAII (Michael W. Deem and Ramdas Pophale) SiO2 
 PCOD9247364
Probable space group: P 21/C
;
_chemical_formula_sum "Si O2"
_cell_formula_units_Z 28
_cell_length_a 13.224855
_cell_length_b 9.415984
_cell_length_c 11.149303
_cell_angle_alpha 90.000000
_cell_angle_beta 123.733675
_cell_angle_gamma 90.000000
_cell_volume 1154.604875
_symmetry_space_group_name_H-M "P 21/C"
_symmetry_group_IT_number 14
_symmetry_cell_setting 'monoclinic'
loop_
_space_group_symop_operation_xyz
x,y,z
-x,1/2+y,1/2-z
-x,-y,-z
x,1/2-y,1/2+z
loop_
_atom_site_type_symbol
_atom_site_label
_atom_site_fract_x
_atom_site_fract_y
_atom_site_fract_z
Si Si1 0.578428 0.059531 0.369161
Si Si2 0.026687 0.244842 0.519268
Si Si3 0.480320 0.192589 0.517807
Si Si4 0.702146 0.156540 0.233500
Si Si5 0.859029 0.481560 0.481433
Si Si6 0.955673 0.026895 0.303298
Si Si7 0.390642 0.484999 0.548410
O O1 0.502095 0.179508 0.389566
O O2 0.690876 0.117629 0.366822
O O3 0.499161 0.990658 0.212051
O O4 0.592207 0.943537 0.480641
O O5 0.122578 0.373698 0.580540
O O6 0.901203 0.338553 0.441695
O O7 0.047761 0.144089 0.417024
O O8 0.029152 0.128101 0.626796
O O9 0.619797 0.200751 0.663940
O O10 0.401259 0.321768 0.515548
O O11 0.831314 0.100870 0.270500
O O12 0.618507 0.070275 0.080941
O O13 0.948605 0.487391 0.656808
O O14 0.728676 0.479834 0.454472
#
# Coordination Sequence:
#
# PCOD9247364 Si02
#       7
#     4   4   4   4   4   4   4
#     4  10  22  37  57  87 122 158 207 246 294 369
#     4  10  22  40  64  90 118 164 198 264 322 368
#     4  10  22  37  57  85 120 160 199 248 298 357
#     4  10  23  36  61  84 119 161 196 249 305 358
#     4  10  22  40  63  90 122 156 209 255 317 375
#     4  10  22  40  63  90 122 156 209 255 317 375
#     4  10  23  36  61  84 119 161 196 249 305 358
#
# _framework density 24.250720000000001
#
# number of rings (size 3 to 8) (size 9 to 14) (size 15 to 20)
#    0.000    2.000    0.000    2.571   12.000    2.286 
#    0.000    0.000    0.000    0.000    0.000    0.000 
#    0.000    0.000    0.000    0.000    0.000    0.000 
#
# Total GULP energy -156009.276017 kJ/mol
# GULP energy per Si atom -5571.759858 kJ/mol
# Density = 2.419552 g / cm^3
# Si number density = 24.250720 Si / 1000 Ang^3
#
#
#
# Elastic Constant Matrix: (Units=GPa)
#
#
# Indices 1 2 3 4 5 6 
#
# 1 91.9100 11.0951 3.5528 0.0000 -27.2158 0.0000
# 2 11.0951 149.3110 27.6754 0.0000 -17.3143 0.0000
# 3 3.5528 27.6754 31.2722 0.0000 -19.0881 0.0000
# 4 0.0000 0.0000 0.0000 14.2695 0.0000 -13.4263
# 5 -27.2158 -17.3143 -19.0881 0.0000 32.2067 0.0000
# 6 0.0000 0.0000 0.0000 -13.4263 0.0000 27.3042
#
#
#
# Elastic Compliance Matrix: (Units=1/GPa)
#
#
# Indices 1 2 3 4 5 6 
#
# 1 0.016517 -0.000984 0.011267 0.000000 0.020106 0.000000
# 2 -0.000984 0.008071 -0.007662 0.000000 -0.001034 0.000000
# 3 0.011267 -0.007662 0.063887 0.000000 0.043266 0.000000
# 4 0.000000 0.000000 0.000000 0.130422 0.000000 0.064132
# 5 0.020106 -0.001034 0.043266 0.000000 0.073127 0.000000
# 6 0.000000 0.000000 0.000000 0.064132 0.000000 0.068160
#
#
# Mechanical properties :
#
#
# Convention : Reuss Voigt Hill
#
# Bulk Modulus (GPa) = 10.67037 39.68220 25.17628
# Shear Modulus (GPa) = 12.94731 30.10074 21.52403
#
# Velocity S-wave (km/s) = 2.31312 3.52693 2.98243
# Velocity P-wave (km/s) = 3.39759 5.74321 4.71848
#
# Compressibility (1/GPa) = 0.09371748
#
# Stress axis : x y z
#
# Youngs Moduli (GPa) = 60.54271 123.90301 15.65263
#
# Poissons Ratio (x) = 0.12195 -0.17636
# Poissons Ratio (y) = 0.05959 0.11993
# Poissons Ratio (z) = -0.68214 0.94931
#
# Static dielectric constant tensor:
#      x y z
#    x 2.006890 0.000000 0.080780 
#    y 0.000000 2.062320 0.000000 
#    z 0.080780 0.000000 2.004990 
# 
# From -- ./inp_files/31647.got.cif
#   From: 2010.05.17/outbox.cif.g08.bks.cpg/sg14_16_cif.got.tgz:31647.got - 2010.06.03 17:49:19.
