data_PCOD9247339
_publ_section_title
;
Structure prediction by ZEFSAII (Michael W. Deem and Ramdas Pophale) SiO2 
 PCOD9247339
Probable space group: P 21/C
;
_chemical_formula_sum "Si O2"
_cell_formula_units_Z 24
_cell_length_a 8.146465
_cell_length_b 7.200837
_cell_length_c 15.965118
_cell_angle_alpha 90.000000
_cell_angle_beta 109.803164
_cell_angle_gamma 90.000000
_cell_volume 881.150853
_symmetry_space_group_name_H-M "P 21/C"
_symmetry_group_IT_number 14
_symmetry_cell_setting 'monoclinic'
loop_
_space_group_symop_operation_xyz
x,y,z
-x,1/2+y,1/2-z
-x,-y,-z
x,1/2-y,1/2+z
loop_
_atom_site_type_symbol
_atom_site_label
_atom_site_fract_x
_atom_site_fract_y
_atom_site_fract_z
Si Si1 0.942086 0.967201 0.126023
Si Si2 0.700378 0.291339 0.035510
Si Si3 0.914005 0.957652 0.667325
Si Si4 0.688646 0.894111 0.841165
Si Si5 0.776246 0.513263 0.894694
Si Si6 0.512950 0.750818 0.154424
O O1 0.996194 0.039209 0.227075
O O2 0.125267 0.006075 0.110323
O O3 0.783179 0.090211 0.064750
O O4 0.897002 0.750780 0.128228
O O5 0.741428 0.414178 0.124827
O O6 0.814143 0.406628 0.986448
O O7 0.519851 0.283520 0.951088
O O8 0.066637 0.052368 0.638813
O O9 0.680557 0.707115 0.893617
O O10 0.668274 0.819589 0.740858
O O11 0.537630 0.036804 0.839308
O O12 0.645310 0.366132 0.831150
#
# Coordination Sequence:
#
# PCOD9247339 Si02
#       6
#     4   4   4   4   4   4
#     4  12  24  37  67  86 128 160 204 243 317 356
#     4  10  23  38  60  97 116 160 206 255 294 355
#     4  12  22  41  59  94 122 162 196 258 301 362
#     4  12  21  41  61  93 122 168 193 255 305 361
#     4  10  22  36  63  88 122 150 207 250 293 356
#     4  10  23  36  61  89 123 157 204 247 303 350
#
# _framework density 27.237107000000002
#
# number of rings (size 3 to 8) (size 9 to 14) (size 15 to 20)
#    1.000    0.000    6.667    0.500    2.333    1.333 
#    0.000    0.833    0.000    2.000    0.000    0.000 
#    0.000    0.000    0.000    0.000    0.000    0.000 
#
# Total GULP energy -134107.547322 kJ/mol
# GULP energy per Si atom -5587.814472 kJ/mol
# Density = 2.717511 g / cm^3
# Si number density = 27.237107 Si / 1000 Ang^3
#
#
#
# Elastic Constant Matrix: (Units=GPa)
#
#
# Indices 1 2 3 4 5 6 
#
# 1 40.8310 7.2345 23.1223 0.0000 18.3152 0.0000
# 2 7.2345 184.3168 37.6185 0.0000 15.6285 0.0000
# 3 23.1223 37.6185 136.6922 0.0000 25.0339 0.0000
# 4 0.0000 0.0000 0.0000 59.9465 0.0000 8.8675
# 5 18.3152 15.6285 25.0339 0.0000 40.0598 0.0000
# 6 0.0000 0.0000 0.0000 8.8675 0.0000 17.7752
#
#
#
# Elastic Compliance Matrix: (Units=1/GPa)
#
#
# Indices 1 2 3 4 5 6 
#
# 1 0.031957 0.000483 -0.003194 0.000000 -0.012803 0.000000
# 2 0.000483 0.005828 -0.001387 0.000000 -0.001627 0.000000
# 3 -0.003194 -0.001387 0.008889 0.000000 -0.003553 0.000000
# 4 0.000000 0.000000 0.000000 0.018011 0.000000 -0.008985
# 5 -0.012803 -0.001627 -0.003553 0.000000 0.033672 0.000000
# 6 0.000000 0.000000 0.000000 -0.008985 0.000000 0.060741
#
#
# Mechanical properties :
#
#
# Convention : Reuss Voigt Hill
#
# Bulk Modulus (GPa) = 25.98955 55.31008 40.64982
# Shear Modulus (GPa) = 27.75947 43.14725 35.45336
#
# Velocity S-wave (km/s) = 3.19592 3.98444 3.61176
# Velocity P-wave (km/s) = 4.81469 6.44349 5.68770
#
# Compressibility (1/GPa) = 0.03847700
#
# Stress axis : x y z
#
# Youngs Moduli (GPa) = 31.29168 171.59585 112.50453
#
# Poissons Ratio (x) = -0.08291 0.35933
# Poissons Ratio (y) = -0.01512 0.15610
# Poissons Ratio (z) = 0.09994 0.23809
#
# Static dielectric constant tensor:
#      x y z
#    x 2.197690 0.000000 -0.017260 
#    y 0.000000 2.068590 0.000000 
#    z -0.017260 0.000000 2.203080 
# 
# From -- ./inp_files/57114.got.cif
#   From: 2010.05.17/outbox.cif.g08.bks.cpg/sg14_29_cif.got.tgz:57114.got - 2010.06.03 17:49:19.
