data_PCOD9247286
_publ_section_title
;
Structure prediction by ZEFSAII (Michael W. Deem and Ramdas Pophale) SiO2 
 PCOD9247286
Probable space group: P 21/C
;
_chemical_formula_sum "Si O2"
_cell_formula_units_Z 28
_cell_length_a 12.242010
_cell_length_b 5.455249
_cell_length_c 20.468953
_cell_angle_alpha 90.000000
_cell_angle_beta 106.451126
_cell_angle_gamma 90.000000
_cell_volume 1311.020445
_symmetry_space_group_name_H-M "P 21/C"
_symmetry_group_IT_number 14
_symmetry_cell_setting 'monoclinic'
loop_
_space_group_symop_operation_xyz
x,y,z
-x,1/2+y,1/2-z
-x,-y,-z
x,1/2-y,1/2+z
loop_
_atom_site_type_symbol
_atom_site_label
_atom_site_fract_x
_atom_site_fract_y
_atom_site_fract_z
Si Si1 0.698060 0.217677 0.132253
Si Si2 0.251755 0.224253 0.425717
Si Si3 0.072360 0.250218 0.013190
Si Si4 0.732549 0.852330 0.355222
Si Si5 0.433153 0.343110 0.560089
Si Si6 0.634023 0.510468 0.236911
Si Si7 0.422564 0.749440 0.148421
O O1 0.752876 0.455339 0.106654
O O2 0.567014 0.194679 0.085950
O O3 0.694029 0.292651 0.207727
O O4 0.753897 0.956517 0.124194
O O5 0.155467 0.251046 0.464646
O O6 0.370925 0.254243 0.485136
O O7 0.152569 0.271694 0.090697
O O8 0.000000 0.500000 0.000000
O O9 0.000000 0.000000 0.000000
O O10 0.631497 0.785319 0.390150
O O11 0.713158 0.714602 0.283899
O O12 0.699277 0.137308 0.349798
O O13 0.407978 0.624832 0.575933
O O14 0.544176 0.617102 0.169775
O O15 0.557775 0.426717 0.285548
#
# Coordination Sequence:
#
# PCOD9247286 Si02
#       7
#     4   4   4   4   4   4   4
#     4  12  23  38  60  96 139 182 199 247 324 421
#     4  11  26  40  64  93 131 168 220 265 331 395
#     4  11  26  49  74  95 118 160 229 299 336 356
#     4  10  23  37  66  95 130 170 223 271 311 375
#     4  10  22  35  57  92 139 176 214 252 315 381
#     4  11  21  34  58  94 138 180 208 246 312 392
#     4  11  19  35  59  93 138 177 218 259 298 386
#
# _framework density 21.357409000000001
#
# number of rings (size 3 to 8) (size 9 to 14) (size 15 to 20)
#    0.000    1.143    2.857    3.429   12.000    0.000 
#    0.000    0.000    0.000    3.429    0.000    0.000 
#    0.000    0.000    0.000    0.000    0.000    0.000 
#
# Total GULP energy -156166.034556 kJ/mol
# GULP energy per Si atom -5577.358377 kJ/mol
# Density = 2.130880 g / cm^3
# Si number density = 21.357409 Si / 1000 Ang^3
#
#
#
# Elastic Constant Matrix: (Units=GPa)
#
#
# Indices 1 2 3 4 5 6 
#
# 1 71.7596 34.5981 16.9083 0.0000 8.6838 0.0000
# 2 34.5981 103.7299 25.5546 0.0000 4.6590 0.0000
# 3 16.9083 25.5546 65.4799 0.0000 2.2633 0.0000
# 4 0.0000 0.0000 0.0000 33.6890 0.0000 -13.0586
# 5 8.6838 4.6590 2.2633 0.0000 33.7600 0.0000
# 6 0.0000 0.0000 0.0000 -13.0586 0.0000 38.4998
#
#
#
# Elastic Compliance Matrix: (Units=1/GPa)
#
#
# Indices 1 2 3 4 5 6 
#
# 1 0.017366 -0.005041 -0.002392 0.000000 -0.003611 0.000000
# 2 -0.005041 0.012177 -0.003445 0.000000 -0.000153 0.000000
# 3 -0.002392 -0.003445 0.017237 0.000000 -0.000065 0.000000
# 4 0.000000 0.000000 0.000000 0.034177 0.000000 0.011592
# 5 -0.003611 -0.000153 -0.000065 0.000000 0.030575 0.000000
# 6 0.000000 0.000000 0.000000 0.011592 0.000000 0.029906
#
#
# Mechanical properties :
#
#
# Convention : Reuss Voigt Hill
#
# Bulk Modulus (GPa) = 39.96311 43.89904 41.93107
# Shear Modulus (GPa) = 29.14831 32.11700 30.63266
#
# Velocity S-wave (km/s) = 3.69831 3.88208 3.79131
# Velocity P-wave (km/s) = 6.08185 6.37912 6.23225
#
# Compressibility (1/GPa) = 0.02502308
#
# Stress axis : x y z
#
# Youngs Moduli (GPa) = 57.58224 82.11906 58.01640
#
# Poissons Ratio (x) = 0.41395 0.13879
# Poissons Ratio (y) = 0.29026 0.19990
# Poissons Ratio (z) = 0.13775 0.28294
#
# Static dielectric constant tensor:
#      x y z
#    x 1.748520 0.000000 -0.003830 
#    y 0.000000 2.346590 0.000000 
#    z -0.003830 0.000000 1.775210 
# 
# From -- ./inp_files/66317.got.cif
#   From: 2010.05.17/outbox.cif.g08.bks.cpg/sg14_34_cif.got.tgz:66317.got - 2010.06.03 17:49:19.
