data_PCOD9247077
_publ_section_title
;
Structure prediction by ZEFSAII (Michael W. Deem and Ramdas Pophale) SiO2 
 PCOD9247077
Probable space group: P 21/C
;
_chemical_formula_sum "Si O2"
_cell_formula_units_Z 20
_cell_length_a 14.971763
_cell_length_b 7.137392
_cell_length_c 15.415164
_cell_angle_alpha 90.000000
_cell_angle_beta 25.986096
_cell_angle_gamma 90.000000
_cell_volume 721.749440
_symmetry_space_group_name_H-M "P 21/C"
_symmetry_group_IT_number 14
_symmetry_cell_setting 'monoclinic'
loop_
_space_group_symop_operation_xyz
x,y,z
-x,1/2+y,1/2-z
-x,-y,-z
x,1/2-y,1/2+z
loop_
_atom_site_type_symbol
_atom_site_label
_atom_site_fract_x
_atom_site_fract_y
_atom_site_fract_z
Si Si1 0.032779 0.911677 0.108066
Si Si2 0.078490 0.490144 0.762367
Si Si3 0.403819 0.192402 0.748722
Si Si4 0.276837 0.671977 0.182368
Si Si5 0.549158 0.112629 0.807337
O O1 0.038234 0.687528 0.096483
O O2 0.983140 0.951447 0.253078
O O3 0.850813 0.982304 0.206188
O O4 0.226770 0.042362 0.918996
O O5 0.117304 0.672406 0.786038
O O6 0.311305 0.423877 0.540025
O O7 0.537045 0.193477 0.720894
O O8 0.548015 0.146237 0.542092
O O9 0.344005 0.408869 0.786791
O O10 0.367300 0.755454 0.190501
#
# Coordination Sequence:
#
# PCOD9247077 Si02
#       5
#     4   4   4   4   4
#     4  11  23  42  73 111 146 198 258 306 380 454
#     4  10  21  43  71 106 149 199 243 315 378 438
#     4  10  24  46  71 107 147 201 246 308 384 449
#     4  11  24  48  76 103 153 197 251 318 376 447
#     4  10  24  47  73 110 147 198 257 311 379 459
#
# _framework density 27.710446000000001
#
# number of rings (size 3 to 8) (size 9 to 14) (size 15 to 20)
#    0.000    1.600    2.000    2.400    5.600    1.600 
#    3.600    8.000    0.000    0.000    0.000    0.000 
#    0.000    0.000    0.000    0.000    0.000    0.000 
#
# Total GULP energy -112410.503016 kJ/mol
# GULP energy per Si atom -5620.525151 kJ/mol
# Density = 2.764738 g / cm^3
# Si number density = 27.710446 Si / 1000 Ang^3
#
#
#
# Elastic Constant Matrix: (Units=GPa)
#
#
# Indices 1 2 3 4 5 6 
#
# 1 126.6697 4.6753 36.4422 0.0000 11.5391 0.0000
# 2 4.6753 173.4961 57.7550 0.0000 3.8236 0.0000
# 3 36.4422 57.7550 103.9969 0.0000 5.9417 0.0000
# 4 0.0000 0.0000 0.0000 62.4676 0.0000 -3.3659
# 5 11.5391 3.8236 5.9417 0.0000 46.3929 0.0000
# 6 0.0000 0.0000 0.0000 -3.3659 0.0000 35.8820
#
#
#
# Elastic Compliance Matrix: (Units=1/GPa)
#
#
# Indices 1 2 3 4 5 6 
#
# 1 0.009073 0.001005 -0.003630 0.000000 -0.001875 0.000000
# 2 0.001005 0.007183 -0.004325 0.000000 -0.000288 0.000000
# 3 -0.003630 -0.004325 0.013315 0.000000 -0.000446 0.000000
# 4 0.000000 0.000000 0.000000 0.016090 0.000000 0.001509
# 5 -0.001875 -0.000288 -0.000446 0.000000 0.022102 0.000000
# 6 0.000000 0.000000 0.000000 0.001509 0.000000 0.028011
#
#
# Mechanical properties :
#
#
# Convention : Reuss Voigt Hill
#
# Bulk Modulus (GPa) = 63.81313 66.87866 65.34589
# Shear Modulus (GPa) = 43.51748 49.30117 46.40932
#
# Velocity S-wave (km/s) = 3.96717 4.22258 4.09687
# Velocity P-wave (km/s) = 6.63801 6.92537 6.78321
#
# Compressibility (1/GPa) = 0.01567076
#
# Stress axis : x y z
#
# Youngs Moduli (GPa) = 110.22127 139.22230 75.10266
#
# Poissons Ratio (x) = -0.13997 0.27266
# Poissons Ratio (y) = -0.11081 0.32480
# Poissons Ratio (z) = 0.40015 0.60211
#
# Static dielectric constant tensor:
#      x y z
#    x 2.063540 0.000000 0.010860 
#    y 0.000000 2.118670 0.000000 
#    z 0.010860 0.000000 2.212720 
# 
# From -- ./inp_files/58866.got.cif
#   From: 2010.05.17/outbox.cif.g08.bks.cpg/sg14_30_cif.got.tgz:58866.got - 2010.06.03 17:49:19.
