data_PCOD9247776
_publ_section_title
;
Structure prediction by ZEFSAII (Michael W. Deem and Ramdas Pophale) SiO2 
 PCOD9247776
Probable space group: P 21/C
;
_chemical_formula_sum "Si O2"
_cell_formula_units_Z 26
_cell_length_a 19.460670
_cell_length_b 5.021121
_cell_length_c 28.419001
_cell_angle_alpha 90.000000
_cell_angle_beta 19.593708
_cell_angle_gamma 90.000000
_cell_volume 931.243280
_symmetry_space_group_name_H-M "P 21/C"
_symmetry_group_IT_number 14
_symmetry_cell_setting 'monoclinic'
loop_
_space_group_symop_operation_xyz
x,y,z
-x,1/2+y,1/2-z
-x,-y,-z
x,1/2-y,1/2+z
loop_
_atom_site_type_symbol
_atom_site_label
_atom_site_fract_x
_atom_site_fract_y
_atom_site_fract_z
Si Si1 0.548291 0.096836 0.560926
Si Si2 0.108663 0.637764 0.330303
Si Si3 0.000000 0.500000 0.500000
Si Si4 0.638018 0.256618 0.169631
Si Si5 0.074670 0.382962 0.229253
Si Si6 0.144566 0.501694 0.060032
Si Si7 0.705173 0.524854 0.220091
O O1 0.327022 0.005748 0.685852
O O2 0.707700 0.035633 0.416091
O O3 0.664443 0.946953 0.528746
O O4 0.498018 0.367825 0.622749
O O5 0.979634 0.498577 0.454333
O O6 0.990205 0.741677 0.361875
O O7 0.169227 0.910422 0.317788
O O8 0.175888 0.260698 0.381953
O O9 0.549520 0.976638 0.208627
O O10 0.716154 0.284630 0.174023
O O11 0.768188 0.393797 0.044856
O O12 0.928260 0.612406 0.301775
O O13 0.994674 0.233264 0.327247
#
# Coordination Sequence:
#
# PCOD9247776 Si02
#       7
#     4   4   2   4   4   4   4
#     4  10  24  47  70 104 150 193 252 321 384 443
#     4  11  24  42  71 106 151 199 257 306 387 465
#     4  10  22  40  60  98 150 190 234 306 372 444
#     4  12  26  42  71 109 151 197 251 307 378 471
#     4  10  25  49  79 108 148 203 260 326 386 447
#     4  11  24  46  73 110 144 209 255 315 384 469
#     4  11  23  41  65 100 148 196 237 319 372 457
#
# _framework density 27.919663
#
# number of rings (size 3 to 8) (size 9 to 14) (size 15 to 20)
#    0.000    1.231    3.077    1.385    6.462    3.077 
#   11.077    0.769    0.000    0.000    0.000    0.000 
#    0.000    0.000    0.000    0.000    0.000    0.000 
#
# Total GULP energy -145030.695624 kJ/mol
# GULP energy per Si atom -5578.103678 kJ/mol
# Density = 2.785612 g / cm^3
# Si number density = 27.919663 Si / 1000 Ang^3
#
#
#
# Elastic Constant Matrix: (Units=GPa)
#
#
# Indices 1 2 3 4 5 6 
#
# 1 97.1933 7.4824 3.3129 0.0000 -7.1620 0.0000
# 2 7.4824 136.4344 -0.9144 0.0000 19.8282 0.0000
# 3 3.3129 -0.9144 142.2970 0.0000 46.5958 0.0000
# 4 0.0000 0.0000 0.0000 34.8066 0.0000 24.3783
# 5 -7.1620 19.8282 46.5958 0.0000 32.4656 0.0000
# 6 0.0000 0.0000 0.0000 24.3783 0.0000 47.0670
#
#
#
# Elastic Compliance Matrix: (Units=1/GPa)
#
#
# Indices 1 2 3 4 5 6 
#
# 1 0.011043 -0.001678 -0.002643 0.000000 0.007255 0.000000
# 2 -0.001678 0.009113 0.003852 0.000000 -0.011464 0.000000
# 3 -0.002643 0.003852 0.015235 0.000000 -0.024802 0.000000
# 4 0.000000 0.000000 0.000000 0.045086 0.000000 -0.023352
# 5 0.007255 -0.011464 -0.024802 0.000000 0.075000 0.000000
# 6 0.000000 0.000000 0.000000 -0.023352 0.000000 0.033342
#
#
# Mechanical properties :
#
#
# Convention : Reuss Voigt Hill
#
# Bulk Modulus (GPa) = 29.02563 43.96517 36.49540
# Shear Modulus (GPa) = 24.84565 47.27074 36.05820
#
# Velocity S-wave (km/s) = 2.98635 4.11919 3.59764
# Velocity P-wave (km/s) = 4.72332 6.19717 5.50975
#
# Compressibility (1/GPa) = 0.03445231
#
# Stress axis : x y z
#
# Youngs Moduli (GPa) = 90.55823 109.72822 65.63703
#
# Poissons Ratio (x) = 0.18408 0.17351
# Poissons Ratio (y) = 0.15192 -0.25280
# Poissons Ratio (z) = 0.23938 -0.42262
#
# Static dielectric constant tensor:
#      x y z
#    x 2.203590 0.000000 -0.059590 
#    y 0.000000 2.358800 0.000000 
#    z -0.059590 0.000000 2.564250 
# 
# From -- ./inp_files/80462.got.cif
#   From: 2010.05.17/outbox.cif.g08.bks.cpg/sg14_41_cif.got.tgz:80462.got - 2010.06.03 17:49:19.
