data_PCOD9247425
_publ_section_title
;
Structure prediction by ZEFSAII (Michael W. Deem and Ramdas Pophale) SiO2 
 PCOD9247425
Probable space group: P 21/C
;
_chemical_formula_sum "Si O2"
_cell_formula_units_Z 32
_cell_length_a 16.771675
_cell_length_b 5.470119
_cell_length_c 15.483912
_cell_angle_alpha 90.000000
_cell_angle_beta 68.966553
_cell_angle_gamma 90.000000
_cell_volume 1325.892277
_symmetry_space_group_name_H-M "P 21/C"
_symmetry_group_IT_number 14
_symmetry_cell_setting 'monoclinic'
loop_
_space_group_symop_operation_xyz
x,y,z
-x,1/2+y,1/2-z
-x,-y,-z
x,1/2-y,1/2+z
loop_
_atom_site_type_symbol
_atom_site_label
_atom_site_fract_x
_atom_site_fract_y
_atom_site_fract_z
Si Si1 0.689928 0.415778 0.244281
Si Si2 0.966242 0.520816 0.679675
Si Si3 0.014254 0.972946 0.361891
Si Si4 0.502741 0.229745 0.800575
Si Si5 0.256698 0.263879 0.642743
Si Si6 0.757983 0.577304 0.671715
Si Si7 0.130863 0.303683 0.534161
Si Si8 0.447610 0.248565 0.501133
O O1 0.593971 0.345397 0.305819
O O2 0.744189 0.471281 0.309700
O O3 0.697357 0.679148 0.193817
O O4 0.719526 0.191143 0.175074
O O5 0.936894 0.776816 0.653948
O O6 0.063454 0.493328 0.603721
O O7 0.972954 0.528606 0.780452
O O8 0.927946 0.268756 0.659476
O O9 0.933767 0.925624 0.454857
O O10 0.513115 0.499569 0.756152
O O11 0.434627 0.241308 0.903299
O O12 0.222357 0.087577 0.732165
O O13 0.201247 0.249141 0.579040
O O14 0.356779 0.225580 0.584042
O O15 0.824753 0.612377 0.569444
O O16 0.500000 0.500000 0.500000
O O17 0.500000 0.000000 0.500000
#
# Coordination Sequence:
#
# PCOD9247425 Si02
#       8
#     4   4   4   4   4   4   4   4
#     4  10  23  44  56  82 129 156 196 266 313 349
#     4   8  16  31  55  87 122 151 199 246 291 362
#     4   8  16  32  54  90 118 153 199 245 293 358
#     4  12  25  41  65  92 115 159 218 263 310 385
#     4  10  25  41  64  93 125 160 210 260 311 367
#     4  10  23  42  59  87 129 160 196 258 311 364
#     4  10  22  37  67  94 118 167 210 243 313 376
#     4  12  24  45  64  84 122 169 204 256 329 371
#
# _framework density 24.134689000000002
#
# number of rings (size 3 to 8) (size 9 to 14) (size 15 to 20)
#    1.500    0.500    1.250    2.250    5.250    1.000 
#    0.000    0.000    0.000    1.500    0.000    0.000 
#    0.000    0.000    0.000    0.000    0.000    0.000 
#
# Total GULP energy -178453.084159 kJ/mol
# GULP energy per Si atom -5576.658880 kJ/mol
# Density = 2.407976 g / cm^3
# Si number density = 24.134689 Si / 1000 Ang^3
#
#
#
# Elastic Constant Matrix: (Units=GPa)
#
#
# Indices 1 2 3 4 5 6 
#
# 1 77.0601 25.7670 30.0106 0.0000 -8.1821 0.0000
# 2 25.7670 173.4370 19.1686 0.0000 -8.2126 0.0000
# 3 30.0106 19.1686 139.6183 0.0000 -23.6605 0.0000
# 4 0.0000 0.0000 0.0000 28.5646 0.0000 -6.2163
# 5 -8.1821 -8.2126 -23.6605 0.0000 45.7649 0.0000
# 6 0.0000 0.0000 0.0000 -6.2163 0.0000 15.5530
#
#
#
# Elastic Compliance Matrix: (Units=1/GPa)
#
#
# Indices 1 2 3 4 5 6 
#
# 1 0.014767 -0.001846 -0.002772 0.000000 0.000876 0.000000
# 2 -0.001846 0.006106 -0.000342 0.000000 0.000589 0.000000
# 3 -0.002772 -0.000342 0.008451 0.000000 0.003812 0.000000
# 4 0.000000 0.000000 0.000000 0.038343 0.000000 0.015325
# 5 0.000876 0.000589 0.003812 0.000000 0.024084 0.000000
# 6 0.000000 0.000000 0.000000 0.015325 0.000000 0.070422
#
#
# Mechanical properties :
#
#
# Convention : Reuss Voigt Hill
#
# Bulk Modulus (GPa) = 51.53614 60.00086 55.76850
# Shear Modulus (GPa) = 28.00167 38.98778 33.49473
#
# Velocity S-wave (km/s) = 3.40990 4.02360 3.72939
# Velocity P-wave (km/s) = 6.07480 6.81913 6.45770
#
# Compressibility (1/GPa) = 0.01940386
#
# Stress axis : x y z
#
# Youngs Moduli (GPa) = 67.71970 163.78169 118.32574
#
# Poissons Ratio (x) = 0.30234 0.32803
# Poissons Ratio (y) = 0.12501 0.04043
# Poissons Ratio (z) = 0.18774 0.05596
#
# Static dielectric constant tensor:
#      x y z
#    x 1.950920 0.000000 0.016540 
#    y 0.000000 1.997770 0.000000 
#    z 0.016540 0.000000 1.906300 
# 
# From -- ./inp_files/49691.got.cif
#   From: 2010.05.17/outbox.cif.g08.bks.cpg/sg14_25_cif.got.tgz:49691.got - 2010.06.03 17:49:19.
