data_PCOD9247445
_publ_section_title
;
Structure prediction by ZEFSAII (Michael W. Deem and Ramdas Pophale) SiO2 
 PCOD9247445
Probable space group: P 21/C
;
_chemical_formula_sum "Si O2"
_cell_formula_units_Z 24
_cell_length_a 16.904378
_cell_length_b 8.480719
_cell_length_c 14.641835
_cell_angle_alpha 90.000000
_cell_angle_beta 29.984431
_cell_angle_gamma 90.000000
_cell_volume 1049.042098
_symmetry_space_group_name_H-M "P 21/C"
_symmetry_group_IT_number 14
_symmetry_cell_setting 'monoclinic'
loop_
_space_group_symop_operation_xyz
x,y,z
-x,1/2+y,1/2-z
-x,-y,-z
x,1/2-y,1/2+z
loop_
_atom_site_type_symbol
_atom_site_label
_atom_site_fract_x
_atom_site_fract_y
_atom_site_fract_z
Si Si1 0.928851 0.045280 0.213317
Si Si2 0.242872 0.561913 0.289680
Si Si3 0.407708 0.357153 0.262833
Si Si4 0.428881 0.954659 0.928958
Si Si5 0.907648 0.642947 0.921802
Si Si6 0.257100 0.561823 0.775434
O O1 0.787059 0.011365 0.284871
O O2 0.952010 0.231993 0.206016
O O3 0.919491 0.959097 0.318864
O O4 0.085954 0.986701 0.003545
O O5 0.382477 0.470343 0.201370
O O6 0.249972 0.750046 0.287120
O O7 0.548019 0.232064 0.109975
O O8 0.419597 0.459173 0.342048
O O9 0.250024 0.250057 0.428613
O O10 0.585974 0.013219 0.824549
O O11 0.287055 0.988663 0.140989
O O12 0.882469 0.529800 0.033699
#
# Coordination Sequence:
#
# PCOD9247445 Si02
#       6
#     4   4   4   4   4   4
#     4  10  22  39  61  88 119 156 198 246 296 352
#     4  10  22  38  59  87 118 154 199 245 297 350
#     4  10  22  39  60  87 119 156 200 246 297 354
#     4  10  22  39  61  88 119 156 198 246 296 352
#     4  10  22  39  60  87 119 156 200 246 297 354
#     4  10  22  38  59  87 118 154 199 245 297 350
#
# _framework density 22.878015000000001
#
# number of rings (size 3 to 8) (size 9 to 14) (size 15 to 20)
#    0.000    2.000    0.000    2.000    0.000   14.667 
#    0.000    0.000    0.000    0.000    0.000    0.000 
#    0.000    0.000    0.000    0.000    0.000    0.000 
#
# Total GULP energy -134321.438598 kJ/mol
# GULP energy per Si atom -5596.726608 kJ/mol
# Density = 2.282594 g / cm^3
# Si number density = 22.878015 Si / 1000 Ang^3
#
#
#
# Elastic Constant Matrix: (Units=GPa)
#
#
# Indices 1 2 3 4 5 6 
#
# 1 143.2196 60.7574 65.7413 0.0000 46.6380 0.0000
# 2 60.7574 122.0599 33.7173 0.0000 27.5249 0.0000
# 3 65.7413 33.7173 72.2124 0.0000 25.6115 0.0000
# 4 0.0000 0.0000 0.0000 32.7904 0.0000 1.0848
# 5 46.6380 27.5249 25.6115 0.0000 37.1922 0.0000
# 6 0.0000 0.0000 0.0000 1.0848 0.0000 33.8537
#
#
#
# Elastic Compliance Matrix: (Units=1/GPa)
#
#
# Indices 1 2 3 4 5 6 
#
# 1 0.016391 -0.002877 -0.009320 0.000000 -0.012006 0.000000
# 2 -0.002877 0.010741 -0.001133 0.000000 -0.003561 0.000000
# 3 -0.009320 -0.001133 0.024372 0.000000 -0.004257 0.000000
# 4 0.000000 0.000000 0.000000 0.030529 0.000000 -0.000978
# 5 -0.012006 -0.003561 -0.004257 0.000000 0.047510 0.000000
# 6 0.000000 0.000000 0.000000 -0.000978 0.000000 0.029570
#
#
# Mechanical properties :
#
#
# Convention : Reuss Voigt Hill
#
# Bulk Modulus (GPa) = 40.25241 73.10266 56.67754
# Shear Modulus (GPa) = 25.76599 32.58566 29.17582
#
# Velocity S-wave (km/s) = 3.35958 3.77811 3.57498
# Velocity P-wave (km/s) = 5.71678 7.14526 6.47056
#
# Compressibility (1/GPa) = 0.02484323
#
# Stress axis : x y z
#
# Youngs Moduli (GPa) = 61.01048 93.10384 41.03038
#
# Poissons Ratio (x) = 0.26783 0.38242
# Poissons Ratio (y) = 0.17551 0.04649
# Poissons Ratio (z) = 0.56865 0.10549
#
# Static dielectric constant tensor:
#      x y z
#    x 1.843010 0.000000 -0.055510 
#    y 0.000000 1.817700 0.000000 
#    z -0.055510 0.000000 1.897650 
# 
# From -- ./inp_files/48484.got.cif
#   From: 2010.05.17/outbox.cif.g08.bks.cpg/sg14_25_cif.got.tgz:48484.got - 2010.06.03 17:49:19.
