data_PCOD9247909
_publ_section_title
;
Structure prediction by ZEFSAII (Michael W. Deem and Ramdas Pophale) SiO2 
 PCOD9247909
Probable space group: P 21/C
;
_chemical_formula_sum "Si O2"
_cell_formula_units_Z 24
_cell_length_a 5.570802
_cell_length_b 21.461428
_cell_length_c 9.144713
_cell_angle_alpha 90.000000
_cell_angle_beta 119.875279
_cell_angle_gamma 90.000000
_cell_volume 948.028707
_symmetry_space_group_name_H-M "P 21/C"
_symmetry_group_IT_number 14
_symmetry_cell_setting 'monoclinic'
loop_
_space_group_symop_operation_xyz
x,y,z
-x,1/2+y,1/2-z
-x,-y,-z
x,1/2-y,1/2+z
loop_
_atom_site_type_symbol
_atom_site_label
_atom_site_fract_x
_atom_site_fract_y
_atom_site_fract_z
Si Si1 0.410125 0.758061 0.559836
Si Si2 0.910495 0.553745 0.587191
Si Si3 0.224728 0.973670 0.674535
Si Si4 0.216016 0.308070 0.074499
Si Si5 0.609923 0.128638 0.092041
Si Si6 0.548999 0.077255 0.751832
O O1 0.633017 0.798613 0.536381
O O2 0.589476 0.730449 0.749922
O O3 0.349771 0.699930 0.432086
O O4 0.106662 0.786839 0.508443
O O5 0.777895 0.514354 0.677606
O O6 0.700271 0.605277 0.461997
O O7 0.000000 0.500000 0.500000
O O8 0.162444 0.591380 0.739527
O O9 0.503593 0.004650 0.696544
O O10 0.214943 0.903589 0.726981
O O11 0.000000 0.000000 0.500000
O O12 0.292174 0.379362 0.137646
O O13 0.646703 0.096194 0.945274
#
# Coordination Sequence:
#
# PCOD9247909 Si02
#       6
#     4   4   4   4   4   4
#     4  11  26  45  71  99 137 182 234 288 342 407
#     4  11  19  39  70  92 122 179 227 261 325 425
#     4  11  23  37  59 101 135 162 212 287 345 387
#     4  11  26  45  71  99 135 181 234 285 343 407
#     4  10  22  40  66  92 131 175 227 268 334 420
#     4  10  22  41  67  89 128 178 226 263 334 421
#
# _framework density 25.315688999999999
#
# number of rings (size 3 to 8) (size 9 to 14) (size 15 to 20)
#    0.000    1.333    3.333    2.000   11.667    3.333 
#    0.000    0.000    0.000    0.000    0.000    0.000 
#    0.000    0.000    0.000    0.000    0.000    0.000 
#
# Total GULP energy -133673.999414 kJ/mol
# GULP energy per Si atom -5569.749976 kJ/mol
# Density = 2.525807 g / cm^3
# Si number density = 25.315689 Si / 1000 Ang^3
#
#
#
# Elastic Constant Matrix: (Units=GPa)
#
#
# Indices 1 2 3 4 5 6 
#
# 1 90.1768 23.5572 14.2829 0.0000 32.9051 0.0000
# 2 23.5572 97.7978 3.4996 0.0000 8.4529 0.0000
# 3 14.2829 3.4996 81.2979 0.0000 15.6100 0.0000
# 4 0.0000 0.0000 0.0000 41.4915 0.0000 4.1215
# 5 32.9051 8.4529 15.6100 0.0000 35.0228 0.0000
# 6 0.0000 0.0000 0.0000 4.1215 0.0000 32.8733
#
#
#
# Elastic Compliance Matrix: (Units=1/GPa)
#
#
# Indices 1 2 3 4 5 6 
#
# 1 0.017633 -0.002875 0.000081 0.000000 -0.015908 0.000000
# 2 -0.002875 0.010912 0.000025 0.000000 0.000057 0.000000
# 3 0.000081 0.000025 0.013452 0.000000 -0.006077 0.000000
# 4 0.000000 0.000000 0.000000 0.024405 0.000000 -0.003060
# 5 -0.015908 0.000057 -0.006077 0.000000 0.046194 0.000000
# 6 0.000000 0.000000 0.000000 -0.003060 0.000000 0.030803
#
#
# Mechanical properties :
#
#
# Convention : Reuss Voigt Hill
#
# Bulk Modulus (GPa) = 27.43002 39.10578 33.26790
# Shear Modulus (GPa) = 31.03817 37.07302 34.05559
#
# Velocity S-wave (km/s) = 3.50529 3.83094 3.67173
# Velocity P-wave (km/s) = 5.21934 5.92021 5.58079
#
# Compressibility (1/GPa) = 0.03645640
#
# Stress axis : x y z
#
# Youngs Moduli (GPa) = 56.71336 91.64262 74.33763
#
# Poissons Ratio (x) = 0.26349 -0.00599
# Poissons Ratio (y) = 0.16306 -0.00182
# Poissons Ratio (z) = -0.00457 -0.00225
#
# Static dielectric constant tensor:
#      x y z
#    x 2.302060 0.000000 0.077840 
#    y 0.000000 2.216450 0.000000 
#    z 0.077840 0.000000 2.181780 
# 
# From -- ./inp_files/22148.got.cif
#   From: 2010.05.17/outbox.cif.g08.bks.cpg/sg14_12_cif.got.tgz:22148.got - 2010.06.03 17:49:19.
