data_PCOD9247464
_publ_section_title
;
Structure prediction by ZEFSAII (Michael W. Deem and Ramdas Pophale) SiO2 
 PCOD9247464
Probable space group: P 21/C
;
_chemical_formula_sum "Si O2"
_cell_formula_units_Z 24
_cell_length_a 12.077274
_cell_length_b 10.707541
_cell_length_c 23.444336
_cell_angle_alpha 90.000000
_cell_angle_beta 20.268289
_cell_angle_gamma 90.000000
_cell_volume 1050.256041
_symmetry_space_group_name_H-M "P 21/C"
_symmetry_group_IT_number 14
_symmetry_cell_setting 'monoclinic'
loop_
_space_group_symop_operation_xyz
x,y,z
-x,1/2+y,1/2-z
-x,-y,-z
x,1/2-y,1/2+z
loop_
_atom_site_type_symbol
_atom_site_label
_atom_site_fract_x
_atom_site_fract_y
_atom_site_fract_z
Si Si1 0.074812 0.209662 0.438496
Si Si2 0.142717 0.719760 0.760513
Si Si3 0.674305 0.870374 0.925806
Si Si4 0.316474 0.855188 0.785800
Si Si5 0.772455 0.460712 0.914614
Si Si6 0.455382 0.119575 0.679946
O O1 0.348478 0.144848 0.342742
O O2 0.232348 0.266305 0.305584
O O3 0.949484 0.320761 0.539518
O O4 0.766696 0.131230 0.570033
O O5 0.380185 0.713468 0.591104
O O6 0.312267 0.748783 0.738459
O O7 0.916543 0.839282 0.860042
O O8 0.934601 0.591280 0.859475
O O9 0.929057 0.876098 0.751002
O O10 0.500000 0.000000 0.000000
O O11 0.277912 0.990456 0.777681
O O12 0.500000 0.500000 0.000000
O O13 0.583181 0.386729 0.054459
#
# Coordination Sequence:
#
# PCOD9247464 Si02
#       6
#     4   4   4   4   4   4
#     4  10  24  40  63  96 127 164 209 268 328 379
#     4  11  22  41  67  95 124 167 218 264 319 388
#     4  10  22  38  60  93 126 162 210 263 315 370
#     4  11  21  41  68  94 124 163 215 267 318 386
#     4  11  24  42  66  96 131 170 212 264 323 389
#     4  11  23  42  62  90 128 170 211 260 322 384
#
# _framework density 22.851571
#
# number of rings (size 3 to 8) (size 9 to 14) (size 15 to 20)
#    0.000    1.333    0.000    6.000    0.000    4.000 
#    0.000   16.667    0.000    0.000    0.000    0.000 
#    0.000    0.000    0.000    0.000    0.000    0.000 
#
# Total GULP energy -133792.946690 kJ/mol
# GULP energy per Si atom -5574.706112 kJ/mol
# Density = 2.279956 g / cm^3
# Si number density = 22.851571 Si / 1000 Ang^3
#
#
#
# Elastic Constant Matrix: (Units=GPa)
#
#
# Indices 1 2 3 4 5 6 
#
# 1 75.7443 37.1561 28.1575 0.0000 10.3113 0.0000
# 2 37.1561 64.1162 39.6668 0.0000 -0.4122 0.0000
# 3 28.1575 39.6668 93.7777 0.0000 26.0244 0.0000
# 4 0.0000 0.0000 0.0000 12.9224 0.0000 8.3697
# 5 10.3113 -0.4122 26.0244 0.0000 42.8762 0.0000
# 6 0.0000 0.0000 0.0000 8.3697 0.0000 33.5819
#
#
#
# Elastic Compliance Matrix: (Units=1/GPa)
#
#
# Indices 1 2 3 4 5 6 
#
# 1 0.019386 -0.011560 0.000473 0.000000 -0.005060 0.000000
# 2 -0.011560 0.029787 -0.012001 0.000000 0.010351 0.000000
# 3 0.000473 -0.012001 0.018834 0.000000 -0.011661 0.000000
# 4 0.000000 0.000000 0.000000 0.092282 0.000000 -0.023000
# 5 -0.005060 0.010351 -0.011661 0.000000 0.031717 0.000000
# 6 0.000000 0.000000 0.000000 -0.023000 0.000000 0.035510
#
#
# Mechanical properties :
#
#
# Convention : Reuss Voigt Hill
#
# Bulk Modulus (GPa) = 45.80552 49.28879 47.54715
# Shear Modulus (GPa) = 17.79569 26.45329 22.12449
#
# Velocity S-wave (km/s) = 2.79364 3.40606 3.11494
# Velocity P-wave (km/s) = 5.52216 6.08969 5.81285
#
# Compressibility (1/GPa) = 0.02183143
#
# Stress axis : x y z
#
# Youngs Moduli (GPa) = 51.58407 33.57191 53.09650
#
# Poissons Ratio (x) = 0.38808 -0.02512
# Poissons Ratio (y) = 0.59629 0.63721
# Poissons Ratio (z) = -0.02441 0.40290
#
# Static dielectric constant tensor:
#      x y z
#    x 1.842800 0.000000 0.014550 
#    y 0.000000 1.857840 0.000000 
#    z 0.014550 0.000000 1.860550 
# 
# From -- ./inp_files/73265.got.cif
#   From: 2010.05.17/outbox.cif.g08.bks.cpg/sg14_37_cif.got.tgz:73265.got - 2010.06.03 17:49:19.
