data_PCOD9247726
_publ_section_title
;
Structure prediction by ZEFSAII (Michael W. Deem and Ramdas Pophale) SiO2 
 PCOD9247726
Probable space group: P 21/C
;
_chemical_formula_sum "Si O2"
_cell_formula_units_Z 32
_cell_length_a 5.217979
_cell_length_b 22.256782
_cell_length_c 10.869782
_cell_angle_alpha 90.000000
_cell_angle_beta 103.447529
_cell_angle_gamma 90.000000
_cell_volume 1227.756780
_symmetry_space_group_name_H-M "P 21/C"
_symmetry_group_IT_number 14
_symmetry_cell_setting 'monoclinic'
loop_
_space_group_symop_operation_xyz
x,y,z
-x,1/2+y,1/2-z
-x,-y,-z
x,1/2-y,1/2+z
loop_
_atom_site_type_symbol
_atom_site_label
_atom_site_fract_x
_atom_site_fract_y
_atom_site_fract_z
Si Si1 0.196747 0.147984 0.629891
Si Si2 0.777528 0.080001 0.880576
Si Si3 0.367078 0.477287 0.800748
Si Si4 0.343532 0.085021 0.035062
Si Si5 0.214376 0.789164 0.679753
Si Si6 0.127648 0.182627 0.881286
Si Si7 0.907587 0.074855 0.412733
Si Si8 0.343797 0.721532 0.932751
O O1 0.441623 0.172106 0.580583
O O2 0.262182 0.149720 0.780716
O O3 0.067658 0.089604 0.555060
O O4 0.951982 0.194682 0.599478
O O5 0.596097 0.072019 0.979573
O O6 0.843736 0.148905 0.857191
O O7 0.076057 0.057576 0.945124
O O8 0.657344 0.044879 0.752133
O O9 0.375436 0.438549 0.675083
O O10 0.635651 0.460419 0.900327
O O11 0.108344 0.458447 0.845361
O O12 0.275204 0.156279 0.016148
O O13 0.942320 0.751471 0.639346
O O14 0.164666 0.859709 0.654189
O O15 0.380858 0.764893 0.581116
O O16 0.333430 0.770942 0.824189
#
# Coordination Sequence:
#
# PCOD9247726 Si02
#       8
#     4   4   4   4   4   4   4   4
#     4  10  22  45  60  88 130 173 207 262 335 371
#     4  10  22  41  64 101 127 173 213 276 338 382
#     4  12  23  42  66  95 136 169 219 268 337 394
#     4  10  22  39  67  99 130 166 213 282 336 384
#     4  10  23  44  62 103 128 175 218 272 328 401
#     4   9  24  40  71  92 129 168 222 270 326 391
#     4  11  25  41  63  91 133 176 212 265 330 392
#     4  10  23  39  67  89 135 170 211 268 324 391
#
# _framework density 26.063794999999999
#
# number of rings (size 3 to 8) (size 9 to 14) (size 15 to 20)
#    0.750    1.000    0.000    3.750    5.250    6.000 
#    2.250    1.250    0.000    0.000    0.000    0.000 
#    0.000    0.000    0.000    0.000    0.000    0.000 
#
# Total GULP energy -179096.210468 kJ/mol
# GULP energy per Si atom -5596.756577 kJ/mol
# Density = 2.600447 g / cm^3
# Si number density = 26.063795 Si / 1000 Ang^3
#
#
#
# Elastic Constant Matrix: (Units=GPa)
#
#
# Indices 1 2 3 4 5 6 
#
# 1 127.4068 19.7544 48.6703 0.0000 -13.6048 0.0000
# 2 19.7544 106.1474 36.7527 0.0000 9.6367 0.0000
# 3 48.6703 36.7527 64.4551 0.0000 -10.1068 0.0000
# 4 0.0000 0.0000 0.0000 42.3234 0.0000 -2.8202
# 5 -13.6048 9.6367 -10.1068 0.0000 41.1621 0.0000
# 6 0.0000 0.0000 0.0000 -2.8202 0.0000 32.8257
#
#
#
# Elastic Compliance Matrix: (Units=1/GPa)
#
#
# Indices 1 2 3 4 5 6 
#
# 1 0.011192 0.000802 -0.008693 0.000000 0.001377 0.000000
# 2 0.000802 0.012684 -0.008593 0.000000 -0.004814 0.000000
# 3 -0.008693 -0.008593 0.027918 0.000000 0.005994 0.000000
# 4 0.000000 0.000000 0.000000 0.023764 0.000000 0.002042
# 5 0.001377 -0.004814 0.005994 0.000000 0.027348 0.000000
# 6 0.000000 0.000000 0.000000 0.002042 0.000000 0.030639
#
#
# Mechanical properties :
#
#
# Convention : Reuss Voigt Hill
#
# Bulk Modulus (GPa) = 53.11524 56.48490 54.80007
# Shear Modulus (GPa) = 28.93720 36.11769 32.52744
#
# Velocity S-wave (km/s) = 3.33565 3.72659 3.53653
# Velocity P-wave (km/s) = 5.93789 6.34315 6.14386
#
# Compressibility (1/GPa) = 0.01882699
#
# Stress axis : x y z
#
# Youngs Moduli (GPa) = 89.34771 78.84001 35.81926
#
# Poissons Ratio (x) = -0.06321 0.31136
# Poissons Ratio (y) = -0.07164 0.30779
# Poissons Ratio (z) = 0.77666 0.67746
#
# Static dielectric constant tensor:
#      x y z
#    x 2.010790 0.000000 0.060090 
#    y 0.000000 2.103360 0.000000 
#    z 0.060090 0.000000 2.139470 
# 
# From -- ./inp_files/22119.got.cif
#   From: 2010.05.17/outbox.cif.g08.bks.cpg/sg14_12_cif.got.tgz:22119.got - 2010.06.03 17:49:19.
