data_PCOD9247482
_publ_section_title
;
Structure prediction by ZEFSAII (Michael W. Deem and Ramdas Pophale) SiO2 
 PCOD9247482
Probable space group: P 21/C
;
_chemical_formula_sum "Si O2"
_cell_formula_units_Z 20
_cell_length_a 8.837167
_cell_length_b 13.845197
_cell_length_c 9.774167
_cell_angle_alpha 90.000000
_cell_angle_beta 135.125963
_cell_angle_gamma 90.000000
_cell_volume 843.762216
_symmetry_space_group_name_H-M "P 21/C"
_symmetry_group_IT_number 14
_symmetry_cell_setting 'monoclinic'
loop_
_space_group_symop_operation_xyz
x,y,z
-x,1/2+y,1/2-z
-x,-y,-z
x,1/2-y,1/2+z
loop_
_atom_site_type_symbol
_atom_site_label
_atom_site_fract_x
_atom_site_fract_y
_atom_site_fract_z
Si Si1 0.111049 0.142455 0.537329
Si Si2 0.921168 0.031156 0.668627
Si Si3 0.499102 0.363508 0.919231
Si Si4 0.965545 0.634017 0.485840
Si Si5 0.574446 0.316353 0.279021
O O1 0.368398 0.130552 0.710044
O O2 0.010405 0.107188 0.614147
O O3 0.061197 0.254647 0.479738
O O4 0.030235 0.072255 0.366049
O O5 0.665124 0.048890 0.513923
O O6 0.017330 0.062723 0.874909
O O7 0.566512 0.287791 0.844819
O O8 0.249958 0.386463 0.736142
O O9 0.532730 0.314760 0.088933
O O10 0.193381 0.636273 0.555276
#
# Coordination Sequence:
#
# PCOD9247482 Si02
#       5
#     4   4   4   4   4
#     4  10  22  40  68  93 133 170 205 276 315 375
#     4  10  22  45  63  96 132 167 215 262 326 378
#     4  10  22  38  62  94 124 167 215 260 315 384
#     4  10  22  40  67  91 127 172 214 257 321 385
#     4  10  22  38  63  91 128 164 213 261 322 369
#
# _framework density 23.703358999999999
#
# number of rings (size 3 to 8) (size 9 to 14) (size 15 to 20)
#    0.000    2.000    2.000    0.000   11.200    3.200 
#    0.000   16.000    0.000    0.000    0.000    0.000 
#    0.000    0.000    0.000    0.000    0.000    0.000 
#
# Total GULP energy -111997.863843 kJ/mol
# GULP energy per Si atom -5599.893192 kJ/mol
# Density = 2.364941 g / cm^3
# Si number density = 23.703359 Si / 1000 Ang^3
#
#
#
# Elastic Constant Matrix: (Units=GPa)
#
#
# Indices 1 2 3 4 5 6 
#
# 1 148.6751 21.2938 61.3258 0.0000 23.4628 0.0000
# 2 21.2938 118.8650 43.4005 0.0000 1.4018 0.0000
# 3 61.3258 43.4005 150.1371 0.0000 23.9410 0.0000
# 4 0.0000 0.0000 0.0000 25.8981 0.0000 -8.0068
# 5 23.4628 1.4018 23.9410 0.0000 37.8484 0.0000
# 6 0.0000 0.0000 0.0000 -8.0068 0.0000 26.9568
#
#
#
# Elastic Compliance Matrix: (Units=1/GPa)
#
#
# Indices 1 2 3 4 5 6 
#
# 1 0.008489 -0.000466 -0.002776 0.000000 -0.003489 0.000000
# 2 -0.000466 0.009511 -0.002835 0.000000 0.001730 0.000000
# 3 -0.002776 -0.002835 0.009257 0.000000 -0.004029 0.000000
# 4 0.000000 0.000000 0.000000 0.042517 0.000000 0.012629
# 5 -0.003489 0.001730 -0.004029 0.000000 0.031068 0.000000
# 6 0.000000 0.000000 0.000000 0.012629 0.000000 0.040847
#
#
# Mechanical properties :
#
#
# Convention : Reuss Voigt Hill
#
# Bulk Modulus (GPa) = 66.21606 74.41306 70.31456
# Shear Modulus (GPa) = 31.47082 37.58447 34.52764
#
# Velocity S-wave (km/s) = 3.64771 3.98630 3.82076
# Velocity P-wave (km/s) = 6.76291 7.25597 7.01377
#
# Compressibility (1/GPa) = 0.01510208
#
# Stress axis : x y z
#
# Youngs Moduli (GPa) = 117.80599 105.14071 108.03108
#
# Poissons Ratio (x) = 0.04898 0.29993
# Poissons Ratio (y) = 0.05488 0.30626
# Poissons Ratio (z) = 0.32706 0.29807
#
# Static dielectric constant tensor:
#      x y z
#    x 1.892170 0.000000 0.012190 
#    y 0.000000 1.914540 0.000000 
#    z 0.012190 0.000000 1.859130 
# 
# From -- ./inp_files/9559.got.cif
#   From: 2010.05.17/outbox.cif.g08.bks.cpg/sg14_5_cif.got.tgz:9559.got - 2010.06.03 17:49:19.
