data_PCOD9247695
_publ_section_title
;
Structure prediction by ZEFSAII (Michael W. Deem and Ramdas Pophale) SiO2 
 PCOD9247695
Probable space group: P 21/C
;
_chemical_formula_sum "Si O2"
_cell_formula_units_Z 20
_cell_length_a 5.425559
_cell_length_b 9.017291
_cell_length_c 19.062245
_cell_angle_alpha 90.000000
_cell_angle_beta 71.118604
_cell_angle_gamma 90.000000
_cell_volume 882.415645
_symmetry_space_group_name_H-M "P 21/C"
_symmetry_group_IT_number 14
_symmetry_cell_setting 'monoclinic'
loop_
_space_group_symop_operation_xyz
x,y,z
-x,1/2+y,1/2-z
-x,-y,-z
x,1/2-y,1/2+z
loop_
_atom_site_type_symbol
_atom_site_label
_atom_site_fract_x
_atom_site_fract_y
_atom_site_fract_z
Si Si1 0.036751 0.134603 0.442027
Si Si2 0.250963 0.334695 0.781823
Si Si3 0.806542 0.619339 0.367627
Si Si4 0.474143 0.178987 0.498154
Si Si5 0.655442 0.511988 0.664455
O O1 0.094333 0.082577 0.357767
O O2 0.292703 0.214304 0.448577
O O3 0.773190 0.229222 0.466712
O O4 0.000000 0.000000 0.500000
O O5 0.114400 0.331340 0.718601
O O6 0.521331 0.414600 0.738793
O O7 0.295227 0.171810 0.807534
O O8 0.674287 0.752272 0.422256
O O9 0.569256 0.504171 0.374066
O O10 0.064546 0.557045 0.380405
O O11 0.500000 0.000000 0.500000
#
# Coordination Sequence:
#
# PCOD9247695 Si02
#       5
#     4   4   4   4   4
#     4  10  23  38  65  99 130 174 224 273 334 399
#     4  10  26  42  72  98 141 176 235 275 342 403
#     4  10  24  41  68  98 138 171 231 275 336 399
#     4  10  22  39  65  94 129 174 221 274 331 395
#     4  10  25  40  70  96 135 177 231 280 334 391
#
# _framework density 22.665054999999999
#
# number of rings (size 3 to 8) (size 9 to 14) (size 15 to 20)
#    1.200    0.800    0.000    1.200   11.200    3.200 
#    0.000    6.000    0.000    0.000    0.000    0.000 
#    0.000    0.000    0.000    0.000    0.000    0.000 
#
# Total GULP energy -111498.030999 kJ/mol
# GULP energy per Si atom -5574.901550 kJ/mol
# Density = 2.261347 g / cm^3
# Si number density = 22.665055 Si / 1000 Ang^3
#
#
#
# Elastic Constant Matrix: (Units=GPa)
#
#
# Indices 1 2 3 4 5 6 
#
# 1 144.0067 -0.6614 55.9530 0.0000 -20.9445 0.0000
# 2 -0.6614 61.5077 5.6344 0.0000 -17.3200 0.0000
# 3 55.9530 5.6344 72.6657 0.0000 -2.5872 0.0000
# 4 0.0000 0.0000 0.0000 40.4505 0.0000 -7.4270
# 5 -20.9445 -17.3200 -2.5872 0.0000 33.4642 0.0000
# 6 0.0000 0.0000 0.0000 -7.4270 0.0000 2.2610
#
#
#
# Elastic Compliance Matrix: (Units=1/GPa)
#
#
# Indices 1 2 3 4 5 6 
#
# 1 0.011626 0.003273 -0.008911 0.000000 0.008282 0.000000
# 2 0.003273 0.020046 -0.003643 0.000000 0.012142 0.000000
# 3 -0.008911 -0.003643 0.020697 0.000000 -0.005862 0.000000
# 4 0.000000 0.000000 0.000000 0.062291 0.000000 0.204621
# 5 0.008282 0.012142 -0.005862 0.000000 0.040897 0.000000
# 6 0.000000 0.000000 0.000000 0.204621 0.000000 1.114445
#
#
# Mechanical properties :
#
#
# Convention : Reuss Voigt Hill
#
# Bulk Modulus (GPa) = 29.57823 44.44803 37.01313
# Shear Modulus (GPa) = 3.84665 29.71874 16.78269
#
# Velocity S-wave (km/s) = 1.30417 3.62500 2.72410
# Velocity P-wave (km/s) = 3.91743 6.09706 5.12447
#
# Compressibility (1/GPa) = 0.03380864
#
# Stress axis : x y z
#
# Youngs Moduli (GPa) = 86.01409 49.88478 48.31633
#
# Poissons Ratio (x) = -0.16329 0.43055
# Poissons Ratio (y) = -0.28156 0.17600
# Poissons Ratio (z) = 0.76648 0.18171
#
# Static dielectric constant tensor:
#      x y z
#    x 1.840420 0.000000 0.086680 
#    y 0.000000 1.582800 0.000000 
#    z 0.086680 0.000000 1.709960 
# 
# From -- ./inp_files/63010.got.cif
#   From: 2010.05.17/outbox.cif.g08.bks.cpg/sg14_32_cif.got.tgz:63010.got - 2010.06.03 17:49:19.
