data_PCOD9247243
_publ_section_title
;
Structure prediction by ZEFSAII (Michael W. Deem and Ramdas Pophale) SiO2 
 PCOD9247243
Probable space group: P 21/C
;
_chemical_formula_sum "Si O2"
_cell_formula_units_Z 24
_cell_length_a 8.875313
_cell_length_b 7.655791
_cell_length_c 13.769850
_cell_angle_alpha 90.000000
_cell_angle_beta 100.007027
_cell_angle_gamma 90.000000
_cell_volume 921.393236
_symmetry_space_group_name_H-M "P 21/C"
_symmetry_group_IT_number 14
_symmetry_cell_setting 'monoclinic'
loop_
_space_group_symop_operation_xyz
x,y,z
-x,1/2+y,1/2-z
-x,-y,-z
x,1/2-y,1/2+z
loop_
_atom_site_type_symbol
_atom_site_label
_atom_site_fract_x
_atom_site_fract_y
_atom_site_fract_z
Si Si1 0.229987 0.107843 0.080757
Si Si2 0.004095 0.162302 0.892493
Si Si3 0.852892 0.131797 0.227195
Si Si4 0.603148 0.610576 0.772453
Si Si5 0.670429 0.085167 0.604366
Si Si6 0.554811 0.778067 0.052069
O O1 0.291622 0.234606 0.171654
O O2 0.162079 0.926593 0.110781
O O3 0.366314 0.095184 0.017635
O O4 0.085474 0.186990 0.004722
O O5 0.981932 0.325777 0.820205
O O6 0.099350 0.017545 0.842897
O O7 0.810048 0.307805 0.164487
O O8 0.706530 0.059671 0.268693
O O9 0.463879 0.583794 0.829614
O O10 0.544842 0.653807 0.658955
O O11 0.598759 0.196603 0.508341
O O12 0.675609 0.886074 0.570529
#
# Coordination Sequence:
#
# PCOD9247243 Si02
#       6
#     4   4   4   4   4   4
#     4  10  23  46  67  97 138 181 234 277 336 410
#     4  11  25  44  66 105 134 186 229 275 344 411
#     4  12  25  44  72 101 139 185 228 284 347 409
#     4  11  22  44  70 101 135 185 224 290 340 400
#     4  10  24  42  69 104 134 178 230 288 346 406
#     4  10  21  46  68  98 139 175 231 286 345 404
#
# _framework density 26.047512000000001
#
# number of rings (size 3 to 8) (size 9 to 14) (size 15 to 20)
#    0.000    1.333    1.667    3.000    2.333    2.667 
#   27.000    0.000    0.000    0.000    0.000    0.000 
#    0.000    0.000    0.000    0.000    0.000    0.000 
#
# Total GULP energy -134662.558389 kJ/mol
# GULP energy per Si atom -5610.939933 kJ/mol
# Density = 2.598823 g / cm^3
# Si number density = 26.047512 Si / 1000 Ang^3
#
#
#
# Elastic Constant Matrix: (Units=GPa)
#
#
# Indices 1 2 3 4 5 6 
#
# 1 65.3623 20.1058 25.4946 0.0000 -5.7088 0.0000
# 2 20.1058 71.4602 32.9777 0.0000 -3.6292 0.0000
# 3 25.4946 32.9777 171.5493 0.0000 19.9271 0.0000
# 4 0.0000 0.0000 0.0000 29.5438 0.0000 1.4925
# 5 -5.7088 -3.6292 19.9271 0.0000 44.2217 0.0000
# 6 0.0000 0.0000 0.0000 1.4925 0.0000 47.8243
#
#
#
# Elastic Compliance Matrix: (Units=1/GPa)
#
#
# Indices 1 2 3 4 5 6 
#
# 1 0.017589 -0.003767 -0.002235 0.000000 0.002969 0.000000
# 2 -0.003767 0.016482 -0.002859 0.000000 0.002155 0.000000
# 3 -0.002235 -0.002859 0.007146 0.000000 -0.003743 0.000000
# 4 0.000000 0.000000 0.000000 0.033901 0.000000 -0.001058
# 5 0.002969 0.002155 -0.003743 0.000000 0.024860 0.000000
# 6 0.000000 0.000000 0.000000 -0.001058 0.000000 0.020943
#
#
# Mechanical properties :
#
#
# Convention : Reuss Voigt Hill
#
# Bulk Modulus (GPa) = 42.55998 51.72532 47.14265
# Shear Modulus (GPa) = 34.13566 39.63756 36.88661
#
# Velocity S-wave (km/s) = 3.62403 3.90518 3.76723
# Velocity P-wave (km/s) = 5.82119 6.34311 6.08775
#
# Compressibility (1/GPa) = 0.02349625
#
# Stress axis : x y z
#
# Youngs Moduli (GPa) = 56.85397 60.67075 139.94371
#
# Poissons Ratio (x) = 0.22853 0.31273
# Poissons Ratio (y) = 0.21415 0.40010
# Poissons Ratio (z) = 0.12705 0.17346
#
# Static dielectric constant tensor:
#      x y z
#    x 2.052250 0.000000 0.008660 
#    y 0.000000 2.050800 0.000000 
#    z 0.008660 0.000000 1.962250 
# 
# From -- ./inp_files/39070.got.cif
#   From: 2010.05.17/outbox.cif.g08.bks.cpg/sg14_20_cif.got.tgz:39070.got - 2010.06.03 17:49:19.
