data_PCOD9247406
_publ_section_title
;
Structure prediction by ZEFSAII (Michael W. Deem and Ramdas Pophale) SiO2 
 PCOD9247406
Probable space group: P 21/C
;
_chemical_formula_sum "Si O2"
_cell_formula_units_Z 28
_cell_length_a 8.047456
_cell_length_b 5.186714
_cell_length_c 27.306438
_cell_angle_alpha 90.000000
_cell_angle_beta 79.619101
_cell_angle_gamma 90.000000
_cell_volume 1121.110539
_symmetry_space_group_name_H-M "P 21/C"
_symmetry_group_IT_number 14
_symmetry_cell_setting 'monoclinic'
loop_
_space_group_symop_operation_xyz
x,y,z
-x,1/2+y,1/2-z
-x,-y,-z
x,1/2-y,1/2+z
loop_
_atom_site_type_symbol
_atom_site_label
_atom_site_fract_x
_atom_site_fract_y
_atom_site_fract_z
Si Si1 0.649909 0.985892 0.926585
Si Si2 0.247086 0.466621 0.472141
Si Si3 0.880844 0.034824 0.681068
Si Si4 0.606343 0.747837 0.235827
Si Si5 0.800457 0.395492 0.779300
Si Si6 0.800056 0.039316 0.579753
Si Si7 0.601057 0.484189 0.877780
O O1 0.447558 0.003938 0.947884
O O2 0.676379 0.768504 0.883662
O O3 0.686334 0.278320 0.909368
O O4 0.746558 0.909402 0.970651
O O5 0.164368 0.241724 0.444224
O O6 0.171141 0.741480 0.462101
O O7 0.719835 0.845211 0.685586
O O8 0.893224 0.126618 0.624804
O O9 0.044385 0.889642 0.692173
O O10 0.835045 0.236943 0.727578
O O11 0.508110 0.016809 0.238098
O O12 0.757593 0.812146 0.265997
O O13 0.637428 0.353880 0.822847
O O14 0.596799 0.023174 0.601137
#
# Coordination Sequence:
#
# PCOD9247406 Si02
#       7
#     4   4   4   4   4   4   4
#     4   9  18  36  62  94 127 160 207 274 339 392
#     4   9  18  36  62  94 127 160 207 274 339 392
#     4  12  27  45  67  95 140 186 229 274 340 403
#     4  12  26  44  70  96 126 172 228 284 328 386
#     4  12  27  45  67  95 140 186 229 274 340 403
#     4  10  22  37  63  95 125 166 221 272 326 393
#     4  10  22  37  63  95 125 166 221 272 326 393
#
# _framework density 24.975237
#
# number of rings (size 3 to 8) (size 9 to 14) (size 15 to 20)
#    0.000    1.429    2.857    1.714    4.000    4.571 
#    0.000    0.000    0.000    5.143    0.000    0.000 
#    0.000    0.000    0.000    0.000    0.000    0.000 
#
# Total GULP energy -156240.479263 kJ/mol
# GULP energy per Si atom -5580.017117 kJ/mol
# Density = 2.491839 g / cm^3
# Si number density = 24.975237 Si / 1000 Ang^3
#
#
#
# Elastic Constant Matrix: (Units=GPa)
#
#
# Indices 1 2 3 4 5 6 
#
# 1 80.5967 20.9585 -0.1468 0.0000 4.9455 0.0000
# 2 20.9585 126.3566 29.8540 0.0000 14.4605 0.0000
# 3 -0.1468 29.8540 108.0863 0.0000 22.2006 0.0000
# 4 0.0000 0.0000 0.0000 34.9293 0.0000 10.8139
# 5 4.9455 14.4605 22.2006 0.0000 30.6898 0.0000
# 6 0.0000 0.0000 0.0000 10.8139 0.0000 19.5273
#
#
#
# Elastic Compliance Matrix: (Units=1/GPa)
#
#
# Indices 1 2 3 4 5 6 
#
# 1 0.013092 -0.002201 0.000994 0.000000 -0.001791 0.000000
# 2 -0.002201 0.009031 -0.001992 0.000000 -0.002460 0.000000
# 3 0.000994 -0.001992 0.011326 0.000000 -0.007415 0.000000
# 4 0.000000 0.000000 0.000000 0.034553 0.000000 -0.019135
# 5 -0.001791 -0.002460 -0.007415 0.000000 0.039395 0.000000
# 6 0.000000 0.000000 0.000000 -0.019135 0.000000 0.061807
#
#
# Mechanical properties :
#
#
# Convention : Reuss Voigt Hill
#
# Bulk Modulus (GPa) = 36.96894 46.26344 41.61619
# Shear Modulus (GPa) = 27.08239 34.65420 30.86829
#
# Velocity S-wave (km/s) = 3.29655 3.72901 3.51943
# Velocity P-wave (km/s) = 5.41517 6.09136 5.76319
#
# Compressibility (1/GPa) = 0.02704973
#
# Stress axis : x y z
#
# Youngs Moduli (GPa) = 76.38485 110.72448 88.28858
#
# Poissons Ratio (x) = 0.24373 -0.08773
# Poissons Ratio (y) = 0.16814 0.17590
# Poissons Ratio (z) = -0.07590 0.22060
#
# Static dielectric constant tensor:
#      x y z
#    x 2.091220 0.000000 -0.024290 
#    y 0.000000 1.947950 0.000000 
#    z -0.024290 0.000000 2.018170 
# 
# From -- ./inp_files/76066.got.cif
#   From: 2010.05.17/outbox.cif.g08.bks.cpg/sg14_39_cif.got.tgz:76066.got - 2010.06.03 17:49:19.
