data_PCOD9247111
_publ_section_title
;
Structure prediction by ZEFSAII (Michael W. Deem and Ramdas Pophale) SiO2 
 PCOD9247111
Probable space group: P 21/C
;
_chemical_formula_sum "Si O2"
_cell_formula_units_Z 26
_cell_length_a 15.159582
_cell_length_b 11.873134
_cell_length_c 8.688673
_cell_angle_alpha 90.000000
_cell_angle_beta 136.308910
_cell_angle_gamma 90.000000
_cell_volume 1080.287873
_symmetry_space_group_name_H-M "P 21/C"
_symmetry_group_IT_number 14
_symmetry_cell_setting 'monoclinic'
loop_
_space_group_symop_operation_xyz
x,y,z
-x,1/2+y,1/2-z
-x,-y,-z
x,1/2-y,1/2+z
loop_
_atom_site_type_symbol
_atom_site_label
_atom_site_fract_x
_atom_site_fract_y
_atom_site_fract_z
Si Si1 0.432639 0.705737 0.797458
Si Si2 0.000000 0.500000 0.000000
Si Si3 0.018778 0.288646 0.507809
Si Si4 0.264848 0.645679 0.857139
Si Si5 0.157737 0.049547 0.415202
Si Si6 0.622279 0.706945 0.791423
Si Si7 0.156737 0.119133 0.873722
O O1 0.335403 0.638566 0.782775
O O2 0.356628 0.794403 0.596438
O O3 0.535786 0.649866 0.814211
O O4 0.525984 0.764362 0.036544
O O5 0.132159 0.507931 0.293785
O O6 0.909812 0.479826 0.039527
O O7 0.064362 0.364850 0.708126
O O8 0.069215 0.163249 0.613308
O O9 0.088042 0.339535 0.444607
O O10 0.867998 0.286897 0.313614
O O11 0.219692 0.526130 0.861944
O O12 0.270698 0.122156 0.628863
O O13 0.706775 0.816781 0.953516
#
# Coordination Sequence:
#
# PCOD9247111 Si02
#       7
#     4   2   4   4   4   4   4
#     4  10  23  42  66  88 129 178 223 253 335 380
#     4  12  24  38  60 110 126 172 210 278 336 400
#     4  11  22  43  65  98 132 173 204 278 342 399
#     4  11  23  41  63  95 129 170 211 281 313 408
#     4  11  24  42  67  97 134 162 227 272 337 389
#     4  10  21  44  65  92 126 180 217 269 319 401
#     4  11  22  39  70  93 134 168 218 271 337 388
#
# _framework density 24.067658000000002
#
# number of rings (size 3 to 8) (size 9 to 14) (size 15 to 20)
#    0.000    1.231    1.538    6.000    0.000    1.231 
#    2.769    0.000    0.000    0.000    0.000    0.000 
#    0.000    0.000    0.000    0.000    0.000    0.000 
#
# Total GULP energy -144886.841807 kJ/mol
# GULP energy per Si atom -5572.570839 kJ/mol
# Density = 2.401288 g / cm^3
# Si number density = 24.067658 Si / 1000 Ang^3
#
#
#
# Elastic Constant Matrix: (Units=GPa)
#
#
# Indices 1 2 3 4 5 6 
#
# 1 173.5726 14.4871 34.1295 0.0000 2.2178 0.0000
# 2 14.4871 37.4339 14.1994 0.0000 11.7817 0.0000
# 3 34.1295 14.1994 138.3175 0.0000 18.6774 0.0000
# 4 0.0000 0.0000 0.0000 20.3196 0.0000 -2.3669
# 5 2.2178 11.7817 18.6774 0.0000 35.9805 0.0000
# 6 0.0000 0.0000 0.0000 -2.3669 0.0000 35.7358
#
#
#
# Elastic Compliance Matrix: (Units=1/GPa)
#
#
# Indices 1 2 3 4 5 6 
#
# 1 0.006217 -0.002197 -0.001456 0.000000 0.001092 0.000000
# 2 -0.002197 0.031017 -0.001386 0.000000 -0.009302 0.000000
# 3 -0.001456 -0.001386 0.008235 0.000000 -0.003731 0.000000
# 4 0.000000 0.000000 0.000000 0.049596 0.000000 0.003285
# 5 0.001092 -0.009302 -0.003731 0.000000 0.032708 0.000000
# 6 0.000000 0.000000 0.000000 0.003285 0.000000 0.028201
#
#
# Mechanical properties :
#
#
# Convention : Reuss Voigt Hill
#
# Bulk Modulus (GPa) = 28.25583 52.77289 40.51436
# Shear Modulus (GPa) = 28.11354 37.50774 32.81064
#
# Velocity S-wave (km/s) = 3.42146 3.95198 3.69625
# Velocity P-wave (km/s) = 5.23204 6.54207 5.92338
#
# Compressibility (1/GPa) = 0.03539092
#
# Stress axis : x y z
#
# Youngs Moduli (GPa) = 160.84909 32.23992 121.43145
#
# Poissons Ratio (x) = 0.07085 0.17679
# Poissons Ratio (y) = 0.35346 0.16830
# Poissons Ratio (z) = 0.23418 0.04468
#
# Static dielectric constant tensor:
#      x y z
#    x 1.897960 0.000000 -0.061160 
#    y 0.000000 1.079030 0.000000 
#    z -0.061160 0.000000 1.882310 
# 
# From -- ./inp_files/12996.got.cif
#   From: 2010.05.17/outbox.cif.g08.bks.cpg/sg14_7_cif.got.tgz:12996.got - 2010.06.03 17:49:19.
