data_PCOD9247684
_publ_section_title
;
Structure prediction by ZEFSAII (Michael W. Deem and Ramdas Pophale) SiO2 
 PCOD9247684
Probable space group: P 21/C
;
_chemical_formula_sum "Si O2"
_cell_formula_units_Z 32
_cell_length_a 15.101970
_cell_length_b 12.582790
_cell_length_c 11.073020
_cell_angle_alpha 90.000000
_cell_angle_beta 37.219029
_cell_angle_gamma 90.000000
_cell_volume 1272.723618
_symmetry_space_group_name_H-M "P 21/C"
_symmetry_group_IT_number 14
_symmetry_cell_setting 'monoclinic'
loop_
_space_group_symop_operation_xyz
x,y,z
-x,1/2+y,1/2-z
-x,-y,-z
x,1/2-y,1/2+z
loop_
_atom_site_type_symbol
_atom_site_label
_atom_site_fract_x
_atom_site_fract_y
_atom_site_fract_z
Si Si1 0.161163 0.789330 0.098549
Si Si2 0.411302 0.828995 0.008317
Si Si3 0.875618 0.653090 0.025410
Si Si4 0.227478 0.585484 0.922245
Si Si5 0.528118 0.967489 0.187235
Si Si6 0.305641 0.945240 0.773958
Si Si7 0.411414 0.344850 0.088133
Si Si8 0.745949 0.770194 0.925651
O O1 0.316051 0.785264 0.000813
O O2 0.049542 0.838810 0.315419
O O3 0.119439 0.669584 0.103763
O O4 0.179178 0.871584 0.965540
O O5 0.307711 0.838268 0.237660
O O6 0.562341 0.767892 0.873011
O O7 0.447639 0.951783 0.947503
O O8 0.831286 0.527904 0.061251
O O9 0.836823 0.699697 0.202083
O O10 0.823120 0.720350 0.960800
O O11 0.359058 0.559304 0.870427
O O12 0.584004 0.034572 0.236987
O O13 0.643229 0.871521 0.061232
O O14 0.287660 0.066899 0.752053
O O15 0.423837 0.886859 0.561407
O O16 0.370129 0.314580 0.997998
#
# Coordination Sequence:
#
# PCOD9247684 Si02
#       8
#     4   4   4   4   4   4   4   4
#     4  11  27  46  67 103 145 204 242 296 362 458
#     4  11  22  40  72 105 139 184 243 303 370 434
#     4  12  30  47  73 104 151 204 252 297 366 451
#     4  12  23  46  73 105 142 190 247 311 372 446
#     4  11  21  41  70 105 136 178 242 313 375 432
#     4  10  22  39  65 101 142 182 232 300 377 431
#     4  11  21  39  69 106 139 177 236 315 377 426
#     4  12  25  47  70 106 141 189 245 313 371 431
#
# _framework density 25.14293
#
# number of rings (size 3 to 8) (size 9 to 14) (size 15 to 20)
#    0.000    0.750    3.750    3.375    1.750    7.500 
#    0.000    1.250    0.000    0.000    0.000    0.000 
#    0.000    0.000    0.000    0.000    0.000    0.000 
#
# Total GULP energy -178367.176425 kJ/mol
# GULP energy per Si atom -5573.974263 kJ/mol
# Density = 2.508570 g / cm^3
# Si number density = 25.142930 Si / 1000 Ang^3
#
#
#
# Elastic Constant Matrix: (Units=GPa)
#
#
# Indices 1 2 3 4 5 6 
#
# 1 73.1724 10.0459 -8.2242 0.0000 11.7947 0.0000
# 2 10.0459 126.3022 27.6876 0.0000 2.0775 0.0000
# 3 -8.2242 27.6876 92.0336 0.0000 -4.7772 0.0000
# 4 0.0000 0.0000 0.0000 50.2216 0.0000 8.0307
# 5 11.7947 2.0775 -4.7772 0.0000 27.1036 0.0000
# 6 0.0000 0.0000 0.0000 8.0307 0.0000 32.8643
#
#
#
# Elastic Compliance Matrix: (Units=1/GPa)
#
#
# Indices 1 2 3 4 5 6 
#
# 1 0.015017 -0.001410 0.001446 0.000000 -0.006172 0.000000
# 2 -0.001410 0.008642 -0.002754 0.000000 -0.000534 0.000000
# 3 0.001446 -0.002754 0.011910 0.000000 0.001681 0.000000
# 4 0.000000 0.000000 0.000000 0.020721 0.000000 -0.005063
# 5 -0.006172 -0.000534 0.001681 0.000000 0.039919 0.000000
# 6 0.000000 0.000000 0.000000 -0.005063 0.000000 0.031665
#
#
# Mechanical properties :
#
#
# Convention : Reuss Voigt Hill
#
# Bulk Modulus (GPa) = 33.18472 38.94741 36.06607
# Shear Modulus (GPa) = 34.87828 39.50451 37.19140
#
# Velocity S-wave (km/s) = 3.72855 3.96813 3.85021
# Velocity P-wave (km/s) = 5.63589 6.04308 5.84303
#
# Compressibility (1/GPa) = 0.03013435
#
# Stress axis : x y z
#
# Youngs Moduli (GPa) = 66.58983 115.71279 83.95982
#
# Poissons Ratio (x) = 0.16314 -0.12138
# Poissons Ratio (y) = 0.09388 0.23119
# Poissons Ratio (z) = -0.09627 0.31863
#
# Static dielectric constant tensor:
#      x y z
#    x 1.973540 0.000000 0.055730 
#    y 0.000000 2.205820 0.000000 
#    z 0.055730 0.000000 2.236420 
# 
# From -- ./inp_files/33923.got.cif
#   From: 2010.05.17/outbox.cif.g08.bks.cpg/sg14_17_cif.got.tgz:33923.got - 2010.06.03 17:49:19.
