data_PCOD9247013
_publ_section_title
;
Structure prediction by ZEFSAII (Michael W. Deem and Ramdas Pophale) SiO2 
 PCOD9247013
Probable space group: P 21/C
;
_chemical_formula_sum "Si O2"
_cell_formula_units_Z 28
_cell_length_a 11.605056
_cell_length_b 5.194885
_cell_length_c 19.355537
_cell_angle_alpha 90.000000
_cell_angle_beta 69.841726
_cell_angle_gamma 90.000000
_cell_volume 1095.407445
_symmetry_space_group_name_H-M "P 21/C"
_symmetry_group_IT_number 14
_symmetry_cell_setting 'monoclinic'
loop_
_space_group_symop_operation_xyz
x,y,z
-x,1/2+y,1/2-z
-x,-y,-z
x,1/2-y,1/2+z
loop_
_atom_site_type_symbol
_atom_site_label
_atom_site_fract_x
_atom_site_fract_y
_atom_site_fract_z
Si Si1 0.809018 0.640851 0.061503
Si Si2 0.565837 0.281919 0.264293
Si Si3 0.998673 0.728492 0.419344
Si Si4 0.070331 0.105969 0.713384
Si Si5 0.607673 0.305018 0.413417
Si Si6 0.653498 0.691180 0.965282
Si Si7 0.210587 0.448000 0.309219
O O1 0.897800 0.416836 0.070053
O O2 0.740353 0.768666 0.139983
O O3 0.712262 0.574076 0.022402
O O4 0.899157 0.828559 0.998462
O O5 0.506813 0.513618 0.233242
O O6 0.568707 0.365287 0.343651
O O7 0.704314 0.197376 0.215116
O O8 0.075142 0.503635 0.367954
O O9 0.929332 0.864310 0.369261
O O10 0.184971 0.171331 0.739832
O O11 0.967957 0.313788 0.759985
O O12 0.487066 0.253690 0.484741
O O13 0.691288 0.528774 0.428635
O O14 0.668445 0.025571 0.404506
#
# Coordination Sequence:
#
# PCOD9247013 Si02
#       7
#     4   4   4   4   4   4   4
#     4  11  23  43  71 102 141 186 242 289 359 414
#     4  12  28  46  75 106 143 184 239 293 356 431
#     4  10  24  43  68 104 139 189 241 292 351 433
#     4  10  21  43  66  97 137 183 228 287 344 416
#     4  10  23  46  65 105 133 184 237 282 355 418
#     4  10  23  42  73  94 142 180 230 296 344 416
#     4  11  25  43  71 101 145 188 232 297 359 419
#
# _framework density 25.561263
#
# number of rings (size 3 to 8) (size 9 to 14) (size 15 to 20)
#    0.000    1.429    1.429    2.143    8.000    1.143 
#   10.286    0.000    0.000    0.000    0.000    0.000 
#    0.000    0.000    0.000    0.000    0.000    0.000 
#
# Total GULP energy -156513.719904 kJ/mol
# GULP energy per Si atom -5589.775711 kJ/mol
# Density = 2.550308 g / cm^3
# Si number density = 25.561263 Si / 1000 Ang^3
#
#
#
# Elastic Constant Matrix: (Units=GPa)
#
#
# Indices 1 2 3 4 5 6 
#
# 1 77.0171 21.3775 19.3533 0.0000 30.6458 0.0000
# 2 21.3775 83.6286 37.0140 0.0000 10.0452 0.0000
# 3 19.3533 37.0140 88.3212 0.0000 29.9914 0.0000
# 4 0.0000 0.0000 0.0000 27.0814 0.0000 6.4438
# 5 30.6458 10.0452 29.9914 0.0000 51.3668 0.0000
# 6 0.0000 0.0000 0.0000 6.4438 0.0000 41.4254
#
#
#
# Elastic Compliance Matrix: (Units=1/GPa)
#
#
# Indices 1 2 3 4 5 6 
#
# 1 0.018016 -0.003908 0.001348 0.000000 -0.010771 0.000000
# 2 -0.003908 0.015562 -0.006765 0.000000 0.003238 0.000000
# 3 0.001348 -0.006765 0.017070 0.000000 -0.009448 0.000000
# 4 0.000000 0.000000 0.000000 0.038345 0.000000 -0.005965
# 5 -0.010771 0.003238 -0.009448 0.000000 0.030777 0.000000
# 6 0.000000 0.000000 0.000000 -0.005965 0.000000 0.025068
#
#
# Mechanical properties :
#
#
# Convention : Reuss Voigt Hill
#
# Bulk Modulus (GPa) = 31.25237 44.93961 38.09599
# Shear Modulus (GPa) = 28.71014 35.38953 32.04984
#
# Velocity S-wave (km/s) = 3.35504 3.72492 3.54481
# Velocity P-wave (km/s) = 5.22124 6.00994 5.62942
#
# Compressibility (1/GPa) = 0.03199757
#
# Stress axis : x y z
#
# Youngs Moduli (GPa) = 55.50573 64.25980 58.58112
#
# Poissons Ratio (x) = 0.25113 -0.07894
# Poissons Ratio (y) = 0.21692 0.39630
# Poissons Ratio (z) = -0.07480 0.43472
#
# Static dielectric constant tensor:
#      x y z
#    x 2.095220 0.000000 -0.015830 
#    y 0.000000 2.022850 0.000000 
#    z -0.015830 0.000000 2.019630 
# 
# From -- ./inp_files/66467.got.cif
#   From: 2010.05.17/outbox.cif.g08.bks.cpg/sg14_34_cif.got.tgz:66467.got - 2010.06.03 17:49:19.
