data_PCOD9247507
_publ_section_title
;
Structure prediction by ZEFSAII (Michael W. Deem and Ramdas Pophale) SiO2 
 PCOD9247507
Probable space group: P 21/C
;
_chemical_formula_sum "Si O2"
_cell_formula_units_Z 28
_cell_length_a 8.789772
_cell_length_b 10.966974
_cell_length_c 17.291795
_cell_angle_alpha 90.000000
_cell_angle_beta 139.577231
_cell_angle_gamma 90.000000
_cell_volume 1080.842878
_symmetry_space_group_name_H-M "P 21/C"
_symmetry_group_IT_number 14
_symmetry_cell_setting 'monoclinic'
loop_
_space_group_symop_operation_xyz
x,y,z
-x,1/2+y,1/2-z
-x,-y,-z
x,1/2-y,1/2+z
loop_
_atom_site_type_symbol
_atom_site_label
_atom_site_fract_x
_atom_site_fract_y
_atom_site_fract_z
Si Si1 0.070279 0.308003 0.633060
Si Si2 0.085279 0.862565 0.092631
Si Si3 0.811773 0.539371 0.174192
Si Si4 0.825444 0.414900 0.823781
Si Si5 0.394525 0.369849 0.181278
Si Si6 0.593895 0.835312 0.941285
Si Si7 0.654397 0.181392 0.542340
O O1 0.078694 0.392085 0.711107
O O2 0.308334 0.231045 0.711039
O O3 0.005879 0.377851 0.530024
O O4 0.857380 0.214495 0.562629
O O5 0.141374 0.718469 0.127697
O O6 0.340043 0.917427 0.207406
O O7 0.852100 0.888195 0.051982
O O8 0.777979 0.393779 0.160044
O O9 0.963154 0.563539 0.155097
O O10 0.552011 0.597404 0.069320
O O11 0.775782 0.516964 0.868934
O O12 0.587567 0.412221 0.679690
O O13 0.373322 0.292829 0.093913
O O14 0.469776 0.800936 0.972665
#
# Coordination Sequence:
#
# PCOD9247507 Si02
#       7
#     4   4   4   4   4   4   4
#     4  11  22  41  64  93 132 164 208 262 315 370
#     4  10  23  42  62  94 128 166 206 265 315 371
#     4  11  23  38  66  95 128 164 213 260 310 375
#     4  11  21  41  65  90 124 167 214 254 312 378
#     4  10  23  40  63  93 124 167 213 258 311 377
#     4  10  22  38  64  90 127 162 206 264 312 367
#     4  11  22  39  64  98 122 166 213 258 313 366
#
# _framework density 25.905707
#
# number of rings (size 3 to 8) (size 9 to 14) (size 15 to 20)
#    0.000    1.429    4.286    0.857    0.000    8.571 
#    0.000    3.571    0.000    0.000    0.000    0.000 
#    0.000    0.000    0.000    0.000    0.000    0.000 
#
# Total GULP energy -156824.953133 kJ/mol
# GULP energy per Si atom -5600.891183 kJ/mol
# Density = 2.584674 g / cm^3
# Si number density = 25.905707 Si / 1000 Ang^3
#
#
#
# Elastic Constant Matrix: (Units=GPa)
#
#
# Indices 1 2 3 4 5 6 
#
# 1 118.3779 15.6165 24.0872 0.0000 34.5828 0.0000
# 2 15.6165 58.1601 6.0436 0.0000 6.6907 0.0000
# 3 24.0872 6.0436 122.6834 0.0000 34.5893 0.0000
# 4 0.0000 0.0000 0.0000 22.5077 0.0000 6.4361
# 5 34.5828 6.6907 34.5893 0.0000 43.0469 0.0000
# 6 0.0000 0.0000 0.0000 6.4361 0.0000 38.7391
#
#
#
# Elastic Compliance Matrix: (Units=1/GPa)
#
#
# Indices 1 2 3 4 5 6 
#
# 1 0.011286 -0.002029 0.000454 0.000000 -0.009117 0.000000
# 2 -0.002029 0.017873 -0.000205 0.000000 -0.000983 0.000000
# 3 0.000454 -0.000205 0.010558 0.000000 -0.008817 0.000000
# 4 0.000000 0.000000 0.000000 0.046645 0.000000 -0.007750
# 5 -0.009117 -0.000983 -0.008817 0.000000 0.037792 0.000000
# 6 0.000000 0.000000 0.000000 -0.007750 0.000000 0.027101
#
#
# Mechanical properties :
#
#
# Convention : Reuss Voigt Hill
#
# Bulk Modulus (GPa) = 27.65605 43.41286 35.53446
# Shear Modulus (GPa) = 29.96404 37.75701 33.86052
#
# Velocity S-wave (km/s) = 3.40466 3.82184 3.61926
# Velocity P-wave (km/s) = 5.11414 6.02243 5.58677
#
# Compressibility (1/GPa) = 0.03615845
#
# Stress axis : x y z
#
# Youngs Moduli (GPa) = 88.60479 55.94997 94.71763
#
# Poissons Ratio (x) = 0.11351 -0.04305
# Poissons Ratio (y) = 0.17976 0.01940
# Poissons Ratio (z) = -0.04027 0.01146
#
# Static dielectric constant tensor:
#      x y z
#    x 1.999170 0.000000 0.004650 
#    y 0.000000 2.103840 0.000000 
#    z 0.004650 0.000000 2.040750 
# 
# From -- ./inp_files/65639.got.cif
#   From: 2010.05.17/outbox.cif.g08.bks.cpg/sg14_33_cif.got.tgz:65639.got - 2010.06.03 17:49:19.
