data_PCOD9247583
_publ_section_title
;
Structure prediction by ZEFSAII (Michael W. Deem and Ramdas Pophale) SiO2 
 PCOD9247583
Probable space group: P 21/C
;
_chemical_formula_sum "Si O2"
_cell_formula_units_Z 32
_cell_length_a 7.982343
_cell_length_b 13.689232
_cell_length_c 13.408226
_cell_angle_alpha 90.000000
_cell_angle_beta 84.693731
_cell_angle_gamma 90.000000
_cell_volume 1458.866863
_symmetry_space_group_name_H-M "P 21/C"
_symmetry_group_IT_number 14
_symmetry_cell_setting 'monoclinic'
loop_
_space_group_symop_operation_xyz
x,y,z
-x,1/2+y,1/2-z
-x,-y,-z
x,1/2-y,1/2+z
loop_
_atom_site_type_symbol
_atom_site_label
_atom_site_fract_x
_atom_site_fract_y
_atom_site_fract_z
Si Si1 0.367553 0.776288 0.992577
Si Si2 0.487278 0.299364 0.318115
Si Si3 0.420252 0.418821 0.776681
Si Si4 0.142942 0.389356 0.398134
Si Si5 0.707340 0.385935 0.134856
Si Si6 0.011484 0.722494 0.766686
Si Si7 0.261373 0.169792 0.100856
Si Si8 0.789032 0.404894 0.672092
O O1 0.306033 0.667066 0.970867
O O2 0.564433 0.789262 0.953162
O O3 0.266703 0.848966 0.926103
O O4 0.366220 0.804627 0.107685
O O5 0.416029 0.189724 0.321989
O O6 0.335933 0.369710 0.354106
O O7 0.570099 0.327303 0.209450
O O8 0.343067 0.501974 0.850492
O O9 0.316345 0.411849 0.678574
O O10 0.616158 0.432855 0.738146
O O11 0.030342 0.315212 0.340904
O O12 0.149424 0.369362 0.515546
O O13 0.109603 0.499097 0.364214
O O14 0.882829 0.357554 0.177200
O O15 0.838999 0.746843 0.834528
O O16 0.110832 0.825138 0.768920
#
# Coordination Sequence:
#
# PCOD9247583 Si02
#       8
#     4   4   4   4   4   4   4   4
#     4   9  21  39  61  88 121 157 210 248 298 353
#     4  11  20  39  65  87 119 162 203 256 296 357
#     4  11  21  40  64  90 119 158 211 250 300 351
#     4  11  23  38  66  87 124 166 194 251 314 349
#     4  11  22  38  62  89 120 163 197 258 302 354
#     4  11  23  40  56  90 130 157 191 246 314 366
#     4  10  22  39  59  91 124 154 203 250 297 368
#     4  10  22  39  61  93 120 153 208 257 292 358
#
# _framework density 21.934833000000001
#
# number of rings (size 3 to 8) (size 9 to 14) (size 15 to 20)
#    0.000    1.500    6.250    0.000    3.500    4.500 
#    0.000    0.000    0.000    2.250    0.000    0.000 
#    0.000    0.000    0.000    0.000    0.000    0.000 
#
# Total GULP energy -178843.855213 kJ/mol
# GULP energy per Si atom -5588.870475 kJ/mol
# Density = 2.188491 g / cm^3
# Si number density = 21.934833 Si / 1000 Ang^3
#
#
#
# Elastic Constant Matrix: (Units=GPa)
#
#
# Indices 1 2 3 4 5 6 
#
# 1 70.9702 12.0309 25.5341 0.0000 21.4558 0.0000
# 2 12.0309 104.0728 16.2140 0.0000 6.9515 0.0000
# 3 25.5341 16.2140 48.9574 0.0000 19.0141 0.0000
# 4 0.0000 0.0000 0.0000 11.9721 0.0000 -5.2521
# 5 21.4558 6.9515 19.0141 0.0000 25.8897 0.0000
# 6 0.0000 0.0000 0.0000 -5.2521 0.0000 22.8026
#
#
#
# Elastic Compliance Matrix: (Units=1/GPa)
#
#
# Indices 1 2 3 4 5 6 
#
# 1 0.019859 -0.000637 -0.005346 0.000000 -0.012360 0.000000
# 2 -0.000637 0.010154 -0.003045 0.000000 0.000038 0.000000
# 3 -0.005346 -0.003045 0.031038 0.000000 -0.017547 0.000000
# 4 0.000000 0.000000 0.000000 0.092916 0.000000 0.021401
# 5 -0.012360 0.000038 -0.017547 0.000000 0.061745 0.000000
# 6 0.000000 0.000000 0.000000 0.021401 0.000000 0.048784
#
#
# Mechanical properties :
#
#
# Convention : Reuss Voigt Hill
#
# Bulk Modulus (GPa) = 23.25944 36.83982 30.04963
# Shear Modulus (GPa) = 16.84158 23.48098 20.16128
#
# Velocity S-wave (km/s) = 2.77393 3.27538 3.03503
# Velocity P-wave (km/s) = 4.57017 5.57994 5.10011
#
# Compressibility (1/GPa) = 0.04299329
#
# Stress axis : x y z
#
# Youngs Moduli (GPa) = 50.35603 98.48115 32.21907
#
# Poissons Ratio (x) = 0.06275 0.17224
# Poissons Ratio (y) = 0.03209 0.09812
# Poissons Ratio (z) = 0.26920 0.29992
#
# Static dielectric constant tensor:
#      x y z
#    x 1.834860 0.000000 0.004780 
#    y 0.000000 1.791530 0.000000 
#    z 0.004780 0.000000 1.812640 
# 
# From -- ./inp_files/40303.got.cif
#   From: 2010.05.17/outbox.cif.g08.bks.cpg/sg14_21_cif.got.tgz:40303.got - 2010.06.03 17:49:19.
