data_PCOD9247032
_publ_section_title
;
Structure prediction by ZEFSAII (Michael W. Deem and Ramdas Pophale) SiO2 
 PCOD9247032
Probable space group: P 21/C
;
_chemical_formula_sum "Si O2"
_cell_formula_units_Z 28
_cell_length_a 9.709086
_cell_length_b 24.875123
_cell_length_c 9.459456
_cell_angle_alpha 90.000000
_cell_angle_beta 150.921754
_cell_angle_gamma 90.000000
_cell_volume 1110.322718
_symmetry_space_group_name_H-M "P 21/C"
_symmetry_group_IT_number 14
_symmetry_cell_setting 'monoclinic'
loop_
_space_group_symop_operation_xyz
x,y,z
-x,1/2+y,1/2-z
-x,-y,-z
x,1/2-y,1/2+z
loop_
_atom_site_type_symbol
_atom_site_label
_atom_site_fract_x
_atom_site_fract_y
_atom_site_fract_z
Si Si1 0.894558 0.256010 0.905484
Si Si2 0.441464 0.386409 0.831533
Si Si3 0.804896 0.933979 0.300860
Si Si4 0.369374 0.529006 0.190537
Si Si5 0.551231 0.166182 0.928360
Si Si6 0.881530 0.840273 0.702161
Si Si7 0.997623 0.678783 0.728685
O O1 0.610708 0.281282 0.578999
O O2 0.051419 0.232771 0.907545
O O3 0.956473 0.205233 0.061586
O O4 0.977662 0.303647 0.087297
O O5 0.553920 0.445216 0.890915
O O6 0.261038 0.380279 0.812376
O O7 0.239253 0.363952 0.525686
O O8 0.707910 0.345941 0.065517
O O9 0.633016 0.879931 0.166261
O O10 0.129971 0.932384 0.545583
O O11 0.757190 0.969836 0.399515
O O12 0.650675 0.967176 0.037298
O O13 0.377890 0.178022 0.629429
O O14 0.860856 0.141881 0.167583
#
# Coordination Sequence:
#
# PCOD9247032 Si02
#       7
#     4   4   4   4   4   4   4
#     4  11  25  45  65  98 135 193 238 302 346 416
#     4  11  24  42  66  95 140 184 232 285 361 417
#     4  10  22  41  73 105 135 180 234 297 361 422
#     4  10  21  43  68 105 141 173 237 298 355 431
#     4  12  25  44  72  98 143 185 247 291 365 419
#     4  11  26  45  64 100 141 192 237 298 346 443
#     4  11  25  40  66  94 134 182 244 283 357 412
#
# _framework density 25.217894000000001
#
# number of rings (size 3 to 8) (size 9 to 14) (size 15 to 20)
#    0.000    1.143    1.429    4.286    2.000    4.571 
#    0.000    1.429    0.000    0.000    0.000    0.000 
#    0.000    0.000    0.000    0.000    0.000    0.000 
#
# Total GULP energy -156431.936100 kJ/mol
# GULP energy per Si atom -5586.854861 kJ/mol
# Density = 2.516050 g / cm^3
# Si number density = 25.217894 Si / 1000 Ang^3
#
#
#
# Elastic Constant Matrix: (Units=GPa)
#
#
# Indices 1 2 3 4 5 6 
#
# 1 91.3487 11.8134 40.8828 0.0000 -5.8270 0.0000
# 2 11.8134 32.9714 2.0668 0.0000 2.3863 0.0000
# 3 40.8828 2.0668 141.7357 0.0000 2.5177 0.0000
# 4 0.0000 0.0000 0.0000 30.0480 0.0000 15.6340
# 5 -5.8270 2.3863 2.5177 0.0000 53.6053 0.0000
# 6 0.0000 0.0000 0.0000 15.6340 0.0000 28.3786
#
#
#
# Elastic Compliance Matrix: (Units=1/GPa)
#
#
# Indices 1 2 3 4 5 6 
#
# 1 0.013383 -0.004689 -0.003824 0.000000 0.001843 0.000000
# 2 -0.004689 0.032095 0.000920 0.000000 -0.001982 0.000000
# 3 -0.003824 0.000920 0.008160 0.000000 -0.000840 0.000000
# 4 0.000000 0.000000 0.000000 0.046652 0.000000 -0.025701
# 5 0.001843 -0.001982 -0.000840 0.000000 0.018983 0.000000
# 6 0.000000 0.000000 0.000000 -0.025701 0.000000 0.049397
#
#
# Mechanical properties :
#
#
# Convention : Reuss Voigt Hill
#
# Bulk Modulus (GPa) = 26.00732 41.73129 33.86930
# Shear Modulus (GPa) = 25.42284 36.49257 30.95771
#
# Velocity S-wave (km/s) = 3.17855 3.80819 3.50753
# Velocity P-wave (km/s) = 4.87917 5.99338 5.46475
#
# Compressibility (1/GPa) = 0.03845072
#
# Stress axis : x y z
#
# Youngs Moduli (GPa) = 74.72390 31.15751 122.54829
#
# Poissons Ratio (x) = 0.14608 0.46869
# Poissons Ratio (y) = 0.35035 -0.11269
# Poissons Ratio (z) = 0.28578 -0.02865
#
# Static dielectric constant tensor:
#      x y z
#    x 2.069760 0.000000 -0.014040 
#    y 0.000000 2.098960 0.000000 
#    z -0.014040 0.000000 1.966110 
# 
# From -- ./inp_files/47716.got.cif
#   From: 2010.05.17/outbox.cif.g08.bks.cpg/sg14_24_cif.got.tgz:47716.got - 2010.06.03 17:49:19.
