data_PCOD9247821
_publ_section_title
;
Structure prediction by ZEFSAII (Michael W. Deem and Ramdas Pophale) SiO2 
 PCOD9247821
Probable space group: P 21/C
;
_chemical_formula_sum "Si O2"
_cell_formula_units_Z 28
_cell_length_a 21.509962
_cell_length_b 8.729415
_cell_length_c 9.491359
_cell_angle_alpha 90.000000
_cell_angle_beta 139.427049
_cell_angle_gamma 90.000000
_cell_volume 1159.162167
_symmetry_space_group_name_H-M "P 21/C"
_symmetry_group_IT_number 14
_symmetry_cell_setting 'monoclinic'
loop_
_space_group_symop_operation_xyz
x,y,z
-x,1/2+y,1/2-z
-x,-y,-z
x,1/2-y,1/2+z
loop_
_atom_site_type_symbol
_atom_site_label
_atom_site_fract_x
_atom_site_fract_y
_atom_site_fract_z
Si Si1 0.784680 0.607235 0.274212
Si Si2 0.479019 0.426366 0.752362
Si Si3 0.584686 0.796525 0.565386
Si Si4 0.757409 0.360009 0.833172
Si Si5 0.095297 0.905036 0.821763
Si Si6 0.121343 0.406681 0.086889
Si Si7 0.677660 0.168960 0.468574
O O1 0.689316 0.645983 0.199797
O O2 0.867263 0.543076 0.517067
O O3 0.825126 0.755904 0.266711
O O4 0.754206 0.466927 0.123507
O O5 0.432639 0.326709 0.799169
O O6 0.424392 0.374300 0.515687
O O7 0.500482 0.597665 0.847326
O O8 0.585478 0.378245 0.894613
O O9 0.718459 0.319590 0.611350
O O10 0.837363 0.237485 0.021738
O O11 0.809479 0.521082 0.911163
O O12 0.670252 0.326834 0.789196
O O13 0.983987 0.869680 0.651364
O O14 0.107238 0.965216 0.682949
#
# Coordination Sequence:
#
# PCOD9247821 Si02
#       7
#     4   4   4   4   4   4   4
#     4  10  24  40  63  95 128 166 215 269 313 380
#     4  10  22  41  61  95 126 170 208 263 313 378
#     4  10  23  40  66  92 132 167 211 261 323 367
#     4  11  21  41  62  93 119 172 208 259 317 382
#     4  10  23  43  60  91 130 162 215 263 320 385
#     4  11  23  39  66  91 123 171 208 265 325 379
#     4  10  22  40  63  89 133 162 214 260 315 376
#
# _framework density 24.155377000000001
#
# number of rings (size 3 to 8) (size 9 to 14) (size 15 to 20)
#    0.000    1.714    1.429    1.714    4.000    4.000 
#    0.000    2.143    0.000    0.000    0.000    0.000 
#    0.000    0.000    0.000    0.000    0.000    0.000 
#
# Total GULP energy -156461.977234 kJ/mol
# GULP energy per Si atom -5587.927758 kJ/mol
# Density = 2.410040 g / cm^3
# Si number density = 24.155377 Si / 1000 Ang^3
#
#
#
# Elastic Constant Matrix: (Units=GPa)
#
#
# Indices 1 2 3 4 5 6 
#
# 1 76.4834 5.2696 5.1584 0.0000 -2.2460 0.0000
# 2 5.2696 46.1392 3.6183 0.0000 1.4732 0.0000
# 3 5.1584 3.6183 42.1544 0.0000 1.4741 0.0000
# 4 0.0000 0.0000 0.0000 26.2644 0.0000 7.9074
# 5 -2.2460 1.4732 1.4741 0.0000 29.8140 0.0000
# 6 0.0000 0.0000 0.0000 7.9074 0.0000 24.2738
#
#
#
# Elastic Compliance Matrix: (Units=1/GPa)
#
#
# Indices 1 2 3 4 5 6 
#
# 1 0.013312 -0.001436 -0.001546 0.000000 0.001150 0.000000
# 2 -0.001436 0.022004 -0.001674 0.000000 -0.001113 0.000000
# 3 -0.001546 -0.001674 0.024098 0.000000 -0.001225 0.000000
# 4 0.000000 0.000000 0.000000 0.042215 0.000000 -0.013752
# 5 0.001150 -0.001113 -0.001225 0.000000 0.033744 0.000000
# 6 0.000000 0.000000 0.000000 -0.013752 0.000000 0.045676
#
#
# Mechanical properties :
#
#
# Convention : Reuss Voigt Hill
#
# Bulk Modulus (GPa) = 19.95915 21.42996 20.69455
# Shear Modulus (GPa) = 24.14746 26.11915 25.13331
#
# Velocity S-wave (km/s) = 3.16519 3.29188 3.22915
# Velocity P-wave (km/s) = 4.65174 4.83110 4.74227
#
# Compressibility (1/GPa) = 0.05010234
#
# Stress axis : x y z
#
# Youngs Moduli (GPa) = 75.12192 45.44559 41.49713
#
# Poissons Ratio (x) = 0.06525 0.06415
# Poissons Ratio (y) = 0.10786 0.06947
# Poissons Ratio (z) = 0.11613 0.07608
#
# Static dielectric constant tensor:
#      x y z
#    x 1.936760 0.000000 -0.020230 
#    y 0.000000 1.932030 0.000000 
#    z -0.020230 0.000000 1.944330 
# 
# From -- ./inp_files/18721.got.cif
#   From: 2010.05.17/outbox.cif.g08.bks.cpg/sg14_10_cif.got.tgz:18721.got - 2010.06.03 17:49:19.
