data_PCOD9247267
_publ_section_title
;
Structure prediction by ZEFSAII (Michael W. Deem and Ramdas Pophale) SiO2 
 PCOD9247267
Probable space group: P 21/C
;
_chemical_formula_sum "Si O2"
_cell_formula_units_Z 20
_cell_length_a 7.220359
_cell_length_b 10.530218
_cell_length_c 13.712096
_cell_angle_alpha 90.000000
_cell_angle_beta 139.784588
_cell_angle_gamma 90.000000
_cell_volume 673.140898
_symmetry_space_group_name_H-M "P 21/C"
_symmetry_group_IT_number 14
_symmetry_cell_setting 'monoclinic'
loop_
_space_group_symop_operation_xyz
x,y,z
-x,1/2+y,1/2-z
-x,-y,-z
x,1/2-y,1/2+z
loop_
_atom_site_type_symbol
_atom_site_label
_atom_site_fract_x
_atom_site_fract_y
_atom_site_fract_z
Si Si1 0.714219 0.972285 0.674340
Si Si2 0.990583 0.703005 0.017769
Si Si3 0.991758 0.301059 0.190762
Si Si4 0.413171 0.848057 0.854972
Si Si5 0.321073 0.944993 0.131126
O O1 0.568000 0.009864 0.718615
O O2 0.809367 0.825768 0.721545
O O3 0.500000 0.000000 0.500000
O O4 0.962626 0.080389 0.754969
O O5 0.129572 0.646455 0.170961
O O6 0.252927 0.799382 0.099747
O O7 0.958044 0.643342 0.897461
O O8 0.690758 0.770987 0.925159
O O9 0.692600 0.227651 0.094332
O O10 0.517174 0.991999 0.892579
O O11 0.000000 0.000000 0.000000
#
# Coordination Sequence:
#
# PCOD9247267 Si02
#       5
#     4   4   4   4   4
#     4  12  27  51  78 119 166 201 276 337 391 490
#     4  11  25  48  74 111 158 200 273 335 387 492
#     4  12  28  48  82 114 157 215 263 327 412 471
#     4  11  25  44  78 109 151 207 261 326 406 467
#     4  10  21  48  71 103 160 194 256 340 377 471
#
# _framework density 29.711459999999999
#
# number of rings (size 3 to 8) (size 9 to 14) (size 15 to 20)
#    0.000    0.800    6.000    1.200    2.800    2.400 
#    0.000    3.000    0.000    0.000    0.000    0.000 
#    0.000    0.000    0.000    0.000    0.000    0.000 
#
# Total GULP energy -111893.595399 kJ/mol
# GULP energy per Si atom -5594.679770 kJ/mol
# Density = 2.964384 g / cm^3
# Si number density = 29.711460 Si / 1000 Ang^3
#
#
#
# Elastic Constant Matrix: (Units=GPa)
#
#
# Indices 1 2 3 4 5 6 
#
# 1 193.2091 14.0500 43.5430 0.0000 -11.8476 0.0000
# 2 14.0500 125.4484 42.7228 0.0000 19.4227 0.0000
# 3 43.5430 42.7228 149.4300 0.0000 -15.4892 0.0000
# 4 0.0000 0.0000 0.0000 34.7823 0.0000 -2.2031
# 5 -11.8476 19.4227 -15.4892 0.0000 50.8037 0.0000
# 6 0.0000 0.0000 0.0000 -2.2031 0.0000 57.1527
#
#
#
# Elastic Compliance Matrix: (Units=1/GPa)
#
#
# Indices 1 2 3 4 5 6 
#
# 1 0.005581 -0.000283 -0.001445 0.000000 0.000969 0.000000
# 2 -0.000283 0.009850 -0.003233 0.000000 -0.004817 0.000000
# 3 -0.001445 -0.003233 0.008396 0.000000 0.003459 0.000000
# 4 0.000000 0.000000 0.000000 0.028821 0.000000 0.001111
# 5 0.000969 -0.004817 0.003459 0.000000 0.022806 0.000000
# 6 0.000000 0.000000 0.000000 0.001111 0.000000 0.017540
#
#
# Mechanical properties :
#
#
# Convention : Reuss Voigt Hill
#
# Bulk Modulus (GPa) = 71.91521 74.30212 73.10867
# Shear Modulus (GPa) = 46.48953 53.06586 49.77769
#
# Velocity S-wave (km/s) = 3.95992 4.23074 4.09757
# Velocity P-wave (km/s) = 6.72049 6.99484 6.85904
#
# Compressibility (1/GPa) = 0.01390526
#
# Stress axis : x y z
#
# Youngs Moduli (GPa) = 179.16607 101.52261 119.10403
#
# Poissons Ratio (x) = 0.02874 0.17210
# Poissons Ratio (y) = 0.05072 0.38507
# Poissons Ratio (z) = 0.25889 0.32823
#
# Static dielectric constant tensor:
#      x y z
#    x 2.327230 0.000000 0.041260 
#    y 0.000000 2.363460 0.000000 
#    z 0.041260 0.000000 2.458290 
# 
# From -- ./inp_files/21103.got.cif
#   From: 2010.05.17/outbox.cif.g08.bks.cpg/sg14_11_cif.got.tgz:21103.got - 2010.06.03 17:49:19.
