data_PCOD9247236
_publ_section_title
;
Structure prediction by ZEFSAII (Michael W. Deem and Ramdas Pophale) SiO2 
 PCOD9247236
Probable space group: P 21/C
;
_chemical_formula_sum "Si O2"
_cell_formula_units_Z 32
_cell_length_a 11.862483
_cell_length_b 15.615073
_cell_length_c 15.541765
_cell_angle_alpha 90.000000
_cell_angle_beta 152.075683
_cell_angle_gamma 90.000000
_cell_volume 1348.182290
_symmetry_space_group_name_H-M "P 21/C"
_symmetry_group_IT_number 14
_symmetry_cell_setting 'monoclinic'
loop_
_space_group_symop_operation_xyz
x,y,z
-x,1/2+y,1/2-z
-x,-y,-z
x,1/2-y,1/2+z
loop_
_atom_site_type_symbol
_atom_site_label
_atom_site_fract_x
_atom_site_fract_y
_atom_site_fract_z
Si Si1 0.515081 0.643090 0.996759
Si Si2 0.062772 0.806651 0.864956
Si Si3 0.567492 0.165303 0.019915
Si Si4 0.123322 0.095836 0.637431
Si Si5 0.104974 0.607121 0.841102
Si Si6 0.659837 0.083062 0.253498
Si Si7 0.800423 0.927147 0.966923
Si Si8 0.222341 0.613231 0.634116
O O1 0.415407 0.740118 0.930728
O O2 0.429817 0.609831 0.846155
O O3 0.372969 0.598505 0.980486
O O4 0.800990 0.650813 0.199432
O O5 0.055607 0.707953 0.829094
O O6 0.207766 0.854961 0.888077
O O7 0.217600 0.816004 0.056487
O O8 0.549534 0.100922 0.086373
O O9 0.325791 0.162083 0.801010
O O10 0.976668 0.065197 0.624167
O O11 0.914432 0.130421 0.435348
O O12 0.265778 0.016326 0.693132
O O13 0.936199 0.575853 0.649913
O O14 0.466103 0.107109 0.194563
O O15 0.972697 0.877114 0.018255
O O16 0.782601 0.022962 0.918867
#
# Coordination Sequence:
#
# PCOD9247236 Si02
#       8
#     4   4   4   4   4   4   4   4
#     4  10  23  42  61  96 129 168 220 264 321 392
#     4  11  23  41  67  96 128 175 213 267 330 387
#     4  11  23  41  65  92 131 168 211 273 321 381
#     4  11  23  39  61  97 125 165 219 263 321 387
#     4  10  22  42  65  91 134 170 216 268 322 392
#     4  11  24  38  67  96 126 170 214 268 323 384
#     4  10  21  46  65  94 136 172 215 276 327 385
#     4  10  24  41  67  96 131 173 219 269 329 389
#
# _framework density 23.735662999999999
#
# number of rings (size 3 to 8) (size 9 to 14) (size 15 to 20)
#    0.000    1.500    2.500    1.125    5.250    3.000 
#    0.000    4.375    0.000    0.000    0.000    0.000 
#    0.000    0.000    0.000    0.000    0.000    0.000 
#
# Total GULP energy -178901.937728 kJ/mol
# GULP energy per Si atom -5590.685554 kJ/mol
# Density = 2.368164 g / cm^3
# Si number density = 23.735663 Si / 1000 Ang^3
#
#
#
# Elastic Constant Matrix: (Units=GPa)
#
#
# Indices 1 2 3 4 5 6 
#
# 1 115.7655 -0.0726 31.0483 0.0000 8.9922 0.0000
# 2 -0.0726 41.5604 11.1886 0.0000 -13.5651 0.0000
# 3 31.0483 11.1886 69.3578 0.0000 7.2494 0.0000
# 4 0.0000 0.0000 0.0000 27.2373 0.0000 -6.1756
# 5 8.9922 -13.5651 7.2494 0.0000 43.1598 0.0000
# 6 0.0000 0.0000 0.0000 -6.1756 0.0000 24.2454
#
#
#
# Elastic Compliance Matrix: (Units=1/GPa)
#
#
# Indices 1 2 3 4 5 6 
#
# 1 0.009919 0.000883 -0.004474 0.000000 -0.001037 0.000000
# 2 0.000883 0.028951 -0.006105 0.000000 0.009941 0.000000
# 3 -0.004474 -0.006105 0.017822 0.000000 -0.003980 0.000000
# 4 0.000000 0.000000 0.000000 0.038965 0.000000 0.009925
# 5 -0.001037 0.009941 -0.003980 0.000000 0.027179 0.000000
# 6 0.000000 0.000000 0.000000 0.009925 0.000000 0.043773
#
#
# Mechanical properties :
#
#
# Convention : Reuss Voigt Hill
#
# Bulk Modulus (GPa) = 26.80946 34.55691 30.68318
# Shear Modulus (GPa) = 25.19737 31.22979 28.21358
#
# Velocity S-wave (km/s) = 3.26173 3.63124 3.45143
# Velocity P-wave (km/s) = 5.05022 5.67202 5.37013
#
# Compressibility (1/GPa) = 0.03730027
#
# Stress axis : x y z
#
# Youngs Moduli (GPa) = 100.81301 34.54126 56.11110
#
# Poissons Ratio (x) = -0.03051 0.25107
# Poissons Ratio (y) = -0.08905 0.34254
# Poissons Ratio (z) = 0.45109 0.21086
#
# Static dielectric constant tensor:
#      x y z
#    x 1.911880 0.000000 0.003660 
#    y 0.000000 1.904580 0.000000 
#    z 0.003660 0.000000 1.915540 
# 
# From -- ./inp_files/45398.got.cif
#   From: 2010.05.17/outbox.cif.g08.bks.cpg/sg14_23_cif.got.tgz:45398.got - 2010.06.03 17:49:19.
