data_PCOD9247633
_publ_section_title
;
Structure prediction by ZEFSAII (Michael W. Deem and Ramdas Pophale) SiO2 
 PCOD9247633
Probable space group: P 21/C
;
_chemical_formula_sum "Si O2"
_cell_formula_units_Z 32
_cell_length_a 12.165104
_cell_length_b 27.485320
_cell_length_c 9.332582
_cell_angle_alpha 90.000000
_cell_angle_beta 148.938518
_cell_angle_gamma 90.000000
_cell_volume 1610.024295
_symmetry_space_group_name_H-M "P 21/C"
_symmetry_group_IT_number 14
_symmetry_cell_setting 'monoclinic'
loop_
_space_group_symop_operation_xyz
x,y,z
-x,1/2+y,1/2-z
-x,-y,-z
x,1/2-y,1/2+z
loop_
_atom_site_type_symbol
_atom_site_label
_atom_site_fract_x
_atom_site_fract_y
_atom_site_fract_z
Si Si1 0.264446 0.783926 0.864921
Si Si2 0.389130 0.940344 0.768134
Si Si3 0.304020 0.663102 0.135756
Si Si4 0.973522 0.210497 0.101416
Si Si5 0.216520 0.988625 0.826175
Si Si6 0.639893 0.726165 0.354380
Si Si7 0.025067 0.469934 0.382829
Si Si8 0.106509 0.357544 0.518477
O O1 0.167443 0.794826 0.912546
O O2 0.514277 0.770724 0.141179
O O3 0.224779 0.826283 0.706898
O O4 0.154399 0.737024 0.668856
O O5 0.438525 0.885807 0.780904
O O6 0.200441 0.959651 0.451904
O O7 0.305466 0.942362 0.839170
O O8 0.600186 0.971788 0.994656
O O9 0.456818 0.705836 0.254197
O O10 0.100834 0.654749 0.809021
O O11 0.059039 0.160473 0.127691
O O12 0.159940 0.248657 0.347629
O O13 0.160046 0.994960 0.928419
O O14 0.000000 0.000000 0.500000
O O15 0.714710 0.680449 0.340715
O O16 0.000000 0.500000 0.500000
O O17 0.130606 0.416132 0.527678
#
# Coordination Sequence:
#
# PCOD9247633 Si02
#       8
#     4   4   4   4   4   4   4   4
#     4  12  23  39  58  86 122 156 197 244 292 350
#     4   9  20  38  64  87 115 153 201 249 298 355
#     4  11  22  38  60  89 115 156 204 244 295 359
#     4  12  23  40  58  88 124 160 200 244 292 357
#     4   9  18  39  63  85 115 154 194 246 299 350
#     4  12  21  37  65  81 123 163 198 237 306 348
#     4  10  22  39  62  91 122 156 199 249 306 360
#     4  11  23  40  61  88 122 162 202 245 298 358
#
# _framework density 19.875477
#
# number of rings (size 3 to 8) (size 9 to 14) (size 15 to 20)
#    0.000    1.250    5.000    1.500    0.000    1.500 
#    0.000    3.750    0.000    0.000    0.000    0.000 
#    0.000    0.000    0.000    0.000    0.000    0.000 
#
# Total GULP energy -178277.148885 kJ/mol
# GULP energy per Si atom -5571.160903 kJ/mol
# Density = 1.983024 g / cm^3
# Si number density = 19.875477 Si / 1000 Ang^3
#
#
#
# Elastic Constant Matrix: (Units=GPa)
#
#
# Indices 1 2 3 4 5 6 
#
# 1 141.1439 24.8032 22.8087 0.0000 -25.6981 0.0000
# 2 24.8032 57.4272 13.7363 0.0000 -16.9295 0.0000
# 3 22.8087 13.7363 41.1195 0.0000 -2.5718 0.0000
# 4 0.0000 0.0000 0.0000 16.4125 0.0000 2.2082
# 5 -25.6981 -16.9295 -2.5718 0.0000 27.7449 0.0000
# 6 0.0000 0.0000 0.0000 2.2082 0.0000 23.0514
#
#
#
# Elastic Compliance Matrix: (Units=1/GPa)
#
#
# Indices 1 2 3 4 5 6 
#
# 1 0.009353 -0.000655 -0.004478 0.000000 0.007848 0.000000
# 2 -0.000655 0.023047 -0.006532 0.000000 0.012851 0.000000
# 3 -0.004478 -0.006532 0.028643 0.000000 -0.005479 0.000000
# 4 0.000000 0.000000 0.000000 0.061725 0.000000 -0.005913
# 5 0.007848 0.012851 -0.005479 0.000000 0.050645 0.000000
# 6 0.000000 0.000000 0.000000 -0.005913 0.000000 0.043948
#
#
# Mechanical properties :
#
#
# Convention : Reuss Voigt Hill
#
# Bulk Modulus (GPa) = 26.51651 40.26522 33.39086
# Shear Modulus (GPa) = 19.74245 25.33125 22.53685
#
# Velocity S-wave (km/s) = 3.15510 3.57388 3.37100
# Velocity P-wave (km/s) = 5.16170 6.11007 5.65580
#
# Compressibility (1/GPa) = 0.03771236
#
# Stress axis : x y z
#
# Youngs Moduli (GPa) = 106.92229 43.38945 34.91270
#
# Poissons Ratio (x) = 0.02841 0.15635
# Poissons Ratio (y) = 0.07000 0.22806
# Poissons Ratio (z) = 0.47882 0.28343
#
# Static dielectric constant tensor:
#      x y z
#    x 1.759660 0.000000 -0.016490 
#    y 0.000000 1.713870 0.000000 
#    z -0.016490 0.000000 1.729620 
# 
# From -- ./inp_files/6796.got.cif
#   From: 2010.05.17/outbox.cif.g08.bks.cpg/sg14_4_cif.got.tgz:6796.got - 2010.06.03 17:49:19.
