data_PCOD9247241
_publ_section_title
;
Structure prediction by ZEFSAII (Michael W. Deem and Ramdas Pophale) SiO2 
 PCOD9247241
Probable space group: P 21/C
;
_chemical_formula_sum "Si O2"
_cell_formula_units_Z 28
_cell_length_a 8.829192
_cell_length_b 20.775549
_cell_length_c 9.722873
_cell_angle_alpha 90.000000
_cell_angle_beta 43.323708
_cell_angle_gamma 90.000000
_cell_volume 1223.679836
_symmetry_space_group_name_H-M "P 21/C"
_symmetry_group_IT_number 14
_symmetry_cell_setting 'monoclinic'
loop_
_space_group_symop_operation_xyz
x,y,z
-x,1/2+y,1/2-z
-x,-y,-z
x,1/2-y,1/2+z
loop_
_atom_site_type_symbol
_atom_site_label
_atom_site_fract_x
_atom_site_fract_y
_atom_site_fract_z
Si Si1 0.384382 0.261717 0.502406
Si Si2 0.975591 0.069481 0.940987
Si Si3 0.186068 0.677410 0.278140
Si Si4 0.114743 0.290223 0.949198
Si Si5 0.750783 0.988539 0.880655
Si Si6 0.606783 0.613633 0.699651
Si Si7 0.104466 0.894073 0.556662
O O1 0.597693 0.218749 0.393695
O O2 0.290608 0.289317 0.707702
O O3 0.221418 0.214017 0.528357
O O4 0.419059 0.318164 0.363912
O O5 0.212816 0.106002 0.796976
O O6 0.868558 0.051120 0.866481
O O7 0.800984 0.113411 0.139286
O O8 0.000000 0.000000 0.000000
O O9 0.078726 0.653148 0.206662
O O10 0.029662 0.725859 0.463818
O O11 0.954998 0.350137 0.033093
O O12 0.934734 0.952892 0.667574
O O13 0.710346 0.934702 0.022551
O O14 0.500000 0.000000 0.000000
O O15 0.362050 0.589127 0.896024
#
# Coordination Sequence:
#
# PCOD9247241 Si02
#       7
#     4   4   4   4   4   4   4
#     4  12  25  40  70 102 144 179 232 289 358 423
#     4  10  21  46  68  93 135 185 233 283 341 420
#     4  12  24  42  70 103 133 185 235 283 360 418
#     4  12  23  44  64 102 142 182 223 294 355 417
#     4  11  25  47  69  97 142 186 235 297 349 418
#     4  11  22  45  69  99 137 182 232 296 352 419
#     4  12  24  45  70 100 143 184 236 294 357 425
#
# _framework density 22.881802
#
# number of rings (size 3 to 8) (size 9 to 14) (size 15 to 20)
#    0.000    0.571    8.571    0.857    2.000    1.143 
#    2.571    0.000    0.000    0.000    0.000    0.000 
#    0.000    0.000    0.000    0.000    0.000    0.000 
#
# Total GULP energy -156250.590126 kJ/mol
# GULP energy per Si atom -5580.378219 kJ/mol
# Density = 2.282972 g / cm^3
# Si number density = 22.881802 Si / 1000 Ang^3
#
#
#
# Elastic Constant Matrix: (Units=GPa)
#
#
# Indices 1 2 3 4 5 6 
#
# 1 94.6475 28.2970 20.5976 0.0000 -24.8603 0.0000
# 2 28.2970 66.3139 26.4283 0.0000 -0.8599 0.0000
# 3 20.5976 26.4283 87.6241 0.0000 -28.8287 0.0000
# 4 0.0000 0.0000 0.0000 41.4195 0.0000 -3.2203
# 5 -24.8603 -0.8599 -28.8287 0.0000 36.3678 0.0000
# 6 0.0000 0.0000 0.0000 -3.2203 0.0000 42.6574
#
#
#
# Elastic Compliance Matrix: (Units=1/GPa)
#
#
# Indices 1 2 3 4 5 6 
#
# 1 0.015554 -0.007590 0.002803 0.000000 0.012675 0.000000
# 2 -0.007590 0.021542 -0.008458 0.000000 -0.011384 0.000000
# 3 0.002803 -0.008458 0.018763 0.000000 0.016589 0.000000
# 4 0.000000 0.000000 0.000000 0.024286 0.000000 0.001833
# 5 0.012675 -0.011384 0.016589 0.000000 0.049042 0.000000
# 6 0.000000 0.000000 0.000000 0.001833 0.000000 0.023581
#
#
# Mechanical properties :
#
#
# Convention : Reuss Voigt Hill
#
# Bulk Modulus (GPa) = 34.05099 44.35904 39.20501
# Shear Modulus (GPa) = 26.44851 35.63978 31.04414
#
# Velocity S-wave (km/s) = 3.40350 3.95088 3.68736
# Velocity P-wave (km/s) = 5.50987 6.34356 5.94136
#
# Compressibility (1/GPa) = 0.02936772
#
# Stress axis : x y z
#
# Youngs Moduli (GPa) = 64.29290 46.42142 53.29769
#
# Poissons Ratio (x) = 0.35233 -0.14939
# Poissons Ratio (y) = 0.48797 0.45082
# Poissons Ratio (z) = -0.18021 0.39265
#
# Static dielectric constant tensor:
#      x y z
#    x 2.112300 0.000000 -0.435190 
#    y 0.000000 1.859930 0.000000 
#    z -0.435190 0.000000 2.920020 
# 
# From -- ./inp_files/26737.got.cif
#   From: 2010.05.17/outbox.cif.g08.bks.cpg/sg14_14_cif.got.tgz:26737.got - 2010.06.03 17:49:19.
