data_PCOD9247916
_publ_section_title
;
Structure prediction by ZEFSAII (Michael W. Deem and Ramdas Pophale) SiO2 
 PCOD9247916
Probable space group: P 21/C
;
_chemical_formula_sum "Si O2"
_cell_formula_units_Z 32
_cell_length_a 22.749108
_cell_length_b 9.834006
_cell_length_c 11.393797
_cell_angle_alpha 90.000000
_cell_angle_beta 148.203141
_cell_angle_gamma 90.000000
_cell_volume 1343.071405
_symmetry_space_group_name_H-M "P 21/C"
_symmetry_group_IT_number 14
_symmetry_cell_setting 'monoclinic'
loop_
_space_group_symop_operation_xyz
x,y,z
-x,1/2+y,1/2-z
-x,-y,-z
x,1/2-y,1/2+z
loop_
_atom_site_type_symbol
_atom_site_label
_atom_site_fract_x
_atom_site_fract_y
_atom_site_fract_z
Si Si1 0.818757 0.014966 0.284292
Si Si2 0.549237 0.322753 0.967277
Si Si3 0.103536 0.800798 0.056439
Si Si4 0.391646 0.535345 0.169188
Si Si5 0.019018 0.291384 0.906852
Si Si6 0.227312 0.093912 0.250990
Si Si7 0.627292 0.473123 0.618856
Si Si8 0.671269 0.967377 0.821409
O O1 0.937769 0.946528 0.505523
O O2 0.813396 0.173430 0.307581
O O3 0.721802 0.958510 0.203265
O O4 0.776445 0.992129 0.081975
O O5 0.602532 0.388276 0.942572
O O6 0.425627 0.380845 0.780352
O O7 0.566834 0.164577 0.974912
O O8 0.617709 0.387452 0.192764
O O9 0.162161 0.948152 0.156616
O O10 0.043816 0.765995 0.082039
O O11 0.037141 0.786370 0.818529
O O12 0.517295 0.566267 0.430441
O O13 0.323786 0.565494 0.171692
O O14 0.326079 0.399875 0.014706
O O15 0.132796 0.205651 0.100025
O O16 0.285565 0.100978 0.223603
#
# Coordination Sequence:
#
# PCOD9247916 Si02
#       8
#     4   4   4   4   4   4   4   4
#     4  12  25  44  74 103 140 185 236 285 363 424
#     4  10  22  40  66  94 145 185 228 274 337 417
#     4  12  27  49  72 105 138 183 243 302 360 419
#     4  10  24  41  59 106 134 178 223 280 343 417
#     4  12  28  47  74 102 139 184 238 309 357 420
#     4  11  25  44  76 100 139 184 233 290 362 422
#     4  11  25  39  68  99 147 179 230 284 342 425
#     4  10  22  42  65 103 133 188 227 280 341 429
#
# _framework density 23.825986
#
# number of rings (size 3 to 8) (size 9 to 14) (size 15 to 20)
#    0.000    1.000    1.250    4.500    8.750    2.000 
#    0.000    0.000    0.000    0.000    0.000    0.000 
#    0.000    0.000    0.000    0.000    0.000    0.000 
#
# Total GULP energy -178375.298568 kJ/mol
# GULP energy per Si atom -5574.228080 kJ/mol
# Density = 2.377176 g / cm^3
# Si number density = 23.825986 Si / 1000 Ang^3
#
#
#
# Elastic Constant Matrix: (Units=GPa)
#
#
# Indices 1 2 3 4 5 6 
#
# 1 90.4098 10.3285 48.5505 0.0000 -6.3664 0.0000
# 2 10.3285 42.1315 -3.9114 0.0000 4.7235 0.0000
# 3 48.5505 -3.9114 86.3545 0.0000 -6.5142 0.0000
# 4 0.0000 0.0000 0.0000 25.4384 0.0000 12.0488
# 5 -6.3664 4.7235 -6.5142 0.0000 33.6424 0.0000
# 6 0.0000 0.0000 0.0000 12.0488 0.0000 17.3497
#
#
#
# Elastic Compliance Matrix: (Units=1/GPa)
#
#
# Indices 1 2 3 4 5 6 
#
# 1 0.016985 -0.005292 -0.009631 0.000000 0.002092 0.000000
# 2 -0.005292 0.025826 0.003853 0.000000 -0.003882 0.000000
# 3 -0.009631 0.003853 0.017243 0.000000 0.000975 0.000000
# 4 0.000000 0.000000 0.000000 0.058579 0.000000 -0.040681
# 5 0.002092 -0.003882 0.000975 0.000000 0.030854 0.000000
# 6 0.000000 0.000000 0.000000 -0.040681 0.000000 0.085889
#
#
# Mechanical properties :
#
#
# Convention : Reuss Voigt Hill
#
# Bulk Modulus (GPa) = 26.37745 36.53677 31.45711
# Shear Modulus (GPa) = 18.50791 26.21466 22.36128
#
# Velocity S-wave (km/s) = 2.79013 3.32061 3.06686
# Velocity P-wave (km/s) = 4.63408 5.48362 5.07665
#
# Compressibility (1/GPa) = 0.03791117
#
# Stress axis : x y z
#
# Youngs Moduli (GPa) = 58.87682 38.72140 57.99439
#
# Poissons Ratio (x) = 0.20493 0.55855
# Poissons Ratio (y) = 0.31161 -0.22343
# Poissons Ratio (z) = 0.56704 -0.14918
#
# Static dielectric constant tensor:
#      x y z
#    x 1.964920 0.000000 0.075100 
#    y 0.000000 2.040770 0.000000 
#    z 0.075100 0.000000 2.088470 
# 
# From -- ./inp_files/35925.got.cif
#   From: 2010.05.17/outbox.cif.g08.bks.cpg/sg14_18_cif.got.tgz:35925.got - 2010.06.03 17:49:19.
