data_PCOD9247147
_publ_section_title
;
Structure prediction by ZEFSAII (Michael W. Deem and Ramdas Pophale) SiO2 
 PCOD9247147
Probable space group: P 21/C
;
_chemical_formula_sum "Si O2"
_cell_formula_units_Z 32
_cell_length_a 5.153827
_cell_length_b 23.318659
_cell_length_c 11.568766
_cell_angle_alpha 90.000000
_cell_angle_beta 90.745077
_cell_angle_gamma 90.000000
_cell_volume 1390.220611
_symmetry_space_group_name_H-M "P 21/C"
_symmetry_group_IT_number 14
_symmetry_cell_setting 'monoclinic'
loop_
_space_group_symop_operation_xyz
x,y,z
-x,1/2+y,1/2-z
-x,-y,-z
x,1/2-y,1/2+z
loop_
_atom_site_type_symbol
_atom_site_label
_atom_site_fract_x
_atom_site_fract_y
_atom_site_fract_z
Si Si1 0.362372 0.760919 0.944705
Si Si2 0.540904 0.035102 0.382666
Si Si3 0.574873 0.857513 0.477857
Si Si4 0.330016 0.359420 0.631046
Si Si5 0.946355 0.353501 0.416191
Si Si6 0.922856 0.340660 0.152705
Si Si7 0.704568 0.452958 0.537365
Si Si8 0.946223 0.544751 0.257958
O O1 0.532311 0.710022 0.001717
O O2 0.133838 0.725787 0.879885
O O3 0.529775 0.798571 0.855589
O O4 0.240761 0.803296 0.037808
O O5 0.486881 0.101075 0.417620
O O6 0.826906 0.032157 0.331681
O O7 0.500000 0.000000 0.500000
O O8 0.682510 0.982632 0.708948
O O9 0.355796 0.868849 0.378001
O O10 0.860283 0.866107 0.430086
O O11 0.185253 0.354981 0.506478
O O12 0.124267 0.387729 0.717688
O O13 0.553088 0.407255 0.618765
O O14 0.011511 0.345727 0.283900
O O15 0.800788 0.413466 0.434133
O O16 0.500000 0.500000 0.500000
O O17 0.942165 0.474872 0.617412
#
# Coordination Sequence:
#
# PCOD9247147 Si02
#       8
#     4   4   4   4   4   4   4   4
#     4   9  22  42  65  97 139 177 228 285 340 422
#     4  12  26  49  72 104 143 187 238 297 346 426
#     4  10  24  46  64 101 139 176 236 277 344 416
#     4  10  21  44  69 101 141 173 239 279 347 421
#     4  10  22  40  69  99 136 179 223 286 341 414
#     4  10  23  43  65 100 133 179 226 276 354 402
#     4  10  23  45  67 107 140 178 232 284 344 422
#     4  11  24  46  72 104 134 190 233 284 363 404
#
# _framework density 23.017932999999999
#
# number of rings (size 3 to 8) (size 9 to 14) (size 15 to 20)
#    0.750    1.000    1.250    1.875    3.500    4.000 
#    6.750    0.000    0.000    0.000    0.000    0.000 
#    0.000    0.000    0.000    0.000    0.000    0.000 
#
# Total GULP energy -178763.968438 kJ/mol
# GULP energy per Si atom -5586.374014 kJ/mol
# Density = 2.296554 g / cm^3
# Si number density = 23.017933 Si / 1000 Ang^3
#
#
#
# Elastic Constant Matrix: (Units=GPa)
#
#
# Indices 1 2 3 4 5 6 
#
# 1 98.7903 7.6365 0.6655 0.0000 -0.9697 0.0000
# 2 7.6365 77.9292 4.8794 0.0000 -3.4774 0.0000
# 3 0.6655 4.8794 52.0650 0.0000 4.9860 0.0000
# 4 0.0000 0.0000 0.0000 25.4301 0.0000 0.2780
# 5 -0.9697 -3.4774 4.9860 0.0000 43.9761 0.0000
# 6 0.0000 0.0000 0.0000 0.2780 0.0000 18.6946
#
#
#
# Elastic Compliance Matrix: (Units=1/GPa)
#
#
# Indices 1 2 3 4 5 6 
#
# 1 0.010201 -0.000990 -0.000052 0.000000 0.000153 0.000000
# 2 -0.000990 0.013064 -0.001323 0.000000 0.001161 0.000000
# 3 -0.000052 -0.001323 0.019554 0.000000 -0.002323 0.000000
# 4 0.000000 0.000000 0.000000 0.039330 0.000000 -0.000585
# 5 0.000153 0.001161 -0.002323 0.000000 0.023098 0.000000
# 6 0.000000 0.000000 0.000000 -0.000585 0.000000 0.053500
#
#
# Mechanical properties :
#
#
# Convention : Reuss Voigt Hill
#
# Bulk Modulus (GPa) = 26.25424 28.34972 27.30198
# Shear Modulus (GPa) = 28.38132 31.99368 30.18750
#
# Velocity S-wave (km/s) = 3.51523 3.73224 3.62536
# Velocity P-wave (km/s) = 5.28267 5.56021 5.42321
#
# Compressibility (1/GPa) = 0.03808909
#
# Stress axis : x y z
#
# Youngs Moduli (GPa) = 98.03158 76.54756 51.14086
#
# Poissons Ratio (x) = 0.07575 0.00267
# Poissons Ratio (y) = 0.09700 0.06765
# Poissons Ratio (z) = 0.00512 0.10126
#
# Static dielectric constant tensor:
#      x y z
#    x 1.901080 0.000000 0.002350 
#    y 0.000000 1.907010 0.000000 
#    z 0.002350 0.000000 1.852920 
# 
# From -- ./inp_files/22263.got.cif
#   From: 2010.05.17/outbox.cif.g08.bks.cpg/sg14_12_cif.got.tgz:22263.got - 2010.06.03 17:49:19.
