data_PCOD9247630
_publ_section_title
;
Structure prediction by ZEFSAII (Michael W. Deem and Ramdas Pophale) SiO2 
 PCOD9247630
Probable space group: P 21/C
;
_chemical_formula_sum "Si O2"
_cell_formula_units_Z 16
_cell_length_a 17.725373
_cell_length_b 5.134142
_cell_length_c 14.939560
_cell_angle_alpha 90.000000
_cell_angle_beta 35.628270
_cell_angle_gamma 90.000000
_cell_volume 791.981348
_symmetry_space_group_name_H-M "P 21/C"
_symmetry_group_IT_number 14
_symmetry_cell_setting 'monoclinic'
loop_
_space_group_symop_operation_xyz
x,y,z
-x,1/2+y,1/2-z
-x,-y,-z
x,1/2-y,1/2+z
loop_
_atom_site_type_symbol
_atom_site_label
_atom_site_fract_x
_atom_site_fract_y
_atom_site_fract_z
Si Si1 0.079303 0.175556 0.695874
Si Si2 0.378088 0.565998 0.178711
Si Si3 0.126779 0.340645 0.351582
Si Si4 0.723708 0.578120 0.143098
O O1 0.113221 0.255002 0.763920
O O2 0.021975 0.434771 0.704612
O O3 0.201012 0.066710 0.522470
O O4 0.250719 0.530726 0.239796
O O5 0.364774 0.840188 0.240586
O O6 0.359990 0.340109 0.269695
O O7 0.500000 0.500000 0.000000
O O8 0.000000 0.500000 0.500000
O O9 0.164170 0.121905 0.388862
#
# Coordination Sequence:
#
# PCOD9247630 Si02
#       4
#     4   4   4   4
#     4  12  23  36  60  93 129 158 200 256 317 369
#     4  10  22  42  63  85 122 166 205 254 313 364
#     4  10  22  39  62  92 121 162 201 256 315 361
#     4  10  22  39  62  88 125 157 209 252 306 372
#
# _framework density 20.202494000000002
#
# number of rings (size 3 to 8) (size 9 to 14) (size 15 to 20)
#    1.500    0.000    2.500    3.750    3.500    2.000 
#    0.000    2.500    0.000    0.000    0.000    0.000 
#    0.000    0.000    0.000    0.000    0.000    0.000 
#
# Total GULP energy -89195.461385 kJ/mol
# GULP energy per Si atom -5574.716337 kJ/mol
# Density = 2.015651 g / cm^3
# Si number density = 20.202494 Si / 1000 Ang^3
#
#
#
# Elastic Constant Matrix: (Units=GPa)
#
#
# Indices 1 2 3 4 5 6 
#
# 1 29.7498 -4.1313 19.8263 0.0000 11.2912 0.0000
# 2 -4.1313 101.0165 12.5628 0.0000 -6.3473 0.0000
# 3 19.8263 12.5628 142.2350 0.0000 -6.0924 0.0000
# 4 0.0000 0.0000 0.0000 34.8420 0.0000 0.6227
# 5 11.2912 -6.3473 -6.0924 0.0000 38.3742 0.0000
# 6 0.0000 0.0000 0.0000 0.6227 0.0000 9.6349
#
#
#
# Elastic Compliance Matrix: (Units=1/GPa)
#
#
# Indices 1 2 3 4 5 6 
#
# 1 0.043564 0.001774 -0.006812 0.000000 -0.013606 0.000000
# 2 0.001774 0.010171 -0.001103 0.000000 0.000985 0.000000
# 3 -0.006812 -0.001103 0.008211 0.000000 0.003125 0.000000
# 4 0.000000 0.000000 0.000000 0.028734 0.000000 -0.001857
# 5 -0.013606 0.000985 0.003125 0.000000 0.030722 0.000000
# 6 0.000000 0.000000 0.000000 -0.001857 0.000000 0.103909
#
#
# Mechanical properties :
#
#
# Convention : Reuss Voigt Hill
#
# Bulk Modulus (GPa) = 20.13556 36.61300 28.37428
# Shear Modulus (GPa) = 19.67353 32.88646 26.27999
#
# Velocity S-wave (km/s) = 3.12399 4.03903 3.61061
# Velocity P-wave (km/s) = 4.79593 6.31775 5.60870
#
# Compressibility (1/GPa) = 0.04966339
#
# Stress axis : x y z
#
# Youngs Moduli (GPa) = 22.95484 98.31828 121.78081
#
# Poissons Ratio (x) = -0.17440 0.82956
# Poissons Ratio (y) = -0.04072 0.13437
# Poissons Ratio (z) = 0.15637 0.10849
#
# Static dielectric constant tensor:
#      x y z
#    x 1.713300 0.000000 0.026950 
#    y 0.000000 1.744190 0.000000 
#    z 0.026950 0.000000 1.612960 
# 
# From -- ./inp_files/27388.got.cif
#   From: 2010.05.17/outbox.cif.g08.bks.cpg/sg14_14_cif.got.tgz:27388.got - 2010.06.03 17:49:19.
