data_PCOD9247363
_publ_section_title
;
Structure prediction by ZEFSAII (Michael W. Deem and Ramdas Pophale) SiO2 
 PCOD9247363
Probable space group: P 21/C
;
_chemical_formula_sum "Si O2"
_cell_formula_units_Z 20
_cell_length_a 11.490225
_cell_length_b 9.246490
_cell_length_c 20.486790
_cell_angle_alpha 90.000000
_cell_angle_beta 23.072758
_cell_angle_gamma 90.000000
_cell_volume 853.010386
_symmetry_space_group_name_H-M "P 21/C"
_symmetry_group_IT_number 14
_symmetry_cell_setting 'monoclinic'
loop_
_space_group_symop_operation_xyz
x,y,z
-x,1/2+y,1/2-z
-x,-y,-z
x,1/2-y,1/2+z
loop_
_atom_site_type_symbol
_atom_site_label
_atom_site_fract_x
_atom_site_fract_y
_atom_site_fract_z
Si Si1 0.739206 0.097880 0.837797
Si Si2 0.374428 0.340329 0.063287
Si Si3 0.887077 0.272060 0.052935
Si Si4 0.716462 0.662942 0.264005
Si Si5 0.452697 0.442776 0.781630
O O1 0.025339 0.152076 0.729083
O O2 0.850663 0.981695 0.727588
O O3 0.547673 0.240698 0.921288
O O4 0.500000 0.000000 0.000000
O O5 0.418275 0.263515 0.110902
O O6 0.500000 0.500000 0.000000
O O7 0.624865 0.389436 0.174778
O O8 0.743291 0.132578 0.160711
O O9 0.046176 0.249937 0.901320
O O10 0.148522 0.356592 0.956942
O O11 0.508359 0.595634 0.315386
#
# Coordination Sequence:
#
# PCOD9247363 Si02
#       5
#     4   4   4   4   4
#     4  10  22  37  56  81 122 148 193 239 277 349
#     4  11  22  36  58  86 115 153 199 237 281 339
#     4   9  20  38  59  84 110 147 187 236 286 339
#     4   9  21  39  59  79 117 156 181 230 299 330
#     4   9  20  38  60  82 111 145 188 238 285 340
#
# _framework density 23.446373000000001
#
# number of rings (size 3 to 8) (size 9 to 14) (size 15 to 20)
#    1.200    1.200    0.000    2.400    8.400    0.800 
#    3.600    0.000    0.000    0.000    0.000    0.000 
#    0.000    0.000    0.000    0.000    0.000    0.000 
#
# Total GULP energy -111385.441650 kJ/mol
# GULP energy per Si atom -5569.272082 kJ/mol
# Density = 2.339301 g / cm^3
# Si number density = 23.446373 Si / 1000 Ang^3
#
#
#
# Elastic Constant Matrix: (Units=GPa)
#
#
# Indices 1 2 3 4 5 6 
#
# 1 31.8800 -5.2347 10.7416 0.0000 2.5573 0.0000
# 2 -5.2347 115.4265 35.5522 0.0000 -2.4327 0.0000
# 3 10.7416 35.5522 87.3158 0.0000 -10.1273 0.0000
# 4 0.0000 0.0000 0.0000 56.5841 0.0000 -8.0173
# 5 2.5573 -2.4327 -10.1273 0.0000 26.7856 0.0000
# 6 0.0000 0.0000 0.0000 -8.0173 0.0000 15.8721
#
#
#
# Elastic Compliance Matrix: (Units=1/GPa)
#
#
# Indices 1 2 3 4 5 6 
#
# 1 0.034447 0.003368 -0.006228 0.000000 -0.005338 0.000000
# 2 0.003368 0.010246 -0.004723 0.000000 -0.001177 0.000000
# 3 -0.006228 -0.004723 0.014810 0.000000 0.005765 0.000000
# 4 0.000000 0.000000 0.000000 0.019035 0.000000 0.009615
# 5 -0.005338 -0.001177 0.005765 0.000000 0.039916 0.000000
# 6 0.000000 0.000000 0.000000 0.009615 0.000000 0.067860
#
#
# Mechanical properties :
#
#
# Convention : Reuss Voigt Hill
#
# Bulk Modulus (GPa) = 22.55387 35.19339 28.87363
# Shear Modulus (GPa) = 23.12029 32.75260 27.93644
#
# Velocity S-wave (km/s) = 3.14362 3.74159 3.45556
# Velocity P-wave (km/s) = 4.77668 5.80592 5.31627
#
# Compressibility (1/GPa) = 0.04433829
#
# Stress axis : x y z
#
# Youngs Moduli (GPa) = 29.02984 97.59824 67.51975
#
# Poissons Ratio (x) = -0.32872 0.42052
# Poissons Ratio (y) = -0.09777 0.31887
# Poissons Ratio (z) = 0.18080 0.46093
#
# Static dielectric constant tensor:
#      x y z
#    x 2.014960 0.000000 -0.004120 
#    y 0.000000 1.995170 0.000000 
#    z -0.004120 0.000000 1.935220 
# 
# From -- ./inp_files/77455.got.cif
#   From: 2010.05.17/outbox.cif.g08.bks.cpg/sg14_39_cif.got.tgz:77455.got - 2010.06.03 17:49:19.
