data_PCOD9247338
_publ_section_title
;
Structure prediction by ZEFSAII (Michael W. Deem and Ramdas Pophale) SiO2 
 PCOD9247338
Probable space group: P 21/C
;
_chemical_formula_sum "Si O2"
_cell_formula_units_Z 32
_cell_length_a 20.003393
_cell_length_b 13.881481
_cell_length_c 16.352859
_cell_angle_alpha 90.000000
_cell_angle_beta 22.197313
_cell_angle_gamma 90.000000
_cell_volume 1715.505395
_symmetry_space_group_name_H-M "P 21/C"
_symmetry_group_IT_number 14
_symmetry_cell_setting 'monoclinic'
loop_
_space_group_symop_operation_xyz
x,y,z
-x,1/2+y,1/2-z
-x,-y,-z
x,1/2-y,1/2+z
loop_
_atom_site_type_symbol
_atom_site_label
_atom_site_fract_x
_atom_site_fract_y
_atom_site_fract_z
Si Si1 0.435197 0.802246 0.023355
Si Si2 0.484414 0.856645 0.674604
Si Si3 0.100040 0.532769 0.180989
Si Si4 0.151115 0.651852 0.287383
Si Si5 0.556693 0.542146 0.257517
Si Si6 0.230846 0.525532 0.353202
Si Si7 0.318085 0.656769 0.834849
Si Si8 0.750083 0.682555 0.745500
O O1 0.483891 0.892278 0.911928
O O2 0.617038 0.755314 0.851089
O O3 0.314381 0.725138 0.111655
O O4 0.328610 0.832062 0.225720
O O5 0.477123 0.921181 0.762968
O O6 0.393674 0.916222 0.704577
O O7 0.376668 0.757657 0.806663
O O8 0.677784 0.829110 0.420128
O O9 0.165707 0.581567 0.192136
O O10 0.910503 0.490741 0.414801
O O11 0.232018 0.450769 0.998753
O O12 0.130473 0.618211 0.080940
O O13 0.150958 0.585868 0.368612
O O14 0.959073 0.703364 0.501992
O O15 0.547290 0.428588 0.289414
O O16 0.273071 0.420394 0.272020
#
# Coordination Sequence:
#
# PCOD9247338 Si02
#       8
#     4   4   4   4   4   4   4   4
#     4  11  22  41  62  90 119 169 205 245 302 376
#     4  11  20  37  62  91 117 162 208 249 302 370
#     4   9  21  37  56  85 120 159 196 250 304 358
#     4  11  20  38  63  91 125 156 199 255 310 354
#     4  10  22  38  62  83 124 160 204 247 303 361
#     4  11  20  36  61  91 126 153 198 261 312 355
#     4   9  21  40  59  83 125 162 200 250 306 363
#     4  10  22  36  62  94 120 154 200 255 309 365
#
# _framework density 18.653396000000001
#
# number of rings (size 3 to 8) (size 9 to 14) (size 15 to 20)
#    0.750    1.000    2.500    4.500    1.750    0.000 
#    6.750    2.500    0.000    4.500    0.000    0.000 
#    0.000    0.000    0.000    0.000    0.000    0.000 
#
# Total GULP energy -178255.537619 kJ/mol
# GULP energy per Si atom -5570.485551 kJ/mol
# Density = 1.861094 g / cm^3
# Si number density = 18.653396 Si / 1000 Ang^3
#
#
#
# Elastic Constant Matrix: (Units=GPa)
#
#
# Indices 1 2 3 4 5 6 
#
# 1 44.2894 -9.8877 -1.3814 0.0000 -1.8856 0.0000
# 2 -9.8877 2.3248 -22.8992 0.0000 5.4929 0.0000
# 3 -1.3814 -22.8992 50.5709 0.0000 16.2708 0.0000
# 4 0.0000 0.0000 0.0000 14.3441 0.0000 12.5798
# 5 -1.8856 5.4929 16.2708 0.0000 13.7900 0.0000
# 6 0.0000 0.0000 0.0000 12.5798 0.0000 -0.4156
#
#
#
# Elastic Compliance Matrix: (Units=1/GPa)
#
#
# Indices 1 2 3 4 5 6 
#
# 1 0.021481 -0.006549 -0.006710 0.000000 0.013464 0.000000
# 2 -0.006549 -0.034530 -0.032161 0.000000 0.050805 0.000000
# 3 -0.006710 -0.032161 0.001937 0.000000 0.009607 0.000000
# 4 0.000000 0.000000 0.000000 0.002531 0.000000 0.076607
# 5 0.013464 0.050805 0.009607 0.000000 0.042785 0.000000
# 6 0.000000 0.000000 0.000000 0.076607 0.000000 -0.087351
#
#
# Mechanical properties :
#
#
# Convention : Reuss Voigt Hill
#
# Bulk Modulus (GPa) = -9.80849 3.20538 -3.30155
# Shear Modulus (GPa) = 1348.22605 14.30060 681.26332
#
# Velocity S-wave (km/s) = 26.91369 2.77185 19.13152
# Velocity P-wave (km/s) = 30.99236 3.45923 22.05099
#
# Compressibility (1/GPa) = -0.10195254
#
# Stress axis : x y z
#
# Youngs Moduli (GPa) = 46.55371 -28.96040 516.24491
#
# Poissons Ratio (x) = -0.18966 3.46426
# Poissons Ratio (y) = 0.30488 16.60276
# Poissons Ratio (z) = 0.31240 -0.93138
#
# Static dielectric constant tensor:
#      x y z
#    x 1.641030 0.000000 0.004090 
#    y 0.000000 1.638370 0.000000 
#    z 0.004090 0.000000 1.666990 
# 
# From -- ./inp_files/61451.got.cif
#   From: 2010.05.17/outbox.cif.g08.bks.cpg/sg14_31_cif.got.tgz:61451.got - 2010.06.03 17:49:19.
