data_PCOD9247420
_publ_section_title
;
Structure prediction by ZEFSAII (Michael W. Deem and Ramdas Pophale) SiO2 
 PCOD9247420
Probable space group: P 21/C
;
_chemical_formula_sum "Si O2"
_cell_formula_units_Z 24
_cell_length_a 16.117602
_cell_length_b 10.713220
_cell_length_c 10.348352
_cell_angle_alpha 90.000000
_cell_angle_beta 147.900728
_cell_angle_gamma 90.000000
_cell_volume 949.518074
_symmetry_space_group_name_H-M "P 21/C"
_symmetry_group_IT_number 14
_symmetry_cell_setting 'monoclinic'
loop_
_space_group_symop_operation_xyz
x,y,z
-x,1/2+y,1/2-z
-x,-y,-z
x,1/2-y,1/2+z
loop_
_atom_site_type_symbol
_atom_site_label
_atom_site_fract_x
_atom_site_fract_y
_atom_site_fract_z
Si Si1 0.969953 0.556055 0.304937
Si Si2 0.800098 0.194475 0.593893
Si Si3 0.301906 0.353714 0.200440
Si Si4 0.036879 0.688975 0.969164
Si Si5 0.498917 0.043698 0.197476
Si Si6 0.238955 0.429601 0.539345
O O1 0.888516 0.433280 0.250419
O O2 0.942116 0.680775 0.347564
O O3 0.149002 0.521116 0.516745
O O4 0.870856 0.588944 0.044516
O O5 0.852983 0.204271 0.513539
O O6 0.621766 0.156506 0.376437
O O7 0.858360 0.304890 0.764328
O O8 0.408029 0.422765 0.231443
O O9 0.380140 0.403503 0.433303
O O10 0.283038 0.205526 0.158142
O O11 0.899554 0.594949 0.749502
O O12 0.395371 0.016425 0.185246
#
# Coordination Sequence:
#
# PCOD9247420 Si02
#       6
#     4   4   4   4   4   4
#     4   9  20  40  61  90 120 163 218 265 319 372
#     4  10  22  40  60  90 126 169 208 264 325 373
#     4   9  21  42  59  89 131 162 210 263 319 372
#     4  10  22  40  63  90 127 167 214 269 310 385
#     4  10  22  39  62  89 129 172 206 261 320 377
#     4  10  22  37  66  93 120 169 218 258 316 381
#
# _framework density 25.275979
#
# number of rings (size 3 to 8) (size 9 to 14) (size 15 to 20)
#    0.000    2.333    0.000    0.500    9.333    2.000 
#    6.000    0.833    0.000    0.000    0.000    0.000 
#    0.000    0.000    0.000    0.000    0.000    0.000 
#
# Total GULP energy -134091.977550 kJ/mol
# GULP energy per Si atom -5587.165731 kJ/mol
# Density = 2.521845 g / cm^3
# Si number density = 25.275979 Si / 1000 Ang^3
#
#
#
# Elastic Constant Matrix: (Units=GPa)
#
#
# Indices 1 2 3 4 5 6 
#
# 1 124.5281 8.1646 32.5358 0.0000 24.7406 0.0000
# 2 8.1646 103.7608 -2.3905 0.0000 12.7421 0.0000
# 3 32.5358 -2.3905 64.8482 0.0000 15.4911 0.0000
# 4 0.0000 0.0000 0.0000 27.3868 0.0000 11.9715
# 5 24.7406 12.7421 15.4911 0.0000 33.8754 0.0000
# 6 0.0000 0.0000 0.0000 11.9715 0.0000 10.1788
#
#
#
# Elastic Compliance Matrix: (Units=1/GPa)
#
#
# Indices 1 2 3 4 5 6 
#
# 1 0.010139 -0.000195 -0.003753 0.000000 -0.005616 0.000000
# 2 -0.000195 0.010229 0.001527 0.000000 -0.004403 0.000000
# 3 -0.003753 0.001527 0.018908 0.000000 -0.006480 0.000000
# 4 0.000000 0.000000 0.000000 0.075150 0.000000 -0.088386
# 5 -0.005616 -0.004403 -0.006480 0.000000 0.038241 0.000000
# 6 0.000000 0.000000 0.000000 -0.088386 0.000000 0.202197
#
#
# Mechanical properties :
#
#
# Convention : Reuss Voigt Hill
#
# Bulk Modulus (GPa) = 29.04087 41.08411 35.06249
# Shear Modulus (GPa) = 13.47045 31.27666 22.37355
#
# Velocity S-wave (km/s) = 2.31104 3.52150 2.97841
# Velocity P-wave (km/s) = 4.31691 5.72923 5.07246
#
# Compressibility (1/GPa) = 0.03443422
#
# Stress axis : x y z
#
# Youngs Moduli (GPa) = 98.62613 97.76324 52.88849
#
# Poissons Ratio (x) = 0.01903 0.19848
# Poissons Ratio (y) = 0.01920 -0.08074
# Poissons Ratio (z) = 0.37012 -0.14925
#
# Static dielectric constant tensor:
#      x y z
#    x 2.079220 0.000000 -0.104930 
#    y 0.000000 2.040850 0.000000 
#    z -0.104930 0.000000 2.045280 
# 
# From -- ./inp_files/24092.got.cif
#   From: 2010.05.17/outbox.cif.g08.bks.cpg/sg14_13_cif.got.tgz:24092.got - 2010.06.03 17:49:19.
