data_PCOD9247636
_publ_section_title
;
Structure prediction by ZEFSAII (Michael W. Deem and Ramdas Pophale) SiO2 
 PCOD9247636
Probable space group: P 21/C
;
_chemical_formula_sum "Si O2"
_cell_formula_units_Z 20
_cell_length_a 6.041292
_cell_length_b 11.204273
_cell_length_c 22.505917
_cell_angle_alpha 90.000000
_cell_angle_beta 33.768750
_cell_angle_gamma 90.000000
_cell_volume 846.762891
_symmetry_space_group_name_H-M "P 21/C"
_symmetry_group_IT_number 14
_symmetry_cell_setting 'monoclinic'
loop_
_space_group_symop_operation_xyz
x,y,z
-x,1/2+y,1/2-z
-x,-y,-z
x,1/2-y,1/2+z
loop_
_atom_site_type_symbol
_atom_site_label
_atom_site_fract_x
_atom_site_fract_y
_atom_site_fract_z
Si Si1 0.465909 0.923062 0.790319
Si Si2 0.878041 0.456462 0.091844
Si Si3 0.819014 0.730134 0.895022
Si Si4 0.123914 0.216481 0.746769
Si Si5 0.184533 0.893157 0.065751
O O1 0.762667 0.855799 0.768883
O O2 0.114507 0.828373 0.856393
O O3 0.704290 0.945837 0.676076
O O4 0.229848 0.044153 0.860258
O O5 0.516769 0.364301 0.163897
O O6 0.206189 0.381161 0.055136
O O7 0.000000 0.500000 0.000000
O O8 0.015954 0.695928 0.788673
O O9 0.391793 0.792276 0.979382
O O10 0.861016 0.168874 0.859674
O O11 0.500000 0.000000 0.000000
#
# Coordination Sequence:
#
# PCOD9247636 Si02
#       5
#     4   4   4   4   4
#     4   9  21  41  59  87 129 158 207 261 312 374
#     4  10  23  39  59  92 128 163 203 261 319 370
#     4  10  22  39  63  92 120 167 213 254 314 381
#     4  10  22  39  62  92 121 166 211 259 313 385
#     4   9  20  40  61  89 124 163 215 257 317 372
#
# _framework density 23.619364000000001
#
# number of rings (size 3 to 8) (size 9 to 14) (size 15 to 20)
#    0.000    2.400    0.000    0.000    5.600    6.400 
#    0.000    0.000    0.000    0.000    0.000    0.000 
#    0.000    0.000    0.000    0.000    0.000    0.000 
#
# Total GULP energy -111675.842332 kJ/mol
# GULP energy per Si atom -5583.792117 kJ/mol
# Density = 2.356560 g / cm^3
# Si number density = 23.619364 Si / 1000 Ang^3
#
#
#
# Elastic Constant Matrix: (Units=GPa)
#
#
# Indices 1 2 3 4 5 6 
#
# 1 48.3486 37.5060 19.8774 0.0000 11.4905 0.0000
# 2 37.5060 89.0095 59.7194 0.0000 8.4212 0.0000
# 3 19.8774 59.7194 131.6913 0.0000 15.6273 0.0000
# 4 0.0000 0.0000 0.0000 37.4221 0.0000 -4.4325
# 5 11.4905 8.4212 15.6273 0.0000 29.6970 0.0000
# 6 0.0000 0.0000 0.0000 -4.4325 0.0000 33.4055
#
#
#
# Elastic Compliance Matrix: (Units=1/GPa)
#
#
# Indices 1 2 3 4 5 6 
#
# 1 0.033748 -0.015304 0.003073 0.000000 -0.010335 0.000000
# 2 -0.015304 0.023105 -0.008632 0.000000 0.003912 0.000000
# 3 0.003073 -0.008632 0.011620 0.000000 -0.004856 0.000000
# 4 0.000000 0.000000 0.000000 0.027149 0.000000 0.003602
# 5 -0.010335 0.003912 -0.004856 0.000000 0.039118 0.000000
# 6 0.000000 0.000000 0.000000 0.003602 0.000000 0.030413
#
#
# Mechanical properties :
#
#
# Convention : Reuss Voigt Hill
#
# Bulk Modulus (GPa) = 37.38794 55.91721 46.65258
# Shear Modulus (GPa) = 23.17003 30.23470 26.70237
#
# Velocity S-wave (km/s) = 3.13545 3.58170 3.36598
# Velocity P-wave (km/s) = 5.38255 6.38988 5.90772
#
# Compressibility (1/GPa) = 0.02674659
#
# Stress axis : x y z
#
# Youngs Moduli (GPa) = 29.63114 43.28116 86.05632
#
# Poissons Ratio (x) = 0.66239 -0.26442
# Poissons Ratio (y) = 0.45348 0.74282
# Poissons Ratio (z) = -0.09105 0.37359
#
# Static dielectric constant tensor:
#      x y z
#    x 1.990360 0.000000 -0.036770 
#    y 0.000000 1.932470 0.000000 
#    z -0.036770 0.000000 1.886390 
# 
# From -- ./inp_files/28862.got.cif
#   From: 2010.05.17/outbox.cif.g08.bks.cpg/sg14_15_cif.got.tgz:28862.got - 2010.06.03 17:49:19.
