data_PCOD9247060
_publ_section_title
;
Structure prediction by ZEFSAII (Michael W. Deem and Ramdas Pophale) SiO2 
 PCOD9247060
Probable space group: P 21/C
;
_chemical_formula_sum "Si O2"
_cell_formula_units_Z 32
_cell_length_a 23.220576
_cell_length_b 9.511240
_cell_length_c 14.378783
_cell_angle_alpha 90.000000
_cell_angle_beta 153.114372
_cell_angle_gamma 90.000000
_cell_volume 1436.062622
_symmetry_space_group_name_H-M "P 21/C"
_symmetry_group_IT_number 14
_symmetry_cell_setting 'monoclinic'
loop_
_space_group_symop_operation_xyz
x,y,z
-x,1/2+y,1/2-z
-x,-y,-z
x,1/2-y,1/2+z
loop_
_atom_site_type_symbol
_atom_site_label
_atom_site_fract_x
_atom_site_fract_y
_atom_site_fract_z
Si Si1 0.086073 0.453544 0.257377
Si Si2 0.753197 0.382842 0.062179
Si Si3 0.990379 0.769968 0.521307
Si Si4 0.612521 0.449667 0.046307
Si Si5 0.358708 0.590453 0.623616
Si Si6 0.702993 0.570335 0.830235
Si Si7 0.417464 0.877119 0.990374
Si Si8 0.822313 0.858269 0.928662
O O1 0.046799 0.327379 0.132909
O O2 0.234563 0.493452 0.456239
O O3 0.075142 0.413393 0.349095
O O4 0.010289 0.591370 0.114763
O O5 0.667087 0.447157 0.019408
O O6 0.877744 0.314444 0.287769
O O7 0.678445 0.251436 0.907157
O O8 0.783298 0.494909 0.026266
O O9 0.884695 0.677908 0.419822
O O10 0.713972 0.527369 0.256063
O O11 0.478700 0.530418 0.851434
O O12 0.599374 0.287379 0.053554
O O13 0.393904 0.594964 0.565025
O O14 0.681562 0.469887 0.710862
O O15 0.561515 0.586463 0.669651
O O16 0.759805 0.717953 0.880868
#
# Coordination Sequence:
#
# PCOD9247060 Si02
#       8
#     4   4   4   4   4   4   4   4
#     4  10  24  46  69  99 134 185 231 280 351 405
#     4  10  24  44  68  96 137 183 227 285 338 408
#     4  10  25  47  69  96 139 185 231 287 337 409
#     4  11  25  42  70 105 133 178 225 284 351 407
#     4  10  21  43  69  98 140 179 224 281 347 413
#     4  11  24  41  63 103 135 180 226 277 345 411
#     4  10  23  40  66  97 144 180 216 278 347 417
#     4  12  28  41  72 102 134 181 230 290 337 416
#
# _framework density 22.283149999999999
#
# number of rings (size 3 to 8) (size 9 to 14) (size 15 to 20)
#    0.000    1.500    1.250    1.500   10.500    5.500 
#    0.000    0.000    0.000    0.000    0.000    0.000 
#    0.000    0.000    0.000    0.000    0.000    0.000 
#
# Total GULP energy -179217.820504 kJ/mol
# GULP energy per Si atom -5600.556891 kJ/mol
# Density = 2.223243 g / cm^3
# Si number density = 22.283150 Si / 1000 Ang^3
#
#
#
# Elastic Constant Matrix: (Units=GPa)
#
#
# Indices 1 2 3 4 5 6 
#
# 1 35.7648 16.1103 7.1798 0.0000 0.6978 0.0000
# 2 16.1103 86.2856 39.9097 0.0000 -13.9088 0.0000
# 3 7.1798 39.9097 86.4379 0.0000 -14.4367 0.0000
# 4 0.0000 0.0000 0.0000 28.0393 0.0000 -5.6997
# 5 0.6978 -13.9088 -14.4367 0.0000 32.4958 0.0000
# 6 0.0000 0.0000 0.0000 -5.6997 0.0000 27.7450
#
#
#
# Elastic Compliance Matrix: (Units=1/GPa)
#
#
# Indices 1 2 3 4 5 6 
#
# 1 0.030871 -0.006188 -0.000281 0.000000 -0.003436 0.000000
# 2 -0.006188 0.016365 -0.006319 0.000000 0.004330 0.000000
# 3 -0.000281 -0.006319 0.015186 0.000000 0.004048 0.000000
# 4 0.000000 0.000000 0.000000 0.037218 0.000000 0.007646
# 5 -0.003436 0.004330 0.004048 0.000000 0.034499 0.000000
# 6 0.000000 0.000000 0.000000 0.007646 0.000000 0.037613
#
#
# Mechanical properties :
#
#
# Convention : Reuss Voigt Hill
#
# Bulk Modulus (GPa) = 27.13941 37.20977 32.17459
# Shear Modulus (GPa) = 23.85365 27.34192 25.59778
#
# Velocity S-wave (km/s) = 3.27537 3.50669 3.39300
# Velocity P-wave (km/s) = 5.14877 5.75593 5.46079
#
# Compressibility (1/GPa) = 0.03684679
#
# Stress axis : x y z
#
# Youngs Moduli (GPa) = 32.39261 61.10426 65.85002
#
# Poissons Ratio (x) = 0.37810 0.01852
# Poissons Ratio (y) = 0.20044 0.41610
# Poissons Ratio (z) = 0.00911 0.38612
#
# Static dielectric constant tensor:
#      x y z
#    x 1.814090 0.000000 -0.006660 
#    y 0.000000 1.782560 0.000000 
#    z -0.006660 0.000000 1.793030 
# 
# From -- ./inp_files/51281.got.cif
#   From: 2010.05.17/outbox.cif.g08.bks.cpg/sg14_26_cif.got.tgz:51281.got - 2010.06.03 17:49:19.
