data_PCOD9247026
_publ_section_title
;
Structure prediction by ZEFSAII (Michael W. Deem and Ramdas Pophale) SiO2 
 PCOD9247026
Probable space group: P 21/C
;
_chemical_formula_sum "Si O2"
_cell_formula_units_Z 32
_cell_length_a 13.148007
_cell_length_b 9.715587
_cell_length_c 10.139635
_cell_angle_alpha 90.000000
_cell_angle_beta 97.005713
_cell_angle_gamma 90.000000
_cell_volume 1285.572827
_symmetry_space_group_name_H-M "P 21/C"
_symmetry_group_IT_number 14
_symmetry_cell_setting 'monoclinic'
loop_
_space_group_symop_operation_xyz
x,y,z
-x,1/2+y,1/2-z
-x,-y,-z
x,1/2-y,1/2+z
loop_
_atom_site_type_symbol
_atom_site_label
_atom_site_fract_x
_atom_site_fract_y
_atom_site_fract_z
Si Si1 0.994449 0.962743 0.347929
Si Si2 0.810738 0.744784 0.828127
Si Si3 0.912202 0.241199 0.297726
Si Si4 0.459160 0.089873 0.871162
Si Si5 0.829197 0.035488 0.930022
Si Si6 0.280007 0.606240 0.319005
Si Si7 0.643398 0.103327 0.695926
Si Si8 0.676377 0.831875 0.557203
O O1 0.892153 0.873783 0.310322
O O2 0.082000 0.856224 0.316655
O O3 0.990880 0.116645 0.287237
O O4 0.000000 0.000000 0.500000
O O5 0.758515 0.790714 0.683679
O O6 0.859003 0.879566 0.905349
O O7 0.727516 0.694990 0.923958
O O8 0.915630 0.348182 0.419684
O O9 0.806259 0.157420 0.295963
O O10 0.543326 0.106138 0.771722
O O11 0.418156 0.231048 0.927111
O O12 0.362898 0.006423 0.796135
O O13 0.500000 0.000000 0.000000
O O14 0.736280 0.067109 0.812412
O O15 0.782252 0.051612 0.065913
O O16 0.338154 0.747398 0.362525
O O17 0.643854 0.986948 0.584627
#
# Coordination Sequence:
#
# PCOD9247026 Si02
#       8
#     4   4   4   4   4   4   4   4
#     4  12  28  45  71 105 139 183 246 302 357 445
#     4  11  25  45  74 101 145 186 244 292 368 431
#     4  11  26  44  71 101 141 182 235 298 366 425
#     4  12  21  43  68  98 138 189 241 285 356 425
#     4  10  21  43  67  94 137 190 223 287 359 422
#     4  11  22  42  67  97 137 184 232 285 365 421
#     4  10  23  38  66  96 141 177 234 294 341 424
#     4  11  24  45  70 105 140 191 234 297 360 429
#
# _framework density 24.891628000000001
#
# number of rings (size 3 to 8) (size 9 to 14) (size 15 to 20)
#    0.000    1.000    2.500    3.750    8.750    0.000 
#    0.000    3.750    0.000    0.000    0.000    0.000 
#    0.000    0.000    0.000    0.000    0.000    0.000 
#
# Total GULP energy -179112.468000 kJ/mol
# GULP energy per Si atom -5597.264625 kJ/mol
# Density = 2.483497 g / cm^3
# Si number density = 24.891628 Si / 1000 Ang^3
#
#
#
# Elastic Constant Matrix: (Units=GPa)
#
#
# Indices 1 2 3 4 5 6 
#
# 1 72.3878 30.6307 31.3317 0.0000 -26.7862 0.0000
# 2 30.6307 186.9173 30.7939 0.0000 -12.3908 0.0000
# 3 31.3317 30.7939 70.5494 0.0000 -8.5315 0.0000
# 4 0.0000 0.0000 0.0000 32.6320 0.0000 -10.5202
# 5 -26.7862 -12.3908 -8.5315 0.0000 35.0158 0.0000
# 6 0.0000 0.0000 0.0000 -10.5202 0.0000 30.1518
#
#
#
# Elastic Compliance Matrix: (Units=1/GPa)
#
#
# Indices 1 2 3 4 5 6 
#
# 1 0.023701 -0.001535 -0.007964 0.000000 0.015647 0.000000
# 2 -0.001535 0.005938 -0.001853 0.000000 0.000476 0.000000
# 3 -0.007964 -0.001853 0.018241 0.000000 -0.002303 0.000000
# 4 0.000000 0.000000 0.000000 0.034529 0.000000 0.012047
# 5 0.015647 0.000476 -0.002303 0.000000 0.040135 0.000000
# 6 0.000000 0.000000 0.000000 0.012047 0.000000 0.037369
#
#
# Mechanical properties :
#
#
# Convention : Reuss Voigt Hill
#
# Bulk Modulus (GPa) = 39.71714 57.26299 48.49007
# Shear Modulus (GPa) = 26.17681 35.36649 30.77165
#
# Velocity S-wave (km/s) = 3.24640 3.77346 3.51981
# Velocity P-wave (km/s) = 5.48114 6.48384 6.00346
#
# Compressibility (1/GPa) = 0.02517805
#
# Stress axis : x y z
#
# Youngs Moduli (GPa) = 42.19254 168.39981 54.82022
#
# Poissons Ratio (x) = 0.25844 0.43657
# Poissons Ratio (y) = 0.06475 0.10157
# Poissons Ratio (z) = 0.33601 0.31202
#
# Static dielectric constant tensor:
#      x y z
#    x 2.076130 0.000000 0.039860 
#    y 0.000000 1.770880 0.000000 
#    z 0.039860 0.000000 1.945040 
# 
# From -- ./inp_files/31831.got.cif
#   From: 2010.05.17/outbox.cif.g08.bks.cpg/sg14_16_cif.got.tgz:31831.got - 2010.06.03 17:49:19.
