data_PCOD9247037
_publ_section_title
;
Structure prediction by ZEFSAII (Michael W. Deem and Ramdas Pophale) SiO2 
 PCOD9247037
Probable space group: P 21/C
;
_chemical_formula_sum "Si O2"
_cell_formula_units_Z 32
_cell_length_a 10.917017
_cell_length_b 11.271042
_cell_length_c 13.115181
_cell_angle_alpha 90.000000
_cell_angle_beta 115.046819
_cell_angle_gamma 90.000000
_cell_volume 1462.016904
_symmetry_space_group_name_H-M "P 21/C"
_symmetry_group_IT_number 14
_symmetry_cell_setting 'monoclinic'
loop_
_space_group_symop_operation_xyz
x,y,z
-x,1/2+y,1/2-z
-x,-y,-z
x,1/2-y,1/2+z
loop_
_atom_site_type_symbol
_atom_site_label
_atom_site_fract_x
_atom_site_fract_y
_atom_site_fract_z
Si Si1 0.742417 0.067126 0.495826
Si Si2 0.370716 0.075081 0.358101
Si Si3 0.294106 0.909536 0.871399
Si Si4 0.452002 0.780210 0.094306
Si Si5 0.115630 0.398108 0.627997
Si Si6 0.090708 0.097184 0.895589
Si Si7 0.929491 0.277131 0.175508
Si Si8 0.411623 0.463799 0.219470
O O1 0.673372 0.189640 0.430010
O O2 0.882118 0.105698 0.597533
O O3 0.659455 0.014429 0.561731
O O4 0.722909 0.971245 0.399143
O O5 0.438698 0.195930 0.421404
O O6 0.236698 0.107226 0.249603
O O7 0.472216 0.017697 0.311670
O O8 0.201917 0.791120 0.826149
O O9 0.190428 0.012748 0.867600
O O10 0.375691 0.952714 0.802365
O O11 0.393615 0.879776 0.999600
O O12 0.528838 0.841296 0.215590
O O13 0.158771 0.373940 0.527423
O O14 0.045151 0.526080 0.618404
O O15 0.999474 0.307008 0.618310
O O16 0.035484 0.198050 0.802286
#
# Coordination Sequence:
#
# PCOD9247037 Si02
#       8
#     4   4   4   4   4   4   4   4
#     4  10  23  43  65  94 137 172 220 269 327 401
#     4  11  23  43  63  97 135 176 217 269 327 405
#     4  10  23  41  63  97 129 169 219 280 321 392
#     4  10  22  39  62  92 129 172 213 262 337 384
#     4  10  22  40  67  98 123 175 219 261 330 389
#     4  10  21  43  68  90 132 169 218 272 317 395
#     4  10  22  42  68  96 129 175 218 272 334 384
#     4  11  23  39  65  96 131 170 221 274 324 389
#
# _framework density 21.887571000000001
#
# number of rings (size 3 to 8) (size 9 to 14) (size 15 to 20)
#    0.000    1.750    1.250    2.625    3.500    7.000 
#    4.500    0.625    0.000    0.000    0.000    0.000 
#    0.000    0.000    0.000    0.000    0.000    0.000 
#
# Total GULP energy -178595.834686 kJ/mol
# GULP energy per Si atom -5581.119834 kJ/mol
# Density = 2.183775 g / cm^3
# Si number density = 21.887571 Si / 1000 Ang^3
#
#
#
# Elastic Constant Matrix: (Units=GPa)
#
#
# Indices 1 2 3 4 5 6 
#
# 1 29.2271 12.1064 14.2364 0.0000 1.5131 0.0000
# 2 12.1064 48.3158 23.6800 0.0000 -2.2903 0.0000
# 3 14.2364 23.6800 100.8300 0.0000 1.1365 0.0000
# 4 0.0000 0.0000 0.0000 42.4910 0.0000 11.3407
# 5 1.5131 -2.2903 1.1365 0.0000 30.0236 0.0000
# 6 0.0000 0.0000 0.0000 11.3407 0.0000 22.1806
#
#
#
# Elastic Compliance Matrix: (Units=1/GPa)
#
#
# Indices 1 2 3 4 5 6 
#
# 1 0.039521 -0.008249 -0.003615 0.000000 -0.002484 0.000000
# 2 -0.008249 0.025231 -0.004789 0.000000 0.002522 0.000000
# 3 -0.003615 -0.004789 0.011560 0.000000 -0.000621 0.000000
# 4 0.000000 0.000000 0.000000 0.027253 0.000000 -0.013934
# 5 -0.002484 0.002522 -0.000621 0.000000 0.033648 0.000000
# 6 0.000000 0.000000 0.000000 -0.013934 0.000000 0.052209
#
#
# Mechanical properties :
#
#
# Convention : Reuss Voigt Hill
#
# Bulk Modulus (GPa) = 23.25260 30.93538 27.09399
# Shear Modulus (GPa) = 21.09143 27.49572 24.29357
#
# Velocity S-wave (km/s) = 3.10760 3.54817 3.33517
# Velocity P-wave (km/s) = 4.85005 5.56332 5.21888
#
# Compressibility (1/GPa) = 0.04300594
#
# Stress axis : x y z
#
# Youngs Moduli (GPa) = 25.30302 39.63406 86.50653
#
# Poissons Ratio (x) = 0.32693 0.31270
# Poissons Ratio (y) = 0.20872 0.41430
# Poissons Ratio (z) = 0.09147 0.18982
#
# Static dielectric constant tensor:
#      x y z
#    x 1.796860 0.000000 0.030530 
#    y 0.000000 1.847670 0.000000 
#    z 0.030530 0.000000 1.809520 
# 
# From -- ./inp_files/29145.got.cif
#   From: 2010.05.17/outbox.cif.g08.bks.cpg/sg14_15_cif.got.tgz:29145.got - 2010.06.03 17:49:19.
