data_PCOD9247006
_publ_section_title
;
Structure prediction by ZEFSAII (Michael W. Deem and Ramdas Pophale) SiO2 
 PCOD9247006
Probable space group: P 21/C
;
_chemical_formula_sum "Si O2"
_cell_formula_units_Z 20
_cell_length_a 9.183501
_cell_length_b 15.944259
_cell_length_c 8.952269
_cell_angle_alpha 90.000000
_cell_angle_beta 50.307867
_cell_angle_gamma 90.000000
_cell_volume 1008.665512
_symmetry_space_group_name_H-M "P 21/C"
_symmetry_group_IT_number 14
_symmetry_cell_setting 'monoclinic'
loop_
_space_group_symop_operation_xyz
x,y,z
-x,1/2+y,1/2-z
-x,-y,-z
x,1/2-y,1/2+z
loop_
_atom_site_type_symbol
_atom_site_label
_atom_site_fract_x
_atom_site_fract_y
_atom_site_fract_z
Si Si1 0.972585 0.491734 0.194441
Si Si2 0.273575 0.382480 0.504803
Si Si3 0.339905 0.067769 0.629720
Si Si4 0.500380 0.722290 0.149045
Si Si5 0.369621 0.862387 0.042470
O O1 0.916061 0.583101 0.296620
O O2 0.803021 0.426444 0.341936
O O3 0.158839 0.456979 0.151448
O O4 0.000000 0.500000 0.000000
O O5 0.292412 0.428018 0.334899
O O6 0.320577 0.284898 0.440514
O O7 0.441470 0.404359 0.511505
O O8 0.426578 0.154988 0.516783
O O9 0.500000 0.000000 0.500000
O O10 0.346499 0.783626 0.172101
O O11 0.422412 0.676164 0.346690
#
# Coordination Sequence:
#
# PCOD9247006 Si02
#       5
#     4   4   4   4   4
#     4  12  25  41  67 103 134 181 223 282 333 413
#     4  10  21  43  66  95 133 175 225 278 334 397
#     4  12  24  43  67  98 140 179 226 275 342 400
#     4  10  21  43  68  94 130 178 219 282 332 400
#     4  10  21  43  68  91 133 170 228 272 347 387
#
# _framework density 19.828178999999999
#
# number of rings (size 3 to 8) (size 9 to 14) (size 15 to 20)
#    1.200    0.000    2.000    4.800    0.000    0.000 
#   10.800    0.000    0.000    0.000    0.000    0.000 
#    0.000    0.000    0.000    0.000    0.000    0.000 
#
# Total GULP energy -111540.661454 kJ/mol
# GULP energy per Si atom -5577.033073 kJ/mol
# Density = 1.978305 g / cm^3
# Si number density = 19.828179 Si / 1000 Ang^3
#
#
#
# Elastic Constant Matrix: (Units=GPa)
#
#
# Indices 1 2 3 4 5 6 
#
# 1 52.0920 13.5233 3.6230 0.0000 0.2676 0.0000
# 2 13.5233 86.4921 36.9215 0.0000 -5.8384 0.0000
# 3 3.6230 36.9215 102.4847 0.0000 35.5933 0.0000
# 4 0.0000 0.0000 0.0000 32.9537 0.0000 7.8169
# 5 0.2676 -5.8384 35.5933 0.0000 35.2230 0.0000
# 6 0.0000 0.0000 0.0000 7.8169 0.0000 29.5637
#
#
#
# Elastic Compliance Matrix: (Units=1/GPa)
#
#
# Indices 1 2 3 4 5 6 
#
# 1 0.020131 -0.003963 0.001537 0.000000 -0.002363 0.000000
# 2 -0.003963 0.018034 -0.011410 0.000000 0.014549 0.000000
# 3 0.001537 -0.011410 0.022301 0.000000 -0.024439 0.000000
# 4 0.000000 0.000000 0.000000 0.032376 0.000000 -0.008561
# 5 -0.002363 0.014549 -0.024439 0.000000 0.055516 0.000000
# 6 0.000000 0.000000 0.000000 -0.008561 0.000000 0.036089
#
#
# Mechanical properties :
#
#
# Convention : Reuss Voigt Hill
#
# Bulk Modulus (GPa) = 30.49344 38.80048 34.64696
# Shear Modulus (GPa) = 22.41637 32.01481 27.21559
#
# Velocity S-wave (km/s) = 3.36598 4.02258 3.70884
# Velocity P-wave (km/s) = 5.52437 6.41761 5.98767
#
# Compressibility (1/GPa) = 0.03279393
#
# Stress axis : x y z
#
# Youngs Moduli (GPa) = 49.67494 55.45055 44.84004
#
# Poissons Ratio (x) = 0.21975 -0.06890
# Poissons Ratio (y) = 0.19686 0.51162
# Poissons Ratio (z) = -0.07633 0.63269
#
# Static dielectric constant tensor:
#      x y z
#    x 1.662730 0.000000 0.001480 
#    y 0.000000 1.725160 0.000000 
#    z 0.001480 0.000000 1.660690 
# 
# From -- ./inp_files/8962.got.cif
#   From: 2010.05.17/outbox.cif.g08.bks.cpg/sg14_5_cif.got.tgz:8962.got - 2010.06.03 17:49:19.
