data_PCOD9247937
_publ_section_title
;
Structure prediction by ZEFSAII (Michael W. Deem and Ramdas Pophale) SiO2 
 PCOD9247937
Probable space group: P 21/C
;
_chemical_formula_sum "Si O2"
_cell_formula_units_Z 28
_cell_length_a 9.562012
_cell_length_b 19.776423
_cell_length_c 8.178218
_cell_angle_alpha 90.000000
_cell_angle_beta 44.083507
_cell_angle_gamma 90.000000
_cell_volume 1075.923740
_symmetry_space_group_name_H-M "P 21/C"
_symmetry_group_IT_number 14
_symmetry_cell_setting 'monoclinic'
loop_
_space_group_symop_operation_xyz
x,y,z
-x,1/2+y,1/2-z
-x,-y,-z
x,1/2-y,1/2+z
loop_
_atom_site_type_symbol
_atom_site_label
_atom_site_fract_x
_atom_site_fract_y
_atom_site_fract_z
Si Si1 0.761354 0.068255 0.679648
Si Si2 0.218362 0.107759 0.989586
Si Si3 0.917287 0.664766 0.793066
Si Si4 0.213559 0.550030 0.470645
Si Si5 0.602400 0.373792 0.977773
Si Si6 0.070518 0.722968 0.362110
Si Si7 0.247785 0.416061 0.817017
O O1 0.692599 0.112421 0.583468
O O2 0.004550 0.074944 0.489685
O O3 0.696615 0.992002 0.680969
O O4 0.695119 0.069885 0.927692
O O5 0.368224 0.126943 0.716690
O O6 0.159540 0.028913 0.019658
O O7 0.325956 0.107536 0.076186
O O8 0.046847 0.163939 0.137529
O O9 0.018902 0.598461 0.629990
O O10 0.936321 0.721142 0.638426
O O11 0.063924 0.702381 0.799424
O O12 0.732742 0.639084 0.056467
O O13 0.340561 0.569453 0.204202
O O14 0.704239 0.306091 0.818759
#
# Coordination Sequence:
#
# PCOD9247937 Si02
#       7
#     4   4   4   4   4   4   4
#     4   9  18  36  63  90 127 161 201 261 307 369
#     4  11  22  41  64  96 131 158 215 268 310 385
#     4  10  22  40  67  89 123 172 209 263 324 377
#     4   9  22  39  63 100 124 165 220 258 314 386
#     4  11  23  39  66  91 131 170 206 260 324 372
#     4  11  24  41  65  89 125 170 212 260 323 382
#     4   9  18  36  61  94 119 158 212 250 310 375
#
# _framework density 26.024149000000001
#
# number of rings (size 3 to 8) (size 9 to 14) (size 15 to 20)
#    0.000    2.000    1.429    2.143    4.000    3.429 
#    2.571    5.714    0.000    0.000    0.000    0.000 
#    0.000    0.000    0.000    0.000    0.000    0.000 
#
# Total GULP energy -156326.455812 kJ/mol
# GULP energy per Si atom -5583.087708 kJ/mol
# Density = 2.596492 g / cm^3
# Si number density = 26.024149 Si / 1000 Ang^3
#
#
#
# Elastic Constant Matrix: (Units=GPa)
#
#
# Indices 1 2 3 4 5 6 
#
# 1 60.1122 3.0567 9.1588 0.0000 13.4997 0.0000
# 2 3.0567 113.6150 34.2083 0.0000 2.8834 0.0000
# 3 9.1588 34.2083 150.3331 0.0000 25.3359 0.0000
# 4 0.0000 0.0000 0.0000 23.1462 0.0000 17.7221
# 5 13.4997 2.8834 25.3359 0.0000 45.2960 0.0000
# 6 0.0000 0.0000 0.0000 17.7221 0.0000 28.5494
#
#
#
# Elastic Compliance Matrix: (Units=1/GPa)
#
#
# Indices 1 2 3 4 5 6 
#
# 1 0.017845 -0.000306 -0.000137 0.000000 -0.005222 0.000000
# 2 -0.000306 0.009472 -0.002264 0.000000 0.000755 0.000000
# 3 -0.000137 -0.002264 0.007888 0.000000 -0.004227 0.000000
# 4 0.000000 0.000000 0.000000 0.082337 0.000000 -0.051111
# 5 -0.005222 0.000755 -0.004227 0.000000 0.025950 0.000000
# 6 0.000000 0.000000 0.000000 -0.051111 0.000000 0.066755
#
#
# Mechanical properties :
#
#
# Convention : Reuss Voigt Hill
#
# Bulk Modulus (GPa) = 33.56849 46.32308 39.94578
# Shear Modulus (GPa) = 22.16393 37.90742 30.03568
#
# Velocity S-wave (km/s) = 2.92150 3.82072 3.40096
# Velocity P-wave (km/s) = 4.93023 6.10758 5.55021
#
# Compressibility (1/GPa) = 0.02978984
#
# Stress axis : x y z
#
# Youngs Moduli (GPa) = 56.03874 105.56987 126.77807
#
# Poissons Ratio (x) = 0.03233 0.01742
# Poissons Ratio (y) = 0.01716 0.28702
# Poissons Ratio (z) = 0.00770 0.23901
#
# Static dielectric constant tensor:
#      x y z
#    x 2.234550 0.000000 0.001160 
#    y 0.000000 1.940960 0.000000 
#    z 0.001160 0.000000 2.124470 
# 
# From -- ./inp_files/14249.got.cif
#   From: 2010.05.17/outbox.cif.g08.bks.cpg/sg14_8_cif.got.tgz:14249.got - 2010.06.03 17:49:19.
