data_PCOD9247953
_publ_section_title
;
Structure prediction by ZEFSAII (Michael W. Deem and Ramdas Pophale) SiO2 
 PCOD9247953
Probable space group: P 21/C
;
_chemical_formula_sum "Si O2"
_cell_formula_units_Z 20
_cell_length_a 10.198969
_cell_length_b 12.021127
_cell_length_c 10.878178
_cell_angle_alpha 90.000000
_cell_angle_beta 140.237906
_cell_angle_gamma 90.000000
_cell_volume 853.035173
_symmetry_space_group_name_H-M "P 21/C"
_symmetry_group_IT_number 14
_symmetry_cell_setting 'monoclinic'
loop_
_space_group_symop_operation_xyz
x,y,z
-x,1/2+y,1/2-z
-x,-y,-z
x,1/2-y,1/2+z
loop_
_atom_site_type_symbol
_atom_site_label
_atom_site_fract_x
_atom_site_fract_y
_atom_site_fract_z
Si Si1 0.675317 0.790013 0.325673
Si Si2 0.552737 0.257487 0.591820
Si Si3 0.904370 0.377242 0.930258
Si Si4 0.221982 0.980304 0.218049
Si Si5 0.358969 0.523919 0.081154
O O1 0.598947 0.736008 0.399315
O O2 0.918271 0.789633 0.471577
O O3 0.633332 0.921399 0.319764
O O4 0.564043 0.757418 0.120070
O O5 0.690540 0.146426 0.713517
O O6 0.716094 0.357551 0.703486
O O7 0.000000 0.500000 0.000000
O O8 0.780158 0.375008 0.969716
O O9 0.244251 0.018450 0.375460
O O10 0.403229 0.043847 0.276944
O O11 0.000000 0.000000 0.000000
#
# Coordination Sequence:
#
# PCOD9247953 Si02
#       5
#     4   4   4   4   4
#     4  10  24  42  63  92 133 174 224 283 342 406
#     4  11  24  41  64  98 133 177 228 280 345 418
#     4  10  23  41  64  93 130 173 224 282 343 408
#     4  10  22  40  68 100 141 184 225 283 351 418
#     4   9  21  41  63  97 132 175 234 281 342 418
#
# _framework density 23.445691
#
# number of rings (size 3 to 8) (size 9 to 14) (size 15 to 20)
#    0.000    2.000    0.000    1.200    0.000   20.800 
#    0.000    0.000    0.000    0.000    0.000    0.000 
#    0.000    0.000    0.000    0.000    0.000    0.000 
#
# Total GULP energy -111512.755798 kJ/mol
# GULP energy per Si atom -5575.637790 kJ/mol
# Density = 2.339233 g / cm^3
# Si number density = 23.445691 Si / 1000 Ang^3
#
#
#
# Elastic Constant Matrix: (Units=GPa)
#
#
# Indices 1 2 3 4 5 6 
#
# 1 163.0029 37.2033 115.3085 0.0000 10.4723 0.0000
# 2 37.2033 64.2851 32.4701 0.0000 -2.8581 0.0000
# 3 115.3085 32.4701 183.4930 0.0000 19.0857 0.0000
# 4 0.0000 0.0000 0.0000 34.0400 0.0000 2.2773
# 5 10.4723 -2.8581 19.0857 0.0000 38.3187 0.0000
# 6 0.0000 0.0000 0.0000 2.2773 0.0000 38.9954
#
#
#
# Elastic Compliance Matrix: (Units=1/GPa)
#
#
# Indices 1 2 3 4 5 6 
#
# 1 0.011666 -0.003357 -0.006728 0.000000 -0.000088 0.000000
# 2 -0.003357 0.018367 -0.001454 0.000000 0.003011 0.000000
# 3 -0.006728 -0.001454 0.010288 0.000000 -0.003394 0.000000
# 4 0.000000 0.000000 0.000000 0.029492 0.000000 -0.001722
# 5 -0.000088 0.003011 -0.003394 0.000000 0.028036 0.000000
# 6 0.000000 0.000000 0.000000 -0.001722 0.000000 0.025745
#
#
# Mechanical properties :
#
#
# Convention : Reuss Voigt Hill
#
# Bulk Modulus (GPa) = 57.99351 86.74943 72.37147
# Shear Modulus (GPa) = 32.80443 37.32409 35.06426
#
# Velocity S-wave (km/s) = 3.74460 3.99424 3.87143
# Velocity P-wave (km/s) = 6.59432 7.63887 7.13573
#
# Compressibility (1/GPa) = 0.01724331
#
# Stress axis : x y z
#
# Youngs Moduli (GPa) = 85.71945 54.44647 97.20189
#
# Poissons Ratio (x) = 0.18278 0.65396
# Poissons Ratio (y) = 0.28777 0.14130
# Poissons Ratio (z) = 0.57670 0.07915
#
# Static dielectric constant tensor:
#      x y z
#    x 2.094660 0.000000 0.073220 
#    y 0.000000 2.053720 0.000000 
#    z 0.073220 0.000000 1.856130 
# 
# From -- ./inp_files/29928.got.cif
#   From: 2010.05.17/outbox.cif.g08.bks.cpg/sg14_15_cif.got.tgz:29928.got - 2010.06.03 17:49:19.
