data_PCOD9247868
_publ_section_title
;
Structure prediction by ZEFSAII (Michael W. Deem and Ramdas Pophale) SiO2 
 PCOD9247868
Probable space group: P 21/C
;
_chemical_formula_sum "Si O2"
_cell_formula_units_Z 28
_cell_length_a 14.762369
_cell_length_b 12.360667
_cell_length_c 7.461636
_cell_angle_alpha 90.000000
_cell_angle_beta 59.830334
_cell_angle_gamma 90.000000
_cell_volume 1177.111529
_symmetry_space_group_name_H-M "P 21/C"
_symmetry_group_IT_number 14
_symmetry_cell_setting 'monoclinic'
loop_
_space_group_symop_operation_xyz
x,y,z
-x,1/2+y,1/2-z
-x,-y,-z
x,1/2-y,1/2+z
loop_
_atom_site_type_symbol
_atom_site_label
_atom_site_fract_x
_atom_site_fract_y
_atom_site_fract_z
Si Si1 0.602932 0.159701 0.876998
Si Si2 0.208031 0.972097 0.360572
Si Si3 0.109554 0.085980 0.787469
Si Si4 0.616802 0.858091 0.822761
Si Si5 0.891546 0.410953 0.413037
Si Si6 0.658995 0.876706 0.385083
Si Si7 0.665224 0.385621 0.719048
O O1 0.699735 0.110739 0.668916
O O2 0.605299 0.289080 0.874796
O O3 0.485868 0.118830 0.956105
O O4 0.632643 0.121480 0.045543
O O5 0.139711 0.930721 0.261772
O O6 0.135263 0.002416 0.599916
O O7 0.278183 0.076808 0.229986
O O8 0.218740 0.148078 0.691320
O O9 0.002773 0.145252 0.837958
O O10 0.096666 0.024206 0.989523
O O11 0.599658 0.887905 0.632345
O O12 0.626414 0.728923 0.811656
O O13 0.789361 0.358185 0.603465
O O14 0.651573 0.992643 0.299509
#
# Coordination Sequence:
#
# PCOD9247868 Si02
#       7
#     4   4   4   4   4   4   4
#     4  11  24  40  65  94 131 179 227 277 341 399
#     4  10  22  40  64  94 134 164 224 276 324 400
#     4   9  19  39  66  92 126 167 211 272 333 391
#     4  11  24  40  65  94 131 179 227 277 341 399
#     4   9  19  39  66  92 126 167 211 272 333 391
#     4  10  24  43  64  94 135 171 224 287 332 406
#     4  10  24  43  64  94 135 171 224 287 332 406
#
# _framework density 23.787042
#
# number of rings (size 3 to 8) (size 9 to 14) (size 15 to 20)
#    0.000    2.000    0.000    1.714   12.000    2.286 
#    0.000    7.143    0.000    0.857    0.000    0.000 
#    0.000    0.000    0.000    0.000    0.000    0.000 
#
# Total GULP energy -156395.397277 kJ/mol
# GULP energy per Si atom -5585.549903 kJ/mol
# Density = 2.373290 g / cm^3
# Si number density = 23.787042 Si / 1000 Ang^3
#
#
#
# Elastic Constant Matrix: (Units=GPa)
#
#
# Indices 1 2 3 4 5 6 
#
# 1 73.1666 6.0488 16.7036 0.0000 -16.6027 0.0000
# 2 6.0488 111.9833 9.8727 0.0000 1.0058 0.0000
# 3 16.7036 9.8727 57.3579 0.0000 -5.2375 0.0000
# 4 0.0000 0.0000 0.0000 17.2283 0.0000 -0.7950
# 5 -16.6027 1.0058 -5.2375 0.0000 42.9773 0.0000
# 6 0.0000 0.0000 0.0000 -0.7950 0.0000 20.7308
#
#
#
# Elastic Compliance Matrix: (Units=1/GPa)
#
#
# Indices 1 2 3 4 5 6 
#
# 1 0.015919 -0.000556 -0.004022 0.000000 0.005672 0.000000
# 2 -0.000556 0.009094 -0.001459 0.000000 -0.000605 0.000000
# 3 -0.004022 -0.001459 0.018929 0.000000 0.000787 0.000000
# 4 0.000000 0.000000 0.000000 0.058147 0.000000 0.002230
# 5 0.005672 -0.000605 0.000787 0.000000 0.025570 0.000000
# 6 0.000000 0.000000 0.000000 0.002230 0.000000 0.048323
#
#
# Mechanical properties :
#
#
# Convention : Reuss Voigt Hill
#
# Bulk Modulus (GPa) = 31.37985 34.19532 32.78758
# Shear Modulus (GPa) = 25.16647 30.17948 27.67297
#
# Velocity S-wave (km/s) = 3.25621 3.56580 3.41451
# Velocity P-wave (km/s) = 5.23047 5.60000 5.41839
#
# Compressibility (1/GPa) = 0.03186759
#
# Stress axis : x y z
#
# Youngs Moduli (GPa) = 62.81864 109.96289 52.82998
#
# Poissons Ratio (x) = 0.06116 0.21249
# Poissons Ratio (y) = 0.03494 0.07706
# Poissons Ratio (z) = 0.25266 0.16039
#
# Static dielectric constant tensor:
#      x y z
#    x 1.945950 0.000000 -0.041410 
#    y 0.000000 1.906170 0.000000 
#    z -0.041410 0.000000 1.939470 
# 
# From -- ./inp_files/15445.got.cif
#   From: 2010.05.17/outbox.cif.g08.bks.cpg/sg14_8_cif.got.tgz:15445.got - 2010.06.03 17:49:19.
