data_PCOD9247919
_publ_section_title
;
Structure prediction by ZEFSAII (Michael W. Deem and Ramdas Pophale) SiO2 
 PCOD9247919
Probable space group: P 21/C
;
_chemical_formula_sum "Si O2"
_cell_formula_units_Z 28
_cell_length_a 9.310842
_cell_length_b 14.721842
_cell_length_c 13.277989
_cell_angle_alpha 90.000000
_cell_angle_beta 33.634282
_cell_angle_gamma 90.000000
_cell_volume 1008.107378
_symmetry_space_group_name_H-M "P 21/C"
_symmetry_group_IT_number 14
_symmetry_cell_setting 'monoclinic'
loop_
_space_group_symop_operation_xyz
x,y,z
-x,1/2+y,1/2-z
-x,-y,-z
x,1/2-y,1/2+z
loop_
_atom_site_type_symbol
_atom_site_label
_atom_site_fract_x
_atom_site_fract_y
_atom_site_fract_z
Si Si1 0.683727 0.085382 0.382697
Si Si2 0.416652 0.625659 0.366962
Si Si3 0.767956 0.614000 0.520391
Si Si4 0.140595 0.801145 0.541561
Si Si5 0.500000 0.000000 0.000000
Si Si6 0.000000 0.500000 0.500000
Si Si7 0.055605 0.407025 0.026198
Si Si8 0.791145 0.698607 0.899210
O O1 0.817761 0.113567 0.408781
O O2 0.497540 0.166414 0.457022
O O3 0.928484 0.071104 0.163052
O O4 0.500000 0.000000 0.500000
O O5 0.377933 0.732595 0.398681
O O6 0.521391 0.584972 0.409546
O O7 0.160722 0.576222 0.478247
O O8 0.638613 0.605891 0.157429
O O9 0.588195 0.565895 0.544323
O O10 0.791421 0.718314 0.479258
O O11 0.729946 0.572236 0.651219
O O12 0.080535 0.833661 0.465101
O O13 0.921529 0.742034 0.725125
O O14 0.019381 0.382373 0.165458
O O15 0.000000 0.500000 0.000000
#
# Coordination Sequence:
#
# PCOD9247919 Si02
#       8
#     4   4   4   4   2   2   4   4
#     4  11  23  41  70 103 143 181 236 299 365 424
#     4  11  24  45  71 105 143 181 254 287 368 437
#     4  10  22  43  64 101 136 179 241 283 362 430
#     4  11  25  47  73 106 144 196 247 295 371 446
#     4  10  22  40  72  98 136 186 230 306 346 440
#     4  10  22  40  66  96 130 178 224 302 334 426
#     4  12  27  49  73 111 151 191 245 311 372 433
#     4  11  25  45  71 102 149 192 239 306 366 434
#
# _framework density 27.774818
#
# number of rings (size 3 to 8) (size 9 to 14) (size 15 to 20)
#    0.000    1.143    0.000    6.000    6.000    1.143 
#   12.857    0.000    0.000    0.000    0.000    0.000 
#    0.000    0.000    0.000    0.000    0.000    0.000 
#
# Total GULP energy -156189.212651 kJ/mol
# GULP energy per Si atom -5578.186166 kJ/mol
# Density = 2.771160 g / cm^3
# Si number density = 27.774818 Si / 1000 Ang^3
#
#
#
# Elastic Constant Matrix: (Units=GPa)
#
#
# Indices 1 2 3 4 5 6 
#
# 1 136.6353 2.2014 -13.3219 0.0000 4.5396 0.0000
# 2 2.2014 129.5419 13.9567 0.0000 -12.1492 0.0000
# 3 -13.3219 13.9567 91.8723 0.0000 -0.8945 0.0000
# 4 0.0000 0.0000 0.0000 32.7489 0.0000 -5.4866
# 5 4.5396 -12.1492 -0.8945 0.0000 26.6509 0.0000
# 6 0.0000 0.0000 0.0000 -5.4866 0.0000 72.3819
#
#
#
# Elastic Compliance Matrix: (Units=1/GPa)
#
#
# Indices 1 2 3 4 5 6 
#
# 1 0.007482 -0.000381 0.001129 0.000000 -0.001410 0.000000
# 2 -0.000381 0.008216 -0.001267 0.000000 0.003768 0.000000
# 3 0.001129 -0.001267 0.011237 0.000000 -0.000393 0.000000
# 4 0.000000 0.000000 0.000000 0.030928 0.000000 0.002344
# 5 -0.001410 0.003768 -0.000393 0.000000 0.039467 0.000000
# 6 0.000000 0.000000 0.000000 0.002344 0.000000 0.013993
#
#
# Mechanical properties :
#
#
# Convention : Reuss Voigt Hill
#
# Bulk Modulus (GPa) = 38.61405 40.41355 39.51380
# Shear Modulus (GPa) = 41.32481 50.03721 45.68101
#
# Velocity S-wave (km/s) = 3.86145 4.24905 4.05988
# Velocity P-wave (km/s) = 5.81496 6.21728 6.01948
#
# Compressibility (1/GPa) = 0.02589731
#
# Stress axis : x y z
#
# Youngs Moduli (GPa) = 133.65718 121.71654 88.99175
#
# Poissons Ratio (x) = 0.04638 -0.10048
# Poissons Ratio (y) = 0.05093 0.11272
# Poissons Ratio (z) = -0.15091 0.15417
#
# Static dielectric constant tensor:
#      x y z
#    x 2.529700 0.000000 1.265600 
#    y 0.000000 2.351640 0.000000 
#    z 1.265600 0.000000 6.954820 
# 
# From -- ./inp_files/41426.got.cif
#   From: 2010.05.17/outbox.cif.g08.bks.cpg/sg14_21_cif.got.tgz:41426.got - 2010.06.03 17:49:19.
