data_PCOD9247085
_publ_section_title
;
Structure prediction by ZEFSAII (Michael W. Deem and Ramdas Pophale) SiO2 
 PCOD9247085
Probable space group: P 21/C
;
_chemical_formula_sum "Si O2"
_cell_formula_units_Z 26
_cell_length_a 10.481332
_cell_length_b 11.736205
_cell_length_c 18.823506
_cell_angle_alpha 90.000000
_cell_angle_beta 26.043289
_cell_angle_gamma 90.000000
_cell_volume 1016.620246
_symmetry_space_group_name_H-M "P 21/C"
_symmetry_group_IT_number 14
_symmetry_cell_setting 'monoclinic'
loop_
_space_group_symop_operation_xyz
x,y,z
-x,1/2+y,1/2-z
-x,-y,-z
x,1/2-y,1/2+z
loop_
_atom_site_type_symbol
_atom_site_label
_atom_site_fract_x
_atom_site_fract_y
_atom_site_fract_z
Si Si1 0.000000 0.500000 0.500000
Si Si2 0.494461 0.381879 0.162890
Si Si3 0.397261 0.670635 0.304621
Si Si4 0.529228 0.993804 0.871994
Si Si5 0.519189 0.135782 0.496564
Si Si6 0.194279 0.346590 0.638067
Si Si7 0.082209 0.424916 0.027816
O O1 0.221375 0.421118 0.343556
O O2 0.139251 0.617010 0.389645
O O3 0.656776 0.287292 0.128599
O O4 0.404989 0.333397 0.132450
O O5 0.705607 0.486264 0.039139
O O6 0.411034 0.569843 0.359901
O O7 0.700395 0.670029 0.111191
O O8 0.663164 0.904797 0.861898
O O9 0.784260 0.081664 0.720478
O O10 0.274399 0.060873 0.038122
O O11 0.329235 0.225005 0.547049
O O12 0.854701 0.167243 0.320391
O O13 0.500000 0.000000 0.500000
O O14 0.000000 0.500000 0.000000
#
# Coordination Sequence:
#
# PCOD9247085 Si02
#       7
#     2   4   4   4   4   4   4
#     4  10  26  40  66 106 136 176 242 294 340 432
#     4  11  23  43  69  98 136 184 230 293 356 422
#     4  10  22  41  72  99 137 182 233 288 363 420
#     4  10  21  43  72  98 142 181 245 281 372 419
#     4  12  29  47  76 109 144 186 253 295 361 442
#     4  11  26  45  74 106 141 195 235 306 360 432
#     4   9  20  40  63 101 126 174 230 284 337 427
#
# _framework density 25.574939000000001
#
# number of rings (size 3 to 8) (size 9 to 14) (size 15 to 20)
#    0.000    1.538    3.077    0.000   12.923    0.000 
#    2.769    3.077    0.000    0.000    0.000    0.000 
#    0.000    0.000    0.000    0.000    0.000    0.000 
#
# Total GULP energy -144956.344461 kJ/mol
# GULP energy per Si atom -5575.244018 kJ/mol
# Density = 2.551673 g / cm^3
# Si number density = 25.574939 Si / 1000 Ang^3
#
#
#
# Elastic Constant Matrix: (Units=GPa)
#
#
# Indices 1 2 3 4 5 6 
#
# 1 57.7297 13.0418 3.0364 0.0000 13.3758 0.0000
# 2 13.0418 136.8933 38.1408 0.0000 -3.5518 0.0000
# 3 3.0364 38.1408 106.4666 0.0000 9.8606 0.0000
# 4 0.0000 0.0000 0.0000 37.0435 0.0000 -2.0346
# 5 13.3758 -3.5518 9.8606 0.0000 29.0583 0.0000
# 6 0.0000 0.0000 0.0000 -2.0346 0.0000 27.9768
#
#
#
# Elastic Compliance Matrix: (Units=1/GPa)
#
#
# Indices 1 2 3 4 5 6 
#
# 1 0.020147 -0.002530 0.001259 0.000000 -0.010010 0.000000
# 2 -0.002530 0.008552 -0.003300 0.000000 0.003330 0.000000
# 3 0.001259 -0.003300 0.010975 0.000000 -0.004707 0.000000
# 4 0.000000 0.000000 0.000000 0.027104 0.000000 0.001971
# 5 -0.010010 0.003330 -0.004707 0.000000 0.041026 0.000000
# 6 0.000000 0.000000 0.000000 0.001971 0.000000 0.035887
#
#
# Mechanical properties :
#
#
# Convention : Reuss Voigt Hill
#
# Bulk Modulus (GPa) = 32.75295 45.50308 39.12801
# Shear Modulus (GPa) = 30.67324 35.27375 32.97350
#
# Velocity S-wave (km/s) = 3.46692 3.71783 3.59456
# Velocity P-wave (km/s) = 5.37219 6.02166 5.70617
#
# Compressibility (1/GPa) = 0.03053160
#
# Stress axis : x y z
#
# Youngs Moduli (GPa) = 49.63587 116.93516 91.11787
#
# Poissons Ratio (x) = 0.29583 -0.11470
# Poissons Ratio (y) = 0.12557 0.30067
# Poissons Ratio (z) = -0.06248 0.38586
#
# Static dielectric constant tensor:
#      x y z
#    x 2.203360 0.000000 -0.008240 
#    y 0.000000 2.344350 0.000000 
#    z -0.008240 0.000000 1.936630 
# 
# From -- ./inp_files/73915.got.cif
#   From: 2010.05.17/outbox.cif.g08.bks.cpg/sg14_37_cif.got.tgz:73915.got - 2010.06.03 17:49:19.
