data_PCOD9247631
_publ_section_title
;
Structure prediction by ZEFSAII (Michael W. Deem and Ramdas Pophale) SiO2 
 PCOD9247631
Probable space group: P 21/C
;
_chemical_formula_sum "Si O2"
_cell_formula_units_Z 32
_cell_length_a 7.764545
_cell_length_b 18.659207
_cell_length_c 9.710968
_cell_angle_alpha 90.000000
_cell_angle_beta 86.144117
_cell_angle_gamma 90.000000
_cell_volume 1403.742709
_symmetry_space_group_name_H-M "P 21/C"
_symmetry_group_IT_number 14
_symmetry_cell_setting 'monoclinic'
loop_
_space_group_symop_operation_xyz
x,y,z
-x,1/2+y,1/2-z
-x,-y,-z
x,1/2-y,1/2+z
loop_
_atom_site_type_symbol
_atom_site_label
_atom_site_fract_x
_atom_site_fract_y
_atom_site_fract_z
Si Si1 0.183585 0.223448 0.335364
Si Si2 0.316344 0.172345 0.048776
Si Si3 0.644737 0.985641 0.877609
Si Si4 0.788523 0.186527 0.415334
Si Si5 0.156674 0.972346 0.651222
Si Si6 0.696361 0.299929 0.624579
Si Si7 0.138918 0.939495 0.957663
Si Si8 0.240230 0.061460 0.397550
O O1 0.231273 0.220901 0.172491
O O2 0.260641 0.291681 0.409700
O O3 0.254568 0.147131 0.388988
O O4 0.978920 0.215833 0.368022
O O5 0.265264 0.089615 0.077986
O O6 0.521102 0.171530 0.065840
O O7 0.621727 0.972373 0.716639
O O8 0.500000 0.000000 0.000000
O O9 0.758565 0.055138 0.904016
O O10 0.787512 0.101458 0.423887
O O11 0.731996 0.224104 0.556242
O O12 0.673733 0.204961 0.288770
O O13 0.211836 0.970011 0.807348
O O14 0.946602 0.965508 0.654000
O O15 0.232488 0.035134 0.554275
O O16 0.854081 0.355252 0.581672
O O17 0.000000 0.000000 0.000000
#
# Coordination Sequence:
#
# PCOD9247631 Si02
#       8
#     4   4   4   4   4   4   4   4
#     4  10  22  39  63  90 121 162 208 256 307 368
#     4  11  23  41  62  85 127 166 203 255 315 375
#     4  11  22  40  61  90 124 160 205 254 310 373
#     4  10  22  39  62  90 120 159 209 257 307 365
#     4   9  19  38  61  90 120 153 200 255 307 356
#     4  11  23  41  61  88 126 165 205 257 313 370
#     4  11  22  38  64  92 120 161 210 258 306 365
#     4   9  19  38  62  88 122 157 196 254 307 361
#
# _framework density 22.796199999999999
#
# number of rings (size 3 to 8) (size 9 to 14) (size 15 to 20)
#    0.000    1.750    2.500    1.500    3.500    2.000 
#    4.500    0.625    0.000    0.000    0.000    0.000 
#    0.000    0.000    0.000    0.000    0.000    0.000 
#
# Total GULP energy -178353.061683 kJ/mol
# GULP energy per Si atom -5573.533178 kJ/mol
# Density = 2.274431 g / cm^3
# Si number density = 22.796200 Si / 1000 Ang^3
#
#
#
# Elastic Constant Matrix: (Units=GPa)
#
#
# Indices 1 2 3 4 5 6 
#
# 1 34.5938 1.6338 -8.5769 0.0000 2.5135 0.0000
# 2 1.6338 34.9835 31.1599 0.0000 -1.8364 0.0000
# 3 -8.5769 31.1599 60.7684 0.0000 -2.9124 0.0000
# 4 0.0000 0.0000 0.0000 48.1666 0.0000 -4.9861
# 5 2.5135 -1.8364 -2.9124 0.0000 27.6062 0.0000
# 6 0.0000 0.0000 0.0000 -4.9861 0.0000 23.1770
#
#
#
# Elastic Compliance Matrix: (Units=1/GPa)
#
#
# Indices 1 2 3 4 5 6 
#
# 1 0.031958 -0.010189 0.009612 0.000000 -0.002573 0.000000
# 2 -0.010189 0.055876 -0.030018 0.000000 0.001478 0.000000
# 3 0.009612 -0.030018 0.033235 0.000000 0.000634 0.000000
# 4 0.000000 0.000000 0.000000 0.021234 0.000000 0.004568
# 5 -0.002573 0.001478 0.000634 0.000000 0.036623 0.000000
# 6 0.000000 0.000000 0.000000 0.004568 0.000000 0.044129
#
#
# Mechanical properties :
#
#
# Convention : Reuss Voigt Hill
#
# Bulk Modulus (GPa) = 16.70055 19.86438 18.28247
# Shear Modulus (GPa) = 16.43625 26.86521 21.65073
#
# Velocity S-wave (km/s) = 2.68807 3.43665 3.08515
# Velocity P-wave (km/s) = 4.12022 4.94775 4.55283
#
# Compressibility (1/GPa) = 0.05987826
#
# Stress axis : x y z
#
# Youngs Moduli (GPa) = 31.29097 17.89688 30.08850
#
# Poissons Ratio (x) = 0.18235 -0.28920
# Poissons Ratio (y) = 0.31882 0.90321
# Poissons Ratio (z) = -0.30076 0.53723
#
# Static dielectric constant tensor:
#      x y z
#    x 2.098850 0.000000 -0.004070 
#    y 0.000000 1.813980 0.000000 
#    z -0.004070 0.000000 1.793180 
# 
# From -- ./inp_files/10200.got.cif
#   From: 2010.05.17/outbox.cif.g08.bks.cpg/sg14_6_cif.got.tgz:10200.got - 2010.06.03 17:49:19.
