data_PCOD9247676
_publ_section_title
;
Structure prediction by ZEFSAII (Michael W. Deem and Ramdas Pophale) SiO2 
 PCOD9247676
Probable space group: P 21/C
;
_chemical_formula_sum "Si O2"
_cell_formula_units_Z 24
_cell_length_a 10.991924
_cell_length_b 10.695596
_cell_length_c 12.293712
_cell_angle_alpha 90.000000
_cell_angle_beta 131.895795
_cell_angle_gamma 90.000000
_cell_volume 1075.833576
_symmetry_space_group_name_H-M "P 21/C"
_symmetry_group_IT_number 14
_symmetry_cell_setting 'monoclinic'
loop_
_space_group_symop_operation_xyz
x,y,z
-x,1/2+y,1/2-z
-x,-y,-z
x,1/2-y,1/2+z
loop_
_atom_site_type_symbol
_atom_site_label
_atom_site_fract_x
_atom_site_fract_y
_atom_site_fract_z
Si Si1 0.592491 0.243253 0.210693
Si Si2 0.652404 0.084007 0.060151
Si Si3 0.120076 0.062867 0.161628
Si Si4 0.981995 0.532177 0.156423
Si Si5 0.566708 0.494895 0.277437
Si Si6 0.958425 0.299517 0.990292
O O1 0.606063 0.214684 0.089515
O O2 0.490674 0.367753 0.179939
O O3 0.782965 0.257975 0.356555
O O4 0.530371 0.116040 0.234530
O O5 0.820866 0.035147 0.211558
O O6 0.660496 0.066375 0.936926
O O7 0.500000 0.000000 0.000000
O O8 0.091168 0.020623 0.267650
O O9 0.070066 0.207125 0.124661
O O10 0.303242 0.042851 0.231819
O O11 0.000000 0.000000 0.000000
O O12 0.928664 0.420177 0.047070
O O13 0.953570 0.658011 0.069081
#
# Coordination Sequence:
#
# PCOD9247676 Si02
#       6
#     4   4   4   4   4   4
#     4  10  22  41  63  88 127 164 210 257 316 378
#     4   9  19  37  62  85 122 167 208 252 310 376
#     4  12  23  38  66  95 125 162 214 258 318 376
#     4  10  22  39  64  96 127 167 212 262 319 376
#     4  11  23  41  63  94 122 167 210 262 317 381
#     4  10  23  42  63  92 130 166 208 267 314 376
#
# _framework density 22.308284
#
# number of rings (size 3 to 8) (size 9 to 14) (size 15 to 20)
#    0.000    1.667    3.333    0.000    2.333    6.667 
#    0.000    6.667    0.000    0.000    0.000    0.000 
#    0.000    0.000    0.000    0.000    0.000    0.000 
#
# Total GULP energy -133850.309615 kJ/mol
# GULP energy per Si atom -5577.096234 kJ/mol
# Density = 2.225751 g / cm^3
# Si number density = 22.308284 Si / 1000 Ang^3
#
#
#
# Elastic Constant Matrix: (Units=GPa)
#
#
# Indices 1 2 3 4 5 6 
#
# 1 114.7736 20.7755 17.7092 0.0000 -26.4374 0.0000
# 2 20.7755 82.2565 -14.6448 0.0000 -2.9398 0.0000
# 3 17.7092 -14.6448 32.7327 0.0000 -17.4237 0.0000
# 4 0.0000 0.0000 0.0000 16.8562 0.0000 6.3801
# 5 -26.4374 -2.9398 -17.4237 0.0000 30.9267 0.0000
# 6 0.0000 0.0000 0.0000 6.3801 0.0000 3.8506
#
#
#
# Elastic Compliance Matrix: (Units=1/GPa)
#
#
# Indices 1 2 3 4 5 6 
#
# 1 0.011629 -0.003348 -0.003810 0.000000 0.007476 0.000000
# 2 -0.003348 0.015172 0.011204 0.000000 0.004892 0.000000
# 3 -0.003810 0.011204 0.052074 0.000000 0.027146 0.000000
# 4 0.000000 0.000000 0.000000 0.159116 0.000000 -0.263646
# 5 0.007476 0.004892 0.027146 0.000000 0.054484 0.000000
# 6 0.000000 0.000000 0.000000 -0.263646 0.000000 0.696550
#
#
# Mechanical properties :
#
#
# Convention : Reuss Voigt Hill
#
# Bulk Modulus (GPa) = 11.49873 30.82696 21.16285
# Shear Modulus (GPa) = 4.95087 24.05489 14.50288
#
# Velocity S-wave (km/s) = 1.49135 3.28730 2.55250
# Velocity P-wave (km/s) = 2.85152 5.31574 4.26546
#
# Compressibility (1/GPa) = 0.08696615
#
# Stress axis : x y z
#
# Youngs Moduli (GPa) = 85.99344 65.90979 19.20337
#
# Poissons Ratio (x) = 0.22068 0.07316
# Poissons Ratio (y) = 0.28792 -0.21515
# Poissons Ratio (z) = 0.32763 -0.73843
#
# Static dielectric constant tensor:
#      x y z
#    x 1.895400 0.000000 -0.031100 
#    y 0.000000 1.945950 0.000000 
#    z -0.031100 0.000000 1.831160 
# 
# From -- ./inp_files/28771.got.cif
#   From: 2010.05.17/outbox.cif.g08.bks.cpg/sg14_15_cif.got.tgz:28771.got - 2010.06.03 17:49:19.
