data_PCOD9247929
_publ_section_title
;
Structure prediction by ZEFSAII (Michael W. Deem and Ramdas Pophale) SiO2 
 PCOD9247929
Probable space group: P 21/C
;
_chemical_formula_sum "Si O2"
_cell_formula_units_Z 24
_cell_length_a 9.044170
_cell_length_b 13.203256
_cell_length_c 9.770449
_cell_angle_alpha 90.000000
_cell_angle_beta 75.596240
_cell_angle_gamma 90.000000
_cell_volume 1130.040163
_symmetry_space_group_name_H-M "P 21/C"
_symmetry_group_IT_number 14
_symmetry_cell_setting 'monoclinic'
loop_
_space_group_symop_operation_xyz
x,y,z
-x,1/2+y,1/2-z
-x,-y,-z
x,1/2-y,1/2+z
loop_
_atom_site_type_symbol
_atom_site_label
_atom_site_fract_x
_atom_site_fract_y
_atom_site_fract_z
Si Si1 0.576291 0.202119 0.518211
Si Si2 0.683437 0.077536 0.726109
Si Si3 0.891978 0.231573 0.829369
Si Si4 0.094571 0.201468 0.044692
Si Si5 0.626275 0.611521 0.397249
Si Si6 0.298580 0.379817 0.919207
O O1 0.581038 0.158668 0.670711
O O2 0.747682 0.207945 0.423560
O O3 0.510750 0.316007 0.529416
O O4 0.461129 0.135146 0.454980
O O5 0.820248 0.136075 0.766052
O O6 0.598198 0.002562 0.852056
O O7 0.737962 0.997372 0.597219
O O8 0.982900 0.299571 0.699948
O O9 0.998833 0.195051 0.928174
O O10 0.233132 0.122386 0.030812
O O11 0.176625 0.311747 0.024679
O O12 0.687448 0.660989 0.239659
#
# Coordination Sequence:
#
# PCOD9247929 Si02
#       6
#     4   4   4   4   4   4
#     4  11  21  40  69  94 130 171 214 272 319 376
#     4  10  22  40  66  99 123 171 221 262 318 387
#     4  12  23  39  66  97 132 166 218 266 321 369
#     4  11  22  43  65  93 133 177 203 270 324 379
#     4   9  22  42  64  93 128 170 217 256 323 384
#     4   9  21  41  64  90 128 171 218 250 322 391
#
# _framework density 21.238181999999998
#
# number of rings (size 3 to 8) (size 9 to 14) (size 15 to 20)
#    1.000    0.667    3.333    1.500    0.000    2.000 
#    3.000    0.000    3.667    0.000    0.000    0.000 
#    0.000    0.000    0.000    0.000    0.000    0.000 
#
# Total GULP energy -133888.358056 kJ/mol
# GULP energy per Si atom -5578.681586 kJ/mol
# Density = 2.118984 g / cm^3
# Si number density = 21.238182 Si / 1000 Ang^3
#
#
#
# Elastic Constant Matrix: (Units=GPa)
#
#
# Indices 1 2 3 4 5 6 
#
# 1 93.3983 28.0332 38.1757 0.0000 35.5862 0.0000
# 2 28.0332 97.5161 20.5190 0.0000 13.3484 0.0000
# 3 38.1757 20.5190 70.8407 0.0000 29.3055 0.0000
# 4 0.0000 0.0000 0.0000 44.5515 0.0000 5.5093
# 5 35.5862 13.3484 29.3055 0.0000 52.7839 0.0000
# 6 0.0000 0.0000 0.0000 5.5093 0.0000 10.8051
#
#
#
# Elastic Compliance Matrix: (Units=1/GPa)
#
#
# Indices 1 2 3 4 5 6 
#
# 1 0.016435 -0.002639 -0.004913 0.000000 -0.007685 0.000000
# 2 -0.002639 0.011414 -0.001851 0.000000 -0.000080 0.000000
# 3 -0.004913 -0.001851 0.020428 0.000000 -0.007561 0.000000
# 4 0.000000 0.000000 0.000000 0.023956 0.000000 -0.012215
# 5 -0.007685 -0.000080 -0.007561 0.000000 0.028344 0.000000
# 6 0.000000 0.000000 0.000000 -0.012215 0.000000 0.098777
#
#
# Mechanical properties :
#
#
# Convention : Reuss Voigt Hill
#
# Bulk Modulus (GPa) = 33.93203 48.35675 41.14439
# Shear Modulus (GPa) = 21.93129 33.29659 27.61394
#
# Velocity S-wave (km/s) = 3.21695 3.96380 3.60974
# Velocity P-wave (km/s) = 5.45985 6.61568 6.06536
#
# Compressibility (1/GPa) = 0.02947068
#
# Stress axis : x y z
#
# Youngs Moduli (GPa) = 60.84431 87.61407 48.95267
#
# Poissons Ratio (x) = 0.23120 0.24052
# Poissons Ratio (y) = 0.16056 0.09061
# Poissons Ratio (z) = 0.29895 0.16217
#
# Static dielectric constant tensor:
#      x y z
#    x 1.761120 0.000000 -0.027570 
#    y 0.000000 1.758610 0.000000 
#    z -0.027570 0.000000 1.790140 
# 
# From -- ./inp_files/8544.got.cif
#   From: 2010.05.17/outbox.cif.g08.bks.cpg/sg14_5_cif.got.tgz:8544.got - 2010.06.03 17:49:19.
