data_PCOD9247403
_publ_section_title
;
Structure prediction by ZEFSAII (Michael W. Deem and Ramdas Pophale) SiO2 
 PCOD9247403
Probable space group: P 21/C
;
_chemical_formula_sum "Si O2"
_cell_formula_units_Z 28
_cell_length_a 5.415509
_cell_length_b 8.829041
_cell_length_c 24.521487
_cell_angle_alpha 90.000000
_cell_angle_beta 115.016681
_cell_angle_gamma 90.000000
_cell_volume 1062.469196
_symmetry_space_group_name_H-M "P 21/C"
_symmetry_group_IT_number 14
_symmetry_cell_setting 'monoclinic'
loop_
_space_group_symop_operation_xyz
x,y,z
-x,1/2+y,1/2-z
-x,-y,-z
x,1/2-y,1/2+z
loop_
_atom_site_type_symbol
_atom_site_label
_atom_site_fract_x
_atom_site_fract_y
_atom_site_fract_z
Si Si1 0.900099 0.320203 0.337090
Si Si2 0.763534 0.922304 0.675971
Si Si3 0.192439 0.868096 0.566523
Si Si4 0.258375 0.596143 0.364330
Si Si5 0.991468 0.631937 0.888346
Si Si6 0.695200 0.064707 0.970667
Si Si7 0.576078 0.207768 0.714399
O O1 0.933482 0.243320 0.398887
O O2 0.609852 0.276544 0.282521
O O3 0.111413 0.244093 0.313780
O O4 0.999447 0.490491 0.350946
O O5 0.487364 0.917379 0.615433
O O6 0.699833 0.038469 0.718138
O O7 0.974252 0.014614 0.658035
O O8 0.263131 0.745729 0.526578
O O9 0.026072 0.026731 0.559089
O O10 0.525276 0.497181 0.402696
O O11 0.262862 0.663183 0.303978
O O12 0.223820 0.742620 0.400546
O O13 0.706333 0.708146 0.844863
O O14 0.500000 0.000000 0.000000
O O15 0.000000 0.000000 0.000000
#
# Coordination Sequence:
#
# PCOD9247403 Si02
#       7
#     4   4   4   4   4   4   4
#     4  11  21  36  67 100 145 188 237 284 365 441
#     4   9  19  39  58  88 133 187 224 279 356 424
#     4  10  22  44  67  97 138 186 231 306 365 446
#     4  11  24  43  69 106 148 183 250 312 358 450
#     4   9  22  40  67  92 148 181 235 290 373 425
#     4  12  28  49  79 107 139 194 260 322 388 435
#     4  10  22  37  63 100 145 191 232 284 365 448
#
# _framework density 26.353707
#
# number of rings (size 3 to 8) (size 9 to 14) (size 15 to 20)
#    0.000    1.714    1.429    1.714    6.000    5.714 
#    0.000    1.429    0.000    0.000    0.000    0.000 
#    0.000    0.000    0.000    0.000    0.000    0.000 
#
# Total GULP energy -156301.621387 kJ/mol
# GULP energy per Si atom -5582.200764 kJ/mol
# Density = 2.629372 g / cm^3
# Si number density = 26.353707 Si / 1000 Ang^3
#
#
#
# Elastic Constant Matrix: (Units=GPa)
#
#
# Indices 1 2 3 4 5 6 
#
# 1 88.0147 27.7688 9.4235 0.0000 -0.0243 0.0000
# 2 27.7688 164.9985 28.6666 0.0000 5.8067 0.0000
# 3 9.4235 28.6666 50.3343 0.0000 -5.4697 0.0000
# 4 0.0000 0.0000 0.0000 30.0570 0.0000 10.7137
# 5 -0.0243 5.8067 -5.4697 0.0000 13.1291 0.0000
# 6 0.0000 0.0000 0.0000 10.7137 0.0000 50.7831
#
#
#
# Elastic Compliance Matrix: (Units=1/GPa)
#
#
# Indices 1 2 3 4 5 6 
#
# 1 0.012068 -0.001839 -0.001174 0.000000 0.000347 0.000000
# 2 -0.001839 0.007307 -0.004366 0.000000 -0.005054 0.000000
# 3 -0.001174 -0.004366 0.023864 0.000000 0.011871 0.000000
# 4 0.000000 0.000000 0.000000 0.035975 0.000000 -0.007590
# 5 0.000347 -0.005054 0.011871 0.000000 0.083348 0.000000
# 6 0.000000 0.000000 0.000000 -0.007590 0.000000 0.021293
#
#
# Mechanical properties :
#
#
# Convention : Reuss Voigt Hill
#
# Bulk Modulus (GPa) = 35.11366 48.34059 41.72712
# Shear Modulus (GPa) = 24.02617 34.62639 29.32628
#
# Velocity S-wave (km/s) = 3.02268 3.62872 3.33948
# Velocity P-wave (km/s) = 5.05322 5.99497 5.54413
#
# Compressibility (1/GPa) = 0.02847895
#
# Stress axis : x y z
#
# Youngs Moduli (GPa) = 82.86502 136.86218 41.90486
#
# Poissons Ratio (x) = 0.25171 0.04920
# Poissons Ratio (y) = 0.15240 0.18296
# Poissons Ratio (z) = 0.09730 0.59756
#
# Static dielectric constant tensor:
#      x y z
#    x 2.146960 0.000000 -0.041710 
#    y 0.000000 2.132020 0.000000 
#    z -0.041710 0.000000 2.172240 
# 
# From -- ./inp_files/78744.got.cif
#   From: 2010.05.17/outbox.cif.g08.bks.cpg/sg14_40_cif.got.tgz:78744.got - 2010.06.03 17:49:19.
