data_PCOD9247801
_publ_section_title
;
Structure prediction by ZEFSAII (Michael W. Deem and Ramdas Pophale) SiO2 
 PCOD9247801
Probable space group: P 21/C
;
_chemical_formula_sum "Si O2"
_cell_formula_units_Z 28
_cell_length_a 7.133878
_cell_length_b 6.094361
_cell_length_c 27.737087
_cell_angle_alpha 90.000000
_cell_angle_beta 58.560240
_cell_angle_gamma 90.000000
_cell_volume 1028.868737
_symmetry_space_group_name_H-M "P 21/C"
_symmetry_group_IT_number 14
_symmetry_cell_setting 'monoclinic'
loop_
_space_group_symop_operation_xyz
x,y,z
-x,1/2+y,1/2-z
-x,-y,-z
x,1/2-y,1/2+z
loop_
_atom_site_type_symbol
_atom_site_label
_atom_site_fract_x
_atom_site_fract_y
_atom_site_fract_z
Si Si1 0.738233 0.514727 0.495924
Si Si2 0.449323 0.142112 0.627551
Si Si3 0.254717 0.020438 0.745907
Si Si4 0.973123 0.718869 0.359032
Si Si5 0.716820 0.486855 0.003203
Si Si6 0.732804 0.887591 0.688291
Si Si7 0.731613 0.522635 0.613396
O O1 0.500000 0.500000 0.500000
O O2 0.822518 0.254882 0.479163
O O3 0.729627 0.523956 0.556193
O O4 0.822773 0.773932 0.479204
O O5 0.626746 0.024029 0.570341
O O6 0.569873 0.318316 0.645156
O O7 0.283384 0.269814 0.614835
O O8 0.288061 0.009769 0.684498
O O9 0.095424 0.849847 0.793002
O O10 0.502903 0.997507 0.733391
O O11 0.179565 0.251986 0.778004
O O12 0.041589 0.542125 0.389954
O O13 0.078861 0.952563 0.355825
O O14 0.500000 0.500000 0.000000
O O15 0.666193 0.733181 0.652325
#
# Coordination Sequence:
#
# PCOD9247801 Si02
#       7
#     4   4   4   4   4   4   4
#     4   9  18  35  67  97 120 164 219 271 332 402
#     4  11  23  40  64  94 123 175 222 274 335 398
#     4  11  21  36  58  84 122 169 217 261 321 394
#     4  11  25  39  57  93 130 169 222 272 326 403
#     4   9  19  39  65  97 124 163 220 277 333 402
#     4  11  20  39  59  83 127 171 214 266 328 393
#     4  10  22  40  62  86 127 170 214 266 341 396
#
# _framework density 27.214357
#
# number of rings (size 3 to 8) (size 9 to 14) (size 15 to 20)
#    0.000    1.714    2.857    1.714    4.000    0.000 
#   12.857    0.000    0.000   15.429    0.000    0.000 
#    0.000    0.000    0.000    0.000    0.000    0.000 
#
# Total GULP energy -156383.393360 kJ/mol
# GULP energy per Si atom -5585.121191 kJ/mol
# Density = 2.715242 g / cm^3
# Si number density = 27.214357 Si / 1000 Ang^3
#
#
#
# Elastic Constant Matrix: (Units=GPa)
#
#
# Indices 1 2 3 4 5 6 
#
# 1 98.6168 22.1681 3.1305 0.0000 13.5247 0.0000
# 2 22.1681 177.5174 80.3180 0.0000 -11.8335 0.0000
# 3 3.1305 80.3180 128.8462 0.0000 21.1160 0.0000
# 4 0.0000 0.0000 0.0000 68.6232 0.0000 1.2748
# 5 13.5247 -11.8335 21.1160 0.0000 39.1807 0.0000
# 6 0.0000 0.0000 0.0000 1.2748 0.0000 37.4175
#
#
#
# Elastic Compliance Matrix: (Units=1/GPa)
#
#
# Indices 1 2 3 4 5 6 
#
# 1 0.011630 -0.003101 0.002701 0.000000 -0.006407 0.000000
# 2 -0.003101 0.009921 -0.007432 0.000000 0.008073 0.000000
# 3 0.002701 -0.007432 0.014094 0.000000 -0.010773 0.000000
# 4 0.000000 0.000000 0.000000 0.014582 0.000000 -0.000497
# 5 -0.006407 0.008073 -0.010773 0.000000 0.035978 0.000000
# 6 0.000000 0.000000 0.000000 -0.000497 0.000000 0.026742
#
#
# Mechanical properties :
#
#
# Convention : Reuss Voigt Hill
#
# Bulk Modulus (GPa) = 50.05019 68.46818 59.25919
# Shear Modulus (GPa) = 36.96194 49.00184 42.98189
#
# Velocity S-wave (km/s) = 3.68934 4.24794 3.97846
# Velocity P-wave (km/s) = 6.04809 7.01950 6.55182
#
# Compressibility (1/GPa) = 0.01997994
#
# Stress axis : x y z
#
# Youngs Moduli (GPa) = 85.98182 100.79187 70.95161
#
# Poissons Ratio (x) = 0.31260 -0.19162
# Poissons Ratio (y) = 0.26667 0.52733
# Poissons Ratio (z) = -0.23221 0.74911
#
# Static dielectric constant tensor:
#      x y z
#    x 2.126970 0.000000 -0.101930 
#    y 0.000000 2.205390 0.000000 
#    z -0.101930 0.000000 2.424020 
# 
# From -- ./inp_files/79195.got.cif
#   From: 2010.05.17/outbox.cif.g08.bks.cpg/sg14_40_cif.got.tgz:79195.got - 2010.06.03 17:49:19.
