data_PCOD9247954
_publ_section_title
;
Structure prediction by ZEFSAII (Michael W. Deem and Ramdas Pophale) SiO2 
 PCOD9247954
Probable space group: P 21/C
;
_chemical_formula_sum "Si O2"
_cell_formula_units_Z 32
_cell_length_a 17.670068
_cell_length_b 8.841315
_cell_length_c 18.603672
_cell_angle_alpha 90.000000
_cell_angle_beta 148.863377
_cell_angle_gamma 90.000000
_cell_volume 1502.837261
_symmetry_space_group_name_H-M "P 21/C"
_symmetry_group_IT_number 14
_symmetry_cell_setting 'monoclinic'
loop_
_space_group_symop_operation_xyz
x,y,z
-x,1/2+y,1/2-z
-x,-y,-z
x,1/2-y,1/2+z
loop_
_atom_site_type_symbol
_atom_site_label
_atom_site_fract_x
_atom_site_fract_y
_atom_site_fract_z
Si Si1 0.386406 0.301602 0.485078
Si Si2 0.849269 0.330064 0.992644
Si Si3 0.354082 0.048944 0.111054
Si Si4 0.285575 0.752464 0.768862
Si Si5 0.596947 0.197574 0.391080
Si Si6 0.119055 0.982220 0.730419
Si Si7 0.722760 0.036756 0.622628
Si Si8 0.954906 0.041597 0.161558
O O1 0.389844 0.350662 0.570918
O O2 0.551917 0.322437 0.592651
O O3 0.254836 0.398878 0.343310
O O4 0.348406 0.125606 0.447931
O O5 0.937115 0.204326 0.109921
O O6 0.971543 0.453086 0.075280
O O7 0.773553 0.264144 0.860045
O O8 0.718558 0.382091 0.938757
O O9 0.445121 0.117398 0.249935
O O10 0.395415 0.874573 0.124644
O O11 0.180230 0.053336 0.980123
O O12 0.288262 0.584641 0.803580
O O13 0.176325 0.841913 0.732069
O O14 0.642424 0.163751 0.509221
O O15 0.076729 0.947329 0.778997
O O16 0.888976 0.025557 0.730096
#
# Coordination Sequence:
#
# PCOD9247954 Si02
#       8
#     4   4   4   4   4   4   4   4
#     4  11  23  44  66  93 137 178 222 272 336 395
#     4  11  22  44  66  95 141 167 218 278 332 395
#     4  10  22  40  68 101 131 168 221 284 327 392
#     4  12  26  42  64  98 135 179 218 277 337 403
#     4  11  22  42  68 101 130 171 223 276 331 396
#     4  11  23  43  72  97 128 177 228 274 334 399
#     4  12  24  43  69  95 133 177 227 271 335 399
#     4  10  23  42  70  97 127 172 223 276 326 393
#
# _framework density 21.293057999999998
#
# number of rings (size 3 to 8) (size 9 to 14) (size 15 to 20)
#    0.000    1.000    3.750    4.125    1.750    0.500 
#    2.250    0.000    0.000    0.000    0.000    0.000 
#    0.000    0.000    0.000    0.000    0.000    0.000 
#
# Total GULP energy -178932.464660 kJ/mol
# GULP energy per Si atom -5591.639521 kJ/mol
# Density = 2.124459 g / cm^3
# Si number density = 21.293058 Si / 1000 Ang^3
#
#
#
# Elastic Constant Matrix: (Units=GPa)
#
#
# Indices 1 2 3 4 5 6 
#
# 1 47.3436 5.2389 20.9643 0.0000 3.8161 0.0000
# 2 5.2389 59.5193 18.4899 0.0000 -4.6125 0.0000
# 3 20.9643 18.4899 96.3906 0.0000 0.4912 0.0000
# 4 0.0000 0.0000 0.0000 28.7308 0.0000 -4.4227
# 5 3.8161 -4.6125 0.4912 0.0000 27.8131 0.0000
# 6 0.0000 0.0000 0.0000 -4.4227 0.0000 27.4080
#
#
#
# Elastic Compliance Matrix: (Units=1/GPa)
#
#
# Indices 1 2 3 4 5 6 
#
# 1 0.023681 -0.000792 -0.004982 0.000000 -0.003293 0.000000
# 2 -0.000792 0.018150 -0.003326 0.000000 0.003177 0.000000
# 3 -0.004982 -0.003326 0.012096 0.000000 -0.000082 0.000000
# 4 0.000000 0.000000 0.000000 0.035692 0.000000 0.005760
# 5 -0.003293 0.003177 -0.000082 0.000000 0.036934 0.000000
# 6 0.000000 0.000000 0.000000 0.005760 0.000000 0.037415
#
#
# Mechanical properties :
#
#
# Convention : Reuss Voigt Hill
#
# Bulk Modulus (GPa) = 27.98836 32.51552 30.25194
# Shear Modulus (GPa) = 25.76280 27.36107 26.56193
#
# Velocity S-wave (km/s) = 3.48216 3.58855 3.53575
# Velocity P-wave (km/s) = 5.41665 5.69858 5.55940
#
# Compressibility (1/GPa) = 0.03572913
#
# Stress axis : x y z
#
# Youngs Moduli (GPa) = 42.22756 55.09548 82.66992
#
# Poissons Ratio (x) = 0.04363 0.41185
# Poissons Ratio (y) = 0.03344 0.27493
# Poissons Ratio (z) = 0.21037 0.18322
#
# Static dielectric constant tensor:
#      x y z
#    x 1.733320 0.000000 0.008490 
#    y 0.000000 1.787010 0.000000 
#    z 0.008490 0.000000 1.772350 
# 
# From -- ./inp_files/69176.got.cif
#   From: 2010.05.17/outbox.cif.g08.bks.cpg/sg14_35_cif.got.tgz:69176.got - 2010.06.03 17:49:19.
